MODEL 1
REMARK VINA RESULT:      -5.8      0.000      0.000
REMARK  5 active torsions:
REMARK  status: ('A' for Active; 'I' for Inactive)
REMARK    1  A    between atoms: S_2  and  N_4 
REMARK    2  A    between atoms: S_2  and  N_14 
REMARK    3  A    between atoms: N_4  and  C_5 
REMARK    4  A    between atoms: C_5  and  C_6 
REMARK    5  A    between atoms: C_6  and  C_7 
ROOT
HETATM    1  N   UNL     1     -43.487 -55.204  14.683  1.00  0.00    -0.202 NA
HETATM    2  H   UNL     1     -43.316 -56.040  14.126  1.00  0.00     0.141 HD
ENDROOT
BRANCH   1   3
HETATM    3  S   UNL     1     -44.855 -54.460  14.049  1.00  0.00     0.298 S 
HETATM    4  O   UNL     1     -44.735 -54.425  12.612  1.00  0.00    -0.188 OA
HETATM    5  O   UNL     1     -45.980 -55.076  14.710  1.00  0.00    -0.188 OA
BRANCH   3   6
HETATM    6  N   UNL     1     -44.615 -52.909  14.657  1.00  0.00    -0.298 N 
HETATM    7  C   UNL     1     -45.096 -52.590  16.018  1.00  0.00     0.136 C 
HETATM    8  C   UNL     1     -46.596 -52.313  16.032  1.00  0.00     0.021 C 
HETATM    9  C   UNL     1     -47.054 -51.346  14.939  1.00  0.00     0.003 C 
HETATM   10  C   UNL     1     -46.374 -51.558  13.586  1.00  0.00     0.021 C 
HETATM   11  C   UNL     1     -44.878 -51.796  13.720  1.00  0.00     0.136 C 
ENDBRANCH   3   6
ENDBRANCH   1   3
BRANCH   1  12
HETATM   12  C   UNL     1     -42.295 -54.330  14.769  1.00  0.00     0.110 C 
BRANCH  12  13
HETATM   13  C   UNL     1     -41.483 -54.462  13.480  1.00  0.00     0.055 C 
BRANCH  13  14
HETATM   14  C   UNL     1     -40.937 -53.137  13.034  1.00  0.00    -0.042 A 
HETATM   15  C   UNL     1     -39.866 -52.527  13.691  1.00  0.00     0.010 A 
HETATM   16  C   UNL     1     -39.366 -51.318  13.217  1.00  0.00     0.018 A 
HETATM   17  C   UNL     1     -39.952 -50.759  12.098  1.00  0.00     0.087 A 
HETATM   18  N   UNL     1     -40.990 -51.313  11.435  1.00  0.00    -0.375 N 
HETATM   19  C   UNL     1     -41.456 -52.486  11.915  1.00  0.00     0.094 A 
ATOM     20  HN  UNL     1     -41.402 -50.868  10.614  1.00  0.00     0.164 HD
ENDBRANCH  13  14
ENDBRANCH  12  13
ENDBRANCH   1  12
TORSDOF 5
ENDMDL
MODEL 2
REMARK VINA RESULT:      -5.5      1.443      1.952
REMARK  5 active torsions:
REMARK  status: ('A' for Active; 'I' for Inactive)
REMARK    1  A    between atoms: S_2  and  N_4 
REMARK    2  A    between atoms: S_2  and  N_14 
REMARK    3  A    between atoms: N_4  and  C_5 
REMARK    4  A    between atoms: C_5  and  C_6 
REMARK    5  A    between atoms: C_6  and  C_7 
ROOT
HETATM    1  N   UNL     1     -42.507 -53.206  12.357  1.00  0.00    -0.202 NA
HETATM    2  H   UNL     1     -42.736 -52.228  12.180  1.00  0.00     0.141 HD
ENDROOT
BRANCH   1   3
HETATM    3  S   UNL     1     -43.683 -53.807  13.396  1.00  0.00     0.298 S 
HETATM    4  O   UNL     1     -44.837 -54.182  12.618  1.00  0.00    -0.188 OA
HETATM    5  O   UNL     1     -43.003 -54.742  14.261  1.00  0.00    -0.188 OA
BRANCH   3   6
HETATM    6  N   UNL     1     -44.029 -52.394  14.244  1.00  0.00    -0.298 N 
HETATM    7  C   UNL     1     -44.800 -52.484  15.502  1.00  0.00     0.136 C 
HETATM    8  C   UNL     1     -46.294 -52.634  15.235  1.00  0.00     0.021 C 
HETATM    9  C   UNL     1     -46.839 -51.639  14.211  1.00  0.00     0.003 C 
HETATM   10  C   UNL     1     -45.916 -51.396  13.016  1.00  0.00     0.021 C 
HETATM   11  C   UNL     1     -44.461 -51.238  13.431  1.00  0.00     0.136 C 
ENDBRANCH   3   6
ENDBRANCH   1   3
BRANCH   1  12
HETATM   12  C   UNL     1     -41.116 -53.382  12.833  1.00  0.00     0.110 C 
BRANCH  12  13
HETATM   13  C   UNL     1     -40.693 -52.139  13.617  1.00  0.00     0.055 C 
BRANCH  13  14
HETATM   14  C   UNL     1     -39.655 -51.347  12.876  1.00  0.00    -0.042 A 
HETATM   15  C   UNL     1     -38.311 -51.368  13.251  1.00  0.00     0.010 A 
HETATM   16  C   UNL     1     -37.377 -50.650  12.509  1.00  0.00     0.018 A 
HETATM   17  C   UNL     1     -37.819 -49.937  11.411  1.00  0.00     0.087 A 
HETATM   18  N   UNL     1     -39.110 -49.887  11.015  1.00  0.00    -0.375 N 
HETATM   19  C   UNL     1     -39.995 -50.593  11.753  1.00  0.00     0.094 A 
ATOM     20  HN  UNL     1     -39.401 -49.345  10.203  1.00  0.00     0.164 HD
ENDBRANCH  13  14
ENDBRANCH  12  13
ENDBRANCH   1  12
TORSDOF 5
ENDMDL
MODEL 3
REMARK VINA RESULT:      -5.5      2.132      5.994
REMARK  5 active torsions:
REMARK  status: ('A' for Active; 'I' for Inactive)
REMARK    1  A    between atoms: S_2  and  N_4 
REMARK    2  A    between atoms: S_2  and  N_14 
REMARK    3  A    between atoms: N_4  and  C_5 
REMARK    4  A    between atoms: C_5  and  C_6 
REMARK    5  A    between atoms: C_6  and  C_7 
ROOT
HETATM    1  N   UNL     1     -46.321 -53.356  13.243  1.00  0.00    -0.202 NA
HETATM    2  H   UNL     1     -46.959 -53.772  12.566  1.00  0.00     0.141 HD
ENDROOT
BRANCH   1   3
HETATM    3  S   UNL     1     -45.043 -54.429  13.441  1.00  0.00     0.298 S 
HETATM    4  O   UNL     1     -45.560 -55.668  13.967  1.00  0.00    -0.188 OA
HETATM    5  O   UNL     1     -44.288 -54.373  12.212  1.00  0.00    -0.188 OA
BRANCH   3   6
HETATM    6  N   UNL     1     -44.209 -53.622  14.660  1.00  0.00    -0.298 N 
HETATM    7  C   UNL     1     -43.141 -52.669  14.289  1.00  0.00     0.136 C 
HETATM    8  C   UNL     1     -41.842 -53.390  13.942  1.00  0.00     0.021 C 
HETATM    9  C   UNL     1     -41.436 -54.453  14.964  1.00  0.00     0.003 C 
HETATM   10  C   UNL     1     -42.600 -55.287  15.501  1.00  0.00     0.021 C 
HETATM   11  C   UNL     1     -43.818 -54.437  15.830  1.00  0.00     0.136 C 
ENDBRANCH   3   6
ENDBRANCH   1   3
BRANCH   1  12
HETATM   12  C   UNL     1     -47.003 -52.973  14.500  1.00  0.00     0.110 C 
BRANCH  12  13
HETATM   13  C   UNL     1     -46.867 -51.464  14.706  1.00  0.00     0.055 C 
BRANCH  13  14
HETATM   14  C   UNL     1     -46.882 -51.103  16.163  1.00  0.00    -0.042 A 
HETATM   15  C   UNL     1     -48.064 -51.105  16.906  1.00  0.00     0.010 A 
HETATM   16  C   UNL     1     -48.023 -50.803  18.264  1.00  0.00     0.018 A 
HETATM   17  C   UNL     1     -46.799 -50.513  18.836  1.00  0.00     0.087 A 
HETATM   18  N   UNL     1     -45.634 -50.497  18.154  1.00  0.00    -0.375 N 
HETATM   19  C   UNL     1     -45.701 -50.793  16.837  1.00  0.00     0.094 A 
ATOM     20  HN  UNL     1     -44.749 -50.272  18.608  1.00  0.00     0.164 HD
ENDBRANCH  13  14
ENDBRANCH  12  13
ENDBRANCH   1  12
TORSDOF 5
ENDMDL
MODEL 4
REMARK VINA RESULT:      -5.5      1.446      2.030
REMARK  5 active torsions:
REMARK  status: ('A' for Active; 'I' for Inactive)
REMARK    1  A    between atoms: S_2  and  N_4 
REMARK    2  A    between atoms: S_2  and  N_14 
REMARK    3  A    between atoms: N_4  and  C_5 
REMARK    4  A    between atoms: C_5  and  C_6 
REMARK    5  A    between atoms: C_6  and  C_7 
ROOT
HETATM    1  N   UNL     1     -43.402 -54.807  15.100  1.00  0.00    -0.202 NA
HETATM    2  H   UNL     1     -43.806 -55.115  14.216  1.00  0.00     0.141 HD
ENDROOT
BRANCH   1   3
HETATM    3  S   UNL     1     -44.545 -53.829  15.849  1.00  0.00     0.298 S 
HETATM    4  O   UNL     1     -44.978 -54.473  17.064  1.00  0.00    -0.188 OA
HETATM    5  O   UNL     1     -43.989 -52.497  15.844  1.00  0.00    -0.188 OA
BRANCH   3   6
HETATM    6  N   UNL     1     -45.774 -53.938  14.704  1.00  0.00    -0.298 N 
HETATM    7  C   UNL     1     -45.416 -53.981  13.270  1.00  0.00     0.136 C 
HETATM    8  C   UNL     1     -45.098 -52.591  12.729  1.00  0.00     0.021 C 
HETATM    9  C   UNL     1     -46.135 -51.532  13.106  1.00  0.00     0.003 C 
HETATM   10  C   UNL     1     -46.656 -51.644  14.539  1.00  0.00     0.021 C 
HETATM   11  C   UNL     1     -46.956 -53.081  14.935  1.00  0.00     0.136 C 
ENDBRANCH   3   6
ENDBRANCH   1   3
BRANCH   1  12
HETATM   12  C   UNL     1     -42.073 -54.178  14.926  1.00  0.00     0.110 C 
BRANCH  12  13
HETATM   13  C   UNL     1     -41.679 -54.240  13.450  1.00  0.00     0.055 C 
BRANCH  13  14
HETATM   14  C   UNL     1     -40.977 -52.987  13.013  1.00  0.00    -0.042 A 
HETATM   15  C   UNL     1     -39.861 -52.497  13.695  1.00  0.00     0.010 A 
HETATM   16  C   UNL     1     -39.217 -51.354  13.229  1.00  0.00     0.018 A 
HETATM   17  C   UNL     1     -39.709 -50.740  12.093  1.00  0.00     0.087 A 
HETATM   18  N   UNL     1     -40.786 -51.178  11.407  1.00  0.00    -0.375 N 
HETATM   19  C   UNL     1     -41.392 -52.289  11.879  1.00  0.00     0.094 A 
ATOM     20  HN  UNL     1     -41.125 -50.696  10.575  1.00  0.00     0.164 HD
ENDBRANCH  13  14
ENDBRANCH  12  13
ENDBRANCH   1  12
TORSDOF 5
ENDMDL
MODEL 5
REMARK VINA RESULT:      -5.3      2.835      6.095
REMARK  5 active torsions:
REMARK  status: ('A' for Active; 'I' for Inactive)
REMARK    1  A    between atoms: S_2  and  N_4 
REMARK    2  A    between atoms: S_2  and  N_14 
REMARK    3  A    between atoms: N_4  and  C_5 
REMARK    4  A    between atoms: C_5  and  C_6 
REMARK    5  A    between atoms: C_6  and  C_7 
ROOT
HETATM    1  N   UNL     1     -41.545 -52.824  14.092  1.00  0.00    -0.202 NA
HETATM    2  H   UNL     1     -42.070 -51.973  13.891  1.00  0.00     0.141 HD
ENDROOT
BRANCH   1   3
HETATM    3  S   UNL     1     -40.127 -52.751  13.192  1.00  0.00     0.298 S 
HETATM    4  O   UNL     1     -39.210 -53.742  13.697  1.00  0.00    -0.188 OA
HETATM    5  O   UNL     1     -40.539 -52.721  11.809  1.00  0.00    -0.188 OA
BRANCH   3   6
HETATM    6  N   UNL     1     -39.597 -51.224  13.662  1.00  0.00    -0.298 N 
HETATM    7  C   UNL     1     -40.133 -50.034  12.967  1.00  0.00     0.136 C 
HETATM    8  C   UNL     1     -39.442 -49.809  11.626  1.00  0.00     0.021 C 
HETATM    9  C   UNL     1     -37.917 -49.885  11.698  1.00  0.00     0.003 C 
HETATM   10  C   UNL     1     -37.384 -50.996  12.604  1.00  0.00     0.021 C 
HETATM   11  C   UNL     1     -38.147 -51.089  13.917  1.00  0.00     0.136 C 
ENDBRANCH   3   6
ENDBRANCH   1   3
BRANCH   1  12
HETATM   12  C   UNL     1     -42.349 -54.048  13.875  1.00  0.00     0.110 C 
BRANCH  12  13
HETATM   13  C   UNL     1     -43.621 -53.968  14.719  1.00  0.00     0.055 C 
BRANCH  13  14
HETATM   14  C   UNL     1     -44.676 -53.136  14.050  1.00  0.00    -0.042 A 
HETATM   15  C   UNL     1     -45.499 -52.274  14.777  1.00  0.00     0.010 A 
HETATM   16  C   UNL     1     -46.435 -51.490  14.109  1.00  0.00     0.018 A 
HETATM   17  C   UNL     1     -46.516 -51.591  12.734  1.00  0.00     0.087 A 
HETATM   18  N   UNL     1     -45.742 -52.415  11.993  1.00  0.00    -0.375 N 
HETATM   19  C   UNL     1     -44.841 -53.164  12.666  1.00  0.00     0.094 A 
ATOM     20  HN  UNL     1     -45.833 -52.468  10.979  1.00  0.00     0.164 HD
ENDBRANCH  13  14
ENDBRANCH  12  13
ENDBRANCH   1  12
TORSDOF 5
ENDMDL
MODEL 6
REMARK VINA RESULT:      -5.2      2.574      3.529
REMARK  5 active torsions:
REMARK  status: ('A' for Active; 'I' for Inactive)
REMARK    1  A    between atoms: S_2  and  N_4 
REMARK    2  A    between atoms: S_2  and  N_14 
REMARK    3  A    between atoms: N_4  and  C_5 
REMARK    4  A    between atoms: C_5  and  C_6 
REMARK    5  A    between atoms: C_6  and  C_7 
ROOT
HETATM    1  N   UNL     1     -43.777 -55.593  14.688  1.00  0.00    -0.202 NA
HETATM    2  H   UNL     1     -43.254 -55.974  13.900  1.00  0.00     0.141 HD
ENDROOT
BRANCH   1   3
HETATM    3  S   UNL     1     -45.037 -54.683  14.049  1.00  0.00     0.298 S 
HETATM    4  O   UNL     1     -44.772 -54.449  12.650  1.00  0.00    -0.188 OA
HETATM    5  O   UNL     1     -46.251 -55.317  14.504  1.00  0.00    -0.188 OA
BRANCH   3   6
HETATM    6  N   UNL     1     -44.785 -53.254  14.901  1.00  0.00    -0.298 N 
HETATM    7  C   UNL     1     -45.668 -52.934  16.043  1.00  0.00     0.136 C 
HETATM    8  C   UNL     1     -47.005 -52.367  15.576  1.00  0.00     0.021 C 
HETATM    9  C   UNL     1     -46.872 -51.259  14.531  1.00  0.00     0.003 C 
HETATM   10  C   UNL     1     -45.792 -51.513  13.478  1.00  0.00     0.021 C 
HETATM   11  C   UNL     1     -44.506 -52.052  14.086  1.00  0.00     0.136 C 
ENDBRANCH   3   6
ENDBRANCH   1   3
BRANCH   1  12
HETATM   12  C   UNL     1     -42.910 -54.862  15.640  1.00  0.00     0.110 C 
BRANCH  12  13
HETATM   13  C   UNL     1     -42.233 -55.865  16.575  1.00  0.00     0.055 C 
BRANCH  13  14
HETATM   14  C   UNL     1     -40.739 -55.816  16.446  1.00  0.00    -0.042 A 
HETATM   15  C   UNL     1     -40.107 -54.934  15.567  1.00  0.00     0.010 A 
HETATM   16  C   UNL     1     -38.717 -54.895  15.511  1.00  0.00     0.018 A 
HETATM   17  C   UNL     1     -38.003 -55.738  16.341  1.00  0.00     0.087 A 
HETATM   18  N   UNL     1     -38.573 -56.608  17.202  1.00  0.00    -0.375 N 
HETATM   19  C   UNL     1     -39.924 -56.626  17.237  1.00  0.00     0.094 A 
ATOM     20  HN  UNL     1     -38.014 -57.221  17.796  1.00  0.00     0.164 HD
ENDBRANCH  13  14
ENDBRANCH  12  13
ENDBRANCH   1  12
TORSDOF 5
ENDMDL
MODEL 7
REMARK VINA RESULT:      -5.1      1.593      2.120
REMARK  5 active torsions:
REMARK  status: ('A' for Active; 'I' for Inactive)
REMARK    1  A    between atoms: S_2  and  N_4 
REMARK    2  A    between atoms: S_2  and  N_14 
REMARK    3  A    between atoms: N_4  and  C_5 
REMARK    4  A    between atoms: C_5  and  C_6 
REMARK    5  A    between atoms: C_6  and  C_7 
ROOT
HETATM    1  N   UNL     1     -42.881 -53.174  12.307  1.00  0.00    -0.202 NA
HETATM    2  H   UNL     1     -43.076 -52.207  12.051  1.00  0.00     0.141 HD
ENDROOT
BRANCH   1   3
HETATM    3  S   UNL     1     -44.125 -53.675  13.321  1.00  0.00     0.298 S 
HETATM    4  O   UNL     1     -45.305 -53.900  12.524  1.00  0.00    -0.188 OA
HETATM    5  O   UNL     1     -43.559 -54.704  14.160  1.00  0.00    -0.188 OA
BRANCH   3   6
HETATM    6  N   UNL     1     -44.324 -52.260  14.209  1.00  0.00    -0.298 N 
HETATM    7  C   UNL     1     -44.569 -52.354  15.664  1.00  0.00     0.136 C 
HETATM    8  C   UNL     1     -46.024 -52.695  15.968  1.00  0.00     0.021 C 
HETATM    9  C   UNL     1     -47.030 -51.840  15.197  1.00  0.00     0.003 C 
HETATM   10  C   UNL     1     -46.643 -51.571  13.742  1.00  0.00     0.021 C 
HETATM   11  C   UNL     1     -45.171 -51.218  13.590  1.00  0.00     0.136 C 
ENDBRANCH   3   6
ENDBRANCH   1   3
BRANCH   1  12
HETATM   12  C   UNL     1     -41.522 -53.346  12.870  1.00  0.00     0.110 C 
BRANCH  12  13
HETATM   13  C   UNL     1     -41.088 -52.042  13.540  1.00  0.00     0.055 C 
BRANCH  13  14
HETATM   14  C   UNL     1     -41.183 -50.879  12.596  1.00  0.00    -0.042 A 
HETATM   15  C   UNL     1     -42.034 -49.800  12.845  1.00  0.00     0.010 A 
HETATM   16  C   UNL     1     -42.058 -48.724  11.963  1.00  0.00     0.018 A 
HETATM   17  C   UNL     1     -41.227 -48.760  10.860  1.00  0.00     0.087 A 
HETATM   18  N   UNL     1     -40.392 -49.785  10.579  1.00  0.00    -0.375 N 
HETATM   19  C   UNL     1     -40.388 -50.816  11.452  1.00  0.00     0.094 A 
ATOM     20  HN  UNL     1     -39.797 -49.780   9.751  1.00  0.00     0.164 HD
ENDBRANCH  13  14
ENDBRANCH  12  13
ENDBRANCH   1  12
TORSDOF 5
ENDMDL
MODEL 8
REMARK VINA RESULT:      -5.1      1.672      2.185
REMARK  5 active torsions:
REMARK  status: ('A' for Active; 'I' for Inactive)
REMARK    1  A    between atoms: S_2  and  N_4 
REMARK    2  A    between atoms: S_2  and  N_14 
REMARK    3  A    between atoms: N_4  and  C_5 
REMARK    4  A    between atoms: C_5  and  C_6 
REMARK    5  A    between atoms: C_6  and  C_7 
ROOT
HETATM    1  N   UNL     1     -43.441 -53.056  11.994  1.00  0.00    -0.202 NA
HETATM    2  H   UNL     1     -43.457 -52.083  11.689  1.00  0.00     0.141 HD
ENDROOT
BRANCH   1   3
HETATM    3  S   UNL     1     -44.919 -53.366  12.729  1.00  0.00     0.298 S 
HETATM    4  O   UNL     1     -45.958 -52.713  11.971  1.00  0.00    -0.188 OA
HETATM    5  O   UNL     1     -44.938 -54.785  12.992  1.00  0.00    -0.188 OA
BRANCH   3   6
HETATM    6  N   UNL     1     -44.678 -52.524  14.167  1.00  0.00    -0.298 N 
HETATM    7  C   UNL     1     -44.796 -53.247  15.451  1.00  0.00     0.136 C 
HETATM    8  C   UNL     1     -46.254 -53.433  15.858  1.00  0.00     0.021 C 
HETATM    9  C   UNL     1     -47.089 -52.157  15.756  1.00  0.00     0.003 C 
HETATM   10  C   UNL     1     -46.791 -51.307  14.519  1.00  0.00     0.021 C 
HETATM   11  C   UNL     1     -45.300 -51.185  14.247  1.00  0.00     0.136 C 
ENDBRANCH   3   6
ENDBRANCH   1   3
BRANCH   1  12
HETATM   12  C   UNL     1     -42.259 -53.366  12.831  1.00  0.00     0.110 C 
BRANCH  12  13
HETATM   13  C   UNL     1     -41.003 -52.826  12.145  1.00  0.00     0.055 C 
BRANCH  13  14
HETATM   14  C   UNL     1     -40.054 -52.217  13.135  1.00  0.00    -0.042 A 
HETATM   15  C   UNL     1     -39.500 -50.951  12.935  1.00  0.00     0.010 A 
HETATM   16  C   UNL     1     -38.656 -50.409  13.900  1.00  0.00     0.018 A 
HETATM   17  C   UNL     1     -38.397 -51.149  15.038  1.00  0.00     0.087 A 
HETATM   18  N   UNL     1     -38.910 -52.378  15.269  1.00  0.00    -0.375 N 
HETATM   19  C   UNL     1     -39.725 -52.881  14.317  1.00  0.00     0.094 A 
ATOM     20  HN  UNL     1     -38.692 -52.899  16.118  1.00  0.00     0.164 HD
ENDBRANCH  13  14
ENDBRANCH  12  13
ENDBRANCH   1  12
TORSDOF 5
ENDMDL
MODEL 9
REMARK VINA RESULT:      -5.1      2.323      3.182
REMARK  5 active torsions:
REMARK  status: ('A' for Active; 'I' for Inactive)
REMARK    1  A    between atoms: S_2  and  N_4 
REMARK    2  A    between atoms: S_2  and  N_14 
REMARK    3  A    between atoms: N_4  and  C_5 
REMARK    4  A    between atoms: C_5  and  C_6 
REMARK    5  A    between atoms: C_6  and  C_7 
ROOT
HETATM    1  N   UNL     1     -43.274 -53.808  12.989  1.00  0.00    -0.202 NA
HETATM    2  H   UNL     1     -43.914 -53.358  12.336  1.00  0.00     0.141 HD
ENDROOT
BRANCH   1   3
HETATM    3  S   UNL     1     -44.143 -54.124  14.392  1.00  0.00     0.298 S 
HETATM    4  O   UNL     1     -44.003 -55.523  14.716  1.00  0.00    -0.188 OA
HETATM    5  O   UNL     1     -43.781 -53.082  15.322  1.00  0.00    -0.188 OA
BRANCH   3   6
HETATM    6  N   UNL     1     -45.696 -53.850  13.805  1.00  0.00    -0.298 N 
HETATM    7  C   UNL     1     -45.907 -52.786  12.801  1.00  0.00     0.136 C 
HETATM    8  C   UNL     1     -45.958 -51.406  13.449  1.00  0.00     0.021 C 
HETATM    9  C   UNL     1     -46.875 -51.334  14.671  1.00  0.00     0.003 C 
HETATM   10  C   UNL     1     -46.800 -52.556  15.587  1.00  0.00     0.021 C 
HETATM   11  C   UNL     1     -46.782 -53.863  14.809  1.00  0.00     0.136 C 
ENDBRANCH   3   6
ENDBRANCH   1   3
BRANCH   1  12
HETATM   12  C   UNL     1     -42.035 -53.024  13.195  1.00  0.00     0.110 C 
BRANCH  12  13
HETATM   13  C   UNL     1     -40.824 -53.932  12.978  1.00  0.00     0.055 C 
BRANCH  13  14
HETATM   14  C   UNL     1     -40.067 -54.154  14.255  1.00  0.00    -0.042 A 
HETATM   15  C   UNL     1     -40.447 -53.540  15.449  1.00  0.00     0.010 A 
HETATM   16  C   UNL     1     -39.739 -53.808  16.617  1.00  0.00     0.018 A 
HETATM   17  C   UNL     1     -38.675 -54.687  16.553  1.00  0.00     0.087 A 
HETATM   18  N   UNL     1     -38.272 -55.300  15.419  1.00  0.00    -0.375 N 
HETATM   19  C   UNL     1     -38.976 -55.023  14.300  1.00  0.00     0.094 A 
ATOM     20  HN  UNL     1     -37.477 -55.940  15.408  1.00  0.00     0.164 HD
ENDBRANCH  13  14
ENDBRANCH  12  13
ENDBRANCH   1  12
TORSDOF 5
ENDMDL
