MODEL 1
REMARK VINA RESULT:      -6.8      0.000      0.000
REMARK  7 active torsions:
REMARK  status: ('A' for Active; 'I' for Inactive)
REMARK    1  A    between atoms: C_2  and  C_3 
REMARK    2  A    between atoms: C_3  and  O_4 
REMARK    3  A    between atoms: C_3  and  C_11 
REMARK    4  A    between atoms: O_4  and  C_5 
REMARK       I    between atoms: C_11  and  N_13 
REMARK    5  A    between atoms: N_13  and  C_14 
REMARK    6  A    between atoms: C_14  and  C_15 
REMARK    7  A    between atoms: C_15  and  C_16 
ROOT
HETATM    1  C   UNL     1     -42.983 -50.224  12.789  1.00  0.00     0.246 C 
HETATM    2  O   UNL     1     -43.334 -49.572  13.773  1.00  0.00    -0.271 OA
HETATM    3  N   UNL     1     -42.615 -49.586  11.626  1.00  0.00    -0.358 N 
HETATM    4  H   UNL     1     -42.269 -50.139  10.849  1.00  0.00     0.162 HD
ENDROOT
BRANCH   3   5
HETATM    5  C   UNL     1     -42.751 -48.139  11.503  1.00  0.00     0.130 C 
BRANCH   5   6
HETATM    6  C   UNL     1     -42.672 -47.666  10.056  1.00  0.00     0.098 C 
BRANCH   6   7
HETATM    7  C   UNL     1     -43.998 -47.149   9.601  1.00  0.00     0.101 A 
HETATM    8  N   UNL     1     -44.224 -45.930   9.211  1.00  0.00    -0.285 N 
HETATM    9  N   UNL     1     -45.558 -45.924   8.890  1.00  0.00    -0.250 N 
ATOM     10  HN  UNL     1     -43.562 -45.156   9.156  1.00  0.00     0.188 HD
HETATM   11  C   UNL     1     -46.112 -47.177   9.113  1.00  0.00     0.340 A 
HETATM   12  H   UNL     1     -46.048 -45.095   8.583  1.00  0.00     0.192 HD
HETATM   13  O   UNL     1     -47.275 -47.508   8.963  1.00  0.00    -0.245 OA
HETATM   14  N   UNL     1     -45.081 -47.955   9.541  1.00  0.00    -0.296 N 
HETATM   15  H   UNL     1     -45.168 -48.920   9.811  1.00  0.00     0.172 HD
ENDBRANCH   6   7
ENDBRANCH   5   6
ENDBRANCH   3   5
BRANCH   1  16
HETATM   16  C   UNL     1     -42.870 -51.789  12.810  1.00  0.00     0.213 C 
BRANCH  16  17
HETATM   17  C   UNL     1     -41.363 -52.103  13.013  1.00  0.00     0.037 C 
HETATM   18  C   UNL     1     -40.856 -53.509  12.750  1.00  0.00     0.008 C 
ENDBRANCH  16  17
BRANCH  16  19
HETATM   19  O   UNL     1     -43.803 -52.563  13.569  1.00  0.00    -0.371 OA
BRANCH  19  20
HETATM   20  C   UNL     1     -45.016 -53.007  12.951  1.00  0.00     0.122 C 
HETATM   21  C   UNL     1     -46.068 -51.902  12.885  1.00  0.00     0.032 C 
HETATM   22  C   UNL     1     -46.498 -51.452  14.279  1.00  0.00     0.002 C 
HETATM   23  C   UNL     1     -47.135 -52.596  15.050  1.00  0.00     0.000 C 
HETATM   24  C   UNL     1     -46.202 -53.801  15.122  1.00  0.00     0.002 C 
HETATM   25  C   UNL     1     -45.614 -54.189  13.758  1.00  0.00     0.032 C 
ENDBRANCH  19  20
ENDBRANCH  16  19
ENDBRANCH   1  16
TORSDOF 7
ENDMDL
MODEL 2
REMARK VINA RESULT:      -6.8      1.614      1.973
REMARK  7 active torsions:
REMARK  status: ('A' for Active; 'I' for Inactive)
REMARK    1  A    between atoms: C_2  and  C_3 
REMARK    2  A    between atoms: C_3  and  O_4 
REMARK    3  A    between atoms: C_3  and  C_11 
REMARK    4  A    between atoms: O_4  and  C_5 
REMARK       I    between atoms: C_11  and  N_13 
REMARK    5  A    between atoms: N_13  and  C_14 
REMARK    6  A    between atoms: C_14  and  C_15 
REMARK    7  A    between atoms: C_15  and  C_16 
ROOT
HETATM    1  C   UNL     1     -41.567 -51.825  12.192  1.00  0.00     0.246 C 
HETATM    2  O   UNL     1     -40.365 -52.090  12.160  1.00  0.00    -0.271 OA
HETATM    3  N   UNL     1     -42.015 -50.573  11.834  1.00  0.00    -0.358 N 
HETATM    4  H   UNL     1     -43.013 -50.397  11.807  1.00  0.00     0.162 HD
ENDROOT
BRANCH   3   5
HETATM    5  C   UNL     1     -41.065 -49.510  11.528  1.00  0.00     0.130 C 
BRANCH   5   6
HETATM    6  C   UNL     1     -41.675 -48.121  11.679  1.00  0.00     0.098 C 
BRANCH   6   7
HETATM    7  C   UNL     1     -42.439 -47.748  10.450  1.00  0.00     0.101 A 
HETATM    8  N   UNL     1     -42.110 -48.093   9.241  1.00  0.00    -0.285 N 
HETATM    9  N   UNL     1     -43.090 -47.536   8.457  1.00  0.00    -0.250 N 
ATOM     10  HN  UNL     1     -41.309 -48.649   8.942  1.00  0.00     0.188 HD
HETATM   11  C   UNL     1     -44.000 -46.845   9.244  1.00  0.00     0.340 A 
HETATM   12  H   UNL     1     -43.092 -47.600   7.449  1.00  0.00     0.192 HD
HETATM   13  O   UNL     1     -44.969 -46.210   8.868  1.00  0.00    -0.245 OA
HETATM   14  N   UNL     1     -43.576 -47.022  10.525  1.00  0.00    -0.296 N 
HETATM   15  H   UNL     1     -44.018 -46.618  11.334  1.00  0.00     0.172 HD
ENDBRANCH   6   7
ENDBRANCH   5   6
ENDBRANCH   3   5
BRANCH   1  16
HETATM   16  C   UNL     1     -42.656 -52.889  12.573  1.00  0.00     0.213 C 
BRANCH  16  17
HETATM   17  C   UNL     1     -41.885 -54.078  13.206  1.00  0.00     0.037 C 
HETATM   18  C   UNL     1     -42.093 -54.401  14.675  1.00  0.00     0.008 C 
ENDBRANCH  16  17
BRANCH  16  19
HETATM   19  O   UNL     1     -43.862 -52.477  13.223  1.00  0.00    -0.371 OA
BRANCH  19  20
HETATM   20  C   UNL     1     -45.121 -52.964  12.743  1.00  0.00     0.122 C 
HETATM   21  C   UNL     1     -46.205 -51.888  12.774  1.00  0.00     0.032 C 
HETATM   22  C   UNL     1     -46.497 -51.426  14.200  1.00  0.00     0.002 C 
HETATM   23  C   UNL     1     -47.016 -52.573  15.050  1.00  0.00     0.000 C 
HETATM   24  C   UNL     1     -46.047 -53.751  15.040  1.00  0.00     0.002 C 
HETATM   25  C   UNL     1     -45.596 -54.147  13.627  1.00  0.00     0.032 C 
ENDBRANCH  19  20
ENDBRANCH  16  19
ENDBRANCH   1  16
TORSDOF 7
ENDMDL
MODEL 3
REMARK VINA RESULT:      -6.4      2.531      3.639
REMARK  7 active torsions:
REMARK  status: ('A' for Active; 'I' for Inactive)
REMARK    1  A    between atoms: C_2  and  C_3 
REMARK    2  A    between atoms: C_3  and  O_4 
REMARK    3  A    between atoms: C_3  and  C_11 
REMARK    4  A    between atoms: O_4  and  C_5 
REMARK       I    between atoms: C_11  and  N_13 
REMARK    5  A    between atoms: N_13  and  C_14 
REMARK    6  A    between atoms: C_14  and  C_15 
REMARK    7  A    between atoms: C_15  and  C_16 
ROOT
HETATM    1  C   UNL     1     -40.677 -48.430  11.574  1.00  0.00     0.246 C 
HETATM    2  O   UNL     1     -40.428 -47.649  12.494  1.00  0.00    -0.271 OA
HETATM    3  N   UNL     1     -41.652 -48.129  10.650  1.00  0.00    -0.358 N 
HETATM    4  H   UNL     1     -41.796 -48.755   9.866  1.00  0.00     0.162 HD
ENDROOT
BRANCH   3   5
HETATM    5  C   UNL     1     -42.485 -46.944  10.816  1.00  0.00     0.130 C 
BRANCH   5   6
HETATM    6  C   UNL     1     -42.893 -46.326   9.483  1.00  0.00     0.098 C 
BRANCH   6   7
HETATM    7  C   UNL     1     -44.130 -46.979   8.960  1.00  0.00     0.101 A 
HETATM    8  N   UNL     1     -44.168 -47.789   7.944  1.00  0.00    -0.285 N 
HETATM    9  N   UNL     1     -45.492 -48.134   7.841  1.00  0.00    -0.250 N 
ATOM     10  HN  UNL     1     -43.392 -48.098   7.359  1.00  0.00     0.188 HD
HETATM   11  C   UNL     1     -46.234 -47.492   8.823  1.00  0.00     0.340 A 
HETATM   12  H   UNL     1     -45.850 -48.735   7.112  1.00  0.00     0.192 HD
HETATM   13  O   UNL     1     -47.439 -47.551   8.995  1.00  0.00    -0.245 OA
HETATM   14  N   UNL     1     -45.330 -46.779   9.548  1.00  0.00    -0.296 N 
HETATM   15  H   UNL     1     -45.564 -46.183  10.324  1.00  0.00     0.172 HD
ENDBRANCH   6   7
ENDBRANCH   5   6
ENDBRANCH   3   5
BRANCH   1  16
HETATM   16  C   UNL     1     -39.875 -49.761  11.356  1.00  0.00     0.213 C 
BRANCH  16  17
HETATM   17  C   UNL     1     -38.424 -49.464  11.824  1.00  0.00     0.037 C 
HETATM   18  C   UNL     1     -37.375 -50.557  11.729  1.00  0.00     0.008 C 
ENDBRANCH  16  17
BRANCH  16  19
HETATM   19  O   UNL     1     -40.443 -51.011  11.756  1.00  0.00    -0.371 OA
BRANCH  19  20
HETATM   20  C   UNL     1     -40.962 -51.157  13.083  1.00  0.00     0.122 C 
HETATM   21  C   UNL     1     -40.321 -52.325  13.828  1.00  0.00     0.032 C 
HETATM   22  C   UNL     1     -40.632 -53.659  13.153  1.00  0.00     0.002 C 
HETATM   23  C   UNL     1     -42.127 -53.932  13.146  1.00  0.00     0.000 C 
HETATM   24  C   UNL     1     -42.894 -52.788  12.487  1.00  0.00     0.002 C 
HETATM   25  C   UNL     1     -42.491 -51.408  13.024  1.00  0.00     0.032 C 
ENDBRANCH  19  20
ENDBRANCH  16  19
ENDBRANCH   1  16
TORSDOF 7
ENDMDL
MODEL 4
REMARK VINA RESULT:      -6.3      2.761      5.009
REMARK  7 active torsions:
REMARK  status: ('A' for Active; 'I' for Inactive)
REMARK    1  A    between atoms: C_2  and  C_3 
REMARK    2  A    between atoms: C_3  and  O_4 
REMARK    3  A    between atoms: C_3  and  C_11 
REMARK    4  A    between atoms: O_4  and  C_5 
REMARK       I    between atoms: C_11  and  N_13 
REMARK    5  A    between atoms: N_13  and  C_14 
REMARK    6  A    between atoms: C_14  and  C_15 
REMARK    7  A    between atoms: C_15  and  C_16 
ROOT
HETATM    1  C   UNL     1     -43.307 -49.543  13.491  1.00  0.00     0.246 C 
HETATM    2  O   UNL     1     -42.538 -48.829  14.136  1.00  0.00    -0.271 OA
HETATM    3  N   UNL     1     -43.634 -49.220  12.193  1.00  0.00    -0.358 N 
HETATM    4  H   UNL     1     -44.217 -49.856  11.660  1.00  0.00     0.162 HD
ENDROOT
BRANCH   3   5
HETATM    5  C   UNL     1     -43.172 -47.967  11.607  1.00  0.00     0.130 C 
BRANCH   5   6
HETATM    6  C   UNL     1     -42.255 -48.187  10.408  1.00  0.00     0.098 C 
BRANCH   6   7
HETATM    7  C   UNL     1     -40.967 -48.807  10.841  1.00  0.00     0.101 A 
HETATM    8  N   UNL     1     -40.428 -49.855  10.292  1.00  0.00    -0.285 N 
HETATM    9  N   UNL     1     -39.274 -50.050  11.008  1.00  0.00    -0.250 N 
ATOM     10  HN  UNL     1     -40.782 -50.406   9.510  1.00  0.00     0.188 HD
HETATM   11  C   UNL     1     -39.156 -49.089  12.002  1.00  0.00     0.340 A 
HETATM   12  H   UNL     1     -38.645 -50.823  10.839  1.00  0.00     0.192 HD
HETATM   13  O   UNL     1     -38.271 -48.990  12.833  1.00  0.00    -0.245 OA
HETATM   14  N   UNL     1     -40.243 -48.284  11.854  1.00  0.00    -0.296 N 
HETATM   15  H   UNL     1     -40.457 -47.499  12.447  1.00  0.00     0.172 HD
ENDBRANCH   6   7
ENDBRANCH   5   6
ENDBRANCH   3   5
BRANCH   1  16
HETATM   16  C   UNL     1     -43.903 -50.877  14.065  1.00  0.00     0.213 C 
BRANCH  16  17
HETATM   17  C   UNL     1     -45.194 -51.152  13.247  1.00  0.00     0.037 C 
HETATM   18  C   UNL     1     -46.487 -51.456  13.980  1.00  0.00     0.008 C 
ENDBRANCH  16  17
BRANCH  16  19
HETATM   19  O   UNL     1     -43.045 -51.993  14.319  1.00  0.00    -0.371 OA
BRANCH  19  20
HETATM   20  C   UNL     1     -42.890 -53.004  13.316  1.00  0.00     0.122 C 
HETATM   21  C   UNL     1     -42.655 -54.386  13.922  1.00  0.00     0.032 C 
HETATM   22  C   UNL     1     -41.351 -54.437  14.714  1.00  0.00     0.002 C 
HETATM   23  C   UNL     1     -40.156 -54.161  13.818  1.00  0.00     0.000 C 
HETATM   24  C   UNL     1     -40.307 -52.827  13.091  1.00  0.00     0.002 C 
HETATM   25  C   UNL     1     -41.675 -52.664  12.413  1.00  0.00     0.032 C 
ENDBRANCH  19  20
ENDBRANCH  16  19
ENDBRANCH   1  16
TORSDOF 7
ENDMDL
MODEL 5
REMARK VINA RESULT:      -6.2      2.435      2.819
REMARK  7 active torsions:
REMARK  status: ('A' for Active; 'I' for Inactive)
REMARK    1  A    between atoms: C_2  and  C_3 
REMARK    2  A    between atoms: C_3  and  O_4 
REMARK    3  A    between atoms: C_3  and  C_11 
REMARK    4  A    between atoms: O_4  and  C_5 
REMARK       I    between atoms: C_11  and  N_13 
REMARK    5  A    between atoms: N_13  and  C_14 
REMARK    6  A    between atoms: C_14  and  C_15 
REMARK    7  A    between atoms: C_15  and  C_16 
ROOT
HETATM    1  C   UNL     1     -41.746 -51.367  12.204  1.00  0.00     0.246 C 
HETATM    2  O   UNL     1     -40.520 -51.464  12.257  1.00  0.00    -0.271 OA
HETATM    3  N   UNL     1     -42.334 -50.200  11.770  1.00  0.00    -0.358 N 
HETATM    4  H   UNL     1     -43.343 -50.164  11.675  1.00  0.00     0.162 HD
ENDROOT
BRANCH   3   5
HETATM    5  C   UNL     1     -41.519 -49.026  11.482  1.00  0.00     0.130 C 
BRANCH   5   6
HETATM    6  C   UNL     1     -42.078 -48.195  10.332  1.00  0.00     0.098 C 
BRANCH   6   7
HETATM    7  C   UNL     1     -42.111 -46.748  10.701  1.00  0.00     0.101 A 
HETATM    8  N   UNL     1     -43.033 -46.188  11.426  1.00  0.00    -0.285 N 
HETATM    9  N   UNL     1     -42.647 -44.873  11.500  1.00  0.00    -0.250 N 
ATOM     10  HN  UNL     1     -43.854 -46.625  11.844  1.00  0.00     0.188 HD
HETATM   11  C   UNL     1     -41.473 -44.675  10.786  1.00  0.00     0.340 A 
HETATM   12  H   UNL     1     -43.190 -44.166  11.975  1.00  0.00     0.192 HD
HETATM   13  O   UNL     1     -40.878 -43.626  10.620  1.00  0.00    -0.245 OA
HETATM   14  N   UNL     1     -41.133 -45.902  10.307  1.00  0.00    -0.296 N 
HETATM   15  H   UNL     1     -40.333 -46.086   9.724  1.00  0.00     0.172 HD
ENDBRANCH   6   7
ENDBRANCH   5   6
ENDBRANCH   3   5
BRANCH   1  16
HETATM   16  C   UNL     1     -42.704 -52.559  12.558  1.00  0.00     0.213 C 
BRANCH  16  17
HETATM   17  C   UNL     1     -41.789 -53.697  13.085  1.00  0.00     0.037 C 
HETATM   18  C   UNL     1     -42.164 -54.419  14.366  1.00  0.00     0.008 C 
ENDBRANCH  16  17
BRANCH  16  19
HETATM   19  O   UNL     1     -43.915 -52.313  13.279  1.00  0.00    -0.371 OA
BRANCH  19  20
HETATM   20  C   UNL     1     -45.153 -52.822  12.769  1.00  0.00     0.122 C 
HETATM   21  C   UNL     1     -46.273 -51.787  12.835  1.00  0.00     0.032 C 
HETATM   22  C   UNL     1     -46.591 -51.395  14.276  1.00  0.00     0.002 C 
HETATM   23  C   UNL     1     -47.077 -52.593  15.074  1.00  0.00     0.000 C 
HETATM   24  C   UNL     1     -46.067 -53.736  15.023  1.00  0.00     0.002 C 
HETATM   25  C   UNL     1     -45.593 -54.057  13.599  1.00  0.00     0.032 C 
ENDBRANCH  19  20
ENDBRANCH  16  19
ENDBRANCH   1  16
TORSDOF 7
ENDMDL
MODEL 6
REMARK VINA RESULT:      -6.2      1.487      3.377
REMARK  7 active torsions:
REMARK  status: ('A' for Active; 'I' for Inactive)
REMARK    1  A    between atoms: C_2  and  C_3 
REMARK    2  A    between atoms: C_3  and  O_4 
REMARK    3  A    between atoms: C_3  and  C_11 
REMARK    4  A    between atoms: O_4  and  C_5 
REMARK       I    between atoms: C_11  and  N_13 
REMARK    5  A    between atoms: N_13  and  C_14 
REMARK    6  A    between atoms: C_14  and  C_15 
REMARK    7  A    between atoms: C_15  and  C_16 
ROOT
HETATM    1  C   UNL     1     -43.086 -49.722  13.531  1.00  0.00     0.246 C 
HETATM    2  O   UNL     1     -42.367 -48.986  14.208  1.00  0.00    -0.271 OA
HETATM    3  N   UNL     1     -43.179 -49.546  12.169  1.00  0.00    -0.358 N 
HETATM    4  H   UNL     1     -43.727 -50.203  11.624  1.00  0.00     0.162 HD
ENDROOT
BRANCH   3   5
HETATM    5  C   UNL     1     -42.523 -48.413  11.526  1.00  0.00     0.130 C 
BRANCH   5   6
HETATM    6  C   UNL     1     -43.508 -47.319  11.127  1.00  0.00     0.098 C 
BRANCH   6   7
HETATM    7  C   UNL     1     -44.128 -47.631   9.804  1.00  0.00     0.101 A 
HETATM    8  N   UNL     1     -43.508 -47.574   8.663  1.00  0.00    -0.285 N 
HETATM    9  N   UNL     1     -44.461 -47.942   7.746  1.00  0.00    -0.250 N 
ATOM     10  HN  UNL     1     -42.537 -47.315   8.489  1.00  0.00     0.188 HD
HETATM   11  C   UNL     1     -45.664 -48.208   8.384  1.00  0.00     0.340 A 
HETATM   12  H   UNL     1     -44.290 -47.960   6.751  1.00  0.00     0.192 HD
HETATM   13  O   UNL     1     -46.720 -48.527   7.867  1.00  0.00    -0.245 OA
HETATM   14  N   UNL     1     -45.415 -48.029   9.710  1.00  0.00    -0.296 N 
HETATM   15  H   UNL     1     -46.104 -48.125  10.438  1.00  0.00     0.172 HD
ENDBRANCH   6   7
ENDBRANCH   5   6
ENDBRANCH   3   5
BRANCH   1  16
HETATM   16  C   UNL     1     -43.880 -50.927  14.149  1.00  0.00     0.213 C 
BRANCH  16  17
HETATM   17  C   UNL     1     -45.141 -51.105  13.262  1.00  0.00     0.037 C 
HETATM   18  C   UNL     1     -46.468 -51.448  13.915  1.00  0.00     0.008 C 
ENDBRANCH  16  17
BRANCH  16  19
HETATM   19  O   UNL     1     -43.186 -52.116  14.538  1.00  0.00    -0.371 OA
BRANCH  19  20
HETATM   20  C   UNL     1     -43.118 -53.220  13.628  1.00  0.00     0.122 C 
HETATM   21  C   UNL     1     -42.796 -54.533  14.338  1.00  0.00     0.032 C 
HETATM   22  C   UNL     1     -41.416 -54.496  14.989  1.00  0.00     0.002 C 
HETATM   23  C   UNL     1     -40.326 -54.300  13.949  1.00  0.00     0.000 C 
HETATM   24  C   UNL     1     -40.577 -53.047  13.115  1.00  0.00     0.002 C 
HETATM   25  C   UNL     1     -42.011 -52.962  12.573  1.00  0.00     0.032 C 
ENDBRANCH  19  20
ENDBRANCH  16  19
ENDBRANCH   1  16
TORSDOF 7
ENDMDL
MODEL 7
REMARK VINA RESULT:      -6.1      2.998      4.015
REMARK  7 active torsions:
REMARK  status: ('A' for Active; 'I' for Inactive)
REMARK    1  A    between atoms: C_2  and  C_3 
REMARK    2  A    between atoms: C_3  and  O_4 
REMARK    3  A    between atoms: C_3  and  C_11 
REMARK    4  A    between atoms: O_4  and  C_5 
REMARK       I    between atoms: C_11  and  N_13 
REMARK    5  A    between atoms: N_13  and  C_14 
REMARK    6  A    between atoms: C_14  and  C_15 
REMARK    7  A    between atoms: C_15  and  C_16 
ROOT
HETATM    1  C   UNL     1     -40.704 -52.631  13.444  1.00  0.00     0.246 C 
HETATM    2  O   UNL     1     -40.073 -53.059  12.477  1.00  0.00    -0.271 OA
HETATM    3  N   UNL     1     -40.245 -51.541  14.148  1.00  0.00    -0.358 N 
HETATM    4  H   UNL     1     -40.813 -51.167  14.900  1.00  0.00     0.162 HD
ENDROOT
BRANCH   3   5
HETATM    5  C   UNL     1     -38.948 -50.954  13.834  1.00  0.00     0.130 C 
BRANCH   5   6
HETATM    6  C   UNL     1     -39.058 -49.501  13.382  1.00  0.00     0.098 C 
BRANCH   6   7
HETATM    7  C   UNL     1     -39.834 -49.407  12.109  1.00  0.00     0.101 A 
HETATM    8  N   UNL     1     -39.628 -50.147  11.060  1.00  0.00    -0.285 N 
HETATM    9  N   UNL     1     -40.565 -49.713  10.156  1.00  0.00    -0.250 N 
ATOM     10  HN  UNL     1     -38.932 -50.882  10.937  1.00  0.00     0.188 HD
HETATM   11  C   UNL     1     -41.322 -48.686  10.704  1.00  0.00     0.340 A 
HETATM   12  H   UNL     1     -40.636 -50.078   9.217  1.00  0.00     0.192 HD
HETATM   13  O   UNL     1     -42.213 -48.056  10.164  1.00  0.00    -0.245 OA
HETATM   14  N   UNL     1     -40.851 -48.529  11.971  1.00  0.00    -0.296 N 
HETATM   15  H   UNL     1     -41.184 -47.837  12.622  1.00  0.00     0.172 HD
ENDBRANCH   6   7
ENDBRANCH   5   6
ENDBRANCH   3   5
BRANCH   1  16
HETATM   16  C   UNL     1     -42.078 -53.242  13.893  1.00  0.00     0.213 C 
BRANCH  16  17
HETATM   17  C   UNL     1     -41.732 -54.368  14.905  1.00  0.00     0.037 C 
HETATM   18  C   UNL     1     -42.592 -54.545  16.142  1.00  0.00     0.008 C 
ENDBRANCH  16  17
BRANCH  16  19
HETATM   19  O   UNL     1     -43.168 -52.380  14.229  1.00  0.00    -0.371 OA
BRANCH  19  20
HETATM   20  C   UNL     1     -44.225 -52.180  13.283  1.00  0.00     0.122 C 
HETATM   21  C   UNL     1     -45.426 -51.467  13.901  1.00  0.00     0.032 C 
HETATM   22  C   UNL     1     -46.064 -52.301  15.009  1.00  0.00     0.002 C 
HETATM   23  C   UNL     1     -46.590 -53.619  14.467  1.00  0.00     0.000 C 
HETATM   24  C   UNL     1     -45.490 -54.401  13.754  1.00  0.00     0.002 C 
HETATM   25  C   UNL     1     -44.709 -53.551  12.741  1.00  0.00     0.032 C 
ENDBRANCH  19  20
ENDBRANCH  16  19
ENDBRANCH   1  16
TORSDOF 7
ENDMDL
MODEL 8
REMARK VINA RESULT:      -5.6      3.437      4.703
REMARK  7 active torsions:
REMARK  status: ('A' for Active; 'I' for Inactive)
REMARK    1  A    between atoms: C_2  and  C_3 
REMARK    2  A    between atoms: C_3  and  O_4 
REMARK    3  A    between atoms: C_3  and  C_11 
REMARK    4  A    between atoms: O_4  and  C_5 
REMARK       I    between atoms: C_11  and  N_13 
REMARK    5  A    between atoms: N_13  and  C_14 
REMARK    6  A    between atoms: C_14  and  C_15 
REMARK    7  A    between atoms: C_15  and  C_16 
ROOT
HETATM    1  C   UNL     1     -41.400 -51.764  12.534  1.00  0.00     0.246 C 
HETATM    2  O   UNL     1     -40.442 -51.653  13.299  1.00  0.00    -0.271 OA
HETATM    3  N   UNL     1     -41.467 -51.005  11.387  1.00  0.00    -0.358 N 
HETATM    4  H   UNL     1     -42.233 -51.158  10.740  1.00  0.00     0.162 HD
ENDROOT
BRANCH   3   5
HETATM    5  C   UNL     1     -40.468 -49.976  11.125  1.00  0.00     0.130 C 
BRANCH   5   6
HETATM    6  C   UNL     1     -40.866 -48.618  11.694  1.00  0.00     0.098 C 
BRANCH   6   7
HETATM    7  C   UNL     1     -39.839 -48.138  12.667  1.00  0.00     0.101 A 
HETATM    8  N   UNL     1     -39.750 -46.918  13.109  1.00  0.00    -0.285 N 
HETATM    9  N   UNL     1     -38.679 -46.952  13.968  1.00  0.00    -0.250 N 
ATOM     10  HN  UNL     1     -40.340 -46.121  12.873  1.00  0.00     0.188 HD
HETATM   11  C   UNL     1     -38.135 -48.228  14.008  1.00  0.00     0.340 A 
HETATM   12  H   UNL     1     -38.334 -46.134  14.449  1.00  0.00     0.192 HD
HETATM   13  O   UNL     1     -37.161 -48.596  14.641  1.00  0.00    -0.245 OA
HETATM   14  N   UNL     1     -38.918 -48.979  13.186  1.00  0.00    -0.296 N 
HETATM   15  H   UNL     1     -38.764 -49.953  12.985  1.00  0.00     0.172 HD
ENDBRANCH   6   7
ENDBRANCH   5   6
ENDBRANCH   3   5
BRANCH   1  16
HETATM   16  C   UNL     1     -42.555 -52.800  12.771  1.00  0.00     0.213 C 
BRANCH  16  17
HETATM   17  C   UNL     1     -41.872 -54.076  13.333  1.00  0.00     0.037 C 
HETATM   18  C   UNL     1     -42.328 -54.636  14.668  1.00  0.00     0.008 C 
ENDBRANCH  16  17
BRANCH  16  19
HETATM   19  O   UNL     1     -43.771 -52.384  13.399  1.00  0.00    -0.371 OA
BRANCH  19  20
HETATM   20  C   UNL     1     -45.026 -52.751  12.815  1.00  0.00     0.122 C 
HETATM   21  C   UNL     1     -46.064 -51.637  12.930  1.00  0.00     0.032 C 
HETATM   22  C   UNL     1     -46.401 -51.333  14.388  1.00  0.00     0.002 C 
HETATM   23  C   UNL     1     -47.006 -52.546  15.073  1.00  0.00     0.000 C 
HETATM   24  C   UNL     1     -46.087 -53.760  14.961  1.00  0.00     0.002 C 
HETATM   25  C   UNL     1     -45.590 -54.006  13.530  1.00  0.00     0.032 C 
ENDBRANCH  19  20
ENDBRANCH  16  19
ENDBRANCH   1  16
TORSDOF 7
ENDMDL
MODEL 9
REMARK VINA RESULT:      -5.5      4.145      5.087
REMARK  7 active torsions:
REMARK  status: ('A' for Active; 'I' for Inactive)
REMARK    1  A    between atoms: C_2  and  C_3 
REMARK    2  A    between atoms: C_3  and  O_4 
REMARK    3  A    between atoms: C_3  and  C_11 
REMARK    4  A    between atoms: O_4  and  C_5 
REMARK       I    between atoms: C_11  and  N_13 
REMARK    5  A    between atoms: N_13  and  C_14 
REMARK    6  A    between atoms: C_14  and  C_15 
REMARK    7  A    between atoms: C_15  and  C_16 
ROOT
HETATM    1  C   UNL     1     -41.772 -53.843  13.513  1.00  0.00     0.246 C 
HETATM    2  O   UNL     1     -40.701 -54.406  13.281  1.00  0.00    -0.271 OA
HETATM    3  N   UNL     1     -42.152 -52.742  12.781  1.00  0.00    -0.358 N 
HETATM    4  H   UNL     1     -43.066 -52.333  12.946  1.00  0.00     0.162 HD
ENDROOT
BRANCH   3   5
HETATM    5  C   UNL     1     -41.243 -52.155  11.804  1.00  0.00     0.130 C 
BRANCH   5   6
HETATM    6  C   UNL     1     -41.334 -50.634  11.760  1.00  0.00     0.098 C 
BRANCH   6   7
HETATM    7  C   UNL     1     -39.973 -50.025  11.846  1.00  0.00     0.101 A 
HETATM    8  N   UNL     1     -39.128 -49.958  10.860  1.00  0.00    -0.285 N 
HETATM    9  N   UNL     1     -38.036 -49.324  11.399  1.00  0.00    -0.250 N 
ATOM     10  HN  UNL     1     -39.248 -50.298   9.906  1.00  0.00     0.188 HD
HETATM   11  C   UNL     1     -38.263 -49.029  12.736  1.00  0.00     0.340 A 
HETATM   12  H   UNL     1     -37.186 -49.155  10.880  1.00  0.00     0.192 HD
HETATM   13  O   UNL     1     -37.492 -48.499  13.516  1.00  0.00    -0.245 OA
HETATM   14  N   UNL     1     -39.527 -49.462  12.991  1.00  0.00    -0.296 N 
HETATM   15  H   UNL     1     -39.978 -49.411  13.889  1.00  0.00     0.172 HD
ENDBRANCH   6   7
ENDBRANCH   5   6
ENDBRANCH   3   5
BRANCH   1  16
HETATM   16  C   UNL     1     -42.784 -54.366  14.592  1.00  0.00     0.213 C 
BRANCH  16  17
HETATM   17  C   UNL     1     -41.919 -54.856  15.785  1.00  0.00     0.037 C 
HETATM   18  C   UNL     1     -42.185 -56.225  16.384  1.00  0.00     0.008 C 
ENDBRANCH  16  17
BRANCH  16  19
HETATM   19  O   UNL     1     -43.952 -53.602  14.907  1.00  0.00    -0.371 OA
BRANCH  19  20
HETATM   20  C   UNL     1     -45.209 -53.966  14.324  1.00  0.00     0.122 C 
HETATM   21  C   UNL     1     -45.527 -53.142  13.079  1.00  0.00     0.032 C 
HETATM   22  C   UNL     1     -45.680 -51.659  13.411  1.00  0.00     0.002 C 
HETATM   23  C   UNL     1     -46.833 -51.431  14.374  1.00  0.00     0.000 C 
HETATM   24  C   UNL     1     -46.667 -52.266  15.641  1.00  0.00     0.002 C 
HETATM   25  C   UNL     1     -46.348 -53.739  15.352  1.00  0.00     0.032 C 
ENDBRANCH  19  20
ENDBRANCH  16  19
ENDBRANCH   1  16
TORSDOF 7
ENDMDL
