MODEL 1
REMARK VINA RESULT:      -5.9      0.000      0.000
REMARK  3 active torsions:
REMARK  status: ('A' for Active; 'I' for Inactive)
REMARK    1  A    between atoms: O_2  and  C_3 
REMARK    2  A    between atoms: C_4  and  N_5 
REMARK       I    between atoms: N_5  and  C_6 
REMARK       I    between atoms: C_6  and  N_8 
REMARK    3  A    between atoms: N_8  and  C_9 
ROOT
HETATM    1  C   UNL     1     -40.356 -51.836  12.597  1.00  0.00     0.188 A 
HETATM    2  C   UNL     1     -39.826 -50.784  11.858  1.00  0.00     0.113 A 
HETATM    3  C   UNL     1     -38.516 -50.580  12.393  1.00  0.00     0.053 A 
HETATM    4  C   UNL     1     -37.429 -49.676  11.937  1.00  0.00     0.072 C 
HETATM    5  N   UNL     1     -38.260 -51.417  13.407  1.00  0.00    -0.299 N 
ATOM      6  HN  UNL     1     -37.404 -51.496  13.956  1.00  0.00     0.187 HD
HETATM    7  N   UNL     1     -39.390 -52.127  13.533  1.00  0.00    -0.273 N 
HETATM    8  C   UNL     1     -39.495 -53.119  14.577  1.00  0.00     0.180 C 
ENDROOT
BRANCH   2   9
HETATM    9  N   UNL     1     -40.456 -50.118  10.811  1.00  0.00    -0.303 N 
HETATM   10  C   UNL     1     -41.228 -48.993  11.025  1.00  0.00     0.321 C 
HETATM   11  O   UNL     1     -41.496 -48.511  12.119  1.00  0.00    -0.247 OA
HETATM   12  N   UNL     1     -41.712 -48.473   9.839  1.00  0.00    -0.338 N 
HETATM   13  H   UNL     1     -41.379 -48.848   8.962  1.00  0.00     0.164 HD
HETATM   14  H   UNL     1     -40.730 -50.669  10.020  1.00  0.00     0.171 HD
BRANCH  12  15
HETATM   15  C   UNL     1     -42.554 -47.319   9.819  1.00  0.00     0.090 A 
HETATM   16  C   UNL     1     -44.048 -47.434   9.992  1.00  0.00     0.032 A 
HETATM   17  C   UNL     1     -43.477 -47.014   8.666  1.00  0.00     0.006 A 
HETATM   18  C   UNL     1     -43.592 -47.914   7.481  1.00  0.00     0.012 C 
ENDBRANCH  12  15
ENDBRANCH   2   9
BRANCH   1  19
HETATM   19  O   UNL     1     -41.504 -52.524  12.649  1.00  0.00    -0.338 OA
HETATM   20  C   UNL     1     -42.677 -51.842  13.051  1.00  0.00     0.211 C 
ENDBRANCH   1  19
TORSDOF 3
ENDMDL
MODEL 2
REMARK VINA RESULT:      -5.7      2.516      4.409
REMARK  3 active torsions:
REMARK  status: ('A' for Active; 'I' for Inactive)
REMARK    1  A    between atoms: O_2  and  C_3 
REMARK    2  A    between atoms: C_4  and  N_5 
REMARK       I    between atoms: N_5  and  C_6 
REMARK       I    between atoms: C_6  and  N_8 
REMARK    3  A    between atoms: N_8  and  C_9 
ROOT
HETATM    1  C   UNL     1     -39.662 -50.843  12.162  1.00  0.00     0.188 A 
HETATM    2  C   UNL     1     -40.934 -50.437  11.774  1.00  0.00     0.113 A 
HETATM    3  C   UNL     1     -40.746 -49.145  11.189  1.00  0.00     0.053 A 
HETATM    4  C   UNL     1     -41.717 -48.264  10.491  1.00  0.00     0.072 C 
HETATM    5  N   UNL     1     -39.464 -48.762  11.237  1.00  0.00    -0.299 N 
ATOM      6  HN  UNL     1     -39.052 -47.899  10.882  1.00  0.00     0.187 HD
HETATM    7  N   UNL     1     -38.847 -49.777  11.859  1.00  0.00    -0.273 N 
HETATM    8  C   UNL     1     -37.430 -49.691  12.129  1.00  0.00     0.180 C 
ENDROOT
BRANCH   2   9
HETATM    9  N   UNL     1     -42.108 -51.170  11.915  1.00  0.00    -0.303 N 
HETATM   10  C   UNL     1     -43.038 -50.873  12.892  1.00  0.00     0.321 C 
HETATM   11  O   UNL     1     -42.912 -50.012  13.756  1.00  0.00    -0.247 OA
HETATM   12  N   UNL     1     -44.144 -51.698  12.813  1.00  0.00    -0.338 N 
HETATM   13  H   UNL     1     -44.241 -52.321  12.023  1.00  0.00     0.164 HD
HETATM   14  H   UNL     1     -42.078 -52.135  11.647  1.00  0.00     0.171 HD
BRANCH  12  15
HETATM   15  C   UNL     1     -45.227 -51.586  13.738  1.00  0.00     0.090 A 
HETATM   16  C   UNL     1     -46.131 -52.756  14.034  1.00  0.00     0.032 A 
HETATM   17  C   UNL     1     -46.668 -51.562  13.294  1.00  0.00     0.006 A 
HETATM   18  C   UNL     1     -47.059 -51.683  11.859  1.00  0.00     0.012 C 
ENDBRANCH  12  15
ENDBRANCH   2   9
BRANCH   1  19
HETATM   19  O   UNL     1     -39.108 -51.903  12.765  1.00  0.00    -0.338 OA
HETATM   20  C   UNL     1     -39.455 -52.167  14.111  1.00  0.00     0.211 C 
ENDBRANCH   1  19
TORSDOF 3
ENDMDL
MODEL 3
REMARK VINA RESULT:      -5.7      2.825      5.769
REMARK  3 active torsions:
REMARK  status: ('A' for Active; 'I' for Inactive)
REMARK    1  A    between atoms: O_2  and  C_3 
REMARK    2  A    between atoms: C_4  and  N_5 
REMARK       I    between atoms: N_5  and  C_6 
REMARK       I    between atoms: C_6  and  N_8 
REMARK    3  A    between atoms: N_8  and  C_9 
ROOT
HETATM    1  C   UNL     1     -40.772 -47.498  11.225  1.00  0.00     0.188 A 
HETATM    2  C   UNL     1     -41.971 -48.116  10.890  1.00  0.00     0.113 A 
HETATM    3  C   UNL     1     -42.559 -47.266   9.901  1.00  0.00     0.053 A 
HETATM    4  C   UNL     1     -43.784 -47.460   9.083  1.00  0.00     0.072 C 
HETATM    5  N   UNL     1     -41.803 -46.188   9.662  1.00  0.00    -0.299 N 
ATOM      6  HN  UNL     1     -41.977 -45.432   8.999  1.00  0.00     0.187 HD
HETATM    7  N   UNL     1     -40.763 -46.332  10.496  1.00  0.00    -0.273 N 
HETATM    8  C   UNL     1     -39.741 -45.311  10.543  1.00  0.00     0.180 C 
ENDROOT
BRANCH   2   9
HETATM    9  N   UNL     1     -42.448 -49.316  11.405  1.00  0.00    -0.303 N 
HETATM   10  C   UNL     1     -43.086 -49.381  12.628  1.00  0.00     0.321 C 
HETATM   11  O   UNL     1     -43.238 -48.442  13.401  1.00  0.00    -0.247 OA
HETATM   12  N   UNL     1     -43.516 -50.663  12.914  1.00  0.00    -0.338 N 
HETATM   13  H   UNL     1     -43.454 -51.376  12.200  1.00  0.00     0.164 HD
HETATM   14  H   UNL     1     -41.956 -50.151  11.146  1.00  0.00     0.171 HD
BRANCH  12  15
HETATM   15  C   UNL     1     -44.185 -50.971  14.138  1.00  0.00     0.090 A 
HETATM   16  C   UNL     1     -44.548 -52.389  14.500  1.00  0.00     0.032 A 
HETATM   17  C   UNL     1     -45.631 -51.397  14.183  1.00  0.00     0.006 A 
HETATM   18  C   UNL     1     -46.451 -51.552  12.946  1.00  0.00     0.012 C 
ENDBRANCH  12  15
ENDBRANCH   2   9
BRANCH   1  19
HETATM   19  O   UNL     1     -39.750 -47.719  12.064  1.00  0.00    -0.338 OA
HETATM   20  C   UNL     1     -38.952 -48.869  11.861  1.00  0.00     0.211 C 
ENDBRANCH   1  19
TORSDOF 3
ENDMDL
MODEL 4
REMARK VINA RESULT:      -5.6      3.000      4.561
REMARK  3 active torsions:
REMARK  status: ('A' for Active; 'I' for Inactive)
REMARK    1  A    between atoms: O_2  and  C_3 
REMARK    2  A    between atoms: C_4  and  N_5 
REMARK       I    between atoms: N_5  and  C_6 
REMARK       I    between atoms: C_6  and  N_8 
REMARK    3  A    between atoms: N_8  and  C_9 
ROOT
HETATM    1  C   UNL     1     -44.487 -53.398  12.674  1.00  0.00     0.188 A 
HETATM    2  C   UNL     1     -43.156 -52.998  12.657  1.00  0.00     0.113 A 
HETATM    3  C   UNL     1     -42.483 -53.917  13.522  1.00  0.00     0.053 A 
HETATM    4  C   UNL     1     -41.034 -54.069  13.811  1.00  0.00     0.072 C 
HETATM    5  N   UNL     1     -43.332 -54.801  14.061  1.00  0.00    -0.299 N 
ATOM      6  HN  UNL     1     -43.120 -55.570  14.697  1.00  0.00     0.187 HD
HETATM    7  N   UNL     1     -44.527 -54.442  13.569  1.00  0.00    -0.273 N 
HETATM    8  C   UNL     1     -45.711 -55.164  13.976  1.00  0.00     0.180 C 
ENDROOT
BRANCH   2   9
HETATM    9  N   UNL     1     -42.625 -51.942  11.922  1.00  0.00    -0.303 N 
HETATM   10  C   UNL     1     -42.422 -50.696  12.481  1.00  0.00     0.321 C 
HETATM   11  O   UNL     1     -42.735 -50.367  13.620  1.00  0.00    -0.247 OA
HETATM   12  N   UNL     1     -41.842 -49.821  11.582  1.00  0.00    -0.338 N 
HETATM   13  H   UNL     1     -41.514 -50.171  10.693  1.00  0.00     0.164 HD
HETATM   14  H   UNL     1     -42.814 -51.933  10.938  1.00  0.00     0.171 HD
BRANCH  12  15
HETATM   15  C   UNL     1     -41.558 -48.466  11.936  1.00  0.00     0.090 A 
HETATM   16  C   UNL     1     -40.977 -47.498  10.936  1.00  0.00     0.032 A 
HETATM   17  C   UNL     1     -40.150 -47.955  12.105  1.00  0.00     0.006 A 
HETATM   18  C   UNL     1     -38.957 -48.825  11.886  1.00  0.00     0.012 C 
ENDBRANCH  12  15
ENDBRANCH   2   9
BRANCH   1  19
HETATM   19  O   UNL     1     -45.643 -53.000  12.125  1.00  0.00    -0.338 OA
HETATM   20  C   UNL     1     -46.244 -51.815  12.612  1.00  0.00     0.211 C 
ENDBRANCH   1  19
TORSDOF 3
ENDMDL
MODEL 5
REMARK VINA RESULT:      -5.3      4.240      6.573
REMARK  3 active torsions:
REMARK  status: ('A' for Active; 'I' for Inactive)
REMARK    1  A    between atoms: O_2  and  C_3 
REMARK    2  A    between atoms: C_4  and  N_5 
REMARK       I    between atoms: N_5  and  C_6 
REMARK       I    between atoms: C_6  and  N_8 
REMARK    3  A    between atoms: N_8  and  C_9 
ROOT
HETATM    1  C   UNL     1     -43.647 -46.648   9.307  1.00  0.00     0.188 A 
HETATM    2  C   UNL     1     -42.912 -46.534  10.481  1.00  0.00     0.113 A 
HETATM    3  C   UNL     1     -41.890 -47.528  10.375  1.00  0.00     0.053 A 
HETATM    4  C   UNL     1     -40.734 -47.807  11.266  1.00  0.00     0.072 C 
HETATM    5  N   UNL     1     -41.997 -48.228   9.240  1.00  0.00    -0.299 N 
ATOM      6  HN  UNL     1     -41.396 -48.982   8.907  1.00  0.00     0.187 HD
HETATM    7  N   UNL     1     -43.079 -47.709   8.641  1.00  0.00    -0.273 N 
HETATM    8  C   UNL     1     -43.530 -48.259   7.384  1.00  0.00     0.180 C 
ENDROOT
BRANCH   2   9
HETATM    9  N   UNL     1     -43.137 -45.617  11.504  1.00  0.00    -0.303 N 
HETATM   10  C   UNL     1     -42.507 -44.389  11.531  1.00  0.00     0.321 C 
HETATM   11  O   UNL     1     -41.662 -44.005  10.731  1.00  0.00    -0.247 OA
HETATM   12  N   UNL     1     -42.918 -43.627  12.610  1.00  0.00    -0.338 N 
HETATM   13  H   UNL     1     -43.687 -43.950  13.178  1.00  0.00     0.164 HD
HETATM   14  H   UNL     1     -43.366 -45.989  12.407  1.00  0.00     0.171 HD
BRANCH  12  15
HETATM   15  C   UNL     1     -42.382 -42.325  12.851  1.00  0.00     0.090 A 
HETATM   16  C   UNL     1     -43.046 -41.367  13.808  1.00  0.00     0.032 A 
HETATM   17  C   UNL     1     -43.044 -41.073  12.334  1.00  0.00     0.006 A 
HETATM   18  C   UNL     1     -44.320 -41.110  11.560  1.00  0.00     0.012 C 
ENDBRANCH  12  15
ENDBRANCH   2   9
BRANCH   1  19
HETATM   19  O   UNL     1     -44.719 -46.064   8.755  1.00  0.00    -0.338 OA
HETATM   20  C   UNL     1     -46.001 -46.552   9.101  1.00  0.00     0.211 C 
ENDBRANCH   1  19
TORSDOF 3
ENDMDL
MODEL 6
REMARK VINA RESULT:      -5.3      2.904      6.903
REMARK  3 active torsions:
REMARK  status: ('A' for Active; 'I' for Inactive)
REMARK    1  A    between atoms: O_2  and  C_3 
REMARK    2  A    between atoms: C_4  and  N_5 
REMARK       I    between atoms: N_5  and  C_6 
REMARK       I    between atoms: C_6  and  N_8 
REMARK    3  A    between atoms: N_8  and  C_9 
ROOT
HETATM    1  C   UNL     1     -41.059 -44.775  10.932  1.00  0.00     0.188 A 
HETATM    2  C   UNL     1     -41.241 -46.131  10.689  1.00  0.00     0.113 A 
HETATM    3  C   UNL     1     -42.650 -46.286  10.497  1.00  0.00     0.053 A 
HETATM    4  C   UNL     1     -43.432 -47.482  10.090  1.00  0.00     0.072 C 
HETATM    5  N   UNL     1     -43.299 -45.124  10.641  1.00  0.00    -0.299 N 
ATOM      6  HN  UNL     1     -44.299 -44.946  10.545  1.00  0.00     0.187 HD
HETATM    7  N   UNL     1     -42.329 -44.248  10.940  1.00  0.00    -0.273 N 
HETATM    8  C   UNL     1     -42.672 -42.870  11.209  1.00  0.00     0.180 C 
ENDROOT
BRANCH   2   9
HETATM    9  N   UNL     1     -40.240 -47.096  10.625  1.00  0.00    -0.303 N 
HETATM   10  C   UNL     1     -39.763 -47.725  11.757  1.00  0.00     0.321 C 
HETATM   11  O   UNL     1     -40.100 -47.471  12.908  1.00  0.00    -0.247 OA
HETATM   12  N   UNL     1     -38.809 -48.678  11.449  1.00  0.00    -0.338 N 
HETATM   13  H   UNL     1     -38.643 -48.916  10.482  1.00  0.00     0.164 HD
HETATM   14  H   UNL     1     -39.572 -47.011   9.881  1.00  0.00     0.171 HD
BRANCH  12  15
HETATM   15  C   UNL     1     -38.161 -49.441  12.468  1.00  0.00     0.090 A 
HETATM   16  C   UNL     1     -37.459 -50.738  12.151  1.00  0.00     0.032 A 
HETATM   17  C   UNL     1     -38.717 -50.749  12.973  1.00  0.00     0.006 A 
HETATM   18  C   UNL     1     -39.969 -51.345  12.420  1.00  0.00     0.012 C 
ENDBRANCH  12  15
ENDBRANCH   2   9
BRANCH   1  19
HETATM   19  O   UNL     1     -40.037 -43.951  11.200  1.00  0.00    -0.338 OA
HETATM   20  C   UNL     1     -39.412 -44.047  12.466  1.00  0.00     0.211 C 
ENDBRANCH   1  19
TORSDOF 3
ENDMDL
MODEL 7
REMARK VINA RESULT:      -5.3      2.312      4.987
REMARK  3 active torsions:
REMARK  status: ('A' for Active; 'I' for Inactive)
REMARK    1  A    between atoms: O_2  and  C_3 
REMARK    2  A    between atoms: C_4  and  N_5 
REMARK       I    between atoms: N_5  and  C_6 
REMARK       I    between atoms: C_6  and  N_8 
REMARK    3  A    between atoms: N_8  and  C_9 
ROOT
HETATM    1  C   UNL     1     -41.219 -48.523  11.035  1.00  0.00     0.188 A 
HETATM    2  C   UNL     1     -40.729 -49.780  11.368  1.00  0.00     0.113 A 
HETATM    3  C   UNL     1     -39.367 -49.559  11.744  1.00  0.00     0.053 A 
HETATM    4  C   UNL     1     -38.367 -50.502  12.307  1.00  0.00     0.072 C 
HETATM    5  N   UNL     1     -39.025 -48.270  11.625  1.00  0.00    -0.299 N 
ATOM      6  HN  UNL     1     -38.127 -47.836  11.837  1.00  0.00     0.187 HD
HETATM    7  N   UNL     1     -40.137 -47.682  11.161  1.00  0.00    -0.273 N 
HETATM    8  C   UNL     1     -40.126 -46.268  10.867  1.00  0.00     0.180 C 
ENDROOT
BRANCH   2   9
HETATM    9  N   UNL     1     -41.449 -50.972  11.354  1.00  0.00    -0.303 N 
HETATM   10  C   UNL     1     -42.092 -51.446  12.479  1.00  0.00     0.321 C 
HETATM   11  O   UNL     1     -42.049 -50.934  13.592  1.00  0.00    -0.247 OA
HETATM   12  N   UNL     1     -42.781 -52.617  12.219  1.00  0.00    -0.338 N 
HETATM   13  H   UNL     1     -42.864 -52.939  11.266  1.00  0.00     0.164 HD
HETATM   14  H   UNL     1     -41.140 -51.683  10.718  1.00  0.00     0.171 HD
BRANCH  12  15
HETATM   15  C   UNL     1     -43.504 -53.300  13.245  1.00  0.00     0.090 A 
HETATM   16  C   UNL     1     -44.639 -54.236  12.913  1.00  0.00     0.032 A 
HETATM   17  C   UNL     1     -44.921 -52.935  13.611  1.00  0.00     0.006 A 
HETATM   18  C   UNL     1     -45.670 -51.853  12.906  1.00  0.00     0.012 C 
ENDBRANCH  12  15
ENDBRANCH   2   9
BRANCH   1  19
HETATM   19  O   UNL     1     -42.371 -47.998  10.597  1.00  0.00    -0.338 OA
HETATM   20  C   UNL     1     -43.432 -47.845  11.520  1.00  0.00     0.211 C 
ENDBRANCH   1  19
TORSDOF 3
ENDMDL
MODEL 8
REMARK VINA RESULT:      -5.3      1.951      3.262
REMARK  3 active torsions:
REMARK  status: ('A' for Active; 'I' for Inactive)
REMARK    1  A    between atoms: O_2  and  C_3 
REMARK    2  A    between atoms: C_4  and  N_5 
REMARK       I    between atoms: N_5  and  C_6 
REMARK       I    between atoms: C_6  and  N_8 
REMARK    3  A    between atoms: N_8  and  C_9 
ROOT
HETATM    1  C   UNL     1     -40.109 -52.489  12.960  1.00  0.00     0.188 A 
HETATM    2  C   UNL     1     -41.353 -52.224  12.401  1.00  0.00     0.113 A 
HETATM    3  C   UNL     1     -42.199 -53.278  12.868  1.00  0.00     0.053 A 
HETATM    4  C   UNL     1     -43.663 -53.471  12.702  1.00  0.00     0.072 C 
HETATM    5  N   UNL     1     -41.528 -54.149  13.631  1.00  0.00    -0.299 N 
ATOM      6  HN  UNL     1     -41.888 -54.981  14.101  1.00  0.00     0.187 HD
HETATM    7  N   UNL     1     -40.274 -53.675  13.636  1.00  0.00    -0.273 N 
HETATM    8  C   UNL     1     -39.242 -54.399  14.341  1.00  0.00     0.180 C 
ENDROOT
BRANCH   2   9
HETATM    9  N   UNL     1     -41.675 -51.140  11.590  1.00  0.00    -0.303 N 
HETATM   10  C   UNL     1     -42.086 -49.932  12.119  1.00  0.00     0.321 C 
HETATM   11  O   UNL     1     -42.274 -49.704  13.308  1.00  0.00    -0.247 OA
HETATM   12  N   UNL     1     -42.304 -48.989  11.132  1.00  0.00    -0.338 N 
HETATM   13  H   UNL     1     -42.038 -49.199  10.180  1.00  0.00     0.164 HD
HETATM   14  H   UNL     1     -42.045 -51.345  10.681  1.00  0.00     0.171 HD
BRANCH  12  15
HETATM   15  C   UNL     1     -42.755 -47.671  11.446  1.00  0.00     0.090 A 
HETATM   16  C   UNL     1     -42.875 -46.608  10.383  1.00  0.00     0.032 A 
HETATM   17  C   UNL     1     -41.827 -46.482  11.453  1.00  0.00     0.006 A 
HETATM   18  C   UNL     1     -40.381 -46.601  11.105  1.00  0.00     0.012 C 
ENDBRANCH  12  15
ENDBRANCH   2   9
BRANCH   1  19
HETATM   19  O   UNL     1     -38.884 -51.945  12.942  1.00  0.00    -0.338 OA
HETATM   20  C   UNL     1     -38.677 -50.735  13.645  1.00  0.00     0.211 C 
ENDBRANCH   1  19
TORSDOF 3
ENDMDL
MODEL 9
REMARK VINA RESULT:      -5.2      1.166      2.495
REMARK  3 active torsions:
REMARK  status: ('A' for Active; 'I' for Inactive)
REMARK    1  A    between atoms: O_2  and  C_3 
REMARK    2  A    between atoms: C_4  and  N_5 
REMARK       I    between atoms: N_5  and  C_6 
REMARK       I    between atoms: C_6  and  N_8 
REMARK    3  A    between atoms: N_8  and  C_9 
ROOT
HETATM    1  C   UNL     1     -39.340 -50.998  12.801  1.00  0.00     0.188 A 
HETATM    2  C   UNL     1     -40.492 -51.092  12.031  1.00  0.00     0.113 A 
HETATM    3  C   UNL     1     -41.243 -52.159  12.617  1.00  0.00     0.053 A 
HETATM    4  C   UNL     1     -42.610 -52.648  12.304  1.00  0.00     0.072 C 
HETATM    5  N   UNL     1     -40.595 -52.709  13.651  1.00  0.00    -0.299 N 
ATOM      6  HN  UNL     1     -40.904 -53.473  14.253  1.00  0.00     0.187 HD
HETATM    7  N   UNL     1     -39.444 -52.023  13.712  1.00  0.00    -0.273 N 
HETATM    8  C   UNL     1     -38.456 -52.378  14.705  1.00  0.00     0.180 C 
ENDROOT
BRANCH   2   9
HETATM    9  N   UNL     1     -40.824 -50.283  10.947  1.00  0.00    -0.303 N 
HETATM   10  C   UNL     1     -41.595 -49.148  11.096  1.00  0.00     0.321 C 
HETATM   11  O   UNL     1     -42.115 -48.773  12.141  1.00  0.00    -0.247 OA
HETATM   12  N   UNL     1     -41.755 -48.478   9.897  1.00  0.00    -0.338 N 
HETATM   13  H   UNL     1     -41.225 -48.775   9.091  1.00  0.00     0.164 HD
HETATM   14  H   UNL     1     -40.906 -50.730  10.054  1.00  0.00     0.171 HD
BRANCH  12  15
HETATM   15  C   UNL     1     -42.536 -47.285   9.808  1.00  0.00     0.090 A 
HETATM   16  C   UNL     1     -44.039 -47.318   9.935  1.00  0.00     0.032 A 
HETATM   17  C   UNL     1     -43.406 -46.978   8.615  1.00  0.00     0.006 A 
HETATM   18  C   UNL     1     -43.529 -47.915   7.460  1.00  0.00     0.012 C 
ENDBRANCH  12  15
ENDBRANCH   2   9
BRANCH   1  19
HETATM   19  O   UNL     1     -38.224 -50.256  12.820  1.00  0.00    -0.338 OA
HETATM   20  C   UNL     1     -37.450 -50.177  11.639  1.00  0.00     0.211 C 
ENDBRANCH   1  19
TORSDOF 3
ENDMDL
