MODEL 1
REMARK VINA RESULT:      -6.0      0.000      0.000
REMARK  5 active torsions:
REMARK  status: ('A' for Active; 'I' for Inactive)
REMARK    1  A    between atoms: C_2  and  C_3 
REMARK    2  A    between atoms: C_3  and  N_4 
REMARK       I    between atoms: N_8  and  C_12 
REMARK       I    between atoms: C_12  and  N_14 
REMARK    3  A    between atoms: N_14  and  C_15 
REMARK    4  A    between atoms: C_15  and  C_16 
REMARK    5  A    between atoms: C_16  and  C_17 
ROOT
HETATM    1  N   UNL     1     -44.353 -52.871  14.273  1.00  0.00    -0.351 N 
HETATM    2  C   UNL     1     -43.698 -51.968  15.221  1.00  0.00     0.127 C 
HETATM    3  C   UNL     1     -42.812 -52.695  16.220  1.00  0.00     0.040 C 
HETATM    4  C   UNL     1     -41.383 -52.820  15.700  1.00  0.00     0.129 C 
HETATM    5  N   UNL     1     -41.298 -53.177  14.286  1.00  0.00    -0.325 N 
HETATM    6  C   UNL     1     -42.244 -54.165  13.778  1.00  0.00     0.230 C 
HETATM    7  C   UNL     1     -43.657 -53.696  13.384  1.00  0.00     0.237 C 
HETATM    8  O   UNL     1     -44.239 -54.265  12.453  1.00  0.00    -0.272 OA
HETATM    9  C   UNL     1     -40.398 -52.660  13.371  1.00  0.00     0.318 C 
HETATM   10  O   UNL     1     -40.480 -52.874  12.165  1.00  0.00    -0.247 OA
HETATM   11  N   UNL     1     -39.396 -51.884  13.897  1.00  0.00    -0.343 N 
HETATM   12  H   UNL     1     -39.099 -52.137  14.826  1.00  0.00     0.164 HD
ENDROOT
BRANCH  11  13
HETATM   13  C   UNL     1     -38.364 -51.358  13.018  1.00  0.00     0.129 C 
BRANCH  13  14
HETATM   14  C   UNL     1     -38.250 -49.834  13.110  1.00  0.00     0.060 C 
BRANCH  14  15
HETATM   15  C   UNL     1     -39.316 -49.137  12.312  1.00  0.00    -0.041 A 
HETATM   16  C   UNL     1     -39.766 -47.861  12.669  1.00  0.00     0.010 A 
HETATM   17  C   UNL     1     -40.763 -47.244  11.918  1.00  0.00     0.018 A 
HETATM   18  C   UNL     1     -41.284 -47.930  10.836  1.00  0.00     0.087 A 
HETATM   19  N   UNL     1     -40.882 -49.167  10.468  1.00  0.00    -0.375 N 
HETATM   20  C   UNL     1     -39.907 -49.739  11.211  1.00  0.00     0.094 A 
ATOM     21  HN  UNL     1     -41.295 -49.647   9.668  1.00  0.00     0.164 HD
ENDBRANCH  14  15
ENDBRANCH  13  14
ENDBRANCH  11  13
BRANCH   1  22
HETATM   22  C   UNL     1     -45.796 -53.095  14.401  1.00  0.00     0.125 C 
BRANCH  22  23
HETATM   23  C   UNL     1     -46.702 -51.928  14.014  1.00  0.00     0.015 C 
HETATM   24  C   UNL     1     -46.620 -51.574  12.540  1.00  0.00     0.006 C 
ENDBRANCH  22  23
ENDBRANCH   1  22
TORSDOF 5
ENDMDL
MODEL 2
REMARK VINA RESULT:      -5.9      2.063      6.848
REMARK  5 active torsions:
REMARK  status: ('A' for Active; 'I' for Inactive)
REMARK    1  A    between atoms: C_2  and  C_3 
REMARK    2  A    between atoms: C_3  and  N_4 
REMARK       I    between atoms: N_8  and  C_12 
REMARK       I    between atoms: C_12  and  N_14 
REMARK    3  A    between atoms: N_14  and  C_15 
REMARK    4  A    between atoms: C_15  and  C_16 
REMARK    5  A    between atoms: C_16  and  C_17 
ROOT
HETATM    1  N   UNL     1     -39.739 -51.610  14.162  1.00  0.00    -0.351 N 
HETATM    2  C   UNL     1     -40.625 -50.450  14.254  1.00  0.00     0.127 C 
HETATM    3  C   UNL     1     -40.894 -49.797  12.907  1.00  0.00     0.040 C 
HETATM    4  C   UNL     1     -42.126 -50.401  12.239  1.00  0.00     0.129 C 
HETATM    5  N   UNL     1     -42.205 -51.855  12.350  1.00  0.00    -0.325 N 
HETATM    6  C   UNL     1     -40.968 -52.615  12.202  1.00  0.00     0.230 C 
HETATM    7  C   UNL     1     -40.041 -52.758  13.423  1.00  0.00     0.237 C 
HETATM    8  O   UNL     1     -39.380 -53.795  13.555  1.00  0.00    -0.272 OA
HETATM    9  C   UNL     1     -43.353 -52.589  12.589  1.00  0.00     0.318 C 
HETATM   10  O   UNL     1     -43.334 -53.791  12.836  1.00  0.00    -0.247 OA
HETATM   11  N   UNL     1     -44.530 -51.886  12.534  1.00  0.00    -0.343 N 
HETATM   12  H   UNL     1     -44.538 -51.111  11.890  1.00  0.00     0.164 HD
ENDROOT
BRANCH  11  13
HETATM   13  C   UNL     1     -45.792 -52.589  12.702  1.00  0.00     0.129 C 
BRANCH  13  14
HETATM   14  C   UNL     1     -46.790 -51.791  13.545  1.00  0.00     0.060 C 
BRANCH  14  15
HETATM   15  C   UNL     1     -46.699 -52.133  15.005  1.00  0.00    -0.041 A 
HETATM   16  C   UNL     1     -47.242 -51.288  15.979  1.00  0.00     0.010 A 
HETATM   17  C   UNL     1     -47.134 -51.625  17.325  1.00  0.00     0.018 A 
HETATM   18  C   UNL     1     -46.475 -52.796  17.655  1.00  0.00     0.087 A 
HETATM   19  N   UNL     1     -45.928 -53.630  16.743  1.00  0.00    -0.375 N 
HETATM   20  C   UNL     1     -46.056 -53.282  15.442  1.00  0.00     0.094 A 
ATOM     21  HN  UNL     1     -45.442 -54.482  17.022  1.00  0.00     0.164 HD
ENDBRANCH  14  15
ENDBRANCH  13  14
ENDBRANCH  11  13
BRANCH   1  22
HETATM   22  C   UNL     1     -38.372 -51.491  14.681  1.00  0.00     0.125 C 
BRANCH  22  23
HETATM   23  C   UNL     1     -37.452 -50.514  13.953  1.00  0.00     0.015 C 
HETATM   24  C   UNL     1     -37.242 -50.869  12.491  1.00  0.00     0.006 C 
ENDBRANCH  22  23
ENDBRANCH   1  22
TORSDOF 5
ENDMDL
MODEL 3
REMARK VINA RESULT:      -5.5      2.146      6.745
REMARK  5 active torsions:
REMARK  status: ('A' for Active; 'I' for Inactive)
REMARK    1  A    between atoms: C_2  and  C_3 
REMARK    2  A    between atoms: C_3  and  N_4 
REMARK       I    between atoms: N_8  and  C_12 
REMARK       I    between atoms: C_12  and  N_14 
REMARK    3  A    between atoms: N_14  and  C_15 
REMARK    4  A    between atoms: C_15  and  C_16 
REMARK    5  A    between atoms: C_16  and  C_17 
ROOT
HETATM    1  N   UNL     1     -39.585 -50.370  14.817  1.00  0.00    -0.351 N 
HETATM    2  C   UNL     1     -40.427 -49.636  13.871  1.00  0.00     0.127 C 
HETATM    3  C   UNL     1     -40.090 -49.936  12.418  1.00  0.00     0.040 C 
HETATM    4  C   UNL     1     -40.914 -51.109  11.894  1.00  0.00     0.129 C 
HETATM    5  N   UNL     1     -41.032 -52.218  12.838  1.00  0.00    -0.325 N 
HETATM    6  C   UNL     1     -39.851 -52.573  13.618  1.00  0.00     0.230 C 
HETATM    7  C   UNL     1     -39.539 -51.765  14.891  1.00  0.00     0.237 C 
HETATM    8  O   UNL     1     -38.998 -52.336  15.846  1.00  0.00    -0.272 OA
HETATM    9  C   UNL     1     -42.170 -52.969  13.069  1.00  0.00     0.318 C 
HETATM   10  O   UNL     1     -42.258 -53.777  13.988  1.00  0.00    -0.247 OA
HETATM   11  N   UNL     1     -43.210 -52.755  12.199  1.00  0.00    -0.343 N 
HETATM   12  H   UNL     1     -42.941 -52.501  11.262  1.00  0.00     0.164 HD
ENDROOT
BRANCH  11  13
HETATM   13  C   UNL     1     -44.421 -53.552  12.322  1.00  0.00     0.129 C 
BRANCH  13  14
HETATM   14  C   UNL     1     -45.665 -52.683  12.522  1.00  0.00     0.060 C 
BRANCH  14  15
HETATM   15  C   UNL     1     -46.045 -52.562  13.971  1.00  0.00    -0.041 A 
HETATM   16  C   UNL     1     -46.689 -51.420  14.456  1.00  0.00     0.010 A 
HETATM   17  C   UNL     1     -47.019 -51.331  15.805  1.00  0.00     0.018 A 
HETATM   18  C   UNL     1     -46.684 -52.390  16.630  1.00  0.00     0.087 A 
HETATM   19  N   UNL     1     -46.052 -53.504  16.200  1.00  0.00    -0.375 N 
HETATM   20  C   UNL     1     -45.751 -53.567  14.883  1.00  0.00     0.094 A 
ATOM     21  HN  UNL     1     -45.813 -54.263  16.839  1.00  0.00     0.164 HD
ENDBRANCH  14  15
ENDBRANCH  13  14
ENDBRANCH  11  13
BRANCH   1  22
HETATM   22  C   UNL     1     -38.575 -49.627  15.578  1.00  0.00     0.125 C 
BRANCH  22  23
HETATM   23  C   UNL     1     -37.298 -49.256  14.829  1.00  0.00     0.015 C 
HETATM   24  C   UNL     1     -36.864 -47.821  15.065  1.00  0.00     0.006 C 
ENDBRANCH  22  23
ENDBRANCH   1  22
TORSDOF 5
ENDMDL
MODEL 4
REMARK VINA RESULT:      -5.5      1.771      2.712
REMARK  5 active torsions:
REMARK  status: ('A' for Active; 'I' for Inactive)
REMARK    1  A    between atoms: C_2  and  C_3 
REMARK    2  A    between atoms: C_3  and  N_4 
REMARK       I    between atoms: N_8  and  C_12 
REMARK       I    between atoms: C_12  and  N_14 
REMARK    3  A    between atoms: N_14  and  C_15 
REMARK    4  A    between atoms: C_15  and  C_16 
REMARK    5  A    between atoms: C_16  and  C_17 
ROOT
HETATM    1  N   UNL     1     -44.473 -53.247  14.568  1.00  0.00    -0.351 N 
HETATM    2  C   UNL     1     -43.630 -52.554  15.542  1.00  0.00     0.127 C 
HETATM    3  C   UNL     1     -42.498 -53.420  16.073  1.00  0.00     0.040 C 
HETATM    4  C   UNL     1     -41.243 -53.271  15.218  1.00  0.00     0.129 C 
HETATM    5  N   UNL     1     -41.506 -53.251  13.782  1.00  0.00    -0.325 N 
HETATM    6  C   UNL     1     -42.518 -54.165  13.264  1.00  0.00     0.230 C 
HETATM    7  C   UNL     1     -43.999 -53.750  13.353  1.00  0.00     0.237 C 
HETATM    8  O   UNL     1     -44.779 -54.120  12.467  1.00  0.00    -0.272 OA
HETATM    9  C   UNL     1     -40.882 -52.435  12.854  1.00  0.00     0.318 C 
HETATM   10  O   UNL     1     -41.257 -52.344  11.689  1.00  0.00    -0.247 OA
HETATM   11  N   UNL     1     -39.804 -51.723  13.319  1.00  0.00    -0.343 N 
HETATM   12  H   UNL     1     -39.275 -52.172  14.049  1.00  0.00     0.164 HD
ENDROOT
BRANCH  11  13
HETATM   13  C   UNL     1     -39.043 -50.895  12.397  1.00  0.00     0.129 C 
BRANCH  13  14
HETATM   14  C   UNL     1     -37.588 -50.725  12.841  1.00  0.00     0.060 C 
BRANCH  14  15
HETATM   15  C   UNL     1     -37.451 -49.736  13.964  1.00  0.00    -0.041 A 
HETATM   16  C   UNL     1     -37.753 -48.383  13.775  1.00  0.00     0.010 A 
HETATM   17  C   UNL     1     -37.605 -47.488  14.830  1.00  0.00     0.018 A 
HETATM   18  C   UNL     1     -37.150 -47.975  16.043  1.00  0.00     0.087 A 
HETATM   19  N   UNL     1     -36.838 -49.272  16.259  1.00  0.00    -0.375 N 
HETATM   20  C   UNL     1     -36.999 -50.122  15.218  1.00  0.00     0.094 A 
ATOM     21  HN  UNL     1     -36.497 -49.596  17.165  1.00  0.00     0.164 HD
ENDBRANCH  14  15
ENDBRANCH  13  14
ENDBRANCH  11  13
BRANCH   1  22
HETATM   22  C   UNL     1     -45.830 -53.635  14.966  1.00  0.00     0.125 C 
BRANCH  22  23
HETATM   23  C   UNL     1     -46.816 -52.495  15.215  1.00  0.00     0.015 C 
HETATM   24  C   UNL     1     -46.767 -51.420  14.145  1.00  0.00     0.006 C 
ENDBRANCH  22  23
ENDBRANCH   1  22
TORSDOF 5
ENDMDL
MODEL 5
REMARK VINA RESULT:      -5.5      2.247      6.913
REMARK  5 active torsions:
REMARK  status: ('A' for Active; 'I' for Inactive)
REMARK    1  A    between atoms: C_2  and  C_3 
REMARK    2  A    between atoms: C_3  and  N_4 
REMARK       I    between atoms: N_8  and  C_12 
REMARK       I    between atoms: C_12  and  N_14 
REMARK    3  A    between atoms: N_14  and  C_15 
REMARK    4  A    between atoms: C_15  and  C_16 
REMARK    5  A    between atoms: C_16  and  C_17 
ROOT
HETATM    1  N   UNL     1     -37.801 -50.621  14.538  1.00  0.00    -0.351 N 
HETATM    2  C   UNL     1     -38.963 -50.409  15.402  1.00  0.00     0.127 C 
HETATM    3  C   UNL     1     -39.959 -49.414  14.826  1.00  0.00     0.040 C 
HETATM    4  C   UNL     1     -41.007 -50.118  13.969  1.00  0.00     0.129 C 
HETATM    5  N   UNL     1     -40.459 -51.155  13.099  1.00  0.00    -0.325 N 
HETATM    6  C   UNL     1     -39.183 -50.889  12.445  1.00  0.00     0.230 C 
HETATM    7  C   UNL     1     -37.884 -51.128  13.238  1.00  0.00     0.237 C 
HETATM    8  O   UNL     1     -36.874 -51.504  12.633  1.00  0.00    -0.272 OA
HETATM    9  C   UNL     1     -41.039 -52.384  12.837  1.00  0.00     0.318 C 
HETATM   10  O   UNL     1     -40.457 -53.279  12.232  1.00  0.00    -0.247 OA
HETATM   11  N   UNL     1     -42.321 -52.546  13.299  1.00  0.00    -0.343 N 
HETATM   12  H   UNL     1     -42.879 -51.707  13.324  1.00  0.00     0.164 HD
ENDROOT
BRANCH  11  13
HETATM   13  C   UNL     1     -43.037 -53.778  13.007  1.00  0.00     0.129 C 
BRANCH  13  14
HETATM   14  C   UNL     1     -44.453 -53.514  12.491  1.00  0.00     0.060 C 
BRANCH  14  15
HETATM   15  C   UNL     1     -45.371 -53.029  13.577  1.00  0.00    -0.041 A 
HETATM   16  C   UNL     1     -45.991 -51.778  13.493  1.00  0.00     0.010 A 
HETATM   17  C   UNL     1     -46.828 -51.350  14.519  1.00  0.00     0.018 A 
HETATM   18  C   UNL     1     -47.011 -52.188  15.606  1.00  0.00     0.087 A 
HETATM   19  N   UNL     1     -46.419 -53.397  15.727  1.00  0.00    -0.375 N 
HETATM   20  C   UNL     1     -45.618 -53.791  14.710  1.00  0.00     0.094 A 
ATOM     21  HN  UNL     1     -46.571 -53.985  16.546  1.00  0.00     0.164 HD
ENDBRANCH  14  15
ENDBRANCH  13  14
ENDBRANCH  11  13
BRANCH   1  22
HETATM   22  C   UNL     1     -36.506 -50.075  14.960  1.00  0.00     0.125 C 
BRANCH  22  23
HETATM   23  C   UNL     1     -36.462 -49.420  16.338  1.00  0.00     0.015 C 
HETATM   24  C   UNL     1     -36.259 -47.916  16.278  1.00  0.00     0.006 C 
ENDBRANCH  22  23
ENDBRANCH   1  22
TORSDOF 5
ENDMDL
MODEL 6
REMARK VINA RESULT:      -5.4      2.281      6.703
REMARK  5 active torsions:
REMARK  status: ('A' for Active; 'I' for Inactive)
REMARK    1  A    between atoms: C_2  and  C_3 
REMARK    2  A    between atoms: C_3  and  N_4 
REMARK       I    between atoms: N_8  and  C_12 
REMARK       I    between atoms: C_12  and  N_14 
REMARK    3  A    between atoms: N_14  and  C_15 
REMARK    4  A    between atoms: C_15  and  C_16 
REMARK    5  A    between atoms: C_16  and  C_17 
ROOT
HETATM    1  N   UNL     1     -39.447 -47.559  13.703  1.00  0.00    -0.351 N 
HETATM    2  C   UNL     1     -40.896 -47.535  13.501  1.00  0.00     0.127 C 
HETATM    3  C   UNL     1     -41.292 -47.425  12.037  1.00  0.00     0.040 C 
HETATM    4  C   UNL     1     -41.454 -48.805  11.406  1.00  0.00     0.129 C 
HETATM    5  N   UNL     1     -40.414 -49.756  11.789  1.00  0.00    -0.325 N 
HETATM    6  C   UNL     1     -39.044 -49.261  11.885  1.00  0.00     0.230 C 
HETATM    7  C   UNL     1     -38.609 -48.547  13.179  1.00  0.00     0.237 C 
HETATM    8  O   UNL     1     -37.437 -48.659  13.558  1.00  0.00    -0.272 OA
HETATM    9  C   UNL     1     -40.606 -51.095  12.078  1.00  0.00     0.318 C 
HETATM   10  O   UNL     1     -39.725 -51.806  12.552  1.00  0.00    -0.247 OA
HETATM   11  N   UNL     1     -41.855 -51.590  11.798  1.00  0.00    -0.343 N 
HETATM   12  H   UNL     1     -42.324 -51.158  11.018  1.00  0.00     0.164 HD
ENDROOT
BRANCH  11  13
HETATM   13  C   UNL     1     -42.126 -53.005  12.002  1.00  0.00     0.129 C 
BRANCH  13  14
HETATM   14  C   UNL     1     -42.779 -53.277  13.359  1.00  0.00     0.060 C 
BRANCH  14  15
HETATM   15  C   UNL     1     -44.155 -52.680  13.456  1.00  0.00    -0.041 A 
HETATM   16  C   UNL     1     -44.462 -51.732  14.437  1.00  0.00     0.010 A 
HETATM   17  C   UNL     1     -45.748 -51.204  14.510  1.00  0.00     0.018 A 
HETATM   18  C   UNL     1     -46.691 -51.650  13.600  1.00  0.00     0.087 A 
HETATM   19  N   UNL     1     -46.433 -52.572  12.647  1.00  0.00    -0.375 N 
HETATM   20  C   UNL     1     -45.173 -53.062  12.594  1.00  0.00     0.094 A 
ATOM     21  HN  UNL     1     -47.155 -52.884  11.997  1.00  0.00     0.164 HD
ENDBRANCH  14  15
ENDBRANCH  13  14
ENDBRANCH  11  13
BRANCH   1  22
HETATM   22  C   UNL     1     -38.802 -46.380  14.292  1.00  0.00     0.125 C 
BRANCH  22  23
HETATM   23  C   UNL     1     -39.507 -45.043  14.079  1.00  0.00     0.015 C 
HETATM   24  C   UNL     1     -38.959 -44.262  12.898  1.00  0.00     0.006 C 
ENDBRANCH  22  23
ENDBRANCH   1  22
TORSDOF 5
ENDMDL
MODEL 7
REMARK VINA RESULT:      -5.4      2.413      6.994
REMARK  5 active torsions:
REMARK  status: ('A' for Active; 'I' for Inactive)
REMARK    1  A    between atoms: C_2  and  C_3 
REMARK    2  A    between atoms: C_3  and  N_4 
REMARK       I    between atoms: N_8  and  C_12 
REMARK       I    between atoms: C_12  and  N_14 
REMARK    3  A    between atoms: N_14  and  C_15 
REMARK    4  A    between atoms: C_15  and  C_16 
REMARK    5  A    between atoms: C_16  and  C_17 
ROOT
HETATM    1  N   UNL     1     -39.343 -47.271  13.769  1.00  0.00    -0.351 N 
HETATM    2  C   UNL     1     -40.720 -47.418  13.294  1.00  0.00     0.127 C 
HETATM    3  C   UNL     1     -40.832 -47.399  11.778  1.00  0.00     0.040 C 
HETATM    4  C   UNL     1     -40.723 -48.808  11.201  1.00  0.00     0.129 C 
HETATM    5  N   UNL     1     -39.684 -49.623  11.824  1.00  0.00    -0.325 N 
HETATM    6  C   UNL     1     -38.419 -48.974  12.153  1.00  0.00     0.230 C 
HETATM    7  C   UNL     1     -38.320 -48.175  13.466  1.00  0.00     0.237 C 
HETATM    8  O   UNL     1     -37.240 -48.142  14.067  1.00  0.00    -0.272 OA
HETATM    9  C   UNL     1     -39.787 -50.966  12.141  1.00  0.00     0.318 C 
HETATM   10  O   UNL     1     -38.946 -51.557  12.811  1.00  0.00    -0.247 OA
HETATM   11  N   UNL     1     -40.899 -51.607  11.656  1.00  0.00    -0.343 N 
HETATM   12  H   UNL     1     -41.250 -51.255  10.779  1.00  0.00     0.164 HD
ENDROOT
BRANCH  11  13
HETATM   13  C   UNL     1     -41.055 -53.036  11.878  1.00  0.00     0.129 C 
BRANCH  13  14
HETATM   14  C   UNL     1     -41.420 -53.357  13.329  1.00  0.00     0.060 C 
BRANCH  14  15
HETATM   15  C   UNL     1     -42.860 -53.760  13.476  1.00  0.00    -0.041 A 
HETATM   16  C   UNL     1     -43.244 -54.744  14.392  1.00  0.00     0.010 A 
HETATM   17  C   UNL     1     -44.584 -55.106  14.498  1.00  0.00     0.018 A 
HETATM   18  C   UNL     1     -45.499 -54.475  13.673  1.00  0.00     0.087 A 
HETATM   19  N   UNL     1     -45.163 -53.529  12.769  1.00  0.00    -0.375 N 
HETATM   20  C   UNL     1     -43.855 -53.191  12.693  1.00  0.00     0.094 A 
ATOM     21  HN  UNL     1     -45.863 -53.089  12.171  1.00  0.00     0.164 HD
ENDBRANCH  14  15
ENDBRANCH  13  14
ENDBRANCH  11  13
BRANCH   1  22
HETATM   22  C   UNL     1     -38.952 -46.010  14.407  1.00  0.00     0.125 C 
BRANCH  22  23
HETATM   23  C   UNL     1     -39.745 -44.770  14.001  1.00  0.00     0.015 C 
HETATM   24  C   UNL     1     -39.064 -43.956  12.915  1.00  0.00     0.006 C 
ENDBRANCH  22  23
ENDBRANCH   1  22
TORSDOF 5
ENDMDL
MODEL 8
REMARK VINA RESULT:      -5.3      2.601      4.227
REMARK  5 active torsions:
REMARK  status: ('A' for Active; 'I' for Inactive)
REMARK    1  A    between atoms: C_2  and  C_3 
REMARK    2  A    between atoms: C_3  and  N_4 
REMARK       I    between atoms: N_8  and  C_12 
REMARK       I    between atoms: C_12  and  N_14 
REMARK    3  A    between atoms: N_14  and  C_15 
REMARK    4  A    between atoms: C_15  and  C_16 
REMARK    5  A    between atoms: C_16  and  C_17 
ROOT
HETATM    1  N   UNL     1     -42.480 -53.823  14.534  1.00  0.00    -0.351 N 
HETATM    2  C   UNL     1     -41.114 -53.553  14.085  1.00  0.00     0.127 C 
HETATM    3  C   UNL     1     -40.954 -53.648  12.575  1.00  0.00     0.040 C 
HETATM    4  C   UNL     1     -41.200 -52.297  11.909  1.00  0.00     0.129 C 
HETATM    5  N   UNL     1     -42.341 -51.568  12.456  1.00  0.00    -0.325 N 
HETATM    6  C   UNL     1     -43.537 -52.333  12.795  1.00  0.00     0.230 C 
HETATM    7  C   UNL     1     -43.586 -53.059  14.152  1.00  0.00     0.237 C 
HETATM    8  O   UNL     1     -44.674 -53.177  14.728  1.00  0.00    -0.272 OA
HETATM    9  C   UNL     1     -42.396 -50.206  12.691  1.00  0.00     0.318 C 
HETATM   10  O   UNL     1     -43.317 -49.673  13.303  1.00  0.00    -0.247 OA
HETATM   11  N   UNL     1     -41.347 -49.474  12.193  1.00  0.00    -0.343 N 
HETATM   12  H   UNL     1     -40.933 -49.836  11.348  1.00  0.00     0.164 HD
ENDROOT
BRANCH  11  13
HETATM   13  C   UNL     1     -41.357 -48.026  12.329  1.00  0.00     0.129 C 
BRANCH  13  14
HETATM   14  C   UNL     1     -40.985 -47.322  11.022  1.00  0.00     0.060 C 
BRANCH  14  15
HETATM   15  C   UNL     1     -42.196 -46.872  10.256  1.00  0.00    -0.041 A 
HETATM   16  C   UNL     1     -42.831 -47.722   9.344  1.00  0.00     0.010 A 
HETATM   17  C   UNL     1     -43.945 -47.275   8.640  1.00  0.00     0.018 A 
HETATM   18  C   UNL     1     -44.384 -45.982   8.866  1.00  0.00     0.087 A 
HETATM   19  N   UNL     1     -43.790 -45.129   9.730  1.00  0.00    -0.375 N 
HETATM   20  C   UNL     1     -42.715 -45.593  10.406  1.00  0.00     0.094 A 
ATOM     21  HN  UNL     1     -44.137 -44.179   9.865  1.00  0.00     0.164 HD
ENDBRANCH  14  15
ENDBRANCH  13  14
ENDBRANCH  11  13
BRANCH   1  22
HETATM   22  C   UNL     1     -42.749 -55.080  15.240  1.00  0.00     0.125 C 
BRANCH  22  23
HETATM   23  C   UNL     1     -41.748 -55.479  16.322  1.00  0.00     0.015 C 
HETATM   24  C   UNL     1     -42.341 -55.458  17.720  1.00  0.00     0.006 C 
ENDBRANCH  22  23
ENDBRANCH   1  22
TORSDOF 5
ENDMDL
MODEL 9
REMARK VINA RESULT:      -5.2      2.145      6.733
REMARK  5 active torsions:
REMARK  status: ('A' for Active; 'I' for Inactive)
REMARK    1  A    between atoms: C_2  and  C_3 
REMARK    2  A    between atoms: C_3  and  N_4 
REMARK       I    between atoms: N_8  and  C_12 
REMARK       I    between atoms: C_12  and  N_14 
REMARK    3  A    between atoms: N_14  and  C_15 
REMARK    4  A    between atoms: C_15  and  C_16 
REMARK    5  A    between atoms: C_16  and  C_17 
ROOT
HETATM    1  N   UNL     1     -39.814 -47.821  12.683  1.00  0.00    -0.351 N 
HETATM    2  C   UNL     1     -39.394 -48.838  11.718  1.00  0.00     0.127 C 
HETATM    3  C   UNL     1     -38.051 -49.464  12.059  1.00  0.00     0.040 C 
HETATM    4  C   UNL     1     -38.227 -50.698  12.941  1.00  0.00     0.129 C 
HETATM    5  N   UNL     1     -39.220 -50.531  13.999  1.00  0.00    -0.325 N 
HETATM    6  C   UNL     1     -39.266 -49.247  14.691  1.00  0.00     0.230 C 
HETATM    7  C   UNL     1     -40.038 -48.086  14.038  1.00  0.00     0.237 C 
HETATM    8  O   UNL     1     -40.607 -47.262  14.764  1.00  0.00    -0.272 OA
HETATM    9  C   UNL     1     -40.136 -51.483  14.409  1.00  0.00     0.318 C 
HETATM   10  O   UNL     1     -41.052 -51.234  15.186  1.00  0.00    -0.247 OA
HETATM   11  N   UNL     1     -39.958 -52.741  13.889  1.00  0.00    -0.343 N 
HETATM   12  H   UNL     1     -39.002 -52.995  13.694  1.00  0.00     0.164 HD
ENDROOT
BRANCH  11  13
HETATM   13  C   UNL     1     -40.829 -53.823  14.320  1.00  0.00     0.129 C 
BRANCH  13  14
HETATM   14  C   UNL     1     -41.845 -54.210  13.242  1.00  0.00     0.060 C 
BRANCH  14  15
HETATM   15  C   UNL     1     -43.260 -54.134  13.743  1.00  0.00    -0.041 A 
HETATM   16  C   UNL     1     -43.543 -54.164  15.112  1.00  0.00     0.010 A 
HETATM   17  C   UNL     1     -44.864 -54.105  15.546  1.00  0.00     0.018 A 
HETATM   18  C   UNL     1     -45.863 -54.025  14.592  1.00  0.00     0.087 A 
HETATM   19  N   UNL     1     -45.628 -54.006  13.261  1.00  0.00    -0.375 N 
HETATM   20  C   UNL     1     -44.334 -54.057  12.868  1.00  0.00     0.094 A 
ATOM     21  HN  UNL     1     -46.390 -53.954  12.585  1.00  0.00     0.164 HD
ENDBRANCH  14  15
ENDBRANCH  13  14
ENDBRANCH  11  13
BRANCH   1  22
HETATM   22  C   UNL     1     -39.789 -46.413  12.273  1.00  0.00     0.125 C 
BRANCH  22  23
HETATM   23  C   UNL     1     -40.293 -46.107  10.864  1.00  0.00     0.015 C 
HETATM   24  C   UNL     1     -39.519 -44.992  10.184  1.00  0.00     0.006 C 
ENDBRANCH  22  23
ENDBRANCH   1  22
TORSDOF 5
ENDMDL
