MODEL 1
REMARK VINA RESULT:      -5.8      0.000      0.000
REMARK  4 active torsions:
REMARK  status: ('A' for Active; 'I' for Inactive)
REMARK       I    between atoms: C_2  and  N_3 
REMARK       I    between atoms: C_2  and  N_14 
REMARK    1  A    between atoms: N_3  and  C_4 
REMARK    2  A    between atoms: C_4  and  C_5 
REMARK    3  A    between atoms: N_7  and  C_11 
REMARK    4  A    between atoms: N_14  and  C_15 
ROOT
HETATM    1  O   UNL     1     -38.522 -51.100  12.139  1.00  0.00    -0.247 OA
HETATM    2  C   UNL     1     -39.586 -50.505  11.959  1.00  0.00     0.322 C 
HETATM    3  N   UNL     1     -40.758 -50.909  12.499  1.00  0.00    -0.340 N 
HETATM    4  N   UNL     1     -39.622 -49.397  11.161  1.00  0.00    -0.289 N 
HETATM    5  H   UNL     1     -41.588 -50.371  12.248  1.00  0.00     0.164 HD
HETATM    6  H   UNL     1     -38.765 -49.156  10.687  1.00  0.00     0.172 HD
ENDROOT
BRANCH   3   7
HETATM    7  C   UNL     1     -40.993 -52.054  13.371  1.00  0.00     0.158 C 
BRANCH   7   8
HETATM    8  C   UNL     1     -42.150 -52.866  12.758  1.00  0.00     0.167 C 
HETATM    9  C   UNL     1     -43.583 -52.303  12.925  1.00  0.00     0.306 C 
HETATM   10  N   UNL     1     -44.402 -52.752  14.077  1.00  0.00     0.097 N 
HETATM   11  C   UNL     1     -44.063 -54.135  14.485  1.00  0.00     0.299 C 
HETATM   12  C   UNL     1     -42.567 -54.412  14.506  1.00  0.00     0.198 C 
HETATM   13  O   UNL     1     -42.049 -54.243  13.188  1.00  0.00    -0.381 OA
BRANCH  10  14
HETATM   14  C   UNL     1     -45.856 -52.699  13.750  1.00  0.00     0.223 A 
HETATM   15  C   UNL     1     -46.448 -51.595  12.926  1.00  0.00     0.038 A 
HETATM   16  C   UNL     1     -46.718 -51.656  14.401  1.00  0.00     0.038 A 
ENDBRANCH  10  14
ENDBRANCH   7   8
ENDBRANCH   3   7
BRANCH   4  17
HETATM   17  C   UNL     1     -40.710 -48.590  10.974  1.00  0.00     0.152 A 
HETATM   18  N   UNL     1     -41.574 -48.621   9.988  1.00  0.00    -0.346 N 
HETATM   19  C   UNL     1     -42.524 -47.638  10.180  1.00  0.00     0.097 A 
ATOM     20  HN  UNL     1     -41.547 -49.271   9.202  1.00  0.00     0.167 HD
HETATM   21  C   UNL     1     -42.327 -46.836  11.284  1.00  0.00     0.070 A 
HETATM   22  S   UNL     1     -40.958 -47.393  12.163  1.00  0.00    -0.064 SA
ENDBRANCH   4  17
TORSDOF 4
ENDMDL
MODEL 2
REMARK VINA RESULT:      -5.6      1.782      2.230
REMARK  4 active torsions:
REMARK  status: ('A' for Active; 'I' for Inactive)
REMARK       I    between atoms: C_2  and  N_3 
REMARK       I    between atoms: C_2  and  N_14 
REMARK    1  A    between atoms: N_3  and  C_4 
REMARK    2  A    between atoms: C_4  and  C_5 
REMARK    3  A    between atoms: N_7  and  C_11 
REMARK    4  A    between atoms: N_14  and  C_15 
ROOT
HETATM    1  O   UNL     1     -40.336 -52.710  11.889  1.00  0.00    -0.247 OA
HETATM    2  C   UNL     1     -41.144 -51.781  11.937  1.00  0.00     0.322 C 
HETATM    3  N   UNL     1     -42.412 -51.929  12.386  1.00  0.00    -0.340 N 
HETATM    4  N   UNL     1     -40.784 -50.539  11.502  1.00  0.00    -0.289 N 
HETATM    5  H   UNL     1     -43.013 -51.106  12.339  1.00  0.00     0.164 HD
HETATM    6  H   UNL     1     -39.870 -50.456  11.083  1.00  0.00     0.172 HD
ENDROOT
BRANCH   3   7
HETATM    7  C   UNL     1     -43.045 -53.141  12.894  1.00  0.00     0.158 C 
BRANCH   7   8
HETATM    8  C   UNL     1     -44.569 -52.920  12.835  1.00  0.00     0.167 C 
HETATM    9  C   UNL     1     -45.233 -52.206  14.038  1.00  0.00     0.306 C 
HETATM   10  N   UNL     1     -45.791 -53.025  15.141  1.00  0.00     0.097 N 
HETATM   11  C   UNL     1     -46.279 -54.337  14.657  1.00  0.00     0.299 C 
HETATM   12  C   UNL     1     -45.340 -55.003  13.662  1.00  0.00     0.198 C 
HETATM   13  O   UNL     1     -45.221 -54.168  12.511  1.00  0.00    -0.381 OA
BRANCH  10  14
HETATM   14  C   UNL     1     -46.922 -52.319  15.809  1.00  0.00     0.223 A 
HETATM   15  C   UNL     1     -46.774 -50.939  16.380  1.00  0.00     0.038 A 
HETATM   16  C   UNL     1     -46.888 -52.122  17.298  1.00  0.00     0.038 A 
ENDBRANCH  10  14
ENDBRANCH   7   8
ENDBRANCH   3   7
BRANCH   4  17
HETATM   17  C   UNL     1     -41.547 -49.409  11.606  1.00  0.00     0.152 A 
HETATM   18  N   UNL     1     -42.353 -48.897  10.707  1.00  0.00    -0.346 N 
HETATM   19  C   UNL     1     -42.938 -47.754  11.213  1.00  0.00     0.097 A 
ATOM     20  HN  UNL     1     -42.521 -49.284   9.778  1.00  0.00     0.167 HD
HETATM   21  C   UNL     1     -42.516 -47.385  12.474  1.00  0.00     0.070 A 
HETATM   22  S   UNL     1     -41.421 -48.563  13.081  1.00  0.00    -0.064 SA
ENDBRANCH   4  17
TORSDOF 4
ENDMDL
MODEL 3
REMARK VINA RESULT:      -5.4      2.184      3.612
REMARK  4 active torsions:
REMARK  status: ('A' for Active; 'I' for Inactive)
REMARK       I    between atoms: C_2  and  N_3 
REMARK       I    between atoms: C_2  and  N_14 
REMARK    1  A    between atoms: N_3  and  C_4 
REMARK    2  A    between atoms: C_4  and  C_5 
REMARK    3  A    between atoms: N_7  and  C_11 
REMARK    4  A    between atoms: N_14  and  C_15 
ROOT
HETATM    1  O   UNL     1     -39.016 -50.157  11.967  1.00  0.00    -0.247 OA
HETATM    2  C   UNL     1     -40.119 -49.902  11.480  1.00  0.00     0.322 C 
HETATM    3  N   UNL     1     -41.115 -50.814  11.392  1.00  0.00    -0.340 N 
HETATM    4  N   UNL     1     -40.372 -48.659  10.976  1.00  0.00    -0.289 N 
HETATM    5  H   UNL     1     -41.972 -50.512  10.929  1.00  0.00     0.164 HD
HETATM    6  H   UNL     1     -39.597 -48.014  10.961  1.00  0.00     0.172 HD
ENDROOT
BRANCH   3   7
HETATM    7  C   UNL     1     -41.099 -52.201  11.842  1.00  0.00     0.158 C 
BRANCH   7   8
HETATM    8  C   UNL     1     -41.452 -52.199  13.342  1.00  0.00     0.167 C 
HETATM    9  C   UNL     1     -40.492 -52.947  14.300  1.00  0.00     0.306 C 
HETATM   10  N   UNL     1     -40.774 -54.363  14.639  1.00  0.00     0.097 N 
HETATM   11  C   UNL     1     -42.227 -54.652  14.620  1.00  0.00     0.299 C 
HETATM   12  C   UNL     1     -42.953 -54.031  13.435  1.00  0.00     0.198 C 
HETATM   13  O   UNL     1     -42.826 -52.612  13.511  1.00  0.00    -0.381 OA
BRANCH  10  14
HETATM   14  C   UNL     1     -40.244 -54.703  15.991  1.00  0.00     0.223 A 
HETATM   15  C   UNL     1     -38.928 -54.180  16.486  1.00  0.00     0.038 A 
HETATM   16  C   UNL     1     -39.065 -55.626  16.107  1.00  0.00     0.038 A 
ENDBRANCH  10  14
ENDBRANCH   7   8
ENDBRANCH   3   7
BRANCH   4  17
HETATM   17  C   UNL     1     -41.583 -48.222  10.515  1.00  0.00     0.152 A 
HETATM   18  N   UNL     1     -42.007 -48.189   9.275  1.00  0.00    -0.346 N 
HETATM   19  C   UNL     1     -43.290 -47.680   9.242  1.00  0.00     0.097 A 
ATOM     20  HN  UNL     1     -41.472 -48.492   8.461  1.00  0.00     0.167 HD
HETATM   21  C   UNL     1     -43.795 -47.278  10.461  1.00  0.00     0.070 A 
HETATM   22  S   UNL     1     -42.660 -47.639  11.702  1.00  0.00    -0.064 SA
ENDBRANCH   4  17
TORSDOF 4
ENDMDL
MODEL 4
REMARK VINA RESULT:      -5.3      4.625      7.557
REMARK  4 active torsions:
REMARK  status: ('A' for Active; 'I' for Inactive)
REMARK       I    between atoms: C_2  and  N_3 
REMARK       I    between atoms: C_2  and  N_14 
REMARK    1  A    between atoms: N_3  and  C_4 
REMARK    2  A    between atoms: C_4  and  C_5 
REMARK    3  A    between atoms: N_7  and  C_11 
REMARK    4  A    between atoms: N_14  and  C_15 
ROOT
HETATM    1  O   UNL     1     -42.895 -48.136  10.295  1.00  0.00    -0.247 OA
HETATM    2  C   UNL     1     -41.700 -48.216  10.582  1.00  0.00     0.322 C 
HETATM    3  N   UNL     1     -40.849 -47.168  10.495  1.00  0.00    -0.340 N 
HETATM    4  N   UNL     1     -41.173 -49.409  10.987  1.00  0.00    -0.289 N 
HETATM    5  H   UNL     1     -39.869 -47.355  10.711  1.00  0.00     0.164 HD
HETATM    6  H   UNL     1     -41.792 -50.206  10.960  1.00  0.00     0.172 HD
ENDROOT
BRANCH   3   7
HETATM    7  C   UNL     1     -41.151 -45.802  10.084  1.00  0.00     0.158 C 
BRANCH   7   8
HETATM    8  C   UNL     1     -40.178 -44.873  10.834  1.00  0.00     0.167 C 
HETATM    9  C   UNL     1     -39.881 -45.200  12.319  1.00  0.00     0.306 C 
HETATM   10  N   UNL     1     -40.694 -44.549  13.375  1.00  0.00     0.097 N 
HETATM   11  C   UNL     1     -41.160 -43.206  12.958  1.00  0.00     0.299 C 
HETATM   12  C   UNL     1     -41.662 -43.157  11.522  1.00  0.00     0.198 C 
HETATM   13  O   UNL     1     -40.587 -43.499  10.648  1.00  0.00    -0.381 OA
BRANCH  10  14
HETATM   14  C   UNL     1     -39.912 -44.407  14.637  1.00  0.00     0.223 A 
HETATM   15  C   UNL     1     -39.211 -45.569  15.276  1.00  0.00     0.038 A 
HETATM   16  C   UNL     1     -40.451 -45.004  15.906  1.00  0.00     0.038 A 
ENDBRANCH  10  14
ENDBRANCH   7   8
ENDBRANCH   3   7
BRANCH   4  17
HETATM   17  C   UNL     1     -39.896 -49.600  11.437  1.00  0.00     0.152 A 
HETATM   18  N   UNL     1     -38.836 -49.921  10.735  1.00  0.00    -0.346 N 
HETATM   19  C   UNL     1     -37.742 -50.011  11.572  1.00  0.00     0.097 A 
ATOM     20  HN  UNL     1     -38.822 -50.079   9.727  1.00  0.00     0.167 HD
HETATM   21  C   UNL     1     -38.008 -49.815  12.911  1.00  0.00     0.070 A 
HETATM   22  S   UNL     1     -39.666 -49.409  13.115  1.00  0.00    -0.064 SA
ENDBRANCH   4  17
TORSDOF 4
ENDMDL
MODEL 5
REMARK VINA RESULT:      -5.3      3.006      4.613
REMARK  4 active torsions:
REMARK  status: ('A' for Active; 'I' for Inactive)
REMARK       I    between atoms: C_2  and  N_3 
REMARK       I    between atoms: C_2  and  N_14 
REMARK    1  A    between atoms: N_3  and  C_4 
REMARK    2  A    between atoms: C_4  and  C_5 
REMARK    3  A    between atoms: N_7  and  C_11 
REMARK    4  A    between atoms: N_14  and  C_15 
ROOT
HETATM    1  O   UNL     1     -44.610 -53.827  12.157  1.00  0.00    -0.247 OA
HETATM    2  C   UNL     1     -43.757 -52.953  12.320  1.00  0.00     0.322 C 
HETATM    3  N   UNL     1     -44.044 -51.723  12.804  1.00  0.00    -0.340 N 
HETATM    4  N   UNL     1     -42.457 -53.197  11.984  1.00  0.00    -0.289 N 
HETATM    5  H   UNL     1     -43.272 -51.059  12.856  1.00  0.00     0.164 HD
HETATM    6  H   UNL     1     -42.265 -54.081  11.538  1.00  0.00     0.172 HD
ENDROOT
BRANCH   3   7
HETATM    7  C   UNL     1     -45.343 -51.209  13.225  1.00  0.00     0.158 C 
BRANCH   7   8
HETATM    8  C   UNL     1     -45.417 -51.352  14.758  1.00  0.00     0.167 C 
HETATM    9  C   UNL     1     -44.287 -52.151  15.454  1.00  0.00     0.306 C 
HETATM   10  N   UNL     1     -44.480 -53.600  15.704  1.00  0.00     0.097 N 
HETATM   11  C   UNL     1     -45.907 -53.934  15.918  1.00  0.00     0.299 C 
HETATM   12  C   UNL     1     -46.846 -53.234  14.947  1.00  0.00     0.198 C 
HETATM   13  O   UNL     1     -46.731 -51.824  15.132  1.00  0.00    -0.381 OA
BRANCH  10  14
HETATM   14  C   UNL     1     -43.707 -54.042  16.901  1.00  0.00     0.223 A 
HETATM   15  C   UNL     1     -42.268 -53.669  17.102  1.00  0.00     0.038 A 
HETATM   16  C   UNL     1     -42.633 -55.079  16.739  1.00  0.00     0.038 A 
ENDBRANCH  10  14
ENDBRANCH   7   8
ENDBRANCH   3   7
BRANCH   4  17
HETATM   17  C   UNL     1     -41.405 -52.355  12.220  1.00  0.00     0.152 A 
HETATM   18  N   UNL     1     -40.931 -51.421  11.432  1.00  0.00    -0.346 N 
HETATM   19  C   UNL     1     -39.866 -50.796  12.051  1.00  0.00     0.097 A 
ATOM     20  HN  UNL     1     -41.292 -51.192  10.506  1.00  0.00     0.167 HD
HETATM   21  C   UNL     1     -39.514 -51.313  13.280  1.00  0.00     0.070 A 
HETATM   22  S   UNL     1     -40.613 -52.561  13.717  1.00  0.00    -0.064 SA
ENDBRANCH   4  17
TORSDOF 4
ENDMDL
MODEL 6
REMARK VINA RESULT:      -5.2      2.735      6.089
REMARK  4 active torsions:
REMARK  status: ('A' for Active; 'I' for Inactive)
REMARK       I    between atoms: C_2  and  N_3 
REMARK       I    between atoms: C_2  and  N_14 
REMARK    1  A    between atoms: N_3  and  C_4 
REMARK    2  A    between atoms: C_4  and  C_5 
REMARK    3  A    between atoms: N_7  and  C_11 
REMARK    4  A    between atoms: N_14  and  C_15 
ROOT
HETATM    1  O   UNL     1     -40.001 -49.758  10.969  1.00  0.00    -0.247 OA
HETATM    2  C   UNL     1     -40.770 -50.408  11.679  1.00  0.00     0.322 C 
HETATM    3  N   UNL     1     -41.389 -49.888  12.765  1.00  0.00    -0.340 N 
HETATM    4  N   UNL     1     -41.011 -51.722  11.401  1.00  0.00    -0.289 N 
HETATM    5  H   UNL     1     -41.968 -50.526  13.311  1.00  0.00     0.164 HD
HETATM    6  H   UNL     1     -40.476 -52.128  10.647  1.00  0.00     0.172 HD
ENDROOT
BRANCH   3   7
HETATM    7  C   UNL     1     -41.295 -48.527  13.281  1.00  0.00     0.158 C 
BRANCH   7   8
HETATM    8  C   UNL     1     -42.621 -47.818  12.943  1.00  0.00     0.167 C 
HETATM    9  C   UNL     1     -43.079 -47.830  11.464  1.00  0.00     0.306 C 
HETATM   10  N   UNL     1     -42.705 -46.694  10.587  1.00  0.00     0.097 N 
HETATM   11  C   UNL     1     -42.586 -45.429  11.349  1.00  0.00     0.299 C 
HETATM   12  C   UNL     1     -41.863 -45.588  12.679  1.00  0.00     0.198 C 
HETATM   13  O   UNL     1     -42.607 -46.485  13.502  1.00  0.00    -0.381 OA
BRANCH  10  14
HETATM   14  C   UNL     1     -43.714 -46.500   9.506  1.00  0.00     0.223 A 
HETATM   15  C   UNL     1     -44.533 -47.636   8.967  1.00  0.00     0.038 A 
HETATM   16  C   UNL     1     -43.434 -47.043   8.134  1.00  0.00     0.038 A 
ENDBRANCH  10  14
ENDBRANCH   7   8
ENDBRANCH   3   7
BRANCH   4  17
HETATM   17  C   UNL     1     -41.923 -52.515  12.041  1.00  0.00     0.152 A 
HETATM   18  N   UNL     1     -43.207 -52.621  11.799  1.00  0.00    -0.346 N 
HETATM   19  C   UNL     1     -43.764 -53.536  12.670  1.00  0.00     0.097 A 
ATOM     20  HN  UNL     1     -43.715 -52.108  11.078  1.00  0.00     0.167 HD
HETATM   21  C   UNL     1     -42.896 -54.064  13.603  1.00  0.00     0.070 A 
HETATM   22  S   UNL     1     -41.310 -53.466  13.317  1.00  0.00    -0.064 SA
ENDBRANCH   4  17
TORSDOF 4
ENDMDL
MODEL 7
REMARK VINA RESULT:      -5.2      4.737      7.999
REMARK  4 active torsions:
REMARK  status: ('A' for Active; 'I' for Inactive)
REMARK       I    between atoms: C_2  and  N_3 
REMARK       I    between atoms: C_2  and  N_14 
REMARK    1  A    between atoms: N_3  and  C_4 
REMARK    2  A    between atoms: C_4  and  C_5 
REMARK    3  A    between atoms: N_7  and  C_11 
REMARK    4  A    between atoms: N_14  and  C_15 
ROOT
HETATM    1  O   UNL     1     -42.570 -47.986  10.046  1.00  0.00    -0.247 OA
HETATM    2  C   UNL     1     -41.427 -48.150  10.476  1.00  0.00     0.322 C 
HETATM    3  N   UNL     1     -40.557 -47.131  10.665  1.00  0.00    -0.340 N 
HETATM    4  N   UNL     1     -40.978 -49.407  10.761  1.00  0.00    -0.289 N 
HETATM    5  H   UNL     1     -39.620 -47.382  10.980  1.00  0.00     0.164 HD
HETATM    6  H   UNL     1     -41.598 -50.169  10.530  1.00  0.00     0.172 HD
ENDROOT
BRANCH   3   7
HETATM    7  C   UNL     1     -40.781 -45.709  10.431  1.00  0.00     0.158 C 
BRANCH   7   8
HETATM    8  C   UNL     1     -41.413 -45.129  11.710  1.00  0.00     0.167 C 
HETATM    9  C   UNL     1     -42.267 -43.845  11.565  1.00  0.00     0.306 C 
HETATM   10  N   UNL     1     -41.619 -42.525  11.760  1.00  0.00     0.097 N 
HETATM   11  C   UNL     1     -40.497 -42.602  12.724  1.00  0.00     0.299 C 
HETATM   12  C   UNL     1     -39.611 -43.824  12.529  1.00  0.00     0.198 C 
HETATM   13  O   UNL     1     -40.397 -44.998  12.729  1.00  0.00    -0.381 OA
BRANCH  10  14
HETATM   14  C   UNL     1     -42.600 -41.517  12.256  1.00  0.00     0.223 A 
HETATM   15  C   UNL     1     -43.950 -41.342  11.626  1.00  0.00     0.038 A 
HETATM   16  C   UNL     1     -42.888 -40.300  11.424  1.00  0.00     0.038 A 
ENDBRANCH  10  14
ENDBRANCH   7   8
ENDBRANCH   3   7
BRANCH   4  17
HETATM   17  C   UNL     1     -39.778 -49.708  11.344  1.00  0.00     0.152 A 
HETATM   18  N   UNL     1     -38.632 -49.938  10.751  1.00  0.00    -0.346 N 
HETATM   19  C   UNL     1     -37.667 -50.198  11.705  1.00  0.00     0.097 A 
ATOM     20  HN  UNL     1     -38.477 -49.927   9.743  1.00  0.00     0.167 HD
HETATM   21  C   UNL     1     -38.118 -50.220  13.008  1.00  0.00     0.070 A 
HETATM   22  S   UNL     1     -39.787 -49.805  13.046  1.00  0.00    -0.064 SA
ENDBRANCH   4  17
TORSDOF 4
ENDMDL
MODEL 8
REMARK VINA RESULT:      -5.2      4.717      7.022
REMARK  4 active torsions:
REMARK  status: ('A' for Active; 'I' for Inactive)
REMARK       I    between atoms: C_2  and  N_3 
REMARK       I    between atoms: C_2  and  N_14 
REMARK    1  A    between atoms: N_3  and  C_4 
REMARK    2  A    between atoms: C_4  and  C_5 
REMARK    3  A    between atoms: N_7  and  C_11 
REMARK    4  A    between atoms: N_14  and  C_15 
ROOT
HETATM    1  O   UNL     1     -42.655 -48.003   9.971  1.00  0.00    -0.247 OA
HETATM    2  C   UNL     1     -41.513 -48.109  10.419  1.00  0.00     0.322 C 
HETATM    3  N   UNL     1     -40.694 -47.049  10.611  1.00  0.00    -0.340 N 
HETATM    4  N   UNL     1     -41.010 -49.341  10.724  1.00  0.00    -0.289 N 
HETATM    5  H   UNL     1     -39.751 -47.253  10.942  1.00  0.00     0.164 HD
HETATM    6  H   UNL     1     -41.590 -50.134  10.492  1.00  0.00     0.172 HD
ENDROOT
BRANCH   3   7
HETATM    7  C   UNL     1     -40.980 -45.641  10.359  1.00  0.00     0.158 C 
BRANCH   7   8
HETATM    8  C   UNL     1     -40.635 -44.867  11.645  1.00  0.00     0.167 C 
HETATM    9  C   UNL     1     -41.273 -45.361  12.968  1.00  0.00     0.306 C 
HETATM   10  N   UNL     1     -42.551 -44.758  13.418  1.00  0.00     0.097 N 
HETATM   11  C   UNL     1     -42.678 -43.349  12.978  1.00  0.00     0.299 C 
HETATM   12  C   UNL     1     -42.234 -43.120  11.541  1.00  0.00     0.198 C 
HETATM   13  O   UNL     1     -40.852 -43.455  11.427  1.00  0.00    -0.381 OA
BRANCH  10  14
HETATM   14  C   UNL     1     -42.666 -44.800  14.904  1.00  0.00     0.223 A 
HETATM   15  C   UNL     1     -42.465 -46.067  15.683  1.00  0.00     0.038 A 
HETATM   16  C   UNL     1     -43.843 -45.491  15.531  1.00  0.00     0.038 A 
ENDBRANCH  10  14
ENDBRANCH   7   8
ENDBRANCH   3   7
BRANCH   4  17
HETATM   17  C   UNL     1     -39.806 -49.580  11.328  1.00  0.00     0.152 A 
HETATM   18  N   UNL     1     -38.658 -49.849  10.755  1.00  0.00    -0.346 N 
HETATM   19  C   UNL     1     -37.690 -50.018  11.724  1.00  0.00     0.097 A 
ATOM     20  HN  UNL     1     -38.504 -49.921   9.748  1.00  0.00     0.167 HD
HETATM   21  C   UNL     1     -38.139 -49.933  13.026  1.00  0.00     0.070 A 
HETATM   22  S   UNL     1     -39.811 -49.533  13.033  1.00  0.00    -0.064 SA
ENDBRANCH   4  17
TORSDOF 4
ENDMDL
MODEL 9
REMARK VINA RESULT:      -5.1      2.720      6.447
REMARK  4 active torsions:
REMARK  status: ('A' for Active; 'I' for Inactive)
REMARK       I    between atoms: C_2  and  N_3 
REMARK       I    between atoms: C_2  and  N_14 
REMARK    1  A    between atoms: N_3  and  C_4 
REMARK    2  A    between atoms: C_4  and  C_5 
REMARK    3  A    between atoms: N_7  and  C_11 
REMARK    4  A    between atoms: N_14  and  C_15 
ROOT
HETATM    1  O   UNL     1     -40.681 -53.008  11.766  1.00  0.00    -0.247 OA
HETATM    2  C   UNL     1     -41.752 -52.508  12.110  1.00  0.00     0.322 C 
HETATM    3  N   UNL     1     -41.972 -51.173  12.123  1.00  0.00    -0.340 N 
HETATM    4  N   UNL     1     -42.778 -53.307  12.526  1.00  0.00    -0.289 N 
HETATM    5  H   UNL     1     -42.880 -50.862  12.470  1.00  0.00     0.164 HD
HETATM    6  H   UNL     1     -42.577 -54.293  12.602  1.00  0.00     0.172 HD
ENDROOT
BRANCH   3   7
HETATM    7  C   UNL     1     -41.049 -50.111  11.739  1.00  0.00     0.158 C 
BRANCH   7   8
HETATM    8  C   UNL     1     -41.898 -48.919  11.256  1.00  0.00     0.167 C 
HETATM    9  C   UNL     1     -41.149 -47.620  10.871  1.00  0.00     0.306 C 
HETATM   10  N   UNL     1     -40.967 -46.565  11.898  1.00  0.00     0.097 N 
HETATM   11  C   UNL     1     -42.079 -46.555  12.877  1.00  0.00     0.299 C 
HETATM   12  C   UNL     1     -42.499 -47.945  13.331  1.00  0.00     0.198 C 
HETATM   13  O   UNL     1     -42.965 -48.677  12.199  1.00  0.00    -0.381 OA
BRANCH  10  14
HETATM   14  C   UNL     1     -40.882 -45.216  11.267  1.00  0.00     0.223 A 
HETATM   15  C   UNL     1     -39.834 -44.877  10.249  1.00  0.00     0.038 A 
HETATM   16  C   UNL     1     -39.746 -44.304  11.634  1.00  0.00     0.038 A 
ENDBRANCH  10  14
ENDBRANCH   7   8
ENDBRANCH   3   7
BRANCH   4  17
HETATM   17  C   UNL     1     -44.043 -52.883  12.824  1.00  0.00     0.152 A 
HETATM   18  N   UNL     1     -45.017 -52.611  11.989  1.00  0.00    -0.346 N 
HETATM   19  C   UNL     1     -46.134 -52.220  12.700  1.00  0.00     0.097 A 
ATOM     20  HN  UNL     1     -44.958 -52.677  10.972  1.00  0.00     0.167 HD
HETATM   21  C   UNL     1     -45.966 -52.145  14.067  1.00  0.00     0.070 A 
HETATM   22  S   UNL     1     -44.384 -52.675  14.482  1.00  0.00    -0.064 SA
ENDBRANCH   4  17
TORSDOF 4
ENDMDL
