MODEL 1
REMARK VINA RESULT:      -6.2      0.000      0.000
REMARK  3 active torsions:
REMARK  status: ('A' for Active; 'I' for Inactive)
REMARK    1  A    between atoms: N_6  and  C_7 
REMARK    2  A    between atoms: C_7  and  C_8 
REMARK       I    between atoms: C_8  and  N_10 
REMARK    3  A    between atoms: N_10  and  C_11 
ROOT
HETATM    1  C   UNL     1     -41.034 -49.133  11.300  1.00  0.00     0.238 C 
HETATM    2  O   UNL     1     -41.964 -49.479  12.032  1.00  0.00    -0.272 OA
HETATM    3  N   UNL     1     -41.167 -48.139  10.347  1.00  0.00    -0.347 N 
HETATM    4  H   UNL     1     -40.323 -47.597  10.162  1.00  0.00     0.163 HD
ENDROOT
BRANCH   1   5
HETATM    5  C   UNL     1     -39.702 -49.840  11.321  1.00  0.00     0.251 C 
BRANCH   5   6
HETATM    6  N   UNL     1     -39.711 -51.000  12.184  1.00  0.00    -0.288 N 
HETATM    7  C   UNL     1     -38.998 -51.204  13.340  1.00  0.00     0.027 A 
HETATM    8  C   UNL     1     -39.441 -52.411  13.837  1.00  0.00     0.052 A 
HETATM    9  C   UNL     1     -37.976 -50.266  13.864  1.00  0.00     0.070 C 
HETATM   10  C   UNL     1     -40.432 -52.849  12.933  1.00  0.00     0.024 A 
HETATM   11  C   UNL     1     -41.245 -54.085  13.000  1.00  0.00     0.070 C 
HETATM   12  N   UNL     1     -40.605 -51.980  11.931  1.00  0.00    -0.303 N 
ATOM     13  HN  UNL     1     -41.262 -52.042  11.154  1.00  0.00     0.186 HD
ENDBRANCH   5   6
ENDBRANCH   1   5
BRANCH   3  14
HETATM   14  C   UNL     1     -42.435 -47.428  10.235  1.00  0.00     0.170 C 
HETATM   15  C   UNL     1     -43.174 -47.768   8.927  1.00  0.00     0.034 C 
HETATM   16  C   UNL     1     -44.673 -47.456   9.023  1.00  0.00     0.004 C 
HETATM   17  C   UNL     1     -45.106 -45.988   8.875  1.00  0.00     0.015 C 
HETATM   18  C   UNL     1     -44.118 -44.888   9.278  1.00  0.00     0.095 C 
HETATM   19  N   UNL     1     -43.387 -45.205  10.482  1.00  0.00    -0.261 NA
HETATM   20  C   UNL     1     -42.211 -45.912  10.271  1.00  0.00     0.220 C 
HETATM   21  H   UNL     1     -43.978 -45.590  11.210  1.00  0.00     0.130 HD
HETATM   22  O   UNL     1     -41.165 -45.374   9.918  1.00  0.00    -0.278 OA
ENDBRANCH   3  14
TORSDOF 3
ENDMDL
MODEL 2
REMARK VINA RESULT:      -6.0      5.516      8.590
REMARK  3 active torsions:
REMARK  status: ('A' for Active; 'I' for Inactive)
REMARK    1  A    between atoms: N_6  and  C_7 
REMARK    2  A    between atoms: C_7  and  C_8 
REMARK       I    between atoms: C_8  and  N_10 
REMARK    3  A    between atoms: N_10  and  C_11 
ROOT
HETATM    1  C   UNL     1     -44.258 -54.776  14.100  1.00  0.00     0.238 C 
HETATM    2  O   UNL     1     -44.105 -55.747  14.843  1.00  0.00    -0.272 OA
HETATM    3  N   UNL     1     -43.205 -53.978  13.691  1.00  0.00    -0.347 N 
HETATM    4  H   UNL     1     -43.306 -53.563  12.765  1.00  0.00     0.163 HD
ENDROOT
BRANCH   1   5
HETATM    5  C   UNL     1     -45.627 -54.324  13.656  1.00  0.00     0.251 C 
BRANCH   5   6
HETATM    6  N   UNL     1     -46.106 -53.195  14.422  1.00  0.00    -0.288 N 
HETATM    7  C   UNL     1     -46.571 -51.990  13.958  1.00  0.00     0.027 A 
HETATM    8  C   UNL     1     -47.003 -51.307  15.075  1.00  0.00     0.052 A 
HETATM    9  C   UNL     1     -46.564 -51.588  12.530  1.00  0.00     0.070 C 
HETATM   10  C   UNL     1     -46.782 -52.183  16.159  1.00  0.00     0.024 A 
HETATM   11  C   UNL     1     -47.083 -51.955  17.591  1.00  0.00     0.070 C 
HETATM   12  N   UNL     1     -46.246 -53.341  15.756  1.00  0.00    -0.303 N 
ATOM     13  HN  UNL     1     -46.000 -54.149  16.328  1.00  0.00     0.186 HD
ENDBRANCH   5   6
ENDBRANCH   1   5
BRANCH   3  14
HETATM   14  C   UNL     1     -41.850 -54.322  14.105  1.00  0.00     0.170 C 
HETATM   15  C   UNL     1     -41.479 -53.683  15.456  1.00  0.00     0.034 C 
HETATM   16  C   UNL     1     -40.314 -54.418  16.133  1.00  0.00     0.004 C 
HETATM   17  C   UNL     1     -38.894 -54.129  15.616  1.00  0.00     0.015 C 
HETATM   18  C   UNL     1     -38.719 -53.696  14.157  1.00  0.00     0.095 C 
HETATM   19  N   UNL     1     -39.577 -54.423  13.250  1.00  0.00    -0.261 NA
HETATM   20  C   UNL     1     -40.829 -53.852  13.063  1.00  0.00     0.220 C 
HETATM   21  H   UNL     1     -39.598 -55.417  13.442  1.00  0.00     0.130 HD
HETATM   22  O   UNL     1     -41.023 -52.907  12.304  1.00  0.00    -0.278 OA
ENDBRANCH   3  14
TORSDOF 3
ENDMDL
MODEL 3
REMARK VINA RESULT:      -5.9      1.403      1.938
REMARK  3 active torsions:
REMARK  status: ('A' for Active; 'I' for Inactive)
REMARK    1  A    between atoms: N_6  and  C_7 
REMARK    2  A    between atoms: C_7  and  C_8 
REMARK       I    between atoms: C_8  and  N_10 
REMARK    3  A    between atoms: N_10  and  C_11 
ROOT
HETATM    1  C   UNL     1     -41.808 -49.891  11.837  1.00  0.00     0.238 C 
HETATM    2  O   UNL     1     -42.639 -49.678  12.722  1.00  0.00    -0.272 OA
HETATM    3  N   UNL     1     -41.734 -49.127  10.686  1.00  0.00    -0.347 N 
HETATM    4  H   UNL     1     -40.800 -49.028  10.288  1.00  0.00     0.163 HD
ENDROOT
BRANCH   1   5
HETATM    5  C   UNL     1     -40.868 -51.069  11.897  1.00  0.00     0.251 C 
BRANCH   5   6
HETATM    6  N   UNL     1     -41.503 -52.249  12.442  1.00  0.00    -0.288 N 
HETATM    7  C   UNL     1     -41.008 -53.123  13.378  1.00  0.00     0.027 A 
HETATM    8  C   UNL     1     -42.035 -54.007  13.634  1.00  0.00     0.052 A 
HETATM    9  C   UNL     1     -39.636 -53.057  13.937  1.00  0.00     0.070 C 
HETATM   10  C   UNL     1     -43.111 -53.577  12.828  1.00  0.00     0.024 A 
HETATM   11  C   UNL     1     -44.466 -54.165  12.728  1.00  0.00     0.070 C 
HETATM   12  N   UNL     1     -42.788 -52.495  12.111  1.00  0.00    -0.303 N 
ATOM     13  HN  UNL     1     -43.378 -51.975  11.463  1.00  0.00     0.186 HD
ENDBRANCH   5   6
ENDBRANCH   1   5
BRANCH   3  14
HETATM   14  C   UNL     1     -42.632 -47.988  10.531  1.00  0.00     0.170 C 
HETATM   15  C   UNL     1     -43.037 -47.770   9.061  1.00  0.00     0.034 C 
HETATM   16  C   UNL     1     -44.328 -46.949   8.943  1.00  0.00     0.004 C 
HETATM   17  C   UNL     1     -44.223 -45.426   9.131  1.00  0.00     0.015 C 
HETATM   18  C   UNL     1     -43.099 -44.872  10.012  1.00  0.00     0.095 C 
HETATM   19  N   UNL     1     -42.875 -45.664  11.199  1.00  0.00    -0.261 NA
HETATM   20  C   UNL     1     -41.967 -46.702  11.034  1.00  0.00     0.220 C 
HETATM   21  H   UNL     1     -43.737 -45.935  11.658  1.00  0.00     0.130 HD
HETATM   22  O   UNL     1     -40.752 -46.533  11.059  1.00  0.00    -0.278 OA
ENDBRANCH   3  14
TORSDOF 3
ENDMDL
MODEL 4
REMARK VINA RESULT:      -5.8      3.643      6.235
REMARK  3 active torsions:
REMARK  status: ('A' for Active; 'I' for Inactive)
REMARK    1  A    between atoms: N_6  and  C_7 
REMARK    2  A    between atoms: C_7  and  C_8 
REMARK       I    between atoms: C_8  and  N_10 
REMARK    3  A    between atoms: N_10  and  C_11 
ROOT
HETATM    1  C   UNL     1     -42.672 -52.908  12.423  1.00  0.00     0.238 C 
HETATM    2  O   UNL     1     -41.891 -53.735  12.899  1.00  0.00    -0.272 OA
HETATM    3  N   UNL     1     -42.265 -51.651  12.011  1.00  0.00    -0.347 N 
HETATM    4  H   UNL     1     -42.790 -51.257  11.231  1.00  0.00     0.163 HD
ENDROOT
BRANCH   1   5
HETATM    5  C   UNL     1     -44.155 -53.170  12.345  1.00  0.00     0.251 C 
BRANCH   5   6
HETATM    6  N   UNL     1     -44.894 -52.431  13.345  1.00  0.00    -0.288 N 
HETATM    7  C   UNL     1     -46.116 -51.818  13.216  1.00  0.00     0.027 A 
HETATM    8  C   UNL     1     -46.428 -51.352  14.476  1.00  0.00     0.052 A 
HETATM    9  C   UNL     1     -46.869 -51.719  11.942  1.00  0.00     0.070 C 
HETATM   10  C   UNL     1     -45.352 -51.748  15.300  1.00  0.00     0.024 A 
HETATM   11  C   UNL     1     -45.185 -51.517  16.753  1.00  0.00     0.070 C 
HETATM   12  N   UNL     1     -44.423 -52.419  14.610  1.00  0.00    -0.303 N 
ATOM     13  HN  UNL     1     -43.557 -52.828  14.959  1.00  0.00     0.186 HD
ENDBRANCH   5   6
ENDBRANCH   1   5
BRANCH   3  14
HETATM   14  C   UNL     1     -40.851 -51.302  12.086  1.00  0.00     0.170 C 
HETATM   15  C   UNL     1     -40.403 -51.017  13.532  1.00  0.00     0.034 C 
HETATM   16  C   UNL     1     -38.884 -51.156  13.694  1.00  0.00     0.004 C 
HETATM   17  C   UNL     1     -38.006 -49.992  13.202  1.00  0.00     0.015 C 
HETATM   18  C   UNL     1     -38.528 -49.111  12.063  1.00  0.00     0.095 C 
HETATM   19  N   UNL     1     -39.197 -49.868  11.031  1.00  0.00    -0.261 NA
HETATM   20  C   UNL     1     -40.556 -50.055  11.246  1.00  0.00     0.220 C 
HETATM   21  H   UNL     1     -38.697 -50.711  10.776  1.00  0.00     0.130 HD
HETATM   22  O   UNL     1     -41.395 -49.194  10.995  1.00  0.00    -0.278 OA
ENDBRANCH   3  14
TORSDOF 3
ENDMDL
MODEL 5
REMARK VINA RESULT:      -5.7      4.046      6.673
REMARK  3 active torsions:
REMARK  status: ('A' for Active; 'I' for Inactive)
REMARK    1  A    between atoms: N_6  and  C_7 
REMARK    2  A    between atoms: C_7  and  C_8 
REMARK       I    between atoms: C_8  and  N_10 
REMARK    3  A    between atoms: N_10  and  C_11 
ROOT
HETATM    1  C   UNL     1     -43.282 -51.780  13.089  1.00  0.00     0.238 C 
HETATM    2  O   UNL     1     -43.113 -51.469  14.270  1.00  0.00    -0.272 OA
HETATM    3  N   UNL     1     -42.361 -51.480  12.102  1.00  0.00    -0.347 N 
HETATM    4  H   UNL     1     -42.313 -52.149  11.332  1.00  0.00     0.163 HD
ENDROOT
BRANCH   1   5
HETATM    5  C   UNL     1     -44.559 -52.425  12.613  1.00  0.00     0.251 C 
BRANCH   5   6
HETATM    6  N   UNL     1     -45.487 -52.670  13.695  1.00  0.00    -0.288 N 
HETATM    7  C   UNL     1     -45.831 -53.871  14.263  1.00  0.00     0.027 A 
HETATM    8  C   UNL     1     -46.660 -53.555  15.318  1.00  0.00     0.052 A 
HETATM    9  C   UNL     1     -45.364 -55.190  13.771  1.00  0.00     0.070 C 
HETATM   10  C   UNL     1     -46.740 -52.146  15.324  1.00  0.00     0.024 A 
HETATM   11  C   UNL     1     -47.490 -51.280  16.262  1.00  0.00     0.070 C 
HETATM   12  N   UNL     1     -46.012 -51.607  14.340  1.00  0.00    -0.303 N 
ATOM     13  HN  UNL     1     -45.884 -50.618  14.126  1.00  0.00     0.186 HD
ENDBRANCH   5   6
ENDBRANCH   1   5
BRANCH   3  14
HETATM   14  C   UNL     1     -41.113 -50.823  12.470  1.00  0.00     0.170 C 
HETATM   15  C   UNL     1     -40.535 -49.988  11.312  1.00  0.00     0.034 C 
HETATM   16  C   UNL     1     -39.554 -48.921  11.814  1.00  0.00     0.004 C 
HETATM   17  C   UNL     1     -38.132 -49.379  12.181  1.00  0.00     0.015 C 
HETATM   18  C   UNL     1     -37.924 -50.822  12.652  1.00  0.00     0.095 C 
HETATM   19  N   UNL     1     -38.974 -51.281  13.531  1.00  0.00    -0.261 NA
HETATM   20  C   UNL     1     -40.057 -51.856  12.880  1.00  0.00     0.220 C 
HETATM   21  H   UNL     1     -39.227 -50.594  14.231  1.00  0.00     0.130 HD
HETATM   22  O   UNL     1     -40.051 -53.015  12.475  1.00  0.00    -0.278 OA
ENDBRANCH   3  14
TORSDOF 3
ENDMDL
MODEL 6
REMARK VINA RESULT:      -5.7      2.349      3.365
REMARK  3 active torsions:
REMARK  status: ('A' for Active; 'I' for Inactive)
REMARK    1  A    between atoms: N_6  and  C_7 
REMARK    2  A    between atoms: C_7  and  C_8 
REMARK       I    between atoms: C_8  and  N_10 
REMARK    3  A    between atoms: N_10  and  C_11 
ROOT
HETATM    1  C   UNL     1     -41.736 -51.066  12.189  1.00  0.00     0.238 C 
HETATM    2  O   UNL     1     -42.513 -50.724  13.082  1.00  0.00    -0.272 OA
HETATM    3  N   UNL     1     -41.185 -50.165  11.295  1.00  0.00    -0.347 N 
HETATM    4  H   UNL     1     -40.252 -50.400  10.958  1.00  0.00     0.163 HD
ENDROOT
BRANCH   1   5
HETATM    5  C   UNL     1     -41.400 -52.516  11.940  1.00  0.00     0.251 C 
BRANCH   5   6
HETATM    6  N   UNL     1     -42.145 -53.406  12.804  1.00  0.00    -0.288 N 
HETATM    7  C   UNL     1     -41.721 -54.024  13.953  1.00  0.00     0.027 A 
HETATM    8  C   UNL     1     -42.831 -54.672  14.454  1.00  0.00     0.052 A 
HETATM    9  C   UNL     1     -40.332 -53.960  14.471  1.00  0.00     0.070 C 
HETATM   10  C   UNL     1     -43.878 -54.369  13.557  1.00  0.00     0.024 A 
HETATM   11  C   UNL     1     -45.293 -54.800  13.630  1.00  0.00     0.070 C 
HETATM   12  N   UNL     1     -43.459 -53.586  12.557  1.00  0.00    -0.303 N 
ATOM     13  HN  UNL     1     -44.009 -53.209  11.784  1.00  0.00     0.186 HD
ENDBRANCH   5   6
ENDBRANCH   1   5
BRANCH   3  14
HETATM   14  C   UNL     1     -41.486 -48.746  11.441  1.00  0.00     0.170 C 
HETATM   15  C   UNL     1     -41.974 -48.120  10.121  1.00  0.00     0.034 C 
HETATM   16  C   UNL     1     -42.757 -46.823  10.361  1.00  0.00     0.004 C 
HETATM   17  C   UNL     1     -41.949 -45.548  10.658  1.00  0.00     0.015 C 
HETATM   18  C   UNL     1     -40.575 -45.688  11.318  1.00  0.00     0.095 C 
HETATM   19  N   UNL     1     -40.549 -46.696  12.352  1.00  0.00    -0.261 NA
HETATM   20  C   UNL     1     -40.245 -47.974  11.901  1.00  0.00     0.220 C 
HETATM   21  H   UNL     1     -41.358 -46.653  12.962  1.00  0.00     0.130 HD
HETATM   22  O   UNL     1     -39.096 -48.343  11.675  1.00  0.00    -0.278 OA
ENDBRANCH   3  14
TORSDOF 3
ENDMDL
MODEL 7
REMARK VINA RESULT:      -5.7      3.446      7.042
REMARK  3 active torsions:
REMARK  status: ('A' for Active; 'I' for Inactive)
REMARK    1  A    between atoms: N_6  and  C_7 
REMARK    2  A    between atoms: C_7  and  C_8 
REMARK       I    between atoms: C_8  and  N_10 
REMARK    3  A    between atoms: N_10  and  C_11 
ROOT
HETATM    1  C   UNL     1     -42.942 -50.282  12.827  1.00  0.00     0.238 C 
HETATM    2  O   UNL     1     -43.540 -49.511  13.579  1.00  0.00    -0.272 OA
HETATM    3  N   UNL     1     -43.256 -51.627  12.737  1.00  0.00    -0.347 N 
HETATM    4  H   UNL     1     -43.101 -52.051  11.822  1.00  0.00     0.163 HD
ENDROOT
BRANCH   1   5
HETATM    5  C   UNL     1     -41.750 -49.838  12.016  1.00  0.00     0.251 C 
BRANCH   5   6
HETATM    6  N   UNL     1     -42.001 -48.603  11.307  1.00  0.00    -0.288 N 
HETATM    7  C   UNL     1     -41.141 -47.553  11.100  1.00  0.00     0.027 A 
HETATM    8  C   UNL     1     -41.820 -46.676  10.282  1.00  0.00     0.052 A 
HETATM    9  C   UNL     1     -39.781 -47.462  11.686  1.00  0.00     0.070 C 
HETATM   10  C   UNL     1     -43.066 -47.288  10.028  1.00  0.00     0.024 A 
HETATM   11  C   UNL     1     -44.177 -46.781   9.190  1.00  0.00     0.070 C 
HETATM   12  N   UNL     1     -43.169 -48.471  10.644  1.00  0.00    -0.303 N 
ATOM     13  HN  UNL     1     -43.952 -49.124  10.619  1.00  0.00     0.186 HD
ENDBRANCH   5   6
ENDBRANCH   1   5
BRANCH   3  14
HETATM   14  C   UNL     1     -44.373 -52.149  13.515  1.00  0.00     0.170 C 
HETATM   15  C   UNL     1     -43.950 -52.534  14.945  1.00  0.00     0.034 C 
HETATM   16  C   UNL     1     -45.151 -52.588  15.898  1.00  0.00     0.004 C 
HETATM   17  C   UNL     1     -46.051 -53.834  15.839  1.00  0.00     0.015 C 
HETATM   18  C   UNL     1     -46.148 -54.606  14.520  1.00  0.00     0.095 C 
HETATM   19  N   UNL     1     -46.205 -53.740  13.365  1.00  0.00    -0.261 NA
HETATM   20  C   UNL     1     -44.964 -53.395  12.846  1.00  0.00     0.220 C 
HETATM   21  H   UNL     1     -46.834 -52.956  13.494  1.00  0.00     0.130 HD
HETATM   22  O   UNL     1     -44.320 -54.138  12.110  1.00  0.00    -0.278 OA
ENDBRANCH   3  14
TORSDOF 3
ENDMDL
MODEL 8
REMARK VINA RESULT:      -5.7      4.828      6.466
REMARK  3 active torsions:
REMARK  status: ('A' for Active; 'I' for Inactive)
REMARK    1  A    between atoms: N_6  and  C_7 
REMARK    2  A    between atoms: C_7  and  C_8 
REMARK       I    between atoms: C_8  and  N_10 
REMARK    3  A    between atoms: N_10  and  C_11 
ROOT
HETATM    1  C   UNL     1     -41.584 -52.689  13.207  1.00  0.00     0.238 C 
HETATM    2  O   UNL     1     -41.890 -51.792  12.420  1.00  0.00    -0.272 OA
HETATM    3  N   UNL     1     -42.517 -53.340  13.994  1.00  0.00    -0.347 N 
HETATM    4  H   UNL     1     -42.305 -54.315  14.207  1.00  0.00     0.163 HD
ENDROOT
BRANCH   1   5
HETATM    5  C   UNL     1     -40.147 -53.080  13.445  1.00  0.00     0.251 C 
BRANCH   5   6
HETATM    6  N   UNL     1     -39.254 -51.944  13.393  1.00  0.00    -0.288 N 
HETATM    7  C   UNL     1     -38.526 -51.389  14.416  1.00  0.00     0.027 A 
HETATM    8  C   UNL     1     -37.759 -50.404  13.830  1.00  0.00     0.052 A 
HETATM    9  C   UNL     1     -38.616 -51.819  15.833  1.00  0.00     0.070 C 
HETATM   10  C   UNL     1     -38.072 -50.453  12.455  1.00  0.00     0.024 A 
HETATM   11  C   UNL     1     -37.518 -49.619  11.363  1.00  0.00     0.070 C 
HETATM   12  N   UNL     1     -38.976 -51.403  12.188  1.00  0.00    -0.303 N 
ATOM     13  HN  UNL     1     -39.365 -51.661  11.281  1.00  0.00     0.186 HD
ENDBRANCH   5   6
ENDBRANCH   1   5
BRANCH   3  14
HETATM   14  C   UNL     1     -43.927 -52.998  13.853  1.00  0.00     0.170 C 
HETATM   15  C   UNL     1     -44.393 -52.011  14.940  1.00  0.00     0.034 C 
HETATM   16  C   UNL     1     -45.668 -51.266  14.523  1.00  0.00     0.004 C 
HETATM   17  C   UNL     1     -47.004 -52.018  14.645  1.00  0.00     0.015 C 
HETATM   18  C   UNL     1     -46.999 -53.545  14.535  1.00  0.00     0.095 C 
HETATM   19  N   UNL     1     -46.101 -54.031  13.512  1.00  0.00    -0.261 NA
HETATM   20  C   UNL     1     -44.802 -54.253  13.948  1.00  0.00     0.220 C 
HETATM   21  H   UNL     1     -46.166 -53.501  12.651  1.00  0.00     0.130 HD
HETATM   22  O   UNL     1     -44.468 -55.266  14.556  1.00  0.00    -0.278 OA
ENDBRANCH   3  14
TORSDOF 3
ENDMDL
MODEL 9
REMARK VINA RESULT:      -5.5     13.271     14.631
REMARK  3 active torsions:
REMARK  status: ('A' for Active; 'I' for Inactive)
REMARK    1  A    between atoms: N_6  and  C_7 
REMARK    2  A    between atoms: C_7  and  C_8 
REMARK       I    between atoms: C_8  and  N_10 
REMARK    3  A    between atoms: N_10  and  C_11 
ROOT
HETATM    1  C   UNL     1     -47.010 -48.547  -1.687  1.00  0.00     0.238 C 
HETATM    2  O   UNL     1     -46.575 -49.664  -1.402  1.00  0.00    -0.272 OA
HETATM    3  N   UNL     1     -46.186 -47.449  -1.861  1.00  0.00    -0.347 N 
HETATM    4  H   UNL     1     -46.516 -46.759  -2.536  1.00  0.00     0.163 HD
ENDROOT
BRANCH   1   5
HETATM    5  C   UNL     1     -48.490 -48.267  -1.770  1.00  0.00     0.251 C 
BRANCH   5   6
HETATM    6  N   UNL     1     -49.261 -49.134  -0.906  1.00  0.00    -0.288 N 
HETATM    7  C   UNL     1     -49.684 -48.893   0.378  1.00  0.00     0.027 A 
HETATM    8  C   UNL     1     -50.467 -49.977   0.716  1.00  0.00     0.052 A 
HETATM    9  C   UNL     1     -49.318 -47.690   1.164  1.00  0.00     0.070 C 
HETATM   10  C   UNL     1     -50.477 -50.804  -0.428  1.00  0.00     0.024 A 
HETATM   11  C   UNL     1     -51.182 -52.093  -0.613  1.00  0.00     0.070 C 
HETATM   12  N   UNL     1     -49.751 -50.281  -1.421  1.00  0.00    -0.303 N 
ATOM     13  HN  UNL     1     -49.602 -50.661  -2.356  1.00  0.00     0.186 HD
ENDBRANCH   5   6
ENDBRANCH   1   5
BRANCH   3  14
HETATM   14  C   UNL     1     -44.741 -47.623  -1.762  1.00  0.00     0.170 C 
HETATM   15  C   UNL     1     -44.028 -46.317  -1.367  1.00  0.00     0.034 C 
HETATM   16  C   UNL     1     -42.639 -46.584  -0.773  1.00  0.00     0.004 C 
HETATM   17  C   UNL     1     -41.496 -46.902  -1.751  1.00  0.00     0.015 C 
HETATM   18  C   UNL     1     -41.839 -47.556  -3.093  1.00  0.00     0.095 C 
HETATM   19  N   UNL     1     -42.861 -48.570  -2.977  1.00  0.00    -0.261 NA
HETATM   20  C   UNL     1     -44.159 -48.094  -3.100  1.00  0.00     0.220 C 
HETATM   21  H   UNL     1     -42.717 -49.183  -2.183  1.00  0.00     0.130 HD
HETATM   22  O   UNL     1     -44.682 -47.858  -4.185  1.00  0.00    -0.278 OA
ENDBRANCH   3  14
TORSDOF 3
ENDMDL
