MODEL 1
REMARK VINA RESULT:      -5.6      0.000      0.000
REMARK  7 active torsions:
REMARK  status: ('A' for Active; 'I' for Inactive)
REMARK    1  A    between atoms: O_2  and  C_3 
REMARK    2  A    between atoms: C_3  and  C_4 
REMARK    3  A    between atoms: C_4  and  N_5 
REMARK    4  A    between atoms: C_7  and  C_12 
REMARK       I    between atoms: C_12  and  N_14 
REMARK    5  A    between atoms: N_17  and  C_18 
REMARK    6  A    between atoms: C_18  and  C_19 
REMARK    7  A    between atoms: C_19  and  O_22 
ROOT
HETATM    1  C   UNL     1     -44.476 -53.049  13.133  1.00  0.00     0.255 C 
HETATM    2  O   UNL     1     -44.852 -53.698  12.162  1.00  0.00    -0.267 OA
HETATM    3  N   UNL     1     -43.226 -52.439  13.202  1.00  0.00    -0.345 N 
HETATM    4  C   UNL     1     -42.298 -52.584  12.074  1.00  0.00     0.156 C 
HETATM    5  C   UNL     1     -40.842 -52.763  12.562  1.00  0.00     0.292 C 
HETATM    6  N   UNL     1     -40.382 -51.767  13.561  1.00  0.00     0.094 N 
HETATM    7  C   UNL     1     -41.367 -51.742  14.668  1.00  0.00     0.292 C 
HETATM    8  C   UNL     1     -42.799 -51.434  14.186  1.00  0.00     0.156 C 
ENDROOT
BRANCH   1   9
HETATM    9  C   UNL     1     -45.418 -52.826  14.276  1.00  0.00     0.048 C 
HETATM   10  C   UNL     1     -45.430 -53.654  15.332  1.00  0.00     0.111 C 
HETATM   11  N   UNL     1     -46.065 -53.301  16.518  1.00  0.00    -0.322 N 
HETATM   12  C   UNL     1     -46.850 -52.148  16.613  1.00  0.00     0.247 C 
HETATM   13  C   UNL     1     -47.009 -51.363  15.359  1.00  0.00     0.075 C 
HETATM   14  O   UNL     1     -47.423 -51.764  17.629  1.00  0.00    -0.268 OA
HETATM   15  C   UNL     1     -46.312 -51.689  14.262  1.00  0.00     0.024 C 
BRANCH  11  16
HETATM   16  C   UNL     1     -45.767 -54.057  17.743  1.00  0.00     0.158 C 
BRANCH  16  17
HETATM   17  C   UNL     1     -44.266 -54.160  18.092  1.00  0.00     0.187 C 
BRANCH  17  18
HETATM   18  O   UNL     1     -43.759 -55.476  17.871  1.00  0.00    -0.394 OA
HETATM   19  C   UNL     1     -42.467 -55.458  17.271  1.00  0.00     0.201 C 
ENDBRANCH  17  18
ENDBRANCH  16  17
ENDBRANCH  11  16
ENDBRANCH   1   9
BRANCH   6  20
HETATM   20  C   UNL     1     -40.206 -50.394  13.033  1.00  0.00     0.309 C 
BRANCH  20  21
HETATM   21  C   UNL     1     -38.865 -50.002  12.355  1.00  0.00     0.077 C 
HETATM   22  C   UNL     1     -38.577 -48.529  12.675  1.00  0.00     0.047 C 
HETATM   23  C   UNL     1     -37.707 -50.880  12.823  1.00  0.00     0.047 C 
BRANCH  21  24
HETATM   24  O   UNL     1     -38.966 -50.099  10.930  1.00  0.00    -0.389 OA
HETATM   25  H   UNL     1     -38.087 -49.923  10.553  1.00  0.00     0.210 HD
ENDBRANCH  21  24
ENDBRANCH  20  21
ENDBRANCH   6  20
TORSDOF 7
ENDMDL
MODEL 2
REMARK VINA RESULT:      -5.6      3.030      7.864
REMARK  7 active torsions:
REMARK  status: ('A' for Active; 'I' for Inactive)
REMARK    1  A    between atoms: O_2  and  C_3 
REMARK    2  A    between atoms: C_3  and  C_4 
REMARK    3  A    between atoms: C_4  and  N_5 
REMARK    4  A    between atoms: C_7  and  C_12 
REMARK       I    between atoms: C_12  and  N_14 
REMARK    5  A    between atoms: N_17  and  C_18 
REMARK    6  A    between atoms: C_18  and  C_19 
REMARK    7  A    between atoms: C_19  and  O_22 
ROOT
HETATM    1  C   UNL     1     -39.498 -52.247  13.804  1.00  0.00     0.255 C 
HETATM    2  O   UNL     1     -38.752 -53.220  13.769  1.00  0.00    -0.267 OA
HETATM    3  N   UNL     1     -40.884 -52.349  13.726  1.00  0.00    -0.345 N 
HETATM    4  C   UNL     1     -41.495 -53.676  13.582  1.00  0.00     0.156 C 
HETATM    5  C   UNL     1     -42.703 -53.639  12.617  1.00  0.00     0.292 C 
HETATM    6  N   UNL     1     -43.699 -52.574  12.890  1.00  0.00     0.094 N 
HETATM    7  C   UNL     1     -42.977 -51.282  12.969  1.00  0.00     0.292 C 
HETATM    8  C   UNL     1     -41.855 -51.288  14.027  1.00  0.00     0.156 C 
ENDROOT
BRANCH   1   9
HETATM    9  C   UNL     1     -38.916 -50.883  14.014  1.00  0.00     0.048 C 
HETATM   10  C   UNL     1     -38.541 -50.473  15.235  1.00  0.00     0.111 C 
HETATM   11  N   UNL     1     -37.733 -49.353  15.403  1.00  0.00    -0.322 N 
HETATM   12  C   UNL     1     -37.409 -48.516  14.331  1.00  0.00     0.247 C 
HETATM   13  C   UNL     1     -38.028 -48.865  13.023  1.00  0.00     0.075 C 
HETATM   14  O   UNL     1     -36.688 -47.525  14.401  1.00  0.00    -0.268 OA
HETATM   15  C   UNL     1     -38.729 -49.998  12.885  1.00  0.00     0.024 C 
BRANCH  11  16
HETATM   16  C   UNL     1     -37.064 -49.141  16.695  1.00  0.00     0.158 C 
BRANCH  16  17
HETATM   17  C   UNL     1     -35.595 -49.612  16.749  1.00  0.00     0.187 C 
BRANCH  17  18
HETATM   18  O   UNL     1     -34.684 -48.514  16.685  1.00  0.00    -0.394 OA
HETATM   19  C   UNL     1     -35.076 -47.442  17.538  1.00  0.00     0.201 C 
ENDBRANCH  17  18
ENDBRANCH  16  17
ENDBRANCH  11  16
ENDBRANCH   1   9
BRANCH   6  20
HETATM   20  C   UNL     1     -44.490 -52.768  14.128  1.00  0.00     0.309 C 
BRANCH  20  21
HETATM   21  C   UNL     1     -46.032 -52.920  14.034  1.00  0.00     0.077 C 
HETATM   22  C   UNL     1     -46.450 -54.123  14.891  1.00  0.00     0.047 C 
HETATM   23  C   UNL     1     -46.763 -51.663  14.499  1.00  0.00     0.047 C 
BRANCH  21  24
HETATM   24  O   UNL     1     -46.435 -53.214  12.692  1.00  0.00    -0.389 OA
HETATM   25  H   UNL     1     -47.406 -53.230  12.666  1.00  0.00     0.210 HD
ENDBRANCH  21  24
ENDBRANCH  20  21
ENDBRANCH   6  20
TORSDOF 7
ENDMDL
MODEL 3
REMARK VINA RESULT:      -5.6      3.668      5.134
REMARK  7 active torsions:
REMARK  status: ('A' for Active; 'I' for Inactive)
REMARK    1  A    between atoms: O_2  and  C_3 
REMARK    2  A    between atoms: C_3  and  C_4 
REMARK    3  A    between atoms: C_4  and  N_5 
REMARK    4  A    between atoms: C_7  and  C_12 
REMARK       I    between atoms: C_12  and  N_14 
REMARK    5  A    between atoms: N_17  and  C_18 
REMARK    6  A    between atoms: C_18  and  C_19 
REMARK    7  A    between atoms: C_19  and  O_22 
ROOT
HETATM    1  C   UNL     1     -43.391 -49.528  14.221  1.00  0.00     0.255 C 
HETATM    2  O   UNL     1     -43.452 -49.390  15.439  1.00  0.00    -0.267 OA
HETATM    3  N   UNL     1     -42.907 -48.539  13.367  1.00  0.00    -0.345 N 
HETATM    4  C   UNL     1     -42.460 -47.262  13.935  1.00  0.00     0.156 C 
HETATM    5  C   UNL     1     -42.870 -46.072  13.037  1.00  0.00     0.292 C 
HETATM    6  N   UNL     1     -42.525 -46.214  11.601  1.00  0.00     0.094 N 
HETATM    7  C   UNL     1     -43.064 -47.511  11.129  1.00  0.00     0.292 C 
HETATM    8  C   UNL     1     -42.547 -48.708  11.953  1.00  0.00     0.156 C 
ENDROOT
BRANCH   1   9
HETATM    9  C   UNL     1     -43.778 -50.839  13.610  1.00  0.00     0.048 C 
HETATM   10  C   UNL     1     -42.869 -51.807  13.420  1.00  0.00     0.111 C 
HETATM   11  N   UNL     1     -43.255 -53.115  13.145  1.00  0.00    -0.322 N 
HETATM   12  C   UNL     1     -44.590 -53.448  12.897  1.00  0.00     0.247 C 
HETATM   13  C   UNL     1     -45.553 -52.313  12.888  1.00  0.00     0.075 C 
HETATM   14  O   UNL     1     -45.006 -54.580  12.668  1.00  0.00    -0.268 OA
HETATM   15  C   UNL     1     -45.155 -51.083  13.242  1.00  0.00     0.024 C 
BRANCH  11  16
HETATM   16  C   UNL     1     -42.270 -54.197  13.288  1.00  0.00     0.158 C 
BRANCH  16  17
HETATM   17  C   UNL     1     -40.851 -53.852  12.788  1.00  0.00     0.187 C 
BRANCH  17  18
HETATM   18  O   UNL     1     -39.842 -54.362  13.661  1.00  0.00    -0.394 OA
HETATM   19  C   UNL     1     -39.344 -53.362  14.545  1.00  0.00     0.201 C 
ENDBRANCH  17  18
ENDBRANCH  16  17
ENDBRANCH  11  16
ENDBRANCH   1   9
BRANCH   6  20
HETATM   20  C   UNL     1     -41.076 -46.149  11.301  1.00  0.00     0.309 C 
BRANCH  20  21
HETATM   21  C   UNL     1     -40.417 -44.774  11.008  1.00  0.00     0.077 C 
HETATM   22  C   UNL     1     -39.737 -44.283  12.294  1.00  0.00     0.047 C 
HETATM   23  C   UNL     1     -39.401 -44.856   9.872  1.00  0.00     0.047 C 
BRANCH  21  24
HETATM   24  O   UNL     1     -41.406 -43.797  10.669  1.00  0.00    -0.389 OA
HETATM   25  H   UNL     1     -41.150 -42.954  11.081  1.00  0.00     0.210 HD
ENDBRANCH  21  24
ENDBRANCH  20  21
ENDBRANCH   6  20
TORSDOF 7
ENDMDL
MODEL 4
REMARK VINA RESULT:      -5.5      2.516      7.773
REMARK  7 active torsions:
REMARK  status: ('A' for Active; 'I' for Inactive)
REMARK    1  A    between atoms: O_2  and  C_3 
REMARK    2  A    between atoms: C_3  and  C_4 
REMARK    3  A    between atoms: C_4  and  N_5 
REMARK    4  A    between atoms: C_7  and  C_12 
REMARK       I    between atoms: C_12  and  N_14 
REMARK    5  A    between atoms: N_17  and  C_18 
REMARK    6  A    between atoms: C_18  and  C_19 
REMARK    7  A    between atoms: C_19  and  O_22 
ROOT
HETATM    1  C   UNL     1     -39.918 -53.205  13.996  1.00  0.00     0.255 C 
HETATM    2  O   UNL     1     -39.414 -54.321  14.058  1.00  0.00    -0.267 OA
HETATM    3  N   UNL     1     -41.290 -52.996  13.884  1.00  0.00    -0.345 N 
HETATM    4  C   UNL     1     -42.186 -54.157  13.821  1.00  0.00     0.156 C 
HETATM    5  C   UNL     1     -43.341 -53.924  12.818  1.00  0.00     0.292 C 
HETATM    6  N   UNL     1     -44.071 -52.642  12.981  1.00  0.00     0.094 N 
HETATM    7  C   UNL     1     -43.074 -51.546  12.984  1.00  0.00     0.292 C 
HETATM    8  C   UNL     1     -41.997 -51.722  14.075  1.00  0.00     0.156 C 
ENDROOT
BRANCH   1   9
HETATM    9  C   UNL     1     -39.043 -51.996  14.121  1.00  0.00     0.048 C 
HETATM   10  C   UNL     1     -38.758 -51.237  13.052  1.00  0.00     0.111 C 
HETATM   11  N   UNL     1     -38.212 -49.965  13.196  1.00  0.00    -0.322 N 
HETATM   12  C   UNL     1     -37.789 -49.486  14.439  1.00  0.00     0.247 C 
HETATM   13  C   UNL     1     -37.905 -50.438  15.578  1.00  0.00     0.075 C 
HETATM   14  O   UNL     1     -37.318 -48.371  14.645  1.00  0.00    -0.268 OA
HETATM   15  C   UNL     1     -38.515 -51.620  15.414  1.00  0.00     0.024 C 
BRANCH  11  16
HETATM   16  C   UNL     1     -38.239 -49.042  12.053  1.00  0.00     0.158 C 
BRANCH  16  17
HETATM   17  C   UNL     1     -39.609 -48.382  11.785  1.00  0.00     0.187 C 
BRANCH  17  18
HETATM   18  O   UNL     1     -39.592 -46.985  12.082  1.00  0.00    -0.394 OA
HETATM   19  C   UNL     1     -40.118 -46.204  11.013  1.00  0.00     0.201 C 
ENDBRANCH  17  18
ENDBRANCH  16  17
ENDBRANCH  11  16
ENDBRANCH   1   9
BRANCH   6  20
HETATM   20  C   UNL     1     -44.900 -52.551  14.204  1.00  0.00     0.309 C 
BRANCH  20  21
HETATM   21  C   UNL     1     -46.430 -52.320  14.075  1.00  0.00     0.077 C 
HETATM   22  C   UNL     1     -46.870 -51.370  15.198  1.00  0.00     0.047 C 
HETATM   23  C   UNL     1     -46.810 -51.740  12.715  1.00  0.00     0.047 C 
BRANCH  21  24
HETATM   24  O   UNL     1     -47.149 -53.543  14.267  1.00  0.00    -0.389 OA
HETATM   25  H   UNL     1     -46.585 -54.275  13.965  1.00  0.00     0.210 HD
ENDBRANCH  21  24
ENDBRANCH  20  21
ENDBRANCH   6  20
TORSDOF 7
ENDMDL
MODEL 5
REMARK VINA RESULT:      -5.5      2.716      4.509
REMARK  7 active torsions:
REMARK  status: ('A' for Active; 'I' for Inactive)
REMARK    1  A    between atoms: O_2  and  C_3 
REMARK    2  A    between atoms: C_3  and  C_4 
REMARK    3  A    between atoms: C_4  and  N_5 
REMARK    4  A    between atoms: C_7  and  C_12 
REMARK       I    between atoms: C_12  and  N_14 
REMARK    5  A    between atoms: N_17  and  C_18 
REMARK    6  A    between atoms: C_18  and  C_19 
REMARK    7  A    between atoms: C_19  and  O_22 
ROOT
HETATM    1  C   UNL     1     -41.207 -52.261  12.745  1.00  0.00     0.255 C 
HETATM    2  O   UNL     1     -41.343 -52.270  11.526  1.00  0.00    -0.267 OA
HETATM    3  N   UNL     1     -40.152 -51.619  13.387  1.00  0.00    -0.345 N 
HETATM    4  C   UNL     1     -39.137 -50.930  12.580  1.00  0.00     0.156 C 
HETATM    5  C   UNL     1     -37.720 -51.129  13.166  1.00  0.00     0.292 C 
HETATM    6  N   UNL     1     -37.590 -50.846  14.617  1.00  0.00     0.094 N 
HETATM    7  C   UNL     1     -38.628 -51.626  15.330  1.00  0.00     0.292 C 
HETATM    8  C   UNL     1     -40.054 -51.325  14.824  1.00  0.00     0.156 C 
ENDROOT
BRANCH   1   9
HETATM    9  C   UNL     1     -42.255 -52.897  13.605  1.00  0.00     0.048 C 
HETATM   10  C   UNL     1     -43.434 -52.293  13.818  1.00  0.00     0.111 C 
HETATM   11  N   UNL     1     -44.515 -52.989  14.349  1.00  0.00    -0.322 N 
HETATM   12  C   UNL     1     -44.380 -54.294  14.832  1.00  0.00     0.247 C 
HETATM   13  C   UNL     1     -43.005 -54.863  14.795  1.00  0.00     0.075 C 
HETATM   14  O   UNL     1     -45.291 -54.975  15.295  1.00  0.00    -0.268 OA
HETATM   15  C   UNL     1     -42.010 -54.194  14.197  1.00  0.00     0.024 C 
BRANCH  11  16
HETATM   16  C   UNL     1     -45.861 -52.409  14.243  1.00  0.00     0.158 C 
BRANCH  16  17
HETATM   17  C   UNL     1     -46.114 -51.586  12.962  1.00  0.00     0.187 C 
BRANCH  17  18
HETATM   18  O   UNL     1     -46.520 -52.413  11.871  1.00  0.00    -0.394 OA
HETATM   19  C   UNL     1     -47.442 -51.750  11.011  1.00  0.00     0.201 C 
ENDBRANCH  17  18
ENDBRANCH  16  17
ENDBRANCH  11  16
ENDBRANCH   1   9
BRANCH   6  20
HETATM   20  C   UNL     1     -37.715 -49.417  14.984  1.00  0.00     0.309 C 
BRANCH  20  21
HETATM   21  C   UNL     1     -36.707 -48.794  15.986  1.00  0.00     0.077 C 
HETATM   22  C   UNL     1     -37.496 -48.242  17.182  1.00  0.00     0.047 C 
HETATM   23  C   UNL     1     -35.670 -49.808  16.462  1.00  0.00     0.047 C 
BRANCH  21  24
HETATM   24  O   UNL     1     -36.024 -47.682  15.399  1.00  0.00    -0.389 OA
HETATM   25  H   UNL     1     -35.068 -47.853  15.451  1.00  0.00     0.210 HD
ENDBRANCH  21  24
ENDBRANCH  20  21
ENDBRANCH   6  20
TORSDOF 7
ENDMDL
MODEL 6
REMARK VINA RESULT:      -5.5      2.705      7.895
REMARK  7 active torsions:
REMARK  status: ('A' for Active; 'I' for Inactive)
REMARK    1  A    between atoms: O_2  and  C_3 
REMARK    2  A    between atoms: C_3  and  C_4 
REMARK    3  A    between atoms: C_4  and  N_5 
REMARK    4  A    between atoms: C_7  and  C_12 
REMARK       I    between atoms: C_12  and  N_14 
REMARK    5  A    between atoms: N_17  and  C_18 
REMARK    6  A    between atoms: C_18  and  C_19 
REMARK    7  A    between atoms: C_19  and  O_22 
ROOT
HETATM    1  C   UNL     1     -39.071 -50.883  12.869  1.00  0.00     0.255 C 
HETATM    2  O   UNL     1     -38.014 -51.475  12.673  1.00  0.00    -0.267 OA
HETATM    3  N   UNL     1     -40.264 -51.535  13.167  1.00  0.00    -0.345 N 
HETATM    4  C   UNL     1     -40.277 -53.002  13.239  1.00  0.00     0.156 C 
HETATM    5  C   UNL     1     -41.572 -53.585  12.629  1.00  0.00     0.292 C 
HETATM    6  N   UNL     1     -42.833 -52.974  13.118  1.00  0.00     0.094 N 
HETATM    7  C   UNL     1     -42.723 -51.506  12.954  1.00  0.00     0.292 C 
HETATM    8  C   UNL     1     -41.494 -50.914  13.676  1.00  0.00     0.156 C 
ENDROOT
BRANCH   1   9
HETATM    9  C   UNL     1     -39.085 -49.385  12.866  1.00  0.00     0.048 C 
HETATM   10  C   UNL     1     -39.560 -48.701  11.815  1.00  0.00     0.111 C 
HETATM   11  N   UNL     1     -39.861 -47.346  11.912  1.00  0.00    -0.322 N 
HETATM   12  C   UNL     1     -39.535 -46.604  13.051  1.00  0.00     0.247 C 
HETATM   13  C   UNL     1     -38.798 -47.336  14.116  1.00  0.00     0.075 C 
HETATM   14  O   UNL     1     -39.786 -45.413  13.215  1.00  0.00    -0.268 OA
HETATM   15  C   UNL     1     -38.604 -48.658  14.021  1.00  0.00     0.024 C 
BRANCH  11  16
HETATM   16  C   UNL     1     -40.693 -46.722  10.873  1.00  0.00     0.158 C 
BRANCH  16  17
HETATM   17  C   UNL     1     -42.148 -47.235  10.812  1.00  0.00     0.187 C 
BRANCH  17  18
HETATM   18  O   UNL     1     -42.381 -48.032   9.650  1.00  0.00    -0.394 OA
HETATM   19  C   UNL     1     -43.353 -47.448   8.788  1.00  0.00     0.201 C 
ENDBRANCH  17  18
ENDBRANCH  16  17
ENDBRANCH  11  16
ENDBRANCH   1   9
BRANCH   6  20
HETATM   20  C   UNL     1     -43.166 -53.284  14.528  1.00  0.00     0.309 C 
BRANCH  20  21
HETATM   21  C   UNL     1     -44.194 -54.405  14.841  1.00  0.00     0.077 C 
HETATM   22  C   UNL     1     -45.095 -53.925  15.987  1.00  0.00     0.047 C 
HETATM   23  C   UNL     1     -45.039 -54.766  13.622  1.00  0.00     0.047 C 
BRANCH  21  24
HETATM   24  O   UNL     1     -43.534 -55.587  15.306  1.00  0.00    -0.389 OA
HETATM   25  H   UNL     1     -44.081 -55.981  16.007  1.00  0.00     0.210 HD
ENDBRANCH  21  24
ENDBRANCH  20  21
ENDBRANCH   6  20
TORSDOF 7
ENDMDL
MODEL 7
REMARK VINA RESULT:      -5.4      2.928      7.859
REMARK  7 active torsions:
REMARK  status: ('A' for Active; 'I' for Inactive)
REMARK    1  A    between atoms: O_2  and  C_3 
REMARK    2  A    between atoms: C_3  and  C_4 
REMARK    3  A    between atoms: C_4  and  N_5 
REMARK    4  A    between atoms: C_7  and  C_12 
REMARK       I    between atoms: C_12  and  N_14 
REMARK    5  A    between atoms: N_17  and  C_18 
REMARK    6  A    between atoms: C_18  and  C_19 
REMARK    7  A    between atoms: C_19  and  O_22 
ROOT
HETATM    1  C   UNL     1     -40.517 -51.524  12.620  1.00  0.00     0.255 C 
HETATM    2  O   UNL     1     -39.577 -52.304  12.500  1.00  0.00    -0.267 OA
HETATM    3  N   UNL     1     -41.768 -51.909  13.095  1.00  0.00    -0.345 N 
HETATM    4  C   UNL     1     -41.992 -53.314  13.459  1.00  0.00     0.156 C 
HETATM    5  C   UNL     1     -43.401 -53.788  13.035  1.00  0.00     0.292 C 
HETATM    6  N   UNL     1     -44.518 -52.902  13.448  1.00  0.00     0.094 N 
HETATM    7  C   UNL     1     -44.204 -51.528  12.990  1.00  0.00     0.292 C 
HETATM    8  C   UNL     1     -42.851 -51.014  13.524  1.00  0.00     0.156 C 
ENDROOT
BRANCH   1   9
HETATM    9  C   UNL     1     -40.309 -50.072  12.320  1.00  0.00     0.048 C 
HETATM   10  C   UNL     1     -40.916 -49.490  11.274  1.00  0.00     0.111 C 
HETATM   11  N   UNL     1     -40.981 -48.105  11.158  1.00  0.00    -0.322 N 
HETATM   12  C   UNL     1     -40.286 -47.263  12.031  1.00  0.00     0.247 C 
HETATM   13  C   UNL     1     -39.432 -47.939  13.046  1.00  0.00     0.075 C 
HETATM   14  O   UNL     1     -40.311 -46.036  12.000  1.00  0.00    -0.268 OA
HETATM   15  C   UNL     1     -39.465 -49.272  13.180  1.00  0.00     0.024 C 
BRANCH  11  16
HETATM   16  C   UNL     1     -41.935 -47.511  10.210  1.00  0.00     0.158 C 
BRANCH  16  17
HETATM   17  C   UNL     1     -43.415 -47.592  10.642  1.00  0.00     0.187 C 
BRANCH  17  18
HETATM   18  O   UNL     1     -44.298 -47.552   9.521  1.00  0.00    -0.394 OA
HETATM   19  C   UNL     1     -43.592 -47.557   8.284  1.00  0.00     0.201 C 
ENDBRANCH  17  18
ENDBRANCH  16  17
ENDBRANCH  11  16
ENDBRANCH   1   9
BRANCH   6  20
HETATM   20  C   UNL     1     -44.787 -52.881  14.905  1.00  0.00     0.309 C 
BRANCH  20  21
HETATM   21  C   UNL     1     -46.197 -53.269  15.427  1.00  0.00     0.077 C 
HETATM   22  C   UNL     1     -46.034 -53.947  16.795  1.00  0.00     0.047 C 
HETATM   23  C   UNL     1     -47.118 -52.058  15.546  1.00  0.00     0.047 C 
BRANCH  21  24
HETATM   24  O   UNL     1     -46.814 -54.230  14.564  1.00  0.00    -0.389 OA
HETATM   25  H   UNL     1     -46.961 -55.044  15.076  1.00  0.00     0.210 HD
ENDBRANCH  21  24
ENDBRANCH  20  21
ENDBRANCH   6  20
TORSDOF 7
ENDMDL
MODEL 8
REMARK VINA RESULT:      -5.4      4.876      8.873
REMARK  7 active torsions:
REMARK  status: ('A' for Active; 'I' for Inactive)
REMARK    1  A    between atoms: O_2  and  C_3 
REMARK    2  A    between atoms: C_3  and  C_4 
REMARK    3  A    between atoms: C_4  and  N_5 
REMARK    4  A    between atoms: C_7  and  C_12 
REMARK       I    between atoms: C_12  and  N_14 
REMARK    5  A    between atoms: N_17  and  C_18 
REMARK    6  A    between atoms: C_18  and  C_19 
REMARK    7  A    between atoms: C_19  and  O_22 
ROOT
HETATM    1  C   UNL     1     -39.315 -46.919  13.369  1.00  0.00     0.255 C 
HETATM    2  O   UNL     1     -38.527 -46.491  14.207  1.00  0.00    -0.267 OA
HETATM    3  N   UNL     1     -39.547 -48.277  13.168  1.00  0.00    -0.345 N 
HETATM    4  C   UNL     1     -38.810 -49.255  13.979  1.00  0.00     0.156 C 
HETATM    5  C   UNL     1     -38.397 -50.486  13.140  1.00  0.00     0.292 C 
HETATM    6  N   UNL     1     -39.486 -51.104  12.343  1.00  0.00     0.094 N 
HETATM    7  C   UNL     1     -40.122 -50.037  11.536  1.00  0.00     0.292 C 
HETATM    8  C   UNL     1     -40.648 -48.869  12.396  1.00  0.00     0.156 C 
ENDROOT
BRANCH   1   9
HETATM    9  C   UNL     1     -40.131 -45.953  12.567  1.00  0.00     0.048 C 
HETATM   10  C   UNL     1     -41.207 -45.352  13.097  1.00  0.00     0.111 C 
HETATM   11  N   UNL     1     -41.787 -44.244  12.488  1.00  0.00    -0.322 N 
HETATM   12  C   UNL     1     -41.380 -43.806  11.224  1.00  0.00     0.247 C 
HETATM   13  C   UNL     1     -40.338 -44.631  10.554  1.00  0.00     0.075 C 
HETATM   14  O   UNL     1     -41.832 -42.828  10.635  1.00  0.00    -0.268 OA
HETATM   15  C   UNL     1     -39.744 -45.638  11.210  1.00  0.00     0.024 C 
BRANCH  11  16
HETATM   16  C   UNL     1     -42.724 -43.413  13.258  1.00  0.00     0.158 C 
BRANCH  16  17
HETATM   17  C   UNL     1     -42.058 -42.345  14.152  1.00  0.00     0.187 C 
BRANCH  17  18
HETATM   18  O   UNL     1     -42.523 -41.030  13.843  1.00  0.00    -0.394 OA
HETATM   19  C   UNL     1     -43.767 -41.052  13.150  1.00  0.00     0.201 C 
ENDBRANCH  17  18
ENDBRANCH  16  17
ENDBRANCH  11  16
ENDBRANCH   1   9
BRANCH   6  20
HETATM   20  C   UNL     1     -40.524 -51.796  13.142  1.00  0.00     0.309 C 
BRANCH  20  21
HETATM   21  C   UNL     1     -40.906 -53.260  12.794  1.00  0.00     0.077 C 
HETATM   22  C   UNL     1     -40.035 -54.199  13.641  1.00  0.00     0.047 C 
HETATM   23  C   UNL     1     -42.385 -53.542  13.046  1.00  0.00     0.047 C 
BRANCH  21  24
HETATM   24  O   UNL     1     -40.611 -53.552  11.424  1.00  0.00    -0.389 OA
HETATM   25  H   UNL     1     -39.762 -54.025  11.393  1.00  0.00     0.210 HD
ENDBRANCH  21  24
ENDBRANCH  20  21
ENDBRANCH   6  20
TORSDOF 7
ENDMDL
MODEL 9
REMARK VINA RESULT:      -5.4      2.705      3.576
REMARK  7 active torsions:
REMARK  status: ('A' for Active; 'I' for Inactive)
REMARK    1  A    between atoms: O_2  and  C_3 
REMARK    2  A    between atoms: C_3  and  C_4 
REMARK    3  A    between atoms: C_4  and  N_5 
REMARK    4  A    between atoms: C_7  and  C_12 
REMARK       I    between atoms: C_12  and  N_14 
REMARK    5  A    between atoms: N_17  and  C_18 
REMARK    6  A    between atoms: C_18  and  C_19 
REMARK    7  A    between atoms: C_19  and  O_22 
ROOT
HETATM    1  C   UNL     1     -41.373 -52.416  12.515  1.00  0.00     0.255 C 
HETATM    2  O   UNL     1     -40.476 -53.158  12.126  1.00  0.00    -0.267 OA
HETATM    3  N   UNL     1     -41.389 -51.047  12.264  1.00  0.00    -0.345 N 
HETATM    4  C   UNL     1     -40.280 -50.445  11.513  1.00  0.00     0.156 C 
HETATM    5  C   UNL     1     -39.897 -49.062  12.087  1.00  0.00     0.292 C 
HETATM    6  N   UNL     1     -41.029 -48.124  12.290  1.00  0.00     0.094 N 
HETATM    7  C   UNL     1     -42.060 -48.821  13.094  1.00  0.00     0.292 C 
HETATM    8  C   UNL     1     -42.531 -50.140  12.447  1.00  0.00     0.156 C 
ENDROOT
BRANCH   1   9
HETATM    9  C   UNL     1     -42.552 -53.002  13.228  1.00  0.00     0.048 C 
HETATM   10  C   UNL     1     -42.573 -53.095  14.567  1.00  0.00     0.111 C 
HETATM   11  N   UNL     1     -43.756 -53.346  15.253  1.00  0.00    -0.322 N 
HETATM   12  C   UNL     1     -44.938 -53.670  14.582  1.00  0.00     0.247 C 
HETATM   13  C   UNL     1     -44.835 -53.787  13.101  1.00  0.00     0.075 C 
HETATM   14  O   UNL     1     -46.021 -53.885  15.119  1.00  0.00    -0.268 OA
HETATM   15  C   UNL     1     -43.700 -53.453  12.472  1.00  0.00     0.024 C 
BRANCH  11  16
HETATM   16  C   UNL     1     -43.809 -53.096  16.701  1.00  0.00     0.158 C 
BRANCH  16  17
HETATM   17  C   UNL     1     -43.121 -54.171  17.570  1.00  0.00     0.187 C 
BRANCH  17  18
HETATM   18  O   UNL     1     -43.298 -55.482  17.032  1.00  0.00    -0.394 OA
HETATM   19  C   UNL     1     -42.058 -56.162  16.863  1.00  0.00     0.201 C 
ENDBRANCH  17  18
ENDBRANCH  16  17
ENDBRANCH  11  16
ENDBRANCH   1   9
BRANCH   6  20
HETATM   20  C   UNL     1     -41.644 -47.615  11.042  1.00  0.00     0.309 C 
BRANCH  20  21
HETATM   21  C   UNL     1     -41.436 -46.130  10.639  1.00  0.00     0.077 C 
HETATM   22  C   UNL     1     -42.266 -45.253  11.587  1.00  0.00     0.047 C 
HETATM   23  C   UNL     1     -39.966 -45.721  10.694  1.00  0.00     0.047 C 
BRANCH  21  24
HETATM   24  O   UNL     1     -41.930 -45.886   9.318  1.00  0.00    -0.389 OA
HETATM   25  H   UNL     1     -41.267 -45.358   8.841  1.00  0.00     0.210 HD
ENDBRANCH  21  24
ENDBRANCH  20  21
ENDBRANCH   6  20
TORSDOF 7
ENDMDL
