MODEL 1
REMARK VINA RESULT:      -6.4      0.000      0.000
REMARK  6 active torsions:
REMARK  status: ('A' for Active; 'I' for Inactive)
REMARK    1  A    between atoms: C_5  and  N_20 
REMARK    2  A    between atoms: C_8  and  N_9 
REMARK       I    between atoms: N_9  and  C_10 
REMARK       I    between atoms: C_10  and  N_12 
REMARK    3  A    between atoms: N_12  and  CA_13 
REMARK    4  A    between atoms: CA_13  and  C_16 
REMARK    5  A    between atoms: CA_13  and  C_14 
REMARK    6  A    between atoms: C_14  and  O_15 
ROOT
HETATM    1  N   UNL     1     -42.243 -49.310  11.384  1.00  0.00    -0.307 N 
HETATM    2  C   UNL     1     -42.022 -50.130  12.478  1.00  0.00     0.321 C 
HETATM    3  O   UNL     1     -41.771 -49.783  13.618  1.00  0.00    -0.247 OA
HETATM    4  N   UNL     1     -42.156 -51.457  12.127  1.00  0.00    -0.335 N 
HETATM    5  H   UNL     1     -42.702 -49.749  10.602  1.00  0.00     0.170 HD
HETATM    6  H   UNL     1     -41.958 -51.684  11.168  1.00  0.00     0.164 HD
ENDROOT
BRANCH   1   7
HETATM    7  C   UNL     1     -42.116 -47.897  11.339  1.00  0.00     0.058 A 
HETATM    8  C   UNL     1     -43.131 -47.079  10.822  1.00  0.00     0.034 A 
HETATM    9  C   UNL     1     -44.409 -47.628  10.257  1.00  0.00     0.070 C 
HETATM   10  N   UNL     1     -43.042 -45.718  10.772  1.00  0.00    -0.344 N 
HETATM   11  C   UNL     1     -41.929 -45.096  11.214  1.00  0.00     0.103 A 
ATOM     12  HN  UNL     1     -43.817 -45.170  10.399  1.00  0.00     0.167 HD
HETATM   13  C   UNL     1     -40.882 -45.853  11.723  1.00  0.00     0.051 A 
HETATM   14  C   UNL     1     -40.973 -47.245  11.783  1.00  0.00     0.035 A 
BRANCH  11  15
HETATM   15  N   UNL     1     -41.856 -43.733  11.116  1.00  0.00    -0.367 N 
HETATM   16  C   UNL     1     -42.984 -42.840  10.932  1.00  0.00     0.124 C 
HETATM   17  C   UNL     1     -42.419 -41.439  11.173  1.00  0.00     0.021 C 
HETATM   18  C   UNL     1     -41.039 -41.660  11.778  1.00  0.00     0.021 C 
HETATM   19  C   UNL     1     -40.601 -43.015  11.234  1.00  0.00     0.124 C 
ENDBRANCH  11  15
ENDBRANCH   1   7
BRANCH   4  20
HETATM   20  CA  UNL     1     -42.052 -52.556  13.107  1.00  0.00     0.117 C 
BRANCH  20  21
HETATM   21  C   UNL     1     -43.478 -53.078  13.500  1.00  0.00    -0.029 C 
HETATM   22  C   UNL     1     -44.384 -53.245  12.260  1.00  0.00     0.016 C 
HETATM   23  C   UNL     1     -43.328 -54.474  14.147  1.00  0.00     0.016 C 
HETATM   24  C   UNL     1     -44.209 -52.156  14.495  1.00  0.00     0.016 C 
ENDBRANCH  20  21
BRANCH  20  25
HETATM   25  C   UNL     1     -41.061 -53.639  12.604  1.00  0.00     0.190 C 
BRANCH  25  26
HETATM   26  O   UNL     1     -40.600 -53.368  11.283  1.00  0.00    -0.399 OA
HETATM   27  H   UNL     1     -41.106 -53.953  10.693  1.00  0.00     0.209 HD
ENDBRANCH  25  26
ENDBRANCH  20  25
ENDBRANCH   4  20
TORSDOF 6
ENDMDL
MODEL 2
REMARK VINA RESULT:      -6.1      2.804      8.662
REMARK  6 active torsions:
REMARK  status: ('A' for Active; 'I' for Inactive)
REMARK    1  A    between atoms: C_5  and  N_20 
REMARK    2  A    between atoms: C_8  and  N_9 
REMARK       I    between atoms: N_9  and  C_10 
REMARK       I    between atoms: C_10  and  N_12 
REMARK    3  A    between atoms: N_12  and  CA_13 
REMARK    4  A    between atoms: CA_13  and  C_16 
REMARK    5  A    between atoms: CA_13  and  C_14 
REMARK    6  A    between atoms: C_14  and  O_15 
ROOT
HETATM    1  N   UNL     1     -42.460 -50.484  12.346  1.00  0.00    -0.307 N 
HETATM    2  C   UNL     1     -41.809 -49.639  11.462  1.00  0.00     0.321 C 
HETATM    3  O   UNL     1     -40.655 -49.720  11.083  1.00  0.00    -0.247 OA
HETATM    4  N   UNL     1     -42.664 -48.658  11.008  1.00  0.00    -0.335 N 
HETATM    5  H   UNL     1     -43.466 -50.433  12.329  1.00  0.00     0.170 HD
HETATM    6  H   UNL     1     -43.416 -48.403  11.625  1.00  0.00     0.164 HD
ENDROOT
BRANCH   1   7
HETATM    7  C   UNL     1     -41.887 -51.558  13.076  1.00  0.00     0.058 A 
HETATM    8  C   UNL     1     -41.458 -51.404  14.403  1.00  0.00     0.034 A 
HETATM    9  C   UNL     1     -41.547 -50.098  15.140  1.00  0.00     0.070 C 
HETATM   10  N   UNL     1     -40.910 -52.418  15.134  1.00  0.00    -0.344 N 
HETATM   11  C   UNL     1     -40.739 -53.636  14.579  1.00  0.00     0.103 A 
ATOM     12  HN  UNL     1     -40.630 -52.255  16.101  1.00  0.00     0.167 HD
HETATM   13  C   UNL     1     -41.129 -53.847  13.264  1.00  0.00     0.051 A 
HETATM   14  C   UNL     1     -41.697 -52.814  12.515  1.00  0.00     0.035 A 
BRANCH  11  15
HETATM   15  N   UNL     1     -40.153 -54.621  15.327  1.00  0.00    -0.367 N 
HETATM   16  C   UNL     1     -38.754 -55.002  15.271  1.00  0.00     0.124 C 
HETATM   17  C   UNL     1     -38.550 -55.922  16.475  1.00  0.00     0.021 C 
HETATM   18  C   UNL     1     -39.807 -55.765  17.321  1.00  0.00     0.021 C 
HETATM   19  C   UNL     1     -40.890 -55.381  16.319  1.00  0.00     0.124 C 
ENDBRANCH  11  15
ENDBRANCH   1   7
BRANCH   4  20
HETATM   20  CA  UNL     1     -42.268 -47.660   9.995  1.00  0.00     0.117 C 
BRANCH  20  21
HETATM   21  C   UNL     1     -43.511 -47.209   9.151  1.00  0.00    -0.029 C 
HETATM   22  C   UNL     1     -43.507 -47.854   7.747  1.00  0.00     0.016 C 
HETATM   23  C   UNL     1     -44.793 -47.688   9.869  1.00  0.00     0.016 C 
HETATM   24  C   UNL     1     -43.597 -45.682   8.966  1.00  0.00     0.016 C 
ENDBRANCH  20  21
BRANCH  20  25
HETATM   25  C   UNL     1     -41.457 -46.512  10.653  1.00  0.00     0.190 C 
BRANCH  25  26
HETATM   26  O   UNL     1     -40.052 -46.698  10.505  1.00  0.00    -0.399 OA
HETATM   27  H   UNL     1     -39.630 -45.931  10.928  1.00  0.00     0.209 HD
ENDBRANCH  25  26
ENDBRANCH  20  25
ENDBRANCH   4  20
TORSDOF 6
ENDMDL
MODEL 3
REMARK VINA RESULT:      -6.1      1.686      1.970
REMARK  6 active torsions:
REMARK  status: ('A' for Active; 'I' for Inactive)
REMARK    1  A    between atoms: C_5  and  N_20 
REMARK    2  A    between atoms: C_8  and  N_9 
REMARK       I    between atoms: N_9  and  C_10 
REMARK       I    between atoms: C_10  and  N_12 
REMARK    3  A    between atoms: N_12  and  CA_13 
REMARK    4  A    between atoms: CA_13  and  C_16 
REMARK    5  A    between atoms: CA_13  and  C_14 
REMARK    6  A    between atoms: C_14  and  O_15 
ROOT
HETATM    1  N   UNL     1     -43.318 -49.389  12.070  1.00  0.00    -0.307 N 
HETATM    2  C   UNL     1     -43.644 -50.122  13.199  1.00  0.00     0.321 C 
HETATM    3  O   UNL     1     -43.618 -49.741  14.355  1.00  0.00    -0.247 OA
HETATM    4  N   UNL     1     -44.056 -51.391  12.853  1.00  0.00    -0.335 N 
HETATM    5  H   UNL     1     -43.657 -49.764  11.199  1.00  0.00     0.170 HD
HETATM    6  H   UNL     1     -43.683 -51.761  11.995  1.00  0.00     0.164 HD
ENDROOT
BRANCH   1   7
HETATM    7  C   UNL     1     -42.781 -48.075  12.033  1.00  0.00     0.058 A 
HETATM    8  C   UNL     1     -43.254 -47.108  11.134  1.00  0.00     0.034 A 
HETATM    9  C   UNL     1     -44.336 -47.389  10.131  1.00  0.00     0.070 C 
HETATM   10  N   UNL     1     -42.763 -45.835  11.079  1.00  0.00    -0.344 N 
HETATM   11  C   UNL     1     -41.761 -45.460  11.901  1.00  0.00     0.103 A 
ATOM     12  HN  UNL     1     -43.154 -45.167  10.416  1.00  0.00     0.167 HD
HETATM   13  C   UNL     1     -41.240 -46.378  12.804  1.00  0.00     0.051 A 
HETATM   14  C   UNL     1     -41.744 -47.679  12.868  1.00  0.00     0.035 A 
BRANCH  11  15
HETATM   15  N   UNL     1     -41.268 -44.188  11.796  1.00  0.00    -0.367 N 
HETATM   16  C   UNL     1     -42.002 -43.037  11.305  1.00  0.00     0.124 C 
HETATM   17  C   UNL     1     -41.125 -41.834  11.654  1.00  0.00     0.021 C 
HETATM   18  C   UNL     1     -40.061 -42.372  12.602  1.00  0.00     0.021 C 
HETATM   19  C   UNL     1     -39.925 -43.842  12.222  1.00  0.00     0.124 C 
ENDBRANCH  11  15
ENDBRANCH   1   7
BRANCH   4  20
HETATM   20  CA  UNL     1     -44.540 -52.372  13.845  1.00  0.00     0.117 C 
BRANCH  20  21
HETATM   21  C   UNL     1     -46.102 -52.298  13.974  1.00  0.00    -0.029 C 
HETATM   22  C   UNL     1     -46.763 -51.895  12.637  1.00  0.00     0.016 C 
HETATM   23  C   UNL     1     -46.631 -53.704  14.339  1.00  0.00     0.016 C 
HETATM   24  C   UNL     1     -46.575 -51.303  15.051  1.00  0.00     0.016 C 
ENDBRANCH  20  21
BRANCH  20  25
HETATM   25  C   UNL     1     -43.962 -53.780  13.543  1.00  0.00     0.190 C 
BRANCH  25  26
HETATM   26  O   UNL     1     -44.001 -54.085  12.151  1.00  0.00    -0.399 OA
HETATM   27  H   UNL     1     -44.546 -54.885  12.064  1.00  0.00     0.209 HD
ENDBRANCH  25  26
ENDBRANCH  20  25
ENDBRANCH   4  20
TORSDOF 6
ENDMDL
MODEL 4
REMARK VINA RESULT:      -5.8      1.195      2.005
REMARK  6 active torsions:
REMARK  status: ('A' for Active; 'I' for Inactive)
REMARK    1  A    between atoms: C_5  and  N_20 
REMARK    2  A    between atoms: C_8  and  N_9 
REMARK       I    between atoms: N_9  and  C_10 
REMARK       I    between atoms: C_10  and  N_12 
REMARK    3  A    between atoms: N_12  and  CA_13 
REMARK    4  A    between atoms: CA_13  and  C_16 
REMARK    5  A    between atoms: CA_13  and  C_14 
REMARK    6  A    between atoms: C_14  and  O_15 
ROOT
HETATM    1  N   UNL     1     -42.102 -49.745  11.870  1.00  0.00    -0.307 N 
HETATM    2  C   UNL     1     -41.843 -50.641  12.895  1.00  0.00     0.321 C 
HETATM    3  O   UNL     1     -41.403 -50.386  14.001  1.00  0.00    -0.247 OA
HETATM    4  N   UNL     1     -42.188 -51.922  12.520  1.00  0.00    -0.335 N 
HETATM    5  H   UNL     1     -42.712 -50.085  11.144  1.00  0.00     0.170 HD
HETATM    6  H   UNL     1     -42.148 -52.122  11.535  1.00  0.00     0.164 HD
ENDROOT
BRANCH   1   7
HETATM    7  C   UNL     1     -41.805 -48.357  11.858  1.00  0.00     0.058 A 
HETATM    8  C   UNL     1     -40.491 -47.884  11.727  1.00  0.00     0.034 A 
HETATM    9  C   UNL     1     -39.304 -48.797  11.617  1.00  0.00     0.070 C 
HETATM   10  N   UNL     1     -40.174 -46.556  11.704  1.00  0.00    -0.344 N 
HETATM   11  C   UNL     1     -41.144 -45.627  11.831  1.00  0.00     0.103 A 
ATOM     12  HN  UNL     1     -39.203 -46.266  11.590  1.00  0.00     0.167 HD
HETATM   13  C   UNL     1     -42.463 -46.033  11.979  1.00  0.00     0.051 A 
HETATM   14  C   UNL     1     -42.792 -47.391  11.996  1.00  0.00     0.035 A 
BRANCH  11  15
HETATM   15  N   UNL     1     -40.789 -44.305  11.840  1.00  0.00    -0.367 N 
HETATM   16  C   UNL     1     -41.543 -43.226  11.231  1.00  0.00     0.124 C 
HETATM   17  C   UNL     1     -40.894 -41.946  11.760  1.00  0.00     0.021 C 
HETATM   18  C   UNL     1     -39.977 -42.396  12.890  1.00  0.00     0.021 C 
HETATM   19  C   UNL     1     -39.601 -43.828  12.524  1.00  0.00     0.124 C 
ENDBRANCH  11  15
ENDBRANCH   1   7
BRANCH   4  20
HETATM   20  CA  UNL     1     -42.095 -53.075  13.437  1.00  0.00     0.117 C 
BRANCH  20  21
HETATM   21  C   UNL     1     -43.526 -53.617  13.785  1.00  0.00    -0.029 C 
HETATM   22  C   UNL     1     -43.453 -54.955  14.554  1.00  0.00     0.016 C 
HETATM   23  C   UNL     1     -44.226 -52.597  14.711  1.00  0.00     0.016 C 
HETATM   24  C   UNL     1     -44.410 -53.837  12.543  1.00  0.00     0.016 C 
ENDBRANCH  20  21
BRANCH  20  25
HETATM   25  C   UNL     1     -41.099 -54.129  12.885  1.00  0.00     0.190 C 
BRANCH  25  26
HETATM   26  O   UNL     1     -40.548 -53.736  11.631  1.00  0.00    -0.399 OA
HETATM   27  H   UNL     1     -39.582 -53.777  11.734  1.00  0.00     0.209 HD
ENDBRANCH  25  26
ENDBRANCH  20  25
ENDBRANCH   4  20
TORSDOF 6
ENDMDL
MODEL 5
REMARK VINA RESULT:      -5.8      2.882      8.813
REMARK  6 active torsions:
REMARK  status: ('A' for Active; 'I' for Inactive)
REMARK    1  A    between atoms: C_5  and  N_20 
REMARK    2  A    between atoms: C_8  and  N_9 
REMARK       I    between atoms: N_9  and  C_10 
REMARK       I    between atoms: C_10  and  N_12 
REMARK    3  A    between atoms: N_12  and  CA_13 
REMARK    4  A    between atoms: CA_13  and  C_16 
REMARK    5  A    between atoms: CA_13  and  C_14 
REMARK    6  A    between atoms: C_14  and  O_15 
ROOT
HETATM    1  N   UNL     1     -41.111 -50.630  11.694  1.00  0.00    -0.307 N 
HETATM    2  C   UNL     1     -42.071 -49.640  11.829  1.00  0.00     0.321 C 
HETATM    3  O   UNL     1     -42.803 -49.452  12.783  1.00  0.00    -0.247 OA
HETATM    4  N   UNL     1     -42.087 -48.824  10.718  1.00  0.00    -0.335 N 
HETATM    5  H   UNL     1     -40.423 -50.469  10.976  1.00  0.00     0.170 HD
HETATM    6  H   UNL     1     -41.787 -49.243   9.855  1.00  0.00     0.164 HD
ENDROOT
BRANCH   1   7
HETATM    7  C   UNL     1     -40.856 -51.697  12.595  1.00  0.00     0.058 A 
HETATM    8  C   UNL     1     -39.694 -51.741  13.380  1.00  0.00     0.034 A 
HETATM    9  C   UNL     1     -38.627 -50.687  13.312  1.00  0.00     0.070 C 
HETATM   10  N   UNL     1     -39.424 -52.750  14.259  1.00  0.00    -0.344 N 
HETATM   11  C   UNL     1     -40.284 -53.781  14.391  1.00  0.00     0.103 A 
ATOM     12  HN  UNL     1     -38.571 -52.724  14.817  1.00  0.00     0.167 HD
HETATM   13  C   UNL     1     -41.445 -53.802  13.630  1.00  0.00     0.051 A 
HETATM   14  C   UNL     1     -41.728 -52.768  12.734  1.00  0.00     0.035 A 
BRANCH  11  15
HETATM   15  N   UNL     1     -39.967 -54.794  15.254  1.00  0.00    -0.367 N 
HETATM   16  C   UNL     1     -38.629 -55.292  15.513  1.00  0.00     0.124 C 
HETATM   17  C   UNL     1     -38.777 -56.198  16.736  1.00  0.00     0.021 C 
HETATM   18  C   UNL     1     -40.171 -55.917  17.280  1.00  0.00     0.021 C 
HETATM   19  C   UNL     1     -40.968 -55.466  16.060  1.00  0.00     0.124 C 
ENDBRANCH  11  15
ENDBRANCH   1   7
BRANCH   4  20
HETATM   20  CA  UNL     1     -42.957 -47.636  10.614  1.00  0.00     0.117 C 
BRANCH  20  21
HETATM   21  C   UNL     1     -42.205 -46.358  11.128  1.00  0.00    -0.029 C 
HETATM   22  C   UNL     1     -40.681 -46.467  10.902  1.00  0.00     0.016 C 
HETATM   23  C   UNL     1     -42.700 -45.138  10.317  1.00  0.00     0.016 C 
HETATM   24  C   UNL     1     -42.440 -46.077  12.624  1.00  0.00     0.016 C 
ENDBRANCH  20  21
BRANCH  20  25
HETATM   25  C   UNL     1     -43.558 -47.527   9.187  1.00  0.00     0.190 C 
BRANCH  25  26
HETATM   26  O   UNL     1     -42.757 -48.197   8.218  1.00  0.00    -0.399 OA
HETATM   27  H   UNL     1     -43.181 -49.058   8.063  1.00  0.00     0.209 HD
ENDBRANCH  25  26
ENDBRANCH  20  25
ENDBRANCH   4  20
TORSDOF 6
ENDMDL
MODEL 6
REMARK VINA RESULT:      -5.6      2.232      8.646
REMARK  6 active torsions:
REMARK  status: ('A' for Active; 'I' for Inactive)
REMARK    1  A    between atoms: C_5  and  N_20 
REMARK    2  A    between atoms: C_8  and  N_9 
REMARK       I    between atoms: N_9  and  C_10 
REMARK       I    between atoms: C_10  and  N_12 
REMARK    3  A    between atoms: N_12  and  CA_13 
REMARK    4  A    between atoms: CA_13  and  C_16 
REMARK    5  A    between atoms: CA_13  and  C_14 
REMARK    6  A    between atoms: C_14  and  O_15 
ROOT
HETATM    1  N   UNL     1     -42.320 -47.770  11.616  1.00  0.00    -0.307 N 
HETATM    2  C   UNL     1     -42.253 -46.590  12.339  1.00  0.00     0.321 C 
HETATM    3  O   UNL     1     -42.243 -46.470  13.551  1.00  0.00    -0.247 OA
HETATM    4  N   UNL     1     -42.161 -45.506  11.492  1.00  0.00    -0.335 N 
HETATM    5  H   UNL     1     -42.041 -47.701  10.651  1.00  0.00     0.170 HD
HETATM    6  H   UNL     1     -42.569 -45.619  10.580  1.00  0.00     0.164 HD
ENDROOT
BRANCH   1   7
HETATM    7  C   UNL     1     -42.501 -49.079  12.137  1.00  0.00     0.058 A 
HETATM    8  C   UNL     1     -41.539 -50.084  11.960  1.00  0.00     0.034 A 
HETATM    9  C   UNL     1     -40.267 -49.867  11.192  1.00  0.00     0.070 C 
HETATM   10  N   UNL     1     -41.681 -51.349  12.454  1.00  0.00    -0.344 N 
HETATM   11  C   UNL     1     -42.796 -51.689  13.133  1.00  0.00     0.103 A 
ATOM     12  HN  UNL     1     -40.943 -52.038  12.310  1.00  0.00     0.167 HD
HETATM   13  C   UNL     1     -43.792 -50.741  13.328  1.00  0.00     0.051 A 
HETATM   14  C   UNL     1     -43.647 -49.444  12.830  1.00  0.00     0.035 A 
BRANCH  11  15
HETATM   15  N   UNL     1     -42.923 -52.975  13.583  1.00  0.00    -0.367 N 
HETATM   16  C   UNL     1     -42.136 -53.579  14.642  1.00  0.00     0.124 C 
HETATM   17  C   UNL     1     -42.845 -54.897  14.955  1.00  0.00     0.021 C 
HETATM   18  C   UNL     1     -44.185 -54.815  14.236  1.00  0.00     0.021 C 
HETATM   19  C   UNL     1     -43.925 -53.884  13.058  1.00  0.00     0.124 C 
ENDBRANCH  11  15
ENDBRANCH   1   7
BRANCH   4  20
HETATM   20  CA  UNL     1     -41.998 -44.123  11.982  1.00  0.00     0.117 C 
BRANCH  20  21
HETATM   21  C   UNL     1     -40.494 -43.684  11.898  1.00  0.00    -0.029 C 
HETATM   22  C   UNL     1     -39.814 -44.230  10.623  1.00  0.00     0.016 C 
HETATM   23  C   UNL     1     -40.436 -42.141  11.821  1.00  0.00     0.016 C 
HETATM   24  C   UNL     1     -39.659 -44.144  13.109  1.00  0.00     0.016 C 
ENDBRANCH  20  21
BRANCH  20  25
HETATM   25  C   UNL     1     -43.008 -43.177  11.282  1.00  0.00     0.190 C 
BRANCH  25  26
HETATM   26  O   UNL     1     -43.524 -43.743  10.080  1.00  0.00    -0.399 OA
HETATM   27  H   UNL     1     -43.436 -44.707  10.174  1.00  0.00     0.209 HD
ENDBRANCH  25  26
ENDBRANCH  20  25
ENDBRANCH   4  20
TORSDOF 6
ENDMDL
MODEL 7
REMARK VINA RESULT:      -5.5     12.693     14.320
REMARK  6 active torsions:
REMARK  status: ('A' for Active; 'I' for Inactive)
REMARK    1  A    between atoms: C_5  and  N_20 
REMARK    2  A    between atoms: C_8  and  N_9 
REMARK       I    between atoms: N_9  and  C_10 
REMARK       I    between atoms: C_10  and  N_12 
REMARK    3  A    between atoms: N_12  and  CA_13 
REMARK    4  A    between atoms: CA_13  and  C_16 
REMARK    5  A    between atoms: CA_13  and  C_14 
REMARK    6  A    between atoms: C_14  and  O_15 
ROOT
HETATM    1  N   UNL     1     -51.178 -49.056  -0.090  1.00  0.00    -0.307 N 
HETATM    2  C   UNL     1     -50.681 -50.324   0.165  1.00  0.00     0.321 C 
HETATM    3  O   UNL     1     -50.026 -50.675   1.129  1.00  0.00    -0.247 OA
HETATM    4  N   UNL     1     -51.055 -51.203  -0.829  1.00  0.00    -0.335 N 
HETATM    5  H   UNL     1     -51.916 -49.012  -0.775  1.00  0.00     0.170 HD
HETATM    6  H   UNL     1     -51.217 -50.803  -1.737  1.00  0.00     0.164 HD
ENDROOT
BRANCH   1   7
HETATM    7  C   UNL     1     -50.936 -47.878   0.664  1.00  0.00     0.058 A 
HETATM    8  C   UNL     1     -51.956 -47.238   1.383  1.00  0.00     0.034 A 
HETATM    9  C   UNL     1     -53.375 -47.726   1.392  1.00  0.00     0.070 C 
HETATM   10  N   UNL     1     -51.752 -46.108   2.123  1.00  0.00    -0.344 N 
HETATM   11  C   UNL     1     -50.529 -45.542   2.171  1.00  0.00     0.103 A 
ATOM     12  HN  UNL     1     -52.527 -45.692   2.639  1.00  0.00     0.167 HD
HETATM   13  C   UNL     1     -49.481 -46.121   1.467  1.00  0.00     0.051 A 
HETATM   14  C   UNL     1     -49.684 -47.280   0.715  1.00  0.00     0.035 A 
BRANCH  11  15
HETATM   15  N   UNL     1     -50.367 -44.390   2.892  1.00  0.00    -0.367 N 
HETATM   16  C   UNL     1     -51.432 -43.492   3.295  1.00  0.00     0.124 C 
HETATM   17  C   UNL     1     -50.783 -42.539   4.300  1.00  0.00     0.021 C 
HETATM   18  C   UNL     1     -49.431 -43.159   4.628  1.00  0.00     0.021 C 
HETATM   19  C   UNL     1     -49.071 -43.959   3.381  1.00  0.00     0.124 C 
ENDBRANCH  11  15
ENDBRANCH   1   7
BRANCH   4  20
HETATM   20  CA  UNL     1     -50.733 -52.642  -0.783  1.00  0.00     0.117 C 
BRANCH  20  21
HETATM   21  C   UNL     1     -51.862 -53.480  -1.481  1.00  0.00    -0.029 C 
HETATM   22  C   UNL     1     -52.795 -54.147  -0.446  1.00  0.00     0.016 C 
HETATM   23  C   UNL     1     -52.730 -52.524  -2.329  1.00  0.00     0.016 C 
HETATM   24  C   UNL     1     -51.314 -54.588  -2.401  1.00  0.00     0.016 C 
ENDBRANCH  20  21
BRANCH  20  25
HETATM   25  C   UNL     1     -49.295 -52.894  -1.309  1.00  0.00     0.190 C 
BRANCH  25  26
HETATM   26  O   UNL     1     -48.335 -52.894  -0.256  1.00  0.00    -0.399 OA
HETATM   27  H   UNL     1     -48.842 -52.892   0.574  1.00  0.00     0.209 HD
ENDBRANCH  25  26
ENDBRANCH  20  25
ENDBRANCH   4  20
TORSDOF 6
ENDMDL
MODEL 8
REMARK VINA RESULT:      -5.5      2.701      8.854
REMARK  6 active torsions:
REMARK  status: ('A' for Active; 'I' for Inactive)
REMARK    1  A    between atoms: C_5  and  N_20 
REMARK    2  A    between atoms: C_8  and  N_9 
REMARK       I    between atoms: N_9  and  C_10 
REMARK       I    between atoms: C_10  and  N_12 
REMARK    3  A    between atoms: N_12  and  CA_13 
REMARK    4  A    between atoms: CA_13  and  C_16 
REMARK    5  A    between atoms: CA_13  and  C_14 
REMARK    6  A    between atoms: C_14  and  O_15 
ROOT
HETATM    1  N   UNL     1     -40.516 -49.127  11.527  1.00  0.00    -0.307 N 
HETATM    2  C   UNL     1     -41.087 -47.933  11.936  1.00  0.00     0.321 C 
HETATM    3  O   UNL     1     -41.560 -47.681  13.030  1.00  0.00    -0.247 OA
HETATM    4  N   UNL     1     -41.030 -46.995  10.927  1.00  0.00    -0.335 N 
HETATM    5  H   UNL     1     -39.939 -49.069  10.704  1.00  0.00     0.170 HD
HETATM    6  H   UNL     1     -41.019 -47.354   9.988  1.00  0.00     0.164 HD
ENDROOT
BRANCH   1   7
HETATM    7  C   UNL     1     -40.462 -50.341  12.261  1.00  0.00     0.058 A 
HETATM    8  C   UNL     1     -39.355 -50.677  13.053  1.00  0.00     0.034 A 
HETATM    9  C   UNL     1     -38.140 -49.802  13.167  1.00  0.00     0.070 C 
HETATM   10  N   UNL     1     -39.276 -51.832  13.776  1.00  0.00    -0.344 N 
HETATM   11  C   UNL     1     -40.285 -52.727  13.734  1.00  0.00     0.103 A 
ATOM     12  HN  UNL     1     -38.453 -52.020  14.348  1.00  0.00     0.167 HD
HETATM   13  C   UNL     1     -41.403 -52.458  12.955  1.00  0.00     0.051 A 
HETATM   14  C   UNL     1     -41.490 -51.273  12.220  1.00  0.00     0.035 A 
BRANCH  11  15
HETATM   15  N   UNL     1     -40.159 -53.892  14.441  1.00  0.00    -0.367 N 
HETATM   16  C   UNL     1     -38.909 -54.558  14.751  1.00  0.00     0.124 C 
HETATM   17  C   UNL     1     -39.278 -55.628  15.779  1.00  0.00     0.021 C 
HETATM   18  C   UNL     1     -40.701 -55.297  16.212  1.00  0.00     0.021 C 
HETATM   19  C   UNL     1     -41.304 -54.579  15.010  1.00  0.00     0.124 C 
ENDBRANCH  11  15
ENDBRANCH   1   7
BRANCH   4  20
HETATM   20  CA  UNL     1     -41.494 -45.605  11.103  1.00  0.00     0.117 C 
BRANCH  20  21
HETATM   21  C   UNL     1     -40.279 -44.612  11.073  1.00  0.00    -0.029 C 
HETATM   22  C   UNL     1     -40.748 -43.141  11.058  1.00  0.00     0.016 C 
HETATM   23  C   UNL     1     -39.448 -44.814  12.361  1.00  0.00     0.016 C 
HETATM   24  C   UNL     1     -39.354 -44.822   9.858  1.00  0.00     0.016 C 
ENDBRANCH  20  21
BRANCH  20  25
HETATM   25  C   UNL     1     -42.640 -45.285  10.107  1.00  0.00     0.190 C 
BRANCH  25  26
HETATM   26  O   UNL     1     -42.473 -45.964   8.865  1.00  0.00    -0.399 OA
HETATM   27  H   UNL     1     -42.842 -46.855   8.991  1.00  0.00     0.209 HD
ENDBRANCH  25  26
ENDBRANCH  20  25
ENDBRANCH   4  20
TORSDOF 6
ENDMDL
MODEL 9
REMARK VINA RESULT:      -5.5      3.033      8.368
REMARK  6 active torsions:
REMARK  status: ('A' for Active; 'I' for Inactive)
REMARK    1  A    between atoms: C_5  and  N_20 
REMARK    2  A    between atoms: C_8  and  N_9 
REMARK       I    between atoms: N_9  and  C_10 
REMARK       I    between atoms: C_10  and  N_12 
REMARK    3  A    between atoms: N_12  and  CA_13 
REMARK    4  A    between atoms: CA_13  and  C_16 
REMARK    5  A    between atoms: CA_13  and  C_14 
REMARK    6  A    between atoms: C_14  and  O_15 
ROOT
HETATM    1  N   UNL     1     -40.725 -49.992  10.867  1.00  0.00    -0.307 N 
HETATM    2  C   UNL     1     -41.382 -48.780  11.003  1.00  0.00     0.321 C 
HETATM    3  O   UNL     1     -41.686 -48.222  12.041  1.00  0.00    -0.247 OA
HETATM    4  N   UNL     1     -41.641 -48.226   9.768  1.00  0.00    -0.335 N 
HETATM    5  H   UNL     1     -40.316 -50.162   9.962  1.00  0.00     0.170 HD
HETATM    6  H   UNL     1     -41.743 -48.871   9.004  1.00  0.00     0.164 HD
ENDROOT
BRANCH   1   7
HETATM    7  C   UNL     1     -40.366 -50.889  11.908  1.00  0.00     0.058 A 
HETATM    8  C   UNL     1     -39.091 -50.872  12.491  1.00  0.00     0.034 A 
HETATM    9  C   UNL     1     -38.006 -49.933  12.049  1.00  0.00     0.070 C 
HETATM   10  N   UNL     1     -38.719 -51.716  13.498  1.00  0.00    -0.344 N 
HETATM   11  C   UNL     1     -39.587 -52.636  13.966  1.00  0.00     0.103 A 
ATOM     12  HN  UNL     1     -37.783 -51.650  13.897  1.00  0.00     0.167 HD
HETATM   13  C   UNL     1     -40.861 -52.712  13.418  1.00  0.00     0.051 A 
HETATM   14  C   UNL     1     -41.248 -51.846  12.393  1.00  0.00     0.035 A 
BRANCH  11  15
HETATM   15  N   UNL     1     -39.171 -53.490  14.950  1.00  0.00    -0.367 N 
HETATM   16  C   UNL     1     -38.891 -53.120  16.325  1.00  0.00     0.124 C 
HETATM   17  C   UNL     1     -38.749 -54.448  17.068  1.00  0.00     0.021 C 
HETATM   18  C   UNL     1     -39.258 -55.509  16.100  1.00  0.00     0.021 C 
HETATM   19  C   UNL     1     -39.003 -54.913  14.720  1.00  0.00     0.124 C 
ENDBRANCH  11  15
ENDBRANCH   1   7
BRANCH   4  20
HETATM   20  CA  UNL     1     -42.262 -46.897   9.604  1.00  0.00     0.117 C 
BRANCH  20  21
HETATM   21  C   UNL     1     -43.764 -47.042   9.171  1.00  0.00    -0.029 C 
HETATM   22  C   UNL     1     -44.401 -45.669   8.864  1.00  0.00     0.016 C 
HETATM   23  C   UNL     1     -43.821 -47.874   7.869  1.00  0.00     0.016 C 
HETATM   24  C   UNL     1     -44.637 -47.738  10.234  1.00  0.00     0.016 C 
ENDBRANCH  20  21
BRANCH  20  25
HETATM   25  C   UNL     1     -42.013 -46.022  10.861  1.00  0.00     0.190 C 
BRANCH  25  26
HETATM   26  O   UNL     1     -41.436 -44.763  10.528  1.00  0.00    -0.399 OA
HETATM   27  H   UNL     1     -41.418 -44.246  11.351  1.00  0.00     0.209 HD
ENDBRANCH  25  26
ENDBRANCH  20  25
ENDBRANCH   4  20
TORSDOF 6
ENDMDL
