MODEL 1
REMARK VINA RESULT:      -6.1      0.000      0.000
REMARK  5 active torsions:
REMARK  status: ('A' for Active; 'I' for Inactive)
REMARK    1  A    between atoms: C_2  and  N_3 
REMARK    2  A    between atoms: C_2  and  C_12 
REMARK    3  A    between atoms: N_3  and  C_4 
REMARK    4  A    between atoms: C_4  and  C_5 
REMARK    5  A    between atoms: C_5  and  N_6 
REMARK       I    between atoms: C_12  and  N_14 
ROOT
HETATM    1  C   UNL     1     -43.191 -54.233  13.702  1.00  0.00     0.053 C 
HETATM    2  C   UNL     1     -43.340 -52.853  13.050  1.00  0.00     0.307 C 
ENDROOT
BRANCH   2   3
HETATM    3  N   UNL     1     -42.683 -52.755  11.719  1.00  0.00     0.098 N 
HETATM    4  H   UNL     1     -43.128 -51.987  11.214  1.00  0.00     0.317 HD
BRANCH   3   5
HETATM    5  C   UNL     1     -41.238 -52.477  11.784  1.00  0.00     0.292 C 
BRANCH   5   6
HETATM    6  C   UNL     1     -40.970 -51.001  12.106  1.00  0.00     0.178 C 
BRANCH   6   7
HETATM    7  N   UNL     1     -39.552 -50.693  12.073  1.00  0.00    -0.302 N 
HETATM    8  C   UNL     1     -38.613 -51.059  12.998  1.00  0.00     0.111 A 
HETATM    9  C   UNL     1     -37.417 -50.552  12.549  1.00  0.00     0.037 A 
HETATM   10  C   UNL     1     -37.736 -49.905  11.341  1.00  0.00     0.108 A 
HETATM   11  N   UNL     1     -39.037 -49.990  11.044  1.00  0.00    -0.310 N 
ATOM     12  HN  UNL     1     -39.524 -49.612  10.232  1.00  0.00     0.186 HD
ENDBRANCH   6   7
ENDBRANCH   5   6
ENDBRANCH   3   5
ENDBRANCH   2   3
BRANCH   2  13
HETATM   13  C   UNL     1     -44.832 -52.437  13.018  1.00  0.00     0.252 C 
HETATM   14  O   UNL     1     -45.595 -52.931  12.181  1.00  0.00    -0.271 OA
HETATM   15  N   UNL     1     -45.295 -51.546  13.992  1.00  0.00    -0.350 N 
HETATM   16  C   UNL     1     -46.741 -51.429  14.199  1.00  0.00     0.126 C 
HETATM   17  C   UNL     1     -44.437 -50.684  14.800  1.00  0.00     0.126 C 
HETATM   18  C   UNL     1     -47.176 -52.171  15.462  1.00  0.00     0.020 C 
HETATM   19  C   UNL     1     -47.052 -51.371  16.760  1.00  0.00     0.002 C 
HETATM   20  C   UNL     1     -45.865 -50.419  16.888  1.00  0.00     0.002 C 
HETATM   21  C   UNL     1     -44.551 -50.935  16.305  1.00  0.00     0.020 C 
ENDBRANCH   2  13
TORSDOF 5
ENDMDL
MODEL 2
REMARK VINA RESULT:      -6.0      1.620      2.262
REMARK  5 active torsions:
REMARK  status: ('A' for Active; 'I' for Inactive)
REMARK    1  A    between atoms: C_2  and  N_3 
REMARK    2  A    between atoms: C_2  and  C_12 
REMARK    3  A    between atoms: N_3  and  C_4 
REMARK    4  A    between atoms: C_4  and  C_5 
REMARK    5  A    between atoms: C_5  and  N_6 
REMARK       I    between atoms: C_12  and  N_14 
ROOT
HETATM    1  C   UNL     1     -43.073 -54.168  13.670  1.00  0.00     0.053 C 
HETATM    2  C   UNL     1     -43.244 -52.780  13.043  1.00  0.00     0.307 C 
ENDROOT
BRANCH   2   3
HETATM    3  N   UNL     1     -42.569 -52.640  11.725  1.00  0.00     0.098 N 
HETATM    4  H   UNL     1     -43.169 -52.062  11.134  1.00  0.00     0.317 HD
BRANCH   3   5
HETATM    5  C   UNL     1     -41.247 -51.995  11.794  1.00  0.00     0.292 C 
BRANCH   5   6
HETATM    6  C   UNL     1     -41.304 -50.697  12.610  1.00  0.00     0.178 C 
BRANCH   6   7
HETATM    7  N   UNL     1     -41.788 -49.583  11.813  1.00  0.00    -0.302 N 
HETATM    8  C   UNL     1     -42.873 -48.797  12.079  1.00  0.00     0.111 A 
HETATM    9  C   UNL     1     -42.939 -47.879  11.058  1.00  0.00     0.037 A 
HETATM   10  C   UNL     1     -41.843 -48.188  10.231  1.00  0.00     0.108 A 
HETATM   11  N   UNL     1     -41.136 -49.226  10.687  1.00  0.00    -0.310 N 
ATOM     12  HN  UNL     1     -40.301 -49.647  10.281  1.00  0.00     0.186 HD
ENDBRANCH   6   7
ENDBRANCH   5   6
ENDBRANCH   3   5
ENDBRANCH   2   3
BRANCH   2  13
HETATM   13  C   UNL     1     -44.745 -52.397  12.996  1.00  0.00     0.252 C 
HETATM   14  O   UNL     1     -45.483 -52.892  12.139  1.00  0.00    -0.271 OA
HETATM   15  N   UNL     1     -45.242 -51.536  13.980  1.00  0.00    -0.350 N 
HETATM   16  C   UNL     1     -46.693 -51.456  14.166  1.00  0.00     0.126 C 
HETATM   17  C   UNL     1     -44.417 -50.670  14.817  1.00  0.00     0.126 C 
HETATM   18  C   UNL     1     -47.130 -52.232  15.409  1.00  0.00     0.020 C 
HETATM   19  C   UNL     1     -47.043 -51.455  16.723  1.00  0.00     0.002 C 
HETATM   20  C   UNL     1     -45.881 -50.478  16.888  1.00  0.00     0.002 C 
HETATM   21  C   UNL     1     -44.547 -50.952  16.314  1.00  0.00     0.020 C 
ENDBRANCH   2  13
TORSDOF 5
ENDMDL
MODEL 3
REMARK VINA RESULT:      -5.9      3.568      5.332
REMARK  5 active torsions:
REMARK  status: ('A' for Active; 'I' for Inactive)
REMARK    1  A    between atoms: C_2  and  N_3 
REMARK    2  A    between atoms: C_2  and  C_12 
REMARK    3  A    between atoms: N_3  and  C_4 
REMARK    4  A    between atoms: C_4  and  C_5 
REMARK    5  A    between atoms: C_5  and  N_6 
REMARK       I    between atoms: C_12  and  N_14 
ROOT
HETATM    1  C   UNL     1     -42.089 -49.903  13.818  1.00  0.00     0.053 C 
HETATM    2  C   UNL     1     -42.132 -50.577  12.442  1.00  0.00     0.307 C 
ENDROOT
BRANCH   2   3
HETATM    3  N   UNL     1     -41.648 -49.704  11.340  1.00  0.00     0.098 N 
HETATM    4  H   UNL     1     -42.164 -49.961  10.497  1.00  0.00     0.317 HD
BRANCH   3   5
HETATM    5  C   UNL     1     -41.860 -48.266  11.579  1.00  0.00     0.292 C 
BRANCH   5   6
HETATM    6  C   UNL     1     -41.758 -47.465  10.274  1.00  0.00     0.178 C 
BRANCH   6   7
HETATM    7  N   UNL     1     -42.957 -47.600   9.467  1.00  0.00    -0.302 N 
HETATM    8  C   UNL     1     -44.240 -47.338   9.857  1.00  0.00     0.111 A 
HETATM    9  C   UNL     1     -45.033 -47.603   8.765  1.00  0.00     0.037 A 
HETATM   10  C   UNL     1     -44.132 -48.010   7.763  1.00  0.00     0.108 A 
HETATM   11  N   UNL     1     -42.864 -48.008   8.185  1.00  0.00    -0.310 N 
ATOM     12  HN  UNL     1     -42.025 -48.256   7.661  1.00  0.00     0.186 HD
ENDBRANCH   6   7
ENDBRANCH   5   6
ENDBRANCH   3   5
ENDBRANCH   2   3
BRANCH   2  13
HETATM   13  C   UNL     1     -41.402 -51.943  12.495  1.00  0.00     0.252 C 
HETATM   14  O   UNL     1     -40.181 -52.000  12.315  1.00  0.00    -0.271 OA
HETATM   15  N   UNL     1     -42.148 -53.084  12.811  1.00  0.00    -0.350 N 
HETATM   16  C   UNL     1     -41.429 -54.295  13.217  1.00  0.00     0.126 C 
HETATM   17  C   UNL     1     -43.602 -53.172  12.726  1.00  0.00     0.126 C 
HETATM   18  C   UNL     1     -41.510 -54.500  14.729  1.00  0.00     0.020 C 
HETATM   19  C   UNL     1     -42.762 -55.228  15.220  1.00  0.00     0.002 C 
HETATM   20  C   UNL     1     -44.072 -54.947  14.486  1.00  0.00     0.002 C 
HETATM   21  C   UNL     1     -44.280 -53.496  14.059  1.00  0.00     0.020 C 
ENDBRANCH   2  13
TORSDOF 5
ENDMDL
MODEL 4
REMARK VINA RESULT:      -5.8      3.317      4.230
REMARK  5 active torsions:
REMARK  status: ('A' for Active; 'I' for Inactive)
REMARK    1  A    between atoms: C_2  and  N_3 
REMARK    2  A    between atoms: C_2  and  C_12 
REMARK    3  A    between atoms: N_3  and  C_4 
REMARK    4  A    between atoms: C_4  and  C_5 
REMARK    5  A    between atoms: C_5  and  N_6 
REMARK       I    between atoms: C_12  and  N_14 
ROOT
HETATM    1  C   UNL     1     -40.909 -51.277  13.929  1.00  0.00     0.053 C 
HETATM    2  C   UNL     1     -42.173 -51.134  13.075  1.00  0.00     0.307 C 
ENDROOT
BRANCH   2   3
HETATM    3  N   UNL     1     -41.949 -50.388  11.808  1.00  0.00     0.098 N 
HETATM    4  H   UNL     1     -42.485 -50.859  11.077  1.00  0.00     0.317 HD
BRANCH   3   5
HETATM    5  C   UNL     1     -42.385 -48.983  11.856  1.00  0.00     0.292 C 
BRANCH   5   6
HETATM    6  C   UNL     1     -41.579 -48.117  10.878  1.00  0.00     0.178 C 
BRANCH   6   7
HETATM    7  N   UNL     1     -42.433 -47.503   9.877  1.00  0.00    -0.302 N 
HETATM    8  C   UNL     1     -42.926 -46.228   9.892  1.00  0.00     0.111 A 
HETATM    9  C   UNL     1     -43.674 -46.094   8.747  1.00  0.00     0.037 A 
HETATM   10  C   UNL     1     -43.562 -47.340   8.101  1.00  0.00     0.108 A 
HETATM   11  N   UNL     1     -42.805 -48.202   8.785  1.00  0.00    -0.310 N 
ATOM     12  HN  UNL     1     -42.565 -49.162   8.540  1.00  0.00     0.186 HD
ENDBRANCH   6   7
ENDBRANCH   5   6
ENDBRANCH   3   5
ENDBRANCH   2   3
BRANCH   2  13
HETATM   13  C   UNL     1     -42.824 -52.523  12.851  1.00  0.00     0.252 C 
HETATM   14  O   UNL     1     -42.125 -53.490  12.531  1.00  0.00    -0.271 OA
HETATM   15  N   UNL     1     -44.198 -52.657  13.079  1.00  0.00    -0.350 N 
HETATM   16  C   UNL     1     -44.750 -54.007  13.225  1.00  0.00     0.126 C 
HETATM   17  C   UNL     1     -45.140 -51.544  13.143  1.00  0.00     0.126 C 
HETATM   18  C   UNL     1     -45.037 -54.326  14.692  1.00  0.00     0.020 C 
HETATM   19  C   UNL     1     -46.395 -53.849  15.207  1.00  0.00     0.002 C 
HETATM   20  C   UNL     1     -46.924 -52.521  14.670  1.00  0.00     0.002 C 
HETATM   21  C   UNL     1     -45.871 -51.430  14.481  1.00  0.00     0.020 C 
ENDBRANCH   2  13
TORSDOF 5
ENDMDL
MODEL 5
REMARK VINA RESULT:      -5.7      2.614      3.848
REMARK  5 active torsions:
REMARK  status: ('A' for Active; 'I' for Inactive)
REMARK    1  A    between atoms: C_2  and  N_3 
REMARK    2  A    between atoms: C_2  and  C_12 
REMARK    3  A    between atoms: N_3  and  C_4 
REMARK    4  A    between atoms: C_4  and  C_5 
REMARK    5  A    between atoms: C_5  and  N_6 
REMARK       I    between atoms: C_12  and  N_14 
ROOT
HETATM    1  C   UNL     1     -42.334 -49.793  13.882  1.00  0.00     0.053 C 
HETATM    2  C   UNL     1     -42.422 -50.455  12.502  1.00  0.00     0.307 C 
ENDROOT
BRANCH   2   3
HETATM    3  N   UNL     1     -41.978 -49.568  11.393  1.00  0.00     0.098 N 
HETATM    4  H   UNL     1     -42.775 -49.441  10.766  1.00  0.00     0.317 HD
BRANCH   3   5
HETATM    5  C   UNL     1     -41.533 -48.236  11.833  1.00  0.00     0.292 C 
BRANCH   5   6
HETATM    6  C   UNL     1     -40.151 -47.894  11.259  1.00  0.00     0.178 C 
BRANCH   6   7
HETATM    7  N   UNL     1     -39.120 -48.770  11.785  1.00  0.00    -0.302 N 
HETATM    8  C   UNL     1     -38.673 -48.826  13.076  1.00  0.00     0.111 A 
HETATM    9  C   UNL     1     -37.703 -49.799  13.103  1.00  0.00     0.037 A 
HETATM   10  C   UNL     1     -37.644 -50.279  11.781  1.00  0.00     0.108 A 
HETATM   11  N   UNL     1     -38.508 -49.656  10.973  1.00  0.00    -0.310 N 
ATOM     12  HN  UNL     1     -38.667 -49.813   9.979  1.00  0.00     0.186 HD
ENDBRANCH   6   7
ENDBRANCH   5   6
ENDBRANCH   3   5
ENDBRANCH   2   3
BRANCH   2  13
HETATM   13  C   UNL     1     -41.685 -51.818  12.517  1.00  0.00     0.252 C 
HETATM   14  O   UNL     1     -40.459 -51.860  12.369  1.00  0.00    -0.271 OA
HETATM   15  N   UNL     1     -42.432 -52.975  12.761  1.00  0.00    -0.350 N 
HETATM   16  C   UNL     1     -41.718 -54.199  13.135  1.00  0.00     0.126 C 
HETATM   17  C   UNL     1     -43.883 -53.067  12.632  1.00  0.00     0.126 C 
HETATM   18  C   UNL     1     -41.840 -54.469  14.634  1.00  0.00     0.020 C 
HETATM   19  C   UNL     1     -43.101 -55.224  15.057  1.00  0.00     0.002 C 
HETATM   20  C   UNL     1     -44.391 -54.918  14.300  1.00  0.00     0.002 C 
HETATM   21  C   UNL     1     -44.596 -53.451  13.930  1.00  0.00     0.020 C 
ENDBRANCH   2  13
TORSDOF 5
ENDMDL
MODEL 6
REMARK VINA RESULT:      -5.7      1.791      2.217
REMARK  5 active torsions:
REMARK  status: ('A' for Active; 'I' for Inactive)
REMARK    1  A    between atoms: C_2  and  N_3 
REMARK    2  A    between atoms: C_2  and  C_12 
REMARK    3  A    between atoms: N_3  and  C_4 
REMARK    4  A    between atoms: C_4  and  C_5 
REMARK    5  A    between atoms: C_5  and  N_6 
REMARK       I    between atoms: C_12  and  N_14 
ROOT
HETATM    1  C   UNL     1     -41.263 -53.500  15.924  1.00  0.00     0.053 C 
HETATM    2  C   UNL     1     -41.936 -53.576  14.549  1.00  0.00     0.307 C 
ENDROOT
BRANCH   2   3
HETATM    3  N   UNL     1     -41.051 -54.127  13.488  1.00  0.00     0.098 N 
HETATM    4  H   UNL     1     -41.448 -55.021  13.193  1.00  0.00     0.317 HD
BRANCH   3   5
HETATM    5  C   UNL     1     -40.936 -53.268  12.298  1.00  0.00     0.292 C 
BRANCH   5   6
HETATM    6  C   UNL     1     -40.858 -51.786  12.688  1.00  0.00     0.178 C 
BRANCH   6   7
HETATM    7  N   UNL     1     -39.499 -51.281  12.606  1.00  0.00    -0.302 N 
HETATM    8  C   UNL     1     -38.508 -51.444  13.532  1.00  0.00     0.111 A 
HETATM    9  C   UNL     1     -37.403 -50.802  13.027  1.00  0.00     0.037 A 
HETATM   10  C   UNL     1     -37.826 -50.290  11.786  1.00  0.00     0.108 A 
HETATM   11  N   UNL     1     -39.104 -50.581  11.523  1.00  0.00    -0.310 N 
ATOM     12  HN  UNL     1     -39.650 -50.333  10.699  1.00  0.00     0.186 HD
ENDBRANCH   6   7
ENDBRANCH   5   6
ENDBRANCH   3   5
ENDBRANCH   2   3
BRANCH   2  13
HETATM   13  C   UNL     1     -43.288 -54.326  14.658  1.00  0.00     0.252 C 
HETATM   14  O   UNL     1     -43.328 -55.462  15.142  1.00  0.00    -0.271 OA
HETATM   15  N   UNL     1     -44.451 -53.662  14.255  1.00  0.00    -0.350 N 
HETATM   16  C   UNL     1     -45.744 -54.203  14.682  1.00  0.00     0.126 C 
HETATM   17  C   UNL     1     -44.475 -52.481  13.397  1.00  0.00     0.126 C 
HETATM   18  C   UNL     1     -46.333 -53.377  15.826  1.00  0.00     0.020 C 
HETATM   19  C   UNL     1     -47.130 -52.145  15.395  1.00  0.00     0.002 C 
HETATM   20  C   UNL     1     -46.633 -51.379  14.171  1.00  0.00     0.002 C 
HETATM   21  C   UNL     1     -45.116 -51.256  14.052  1.00  0.00     0.020 C 
ENDBRANCH   2  13
TORSDOF 5
ENDMDL
MODEL 7
REMARK VINA RESULT:      -5.6      3.466      4.950
REMARK  5 active torsions:
REMARK  status: ('A' for Active; 'I' for Inactive)
REMARK    1  A    between atoms: C_2  and  N_3 
REMARK    2  A    between atoms: C_2  and  C_12 
REMARK    3  A    between atoms: N_3  and  C_4 
REMARK    4  A    between atoms: C_4  and  C_5 
REMARK    5  A    between atoms: C_5  and  N_6 
REMARK       I    between atoms: C_12  and  N_14 
ROOT
HETATM    1  C   UNL     1     -41.903 -49.799  13.567  1.00  0.00     0.053 C 
HETATM    2  C   UNL     1     -41.982 -50.591  12.257  1.00  0.00     0.307 C 
ENDROOT
BRANCH   2   3
HETATM    3  N   UNL     1     -41.468 -49.840  11.080  1.00  0.00     0.098 N 
HETATM    4  H   UNL     1     -42.242 -49.735  10.422  1.00  0.00     0.317 HD
BRANCH   3   5
HETATM    5  C   UNL     1     -40.964 -48.495  11.403  1.00  0.00     0.292 C 
BRANCH   5   6
HETATM    6  C   UNL     1     -41.809 -47.407  10.727  1.00  0.00     0.178 C 
BRANCH   6   7
HETATM    7  N   UNL     1     -41.123 -46.127  10.712  1.00  0.00    -0.302 N 
HETATM    8  C   UNL     1     -41.608 -44.933  11.167  1.00  0.00     0.111 A 
HETATM    9  C   UNL     1     -40.612 -44.009  10.953  1.00  0.00     0.037 A 
HETATM   10  C   UNL     1     -39.563 -44.747  10.373  1.00  0.00     0.108 A 
HETATM   11  N   UNL     1     -39.868 -46.039  10.226  1.00  0.00    -0.310 N 
ATOM     12  HN  UNL     1     -39.289 -46.783   9.838  1.00  0.00     0.186 HD
ENDBRANCH   6   7
ENDBRANCH   5   6
ENDBRANCH   3   5
ENDBRANCH   2   3
BRANCH   2  13
HETATM   13  C   UNL     1     -41.309 -51.976  12.430  1.00  0.00     0.252 C 
HETATM   14  O   UNL     1     -40.079 -52.078  12.367  1.00  0.00    -0.271 OA
HETATM   15  N   UNL     1     -42.120 -53.079  12.717  1.00  0.00    -0.350 N 
HETATM   16  C   UNL     1     -41.486 -54.294  13.234  1.00  0.00     0.126 C 
HETATM   17  C   UNL     1     -43.563 -53.124  12.500  1.00  0.00     0.126 C 
HETATM   18  C   UNL     1     -41.713 -54.434  14.739  1.00  0.00     0.020 C 
HETATM   19  C   UNL     1     -43.030 -55.102  15.137  1.00  0.00     0.002 C 
HETATM   20  C   UNL     1     -44.256 -54.810  14.274  1.00  0.00     0.002 C 
HETATM   21  C   UNL     1     -44.372 -53.371  13.774  1.00  0.00     0.020 C 
ENDBRANCH   2  13
TORSDOF 5
ENDMDL
MODEL 8
REMARK VINA RESULT:      -5.3      3.018      3.716
REMARK  5 active torsions:
REMARK  status: ('A' for Active; 'I' for Inactive)
REMARK    1  A    between atoms: C_2  and  N_3 
REMARK    2  A    between atoms: C_2  and  C_12 
REMARK    3  A    between atoms: N_3  and  C_4 
REMARK    4  A    between atoms: C_4  and  C_5 
REMARK    5  A    between atoms: C_5  and  N_6 
REMARK       I    between atoms: C_12  and  N_14 
ROOT
HETATM    1  C   UNL     1     -42.170 -50.276  13.989  1.00  0.00     0.053 C 
HETATM    2  C   UNL     1     -42.615 -50.836  12.633  1.00  0.00     0.307 C 
ENDROOT
BRANCH   2   3
HETATM    3  N   UNL     1     -41.615 -50.631  11.552  1.00  0.00     0.098 N 
HETATM    4  H   UNL     1     -42.089 -50.792  10.662  1.00  0.00     0.317 HD
BRANCH   3   5
HETATM    5  C   UNL     1     -41.040 -49.276  11.518  1.00  0.00     0.292 C 
BRANCH   5   6
HETATM    6  C   UNL     1     -41.979 -48.290  10.810  1.00  0.00     0.178 C 
BRANCH   6   7
HETATM    7  N   UNL     1     -41.411 -46.955  10.753  1.00  0.00    -0.302 N 
HETATM    8  C   UNL     1     -42.089 -45.772  10.847  1.00  0.00     0.111 A 
HETATM    9  C   UNL     1     -41.143 -44.780  10.744  1.00  0.00     0.037 A 
HETATM   10  C   UNL     1     -39.922 -45.467  10.600  1.00  0.00     0.108 A 
HETATM   11  N   UNL     1     -40.080 -46.794  10.607  1.00  0.00    -0.310 N 
ATOM     12  HN  UNL     1     -39.363 -47.514  10.522  1.00  0.00     0.186 HD
ENDBRANCH   6   7
ENDBRANCH   5   6
ENDBRANCH   3   5
ENDBRANCH   2   3
BRANCH   2  13
HETATM   13  C   UNL     1     -43.045 -52.318  12.784  1.00  0.00     0.252 C 
HETATM   14  O   UNL     1     -42.221 -53.222  12.614  1.00  0.00    -0.271 OA
HETATM   15  N   UNL     1     -44.360 -52.592  13.175  1.00  0.00    -0.350 N 
HETATM   16  C   UNL     1     -44.674 -53.936  13.667  1.00  0.00     0.126 C 
HETATM   17  C   UNL     1     -45.464 -51.641  13.090  1.00  0.00     0.126 C 
HETATM   18  C   UNL     1     -44.807 -53.945  15.190  1.00  0.00     0.020 C 
HETATM   19  C   UNL     1     -46.187 -53.562  15.724  1.00  0.00     0.002 C 
HETATM   20  C   UNL     1     -46.960 -52.484  14.967  1.00  0.00     0.002 C 
HETATM   21  C   UNL     1     -46.114 -51.327  14.439  1.00  0.00     0.020 C 
ENDBRANCH   2  13
TORSDOF 5
ENDMDL
MODEL 9
REMARK VINA RESULT:      -5.3      4.210      6.661
REMARK  5 active torsions:
REMARK  status: ('A' for Active; 'I' for Inactive)
REMARK    1  A    between atoms: C_2  and  N_3 
REMARK    2  A    between atoms: C_2  and  C_12 
REMARK    3  A    between atoms: N_3  and  C_4 
REMARK    4  A    between atoms: C_4  and  C_5 
REMARK    5  A    between atoms: C_5  and  N_6 
REMARK       I    between atoms: C_12  and  N_14 
ROOT
HETATM    1  C   UNL     1     -42.877 -49.318  13.331  1.00  0.00     0.053 C 
HETATM    2  C   UNL     1     -42.058 -49.787  12.124  1.00  0.00     0.307 C 
ENDROOT
BRANCH   2   3
HETATM    3  N   UNL     1     -42.185 -48.894  10.941  1.00  0.00     0.098 N 
HETATM    4  H   UNL     1     -42.841 -49.334  10.294  1.00  0.00     0.317 HD
BRANCH   3   5
HETATM    5  C   UNL     1     -42.695 -47.549  11.258  1.00  0.00     0.292 C 
BRANCH   5   6
HETATM    6  C   UNL     1     -43.015 -46.761   9.981  1.00  0.00     0.178 C 
BRANCH   6   7
HETATM    7  N   UNL     1     -44.219 -47.251   9.335  1.00  0.00    -0.302 N 
HETATM    8  C   UNL     1     -44.294 -47.941   8.157  1.00  0.00     0.111 A 
HETATM    9  C   UNL     1     -45.628 -48.196   7.948  1.00  0.00     0.037 A 
HETATM   10  C   UNL     1     -46.277 -47.629   9.061  1.00  0.00     0.108 A 
HETATM   11  N   UNL     1     -45.423 -47.053   9.912  1.00  0.00    -0.310 N 
ATOM     12  HN  UNL     1     -45.631 -46.577  10.788  1.00  0.00     0.186 HD
ENDBRANCH   6   7
ENDBRANCH   5   6
ENDBRANCH   3   5
ENDBRANCH   2   3
BRANCH   2  13
HETATM   13  C   UNL     1     -40.585 -50.030  12.541  1.00  0.00     0.252 C 
HETATM   14  O   UNL     1     -39.845 -49.072  12.787  1.00  0.00    -0.271 OA
HETATM   15  N   UNL     1     -40.146 -51.350  12.689  1.00  0.00    -0.350 N 
HETATM   16  C   UNL     1     -38.898 -51.590  13.419  1.00  0.00     0.126 C 
HETATM   17  C   UNL     1     -40.822 -52.516  12.129  1.00  0.00     0.126 C 
HETATM   18  C   UNL     1     -39.179 -52.111  14.829  1.00  0.00     0.020 C 
HETATM   19  C   UNL     1     -39.387 -53.622  14.933  1.00  0.00     0.002 C 
HETATM   20  C   UNL     1     -40.111 -54.314  13.781  1.00  0.00     0.002 C 
HETATM   21  C   UNL     1     -41.276 -53.530  13.180  1.00  0.00     0.020 C 
ENDBRANCH   2  13
TORSDOF 5
ENDMDL
