MODEL 1
REMARK VINA RESULT:      -6.1      0.000      0.000
REMARK  6 active torsions:
REMARK  status: ('A' for Active; 'I' for Inactive)
REMARK    1  A    between atoms: N_6  and  C_7 
REMARK    2  A    between atoms: C_7  and  C_8 
REMARK    3  A    between atoms: C_8  and  N_9 
REMARK    4  A    between atoms: N_9  and  C_10 
REMARK    5  A    between atoms: C_10  and  C_11 
REMARK    6  A    between atoms: C_11  and  O_12 
ROOT
HETATM    1  N   UNL     1     -42.231 -50.246  11.733  1.00  0.00     0.087 N 
HETATM    2  H   UNL     1     -41.835 -50.497  10.827  1.00  0.00     0.316 HD
ENDROOT
BRANCH   1   3
HETATM    3  C   UNL     1     -41.933 -48.828  12.002  1.00  0.00     0.291 C 
BRANCH   3   4
HETATM    4  C   UNL     1     -41.617 -47.990  10.759  1.00  0.00     0.178 C 
BRANCH   4   5
HETATM    5  N   UNL     1     -42.792 -47.818   9.930  1.00  0.00    -0.302 N 
HETATM    6  N   UNL     1     -42.697 -47.975   8.599  1.00  0.00    -0.310 N 
HETATM    7  C   UNL     1     -43.934 -47.715   8.167  1.00  0.00     0.115 A 
ATOM      8  HN  UNL     1     -41.877 -48.232   8.051  1.00  0.00     0.186 HD
HETATM    9  C   UNL     1     -44.823 -47.393   9.218  1.00  0.00    -0.028 A 
HETATM   10  C   UNL     1     -46.253 -47.032   9.127  1.00  0.00     0.051 C 
HETATM   11  C   UNL     1     -44.044 -47.483  10.352  1.00  0.00     0.118 A 
ENDBRANCH   4   5
ENDBRANCH   3   4
ENDBRANCH   1   3
BRANCH   1  12
HETATM   12  C   UNL     1     -41.694 -51.142  12.773  1.00  0.00     0.307 C 
BRANCH  12  13
HETATM   13  C   UNL     1     -41.740 -52.629  12.307  1.00  0.00     0.084 C 
HETATM   14  C   UNL     1     -43.181 -53.168  12.348  1.00  0.00     0.039 C 
HETATM   15  C   UNL     1     -43.679 -53.416  13.771  1.00  0.00     0.003 C 
HETATM   16  C   UNL     1     -42.742 -54.354  14.525  1.00  0.00     0.000 C 
HETATM   17  C   UNL     1     -41.307 -53.837  14.527  1.00  0.00     0.003 C 
HETATM   18  C   UNL     1     -40.809 -53.559  13.111  1.00  0.00     0.039 C 
BRANCH  13  19
HETATM   19  O   UNL     1     -41.298 -52.658  10.940  1.00  0.00    -0.388 OA
HETATM   20  H   UNL     1     -41.445 -53.580  10.645  1.00  0.00     0.210 HD
ENDBRANCH  13  19
ENDBRANCH  12  13
ENDBRANCH   1  12
TORSDOF 6
ENDMDL
MODEL 2
REMARK VINA RESULT:      -5.8      2.495      3.217
REMARK  6 active torsions:
REMARK  status: ('A' for Active; 'I' for Inactive)
REMARK    1  A    between atoms: N_6  and  C_7 
REMARK    2  A    between atoms: C_7  and  C_8 
REMARK    3  A    between atoms: C_8  and  N_9 
REMARK    4  A    between atoms: N_9  and  C_10 
REMARK    5  A    between atoms: C_10  and  C_11 
REMARK    6  A    between atoms: C_11  and  O_12 
ROOT
HETATM    1  N   UNL     1     -39.785 -47.327  11.203  1.00  0.00     0.087 N 
HETATM    2  H   UNL     1     -39.134 -46.779  11.766  1.00  0.00     0.316 HD
ENDROOT
BRANCH   1   3
HETATM    3  C   UNL     1     -40.829 -46.429  10.679  1.00  0.00     0.291 C 
BRANCH   3   4
HETATM    4  C   UNL     1     -42.242 -46.716  11.197  1.00  0.00     0.178 C 
BRANCH   4   5
HETATM    5  N   UNL     1     -43.123 -47.125  10.122  1.00  0.00    -0.302 N 
HETATM    6  N   UNL     1     -42.661 -47.165   8.861  1.00  0.00    -0.310 N 
HETATM    7  C   UNL     1     -43.727 -47.543   8.151  1.00  0.00     0.115 A 
ATOM      8  HN  UNL     1     -41.721 -46.956   8.526  1.00  0.00     0.186 HD
HETATM    9  C   UNL     1     -44.872 -47.748   8.955  1.00  0.00    -0.028 A 
HETATM   10  C   UNL     1     -46.229 -48.150   8.527  1.00  0.00     0.051 C 
HETATM   11  C   UNL     1     -44.434 -47.478  10.234  1.00  0.00     0.118 A 
ENDBRANCH   4   5
ENDBRANCH   3   4
ENDBRANCH   1   3
BRANCH   1  12
HETATM   12  C   UNL     1     -40.341 -48.423  12.018  1.00  0.00     0.307 C 
BRANCH  12  13
HETATM   13  C   UNL     1     -39.864 -49.810  11.490  1.00  0.00     0.084 C 
HETATM   14  C   UNL     1     -40.451 -50.948  12.342  1.00  0.00     0.039 C 
HETATM   15  C   UNL     1     -39.798 -51.052  13.720  1.00  0.00     0.003 C 
HETATM   16  C   UNL     1     -38.286 -51.208  13.600  1.00  0.00     0.000 C 
HETATM   17  C   UNL     1     -37.665 -50.080  12.782  1.00  0.00     0.003 C 
HETATM   18  C   UNL     1     -38.330 -49.948  11.414  1.00  0.00     0.039 C 
BRANCH  13  19
HETATM   19  O   UNL     1     -40.374 -49.952  10.154  1.00  0.00    -0.388 OA
HETATM   20  H   UNL     1     -39.594 -49.849   9.572  1.00  0.00     0.210 HD
ENDBRANCH  13  19
ENDBRANCH  12  13
ENDBRANCH   1  12
TORSDOF 6
ENDMDL
MODEL 3
REMARK VINA RESULT:      -5.7      3.561      5.515
REMARK  6 active torsions:
REMARK  status: ('A' for Active; 'I' for Inactive)
REMARK    1  A    between atoms: N_6  and  C_7 
REMARK    2  A    between atoms: C_7  and  C_8 
REMARK    3  A    between atoms: C_8  and  N_9 
REMARK    4  A    between atoms: N_9  and  C_10 
REMARK    5  A    between atoms: C_10  and  C_11 
REMARK    6  A    between atoms: C_11  and  O_12 
ROOT
HETATM    1  N   UNL     1     -41.291 -51.997  11.502  1.00  0.00     0.087 N 
HETATM    2  H   UNL     1     -41.549 -51.427  10.696  1.00  0.00     0.316 HD
ENDROOT
BRANCH   1   3
HETATM    3  C   UNL     1     -42.506 -52.287  12.283  1.00  0.00     0.291 C 
BRANCH   3   4
HETATM    4  C   UNL     1     -42.987 -51.138  13.175  1.00  0.00     0.178 C 
BRANCH   4   5
HETATM    5  N   UNL     1     -44.373 -51.315  13.558  1.00  0.00    -0.302 N 
HETATM    6  N   UNL     1     -45.297 -51.576  12.619  1.00  0.00    -0.310 N 
HETATM    7  C   UNL     1     -46.435 -51.644  13.313  1.00  0.00     0.115 A 
ATOM      8  HN  UNL     1     -45.161 -51.694  11.616  1.00  0.00     0.186 HD
HETATM    9  C   UNL     1     -46.244 -51.429  14.697  1.00  0.00    -0.028 A 
HETATM   10  C   UNL     1     -47.262 -51.410  15.769  1.00  0.00     0.051 C 
HETATM   11  C   UNL     1     -44.885 -51.231  14.819  1.00  0.00     0.118 A 
ENDBRANCH   4   5
ENDBRANCH   3   4
ENDBRANCH   1   3
BRANCH   1  12
HETATM   12  C   UNL     1     -40.265 -51.295  12.296  1.00  0.00     0.307 C 
BRANCH  12  13
HETATM   13  C   UNL     1     -39.834 -49.968  11.602  1.00  0.00     0.084 C 
HETATM   14  C   UNL     1     -38.301 -49.835  11.587  1.00  0.00     0.039 C 
HETATM   15  C   UNL     1     -37.721 -49.510  12.962  1.00  0.00     0.003 C 
HETATM   16  C   UNL     1     -38.354 -48.249  13.541  1.00  0.00     0.000 C 
HETATM   17  C   UNL     1     -39.874 -48.355  13.596  1.00  0.00     0.003 C 
HETATM   18  C   UNL     1     -40.462 -48.708  12.232  1.00  0.00     0.039 C 
BRANCH  13  19
HETATM   19  O   UNL     1     -40.284 -50.035  10.240  1.00  0.00    -0.388 OA
HETATM   20  H   UNL     1     -40.441 -49.105   9.977  1.00  0.00     0.210 HD
ENDBRANCH  13  19
ENDBRANCH  12  13
ENDBRANCH   1  12
TORSDOF 6
ENDMDL
MODEL 4
REMARK VINA RESULT:      -5.6      3.104      3.958
REMARK  6 active torsions:
REMARK  status: ('A' for Active; 'I' for Inactive)
REMARK    1  A    between atoms: N_6  and  C_7 
REMARK    2  A    between atoms: C_7  and  C_8 
REMARK    3  A    between atoms: C_8  and  N_9 
REMARK    4  A    between atoms: N_9  and  C_10 
REMARK    5  A    between atoms: C_10  and  C_11 
REMARK    6  A    between atoms: C_11  and  O_12 
ROOT
HETATM    1  N   UNL     1     -41.005 -51.039  12.033  1.00  0.00     0.087 N 
HETATM    2  H   UNL     1     -40.173 -50.525  11.744  1.00  0.00     0.316 HD
ENDROOT
BRANCH   1   3
HETATM    3  C   UNL     1     -42.087 -50.076  12.299  1.00  0.00     0.291 C 
BRANCH   3   4
HETATM    4  C   UNL     1     -42.605 -50.073  13.741  1.00  0.00     0.178 C 
BRANCH   4   5
HETATM    5  N   UNL     1     -43.940 -50.630  13.820  1.00  0.00    -0.302 N 
HETATM    6  N   UNL     1     -44.561 -51.036  12.701  1.00  0.00    -0.310 N 
HETATM    7  C   UNL     1     -45.752 -51.451  13.139  1.00  0.00     0.115 A 
ATOM      8  HN  UNL     1     -44.207 -51.029  11.745  1.00  0.00     0.186 HD
HETATM    9  C   UNL     1     -45.897 -51.314  14.538  1.00  0.00    -0.028 A 
HETATM   10  C   UNL     1     -47.070 -51.647  15.373  1.00  0.00     0.051 C 
HETATM   11  C   UNL     1     -44.690 -50.787  14.948  1.00  0.00     0.118 A 
ENDBRANCH   4   5
ENDBRANCH   3   4
ENDBRANCH   1   3
BRANCH   1  12
HETATM   12  C   UNL     1     -40.688 -51.870  13.210  1.00  0.00     0.307 C 
BRANCH  12  13
HETATM   13  C   UNL     1     -40.849 -53.385  12.883  1.00  0.00     0.084 C 
HETATM   14  C   UNL     1     -42.308 -53.832  13.077  1.00  0.00     0.039 C 
HETATM   15  C   UNL     1     -42.707 -53.927  14.549  1.00  0.00     0.003 C 
HETATM   16  C   UNL     1     -41.767 -54.853  15.314  1.00  0.00     0.000 C 
HETATM   17  C   UNL     1     -40.310 -54.424  15.165  1.00  0.00     0.003 C 
HETATM   18  C   UNL     1     -39.909 -54.297  13.698  1.00  0.00     0.039 C 
BRANCH  13  19
HETATM   19  O   UNL     1     -40.517 -53.557  11.496  1.00  0.00    -0.388 OA
HETATM   20  H   UNL     1     -39.687 -53.052  11.368  1.00  0.00     0.210 HD
ENDBRANCH  13  19
ENDBRANCH  12  13
ENDBRANCH   1  12
TORSDOF 6
ENDMDL
MODEL 5
REMARK VINA RESULT:      -5.6      3.516      5.025
REMARK  6 active torsions:
REMARK  status: ('A' for Active; 'I' for Inactive)
REMARK    1  A    between atoms: N_6  and  C_7 
REMARK    2  A    between atoms: C_7  and  C_8 
REMARK    3  A    between atoms: C_8  and  N_9 
REMARK    4  A    between atoms: N_9  and  C_10 
REMARK    5  A    between atoms: C_10  and  C_11 
REMARK    6  A    between atoms: C_11  and  O_12 
ROOT
HETATM    1  N   UNL     1     -43.407 -52.616  12.246  1.00  0.00     0.087 N 
HETATM    2  H   UNL     1     -43.901 -53.420  11.860  1.00  0.00     0.316 HD
ENDROOT
BRANCH   1   3
HETATM    3  C   UNL     1     -42.215 -53.096  12.967  1.00  0.00     0.291 C 
BRANCH   3   4
HETATM    4  C   UNL     1     -40.896 -52.948  12.200  1.00  0.00     0.178 C 
BRANCH   4   5
HETATM    5  N   UNL     1     -40.459 -51.567  12.170  1.00  0.00    -0.302 N 
HETATM    6  N   UNL     1     -40.701 -50.814  11.084  1.00  0.00    -0.310 N 
HETATM    7  C   UNL     1     -40.144 -49.640  11.389  1.00  0.00     0.115 A 
ATOM      8  HN  UNL     1     -41.193 -51.078  10.231  1.00  0.00     0.186 HD
HETATM    9  C   UNL     1     -39.546 -49.636  12.670  1.00  0.00    -0.028 A 
HETATM   10  C   UNL     1     -38.824 -48.533  13.339  1.00  0.00     0.051 C 
HETATM   11  C   UNL     1     -39.784 -50.906  13.153  1.00  0.00     0.118 A 
ENDBRANCH   4   5
ENDBRANCH   3   4
ENDBRANCH   1   3
BRANCH   1  12
HETATM   12  C   UNL     1     -44.318 -51.846  13.113  1.00  0.00     0.307 C 
BRANCH  12  13
HETATM   13  C   UNL     1     -45.736 -52.491  13.145  1.00  0.00     0.084 C 
HETATM   14  C   UNL     1     -46.767 -51.509  13.729  1.00  0.00     0.039 C 
HETATM   15  C   UNL     1     -46.622 -51.330  15.239  1.00  0.00     0.003 C 
HETATM   16  C   UNL     1     -46.702 -52.670  15.962  1.00  0.00     0.000 C 
HETATM   17  C   UNL     1     -45.675 -53.662  15.426  1.00  0.00     0.003 C 
HETATM   18  C   UNL     1     -45.791 -53.827  13.913  1.00  0.00     0.039 C 
BRANCH  13  19
HETATM   19  O   UNL     1     -46.109 -52.763  11.784  1.00  0.00    -0.388 OA
HETATM   20  H   UNL     1     -45.314 -53.165  11.378  1.00  0.00     0.210 HD
ENDBRANCH  13  19
ENDBRANCH  12  13
ENDBRANCH   1  12
TORSDOF 6
ENDMDL
MODEL 6
REMARK VINA RESULT:      -5.6      2.612      5.873
REMARK  6 active torsions:
REMARK  status: ('A' for Active; 'I' for Inactive)
REMARK    1  A    between atoms: N_6  and  C_7 
REMARK    2  A    between atoms: C_7  and  C_8 
REMARK    3  A    between atoms: C_8  and  N_9 
REMARK    4  A    between atoms: N_9  and  C_10 
REMARK    5  A    between atoms: C_10  and  C_11 
REMARK    6  A    between atoms: C_11  and  O_12 
ROOT
HETATM    1  N   UNL     1     -41.921 -51.440  11.723  1.00  0.00     0.087 N 
HETATM    2  H   UNL     1     -42.686 -51.336  11.057  1.00  0.00     0.316 HD
ENDROOT
BRANCH   1   3
HETATM    3  C   UNL     1     -42.313 -52.426  12.745  1.00  0.00     0.291 C 
BRANCH   3   4
HETATM    4  C   UNL     1     -43.545 -53.265  12.389  1.00  0.00     0.178 C 
BRANCH   4   5
HETATM    5  N   UNL     1     -44.759 -52.654  12.892  1.00  0.00    -0.302 N 
HETATM    6  N   UNL     1     -45.690 -52.212  12.031  1.00  0.00    -0.310 N 
HETATM    7  C   UNL     1     -46.629 -51.696  12.826  1.00  0.00     0.115 A 
ATOM      8  HN  UNL     1     -45.681 -52.261  11.013  1.00  0.00     0.186 HD
HETATM    9  C   UNL     1     -46.304 -51.806  14.198  1.00  0.00    -0.028 A 
HETATM   10  C   UNL     1     -47.083 -51.337  15.363  1.00  0.00     0.051 C 
HETATM   11  C   UNL     1     -45.084 -52.448  14.200  1.00  0.00     0.118 A 
ENDBRANCH   4   5
ENDBRANCH   3   4
ENDBRANCH   1   3
BRANCH   1  12
HETATM   12  C   UNL     1     -41.592 -50.126  12.306  1.00  0.00     0.307 C 
BRANCH  12  13
HETATM   13  C   UNL     1     -40.988 -49.173  11.230  1.00  0.00     0.084 C 
HETATM   14  C   UNL     1     -39.812 -48.370  11.814  1.00  0.00     0.039 C 
HETATM   15  C   UNL     1     -40.264 -47.278  12.781  1.00  0.00     0.003 C 
HETATM   16  C   UNL     1     -41.266 -46.338  12.119  1.00  0.00     0.000 C 
HETATM   17  C   UNL     1     -42.461 -47.098  11.552  1.00  0.00     0.003 C 
HETATM   18  C   UNL     1     -42.020 -48.212  10.606  1.00  0.00     0.039 C 
BRANCH  13  19
HETATM   19  O   UNL     1     -40.476 -49.999  10.173  1.00  0.00    -0.388 OA
HETATM   20  H   UNL     1     -40.768 -50.907  10.395  1.00  0.00     0.210 HD
ENDBRANCH  13  19
ENDBRANCH  12  13
ENDBRANCH   1  12
TORSDOF 6
ENDMDL
MODEL 7
REMARK VINA RESULT:      -5.5      3.300      5.665
REMARK  6 active torsions:
REMARK  status: ('A' for Active; 'I' for Inactive)
REMARK    1  A    between atoms: N_6  and  C_7 
REMARK    2  A    between atoms: C_7  and  C_8 
REMARK    3  A    between atoms: C_8  and  N_9 
REMARK    4  A    between atoms: N_9  and  C_10 
REMARK    5  A    between atoms: C_10  and  C_11 
REMARK    6  A    between atoms: C_11  and  O_12 
ROOT
HETATM    1  N   UNL     1     -43.097 -50.493  12.482  1.00  0.00     0.087 N 
HETATM    2  H   UNL     1     -43.233 -51.004  11.610  1.00  0.00     0.316 HD
ENDROOT
BRANCH   1   3
HETATM    3  C   UNL     1     -41.674 -50.128  12.599  1.00  0.00     0.291 C 
BRANCH   3   4
HETATM    4  C   UNL     1     -40.713 -51.031  11.820  1.00  0.00     0.178 C 
BRANCH   4   5
HETATM    5  N   UNL     1     -40.519 -52.298  12.496  1.00  0.00    -0.302 N 
HETATM    6  N   UNL     1     -41.032 -53.421  11.967  1.00  0.00    -0.310 N 
HETATM    7  C   UNL     1     -40.694 -54.363  12.850  1.00  0.00     0.115 A 
ATOM      8  HN  UNL     1     -41.554 -53.528  11.098  1.00  0.00     0.186 HD
HETATM    9  C   UNL     1     -39.964 -53.848  13.945  1.00  0.00    -0.028 A 
HETATM   10  C   UNL     1     -39.439 -54.577  15.119  1.00  0.00     0.051 C 
HETATM   11  C   UNL     1     -39.859 -52.501  13.671  1.00  0.00     0.118 A 
ENDBRANCH   4   5
ENDBRANCH   3   4
ENDBRANCH   1   3
BRANCH   1  12
HETATM   12  C   UNL     1     -43.562 -51.316  13.614  1.00  0.00     0.307 C 
BRANCH  12  13
HETATM   13  C   UNL     1     -44.522 -52.443  13.127  1.00  0.00     0.084 C 
HETATM   14  C   UNL     1     -45.904 -51.866  12.774  1.00  0.00     0.039 C 
HETATM   15  C   UNL     1     -46.712 -51.468  14.008  1.00  0.00     0.003 C 
HETATM   16  C   UNL     1     -46.862 -52.644  14.968  1.00  0.00     0.000 C 
HETATM   17  C   UNL     1     -45.508 -53.226  15.362  1.00  0.00     0.003 C 
HETATM   18  C   UNL     1     -44.680 -53.600  14.135  1.00  0.00     0.039 C 
BRANCH  13  19
HETATM   19  O   UNL     1     -43.955 -52.994  11.927  1.00  0.00    -0.388 OA
HETATM   20  H   UNL     1     -44.669 -53.538  11.535  1.00  0.00     0.210 HD
ENDBRANCH  13  19
ENDBRANCH  12  13
ENDBRANCH   1  12
TORSDOF 6
ENDMDL
MODEL 8
REMARK VINA RESULT:      -5.4      2.083      3.193
REMARK  6 active torsions:
REMARK  status: ('A' for Active; 'I' for Inactive)
REMARK    1  A    between atoms: N_6  and  C_7 
REMARK    2  A    between atoms: C_7  and  C_8 
REMARK    3  A    between atoms: C_8  and  N_9 
REMARK    4  A    between atoms: N_9  and  C_10 
REMARK    5  A    between atoms: C_10  and  C_11 
REMARK    6  A    between atoms: C_11  and  O_12 
ROOT
HETATM    1  N   UNL     1     -42.089 -50.293  11.777  1.00  0.00     0.087 N 
HETATM    2  H   UNL     1     -42.183 -50.783  10.888  1.00  0.00     0.316 HD
ENDROOT
BRANCH   1   3
HETATM    3  C   UNL     1     -41.120 -49.196  11.612  1.00  0.00     0.291 C 
BRANCH   3   4
HETATM    4  C   UNL     1     -41.549 -48.102  10.629  1.00  0.00     0.178 C 
BRANCH   4   5
HETATM    5  N   UNL     1     -40.897 -46.843  10.928  1.00  0.00    -0.302 N 
HETATM    6  N   UNL     1     -40.842 -45.882   9.991  1.00  0.00    -0.310 N 
HETATM    7  C   UNL     1     -40.160 -44.903  10.589  1.00  0.00     0.115 A 
ATOM      8  HN  UNL     1     -41.229 -45.897   9.048  1.00  0.00     0.186 HD
HETATM    9  C   UNL     1     -39.778 -45.233  11.910  1.00  0.00    -0.028 A 
HETATM   10  C   UNL     1     -39.003 -44.417  12.868  1.00  0.00     0.051 C 
HETATM   11  C   UNL     1     -40.288 -46.500  12.098  1.00  0.00     0.118 A 
ENDBRANCH   4   5
ENDBRANCH   3   4
ENDBRANCH   1   3
BRANCH   1  12
HETATM   12  C   UNL     1     -41.686 -51.248  12.827  1.00  0.00     0.307 C 
BRANCH  12  13
HETATM   13  C   UNL     1     -41.753 -52.714  12.303  1.00  0.00     0.084 C 
HETATM   14  C   UNL     1     -43.197 -53.244  12.353  1.00  0.00     0.039 C 
HETATM   15  C   UNL     1     -43.668 -53.544  13.775  1.00  0.00     0.003 C 
HETATM   16  C   UNL     1     -42.725 -54.519  14.472  1.00  0.00     0.000 C 
HETATM   17  C   UNL     1     -41.286 -54.013  14.465  1.00  0.00     0.003 C 
HETATM   18  C   UNL     1     -40.814 -53.682  13.052  1.00  0.00     0.039 C 
BRANCH  13  19
HETATM   19  O   UNL     1     -41.340 -52.693  10.928  1.00  0.00    -0.388 OA
HETATM   20  H   UNL     1     -41.820 -53.434  10.506  1.00  0.00     0.210 HD
ENDBRANCH  13  19
ENDBRANCH  12  13
ENDBRANCH   1  12
TORSDOF 6
ENDMDL
MODEL 9
REMARK VINA RESULT:      -5.3      2.340      3.416
REMARK  6 active torsions:
REMARK  status: ('A' for Active; 'I' for Inactive)
REMARK    1  A    between atoms: N_6  and  C_7 
REMARK    2  A    between atoms: C_7  and  C_8 
REMARK    3  A    between atoms: C_8  and  N_9 
REMARK    4  A    between atoms: N_9  and  C_10 
REMARK    5  A    between atoms: C_10  and  C_11 
REMARK    6  A    between atoms: C_11  and  O_12 
ROOT
HETATM    1  N   UNL     1     -42.518 -51.602  12.191  1.00  0.00     0.087 N 
HETATM    2  H   UNL     1     -42.195 -52.569  12.156  1.00  0.00     0.316 HD
ENDROOT
BRANCH   1   3
HETATM    3  C   UNL     1     -41.378 -50.737  12.543  1.00  0.00     0.291 C 
BRANCH   3   4
HETATM    4  C   UNL     1     -40.594 -50.188  11.346  1.00  0.00     0.178 C 
BRANCH   4   5
HETATM    5  N   UNL     1     -40.993 -48.832  11.034  1.00  0.00    -0.302 N 
HETATM    6  N   UNL     1     -42.132 -48.611  10.357  1.00  0.00    -0.310 N 
HETATM    7  C   UNL     1     -42.162 -47.282  10.225  1.00  0.00     0.115 A 
ATOM      8  HN  UNL     1     -42.811 -49.294  10.025  1.00  0.00     0.186 HD
HETATM    9  C   UNL     1     -41.045 -46.649  10.816  1.00  0.00    -0.028 A 
HETATM   10  C   UNL     1     -40.726 -45.207  10.855  1.00  0.00     0.051 C 
HETATM   11  C   UNL     1     -40.313 -47.691  11.344  1.00  0.00     0.118 A 
ENDBRANCH   4   5
ENDBRANCH   3   4
ENDBRANCH   1   3
BRANCH   1  12
HETATM   12  C   UNL     1     -43.630 -51.487  13.152  1.00  0.00     0.307 C 
BRANCH  12  13
HETATM   13  C   UNL     1     -44.677 -52.620  12.932  1.00  0.00     0.084 C 
HETATM   14  C   UNL     1     -46.078 -52.028  12.696  1.00  0.00     0.039 C 
HETATM   15  C   UNL     1     -46.701 -51.459  13.970  1.00  0.00     0.003 C 
HETATM   16  C   UNL     1     -46.752 -52.510  15.074  1.00  0.00     0.000 C 
HETATM   17  C   UNL     1     -45.374 -53.100  15.353  1.00  0.00     0.003 C 
HETATM   18  C   UNL     1     -44.729 -53.646  14.082  1.00  0.00     0.039 C 
BRANCH  13  19
HETATM   19  O   UNL     1     -44.292 -53.328  11.743  1.00  0.00    -0.388 OA
HETATM   20  H   UNL     1     -45.127 -53.474  11.252  1.00  0.00     0.210 HD
ENDBRANCH  13  19
ENDBRANCH  12  13
ENDBRANCH   1  12
TORSDOF 6
ENDMDL
