MODEL 1
REMARK VINA RESULT:      -5.7      0.000      0.000
REMARK  4 active torsions:
REMARK  status: ('A' for Active; 'I' for Inactive)
REMARK    1  A    between atoms: S_2  and  C_3 
REMARK    2  A    between atoms: C_3  and  C_4 
REMARK    3  A    between atoms: C_7  and  N_8 
REMARK       I    between atoms: N_8  and  C_9 
REMARK    4  A    between atoms: C_9  and  C_11 
ROOT
HETATM    1  C   UNL     1     -40.842 -49.605  11.631  1.00  0.00     0.042 A 
HETATM    2  N   UNL     1     -42.004 -50.308  11.784  1.00  0.00    -0.344 N 
ATOM      3  HN  UNL     1     -42.904 -49.887  11.555  1.00  0.00     0.167 HD
HETATM    4  C   UNL     1     -41.929 -51.572  12.245  1.00  0.00     0.107 A 
HETATM    5  C   UNL     1     -40.744 -52.143  12.678  1.00  0.00     0.050 A 
HETATM    6  C   UNL     1     -39.571 -51.398  12.587  1.00  0.00     0.029 A 
HETATM    7  C   UNL     1     -39.608 -50.124  12.026  1.00  0.00     0.057 A 
HETATM    8 CL   UNL     1     -38.122 -49.269  11.845  1.00  0.00    -0.082 Cl
ENDROOT
BRANCH   4   9
HETATM    9  N   UNL     1     -43.141 -52.250  12.261  1.00  0.00    -0.311 N 
HETATM   10  C   UNL     1     -44.222 -51.974  13.082  1.00  0.00     0.254 C 
HETATM   11  O   UNL     1     -44.271 -51.086  13.921  1.00  0.00    -0.270 OA
HETATM   12  H   UNL     1     -43.108 -53.181  11.860  1.00  0.00     0.170 HD
BRANCH  10  13
HETATM   13  C   UNL     1     -45.402 -52.905  12.749  1.00  0.00     0.237 C 
HETATM   14  C   UNL     1     -46.679 -52.627  13.558  1.00  0.00     0.209 C 
HETATM   15  O   UNL     1     -46.672 -53.241  14.855  1.00  0.00    -0.386 OA
HETATM   16  C   UNL     1     -46.366 -54.636  14.757  1.00  0.00     0.193 C 
HETATM   17  C   UNL     1     -44.994 -54.798  14.118  1.00  0.00     0.195 C 
HETATM   18  O   UNL     1     -45.021 -54.291  12.774  1.00  0.00    -0.372 OA
ENDBRANCH  10  13
ENDBRANCH   4   9
BRANCH   1  19
HETATM   19  C   UNL     1     -40.978 -48.275  10.932  1.00  0.00     0.132 C 
BRANCH  19  20
HETATM   20  S   UNL     1     -42.671 -47.585  11.016  1.00  0.00    -0.167 SA
HETATM   21  C   UNL     1     -43.089 -47.586   9.254  1.00  0.00     0.090 C 
ENDBRANCH  19  20
ENDBRANCH   1  19
TORSDOF 4
ENDMDL
MODEL 2
REMARK VINA RESULT:      -5.5      2.734      3.784
REMARK  4 active torsions:
REMARK  status: ('A' for Active; 'I' for Inactive)
REMARK    1  A    between atoms: S_2  and  C_3 
REMARK    2  A    between atoms: C_3  and  C_4 
REMARK    3  A    between atoms: C_7  and  N_8 
REMARK       I    between atoms: N_8  and  C_9 
REMARK    4  A    between atoms: C_9  and  C_11 
ROOT
HETATM    1  C   UNL     1     -41.832 -46.963  10.470  1.00  0.00     0.042 A 
HETATM    2  N   UNL     1     -41.955 -48.302  10.714  1.00  0.00    -0.344 N 
ATOM      3  HN  UNL     1     -42.815 -48.799  10.484  1.00  0.00     0.167 HD
HETATM    4  C   UNL     1     -40.910 -48.948  11.268  1.00  0.00     0.107 A 
HETATM    5  C   UNL     1     -39.770 -48.293  11.704  1.00  0.00     0.050 A 
HETATM    6  C   UNL     1     -39.677 -46.917  11.517  1.00  0.00     0.029 A 
HETATM    7  C   UNL     1     -40.703 -46.241  10.862  1.00  0.00     0.057 A 
HETATM    8 CL   UNL     1     -40.511 -44.554  10.566  1.00  0.00    -0.082 Cl
ENDROOT
BRANCH   4   9
HETATM    9  N   UNL     1     -41.077 -50.322  11.376  1.00  0.00    -0.311 N 
HETATM   10  C   UNL     1     -41.902 -50.978  12.275  1.00  0.00     0.254 C 
HETATM   11  O   UNL     1     -42.612 -50.440  13.113  1.00  0.00    -0.270 OA
HETATM   12  H   UNL     1     -40.324 -50.871  10.976  1.00  0.00     0.170 HD
BRANCH  10  13
HETATM   13  C   UNL     1     -41.861 -52.498  12.034  1.00  0.00     0.237 C 
HETATM   14  C   UNL     1     -42.905 -53.297  12.830  1.00  0.00     0.209 C 
HETATM   15  O   UNL     1     -42.493 -53.585  14.174  1.00  0.00    -0.386 OA
HETATM   16  C   UNL     1     -41.196 -54.191  14.189  1.00  0.00     0.193 C 
HETATM   17  C   UNL     1     -40.196 -53.237  13.552  1.00  0.00     0.195 C 
HETATM   18  O   UNL     1     -40.533 -53.031  12.170  1.00  0.00    -0.372 OA
ENDBRANCH  10  13
ENDBRANCH   4   9
BRANCH   1  19
HETATM   19  C   UNL     1     -42.956 -46.345   9.675  1.00  0.00     0.132 C 
BRANCH  19  20
HETATM   20  S   UNL     1     -43.646 -47.468   8.407  1.00  0.00    -0.167 SA
HETATM   21  C   UNL     1     -45.365 -47.550   8.973  1.00  0.00     0.090 C 
ENDBRANCH  19  20
ENDBRANCH   1  19
TORSDOF 4
ENDMDL
MODEL 3
REMARK VINA RESULT:      -5.5      3.325      6.150
REMARK  4 active torsions:
REMARK  status: ('A' for Active; 'I' for Inactive)
REMARK    1  A    between atoms: S_2  and  C_3 
REMARK    2  A    between atoms: C_3  and  C_4 
REMARK    3  A    between atoms: C_7  and  N_8 
REMARK       I    between atoms: N_8  and  C_9 
REMARK    4  A    between atoms: C_9  and  C_11 
ROOT
HETATM    1  C   UNL     1     -43.705 -53.169  13.153  1.00  0.00     0.042 A 
HETATM    2  N   UNL     1     -43.274 -52.139  12.366  1.00  0.00    -0.344 N 
ATOM      3  HN  UNL     1     -43.939 -51.543  11.874  1.00  0.00     0.167 HD
HETATM    4  C   UNL     1     -41.948 -51.930  12.259  1.00  0.00     0.107 A 
HETATM    5  C   UNL     1     -41.007 -52.783  12.813  1.00  0.00     0.050 A 
HETATM    6  C   UNL     1     -41.450 -53.874  13.556  1.00  0.00     0.029 A 
HETATM    7  C   UNL     1     -42.815 -54.057  13.762  1.00  0.00     0.057 A 
HETATM    8 CL   UNL     1     -43.322 -55.364  14.764  1.00  0.00    -0.082 Cl
ENDROOT
BRANCH   4   9
HETATM    9  N   UNL     1     -41.601 -50.797  11.535  1.00  0.00    -0.311 N 
HETATM   10  C   UNL     1     -41.908 -49.488  11.867  1.00  0.00     0.254 C 
HETATM   11  O   UNL     1     -42.535 -49.133  12.855  1.00  0.00    -0.270 OA
HETATM   12  H   UNL     1     -41.376 -50.972  10.561  1.00  0.00     0.170 HD
BRANCH  10  13
HETATM   13  C   UNL     1     -41.289 -48.514  10.848  1.00  0.00     0.237 C 
HETATM   14  C   UNL     1     -40.677 -47.248  11.469  1.00  0.00     0.209 C 
HETATM   15  O   UNL     1     -41.646 -46.223  11.732  1.00  0.00    -0.386 OA
HETATM   16  C   UNL     1     -42.429 -45.949  10.565  1.00  0.00     0.193 C 
HETATM   17  C   UNL     1     -43.149 -47.222  10.143  1.00  0.00     0.195 C 
HETATM   18  O   UNL     1     -42.188 -48.222   9.765  1.00  0.00    -0.372 OA
ENDBRANCH  10  13
ENDBRANCH   4   9
BRANCH   1  19
HETATM   19  C   UNL     1     -45.195 -53.226  13.386  1.00  0.00     0.132 C 
BRANCH  19  20
HETATM   20  S   UNL     1     -46.001 -51.586  13.304  1.00  0.00    -0.167 SA
HETATM   21  C   UNL     1     -46.908 -51.769  11.746  1.00  0.00     0.090 C 
ENDBRANCH  19  20
ENDBRANCH   1  19
TORSDOF 4
ENDMDL
MODEL 4
REMARK VINA RESULT:      -5.3      3.513      6.447
REMARK  4 active torsions:
REMARK  status: ('A' for Active; 'I' for Inactive)
REMARK    1  A    between atoms: S_2  and  C_3 
REMARK    2  A    between atoms: C_3  and  C_4 
REMARK    3  A    between atoms: C_7  and  N_8 
REMARK       I    between atoms: N_8  and  C_9 
REMARK    4  A    between atoms: C_9  and  C_11 
ROOT
HETATM    1  C   UNL     1     -44.451 -52.979  12.739  1.00  0.00     0.042 A 
HETATM    2  N   UNL     1     -43.556 -52.049  12.289  1.00  0.00    -0.344 N 
ATOM      3  HN  UNL     1     -43.870 -51.226  11.776  1.00  0.00     0.167 HD
HETATM    4  C   UNL     1     -42.247 -52.249  12.540  1.00  0.00     0.107 A 
HETATM    5  C   UNL     1     -41.766 -53.408  13.128  1.00  0.00     0.050 A 
HETATM    6  C   UNL     1     -42.675 -54.385  13.522  1.00  0.00     0.029 A 
HETATM    7  C   UNL     1     -44.040 -54.160  13.359  1.00  0.00     0.057 A 
HETATM    8 CL   UNL     1     -45.139 -55.352  13.943  1.00  0.00    -0.082 Cl
ENDROOT
BRANCH   4   9
HETATM    9  N   UNL     1     -41.421 -51.204  12.150  1.00  0.00    -0.311 N 
HETATM   10  C   UNL     1     -41.727 -49.855  12.205  1.00  0.00     0.254 C 
HETATM   11  O   UNL     1     -42.779 -49.379  12.608  1.00  0.00    -0.270 OA
HETATM   12  H   UNL     1     -40.678 -51.470  11.513  1.00  0.00     0.170 HD
BRANCH  10  13
HETATM   13  C   UNL     1     -40.524 -49.010  11.746  1.00  0.00     0.237 C 
HETATM   14  C   UNL     1     -39.238 -49.816  11.503  1.00  0.00     0.209 C 
HETATM   15  O   UNL     1     -38.494 -50.069  12.703  1.00  0.00    -0.386 OA
HETATM   16  C   UNL     1     -38.263 -48.855  13.426  1.00  0.00     0.193 C 
HETATM   17  C   UNL     1     -39.604 -48.234  13.789  1.00  0.00     0.195 C 
HETATM   18  O   UNL     1     -40.311 -47.869  12.593  1.00  0.00    -0.372 OA
ENDBRANCH  10  13
ENDBRANCH   4   9
BRANCH   1  19
HETATM   19  C   UNL     1     -45.904 -52.599  12.596  1.00  0.00     0.132 C 
BRANCH  19  20
HETATM   20  S   UNL     1     -46.479 -51.446  13.894  1.00  0.00    -0.167 SA
HETATM   21  C   UNL     1     -47.026 -52.639  15.143  1.00  0.00     0.090 C 
ENDBRANCH  19  20
ENDBRANCH   1  19
TORSDOF 4
ENDMDL
MODEL 5
REMARK VINA RESULT:      -5.2      2.151      3.355
REMARK  4 active torsions:
REMARK  status: ('A' for Active; 'I' for Inactive)
REMARK    1  A    between atoms: S_2  and  C_3 
REMARK    2  A    between atoms: C_3  and  C_4 
REMARK    3  A    between atoms: C_7  and  N_8 
REMARK       I    between atoms: N_8  and  C_9 
REMARK    4  A    between atoms: C_9  and  C_11 
ROOT
HETATM    1  C   UNL     1     -39.508 -51.339  13.066  1.00  0.00     0.042 A 
HETATM    2  N   UNL     1     -40.725 -51.931  12.870  1.00  0.00    -0.344 N 
ATOM      3  HN  UNL     1     -40.910 -52.872  13.217  1.00  0.00     0.167 HD
HETATM    4  C   UNL     1     -41.671 -51.239  12.207  1.00  0.00     0.107 A 
HETATM    5  C   UNL     1     -41.426 -50.009  11.618  1.00  0.00     0.050 A 
HETATM    6  C   UNL     1     -40.164 -49.440  11.759  1.00  0.00     0.029 A 
HETATM    7  C   UNL     1     -39.197 -50.092  12.521  1.00  0.00     0.057 A 
HETATM    8 CL   UNL     1     -37.677 -49.313  12.750  1.00  0.00    -0.082 Cl
ENDROOT
BRANCH   4   9
HETATM    9  N   UNL     1     -42.909 -51.866  12.152  1.00  0.00    -0.311 N 
HETATM   10  C   UNL     1     -43.634 -52.340  13.233  1.00  0.00     0.254 C 
HETATM   11  O   UNL     1     -43.291 -52.277  14.404  1.00  0.00    -0.270 OA
HETATM   12  H   UNL     1     -43.141 -52.262  11.248  1.00  0.00     0.170 HD
BRANCH  10  13
HETATM   13  C   UNL     1     -44.987 -52.909  12.765  1.00  0.00     0.237 C 
HETATM   14  C   UNL     1     -46.195 -52.435  13.589  1.00  0.00     0.209 C 
HETATM   15  O   UNL     1     -46.389 -53.192  14.793  1.00  0.00    -0.386 OA
HETATM   16  C   UNL     1     -46.421 -54.596  14.513  1.00  0.00     0.193 C 
HETATM   17  C   UNL     1     -45.100 -55.002  13.874  1.00  0.00     0.195 C 
HETATM   18  O   UNL     1     -44.948 -54.337  12.609  1.00  0.00    -0.372 OA
ENDBRANCH  10  13
ENDBRANCH   4   9
BRANCH   1  19
HETATM   19  C   UNL     1     -38.566 -52.084  13.979  1.00  0.00     0.132 C 
BRANCH  19  20
HETATM   20  S   UNL     1     -39.428 -53.078  15.250  1.00  0.00    -0.167 SA
HETATM   21  C   UNL     1     -39.048 -54.743  14.647  1.00  0.00     0.090 C 
ENDBRANCH  19  20
ENDBRANCH   1  19
TORSDOF 4
ENDMDL
MODEL 6
REMARK VINA RESULT:      -5.1      1.812      2.351
REMARK  4 active torsions:
REMARK  status: ('A' for Active; 'I' for Inactive)
REMARK    1  A    between atoms: S_2  and  C_3 
REMARK    2  A    between atoms: C_3  and  C_4 
REMARK    3  A    between atoms: C_7  and  N_8 
REMARK       I    between atoms: N_8  and  C_9 
REMARK    4  A    between atoms: C_9  and  C_11 
ROOT
HETATM    1  C   UNL     1     -42.331 -48.198  11.363  1.00  0.00     0.042 A 
HETATM    2  N   UNL     1     -42.807 -49.390  11.831  1.00  0.00    -0.344 N 
ATOM      3  HN  UNL     1     -43.808 -49.541  11.956  1.00  0.00     0.167 HD
HETATM    4  C   UNL     1     -41.919 -50.361  12.124  1.00  0.00     0.107 A 
HETATM    5  C   UNL     1     -40.549 -50.160  12.083  1.00  0.00     0.050 A 
HETATM    6  C   UNL     1     -40.067 -48.920  11.672  1.00  0.00     0.029 A 
HETATM    7  C   UNL     1     -40.964 -47.932  11.273  1.00  0.00     0.057 A 
HETATM    8 CL   UNL     1     -40.327 -46.443  10.684  1.00  0.00    -0.082 Cl
ENDROOT
BRANCH   4   9
HETATM    9  N   UNL     1     -42.492 -51.574  12.483  1.00  0.00    -0.311 N 
HETATM   10  C   UNL     1     -42.512 -52.124  13.754  1.00  0.00     0.254 C 
HETATM   11  O   UNL     1     -42.025 -51.621  14.756  1.00  0.00    -0.270 OA
HETATM   12  H   UNL     1     -42.632 -52.218  11.712  1.00  0.00     0.170 HD
BRANCH  10  13
HETATM   13  C   UNL     1     -43.301 -53.447  13.755  1.00  0.00     0.237 C 
HETATM   14  C   UNL     1     -44.047 -53.743  12.444  1.00  0.00     0.209 C 
HETATM   15  O   UNL     1     -45.318 -53.084  12.355  1.00  0.00    -0.386 OA
HETATM   16  C   UNL     1     -46.110 -53.345  13.519  1.00  0.00     0.193 C 
HETATM   17  C   UNL     1     -45.367 -52.837  14.747  1.00  0.00     0.195 C 
HETATM   18  O   UNL     1     -44.143 -53.572  14.912  1.00  0.00    -0.372 OA
ENDBRANCH  10  13
ENDBRANCH   4   9
BRANCH   1  19
HETATM   19  C   UNL     1     -43.380 -47.231  10.873  1.00  0.00     0.132 C 
BRANCH  19  20
HETATM   20  S   UNL     1     -43.728 -47.389   9.084  1.00  0.00    -0.167 SA
HETATM   21  C   UNL     1     -45.535 -47.506   9.133  1.00  0.00     0.090 C 
ENDBRANCH  19  20
ENDBRANCH   1  19
TORSDOF 4
ENDMDL
MODEL 7
REMARK VINA RESULT:      -5.1      1.963      2.076
REMARK  4 active torsions:
REMARK  status: ('A' for Active; 'I' for Inactive)
REMARK    1  A    between atoms: S_2  and  C_3 
REMARK    2  A    between atoms: C_3  and  C_4 
REMARK    3  A    between atoms: C_7  and  N_8 
REMARK       I    between atoms: N_8  and  C_9 
REMARK    4  A    between atoms: C_9  and  C_11 
ROOT
HETATM    1  C   UNL     1     -42.069 -48.489  12.108  1.00  0.00     0.042 A 
HETATM    2  N   UNL     1     -43.057 -49.432  12.050  1.00  0.00    -0.344 N 
ATOM      3  HN  UNL     1     -43.458 -49.715  11.156  1.00  0.00     0.167 HD
HETATM    4  C   UNL     1     -43.486 -49.978  13.204  1.00  0.00     0.107 A 
HETATM    5  C   UNL     1     -43.056 -49.540  14.446  1.00  0.00     0.050 A 
HETATM    6  C   UNL     1     -42.100 -48.529  14.504  1.00  0.00     0.029 A 
HETATM    7  C   UNL     1     -41.570 -48.015  13.323  1.00  0.00     0.057 A 
HETATM    8 CL   UNL     1     -40.324 -46.831  13.435  1.00  0.00    -0.082 Cl
ENDROOT
BRANCH   4   9
HETATM    9  N   UNL     1     -44.407 -51.005  13.046  1.00  0.00    -0.311 N 
HETATM   10  C   UNL     1     -44.135 -52.284  12.587  1.00  0.00     0.254 C 
HETATM   11  O   UNL     1     -43.036 -52.701  12.251  1.00  0.00    -0.270 OA
HETATM   12  H   UNL     1     -45.372 -50.700  12.978  1.00  0.00     0.170 HD
BRANCH  10  13
HETATM   13  C   UNL     1     -45.408 -53.149  12.620  1.00  0.00     0.237 C 
HETATM   14  C   UNL     1     -46.536 -52.588  13.501  1.00  0.00     0.209 C 
HETATM   15  O   UNL     1     -46.383 -52.913  14.890  1.00  0.00    -0.386 OA
HETATM   16  C   UNL     1     -46.185 -54.320  15.066  1.00  0.00     0.193 C 
HETATM   17  C   UNL     1     -44.931 -54.741  14.312  1.00  0.00     0.195 C 
HETATM   18  O   UNL     1     -45.117 -54.528  12.903  1.00  0.00    -0.372 OA
ENDBRANCH  10  13
ENDBRANCH   4   9
BRANCH   1  19
HETATM   19  C   UNL     1     -41.502 -48.064  10.777  1.00  0.00     0.132 C 
BRANCH  19  20
HETATM   20  S   UNL     1     -42.380 -46.638  10.039  1.00  0.00    -0.167 SA
HETATM   21  C   UNL     1     -43.488 -47.515   8.905  1.00  0.00     0.090 C 
ENDBRANCH  19  20
ENDBRANCH   1  19
TORSDOF 4
ENDMDL
MODEL 8
REMARK VINA RESULT:      -5.0      5.293      6.530
REMARK  4 active torsions:
REMARK  status: ('A' for Active; 'I' for Inactive)
REMARK    1  A    between atoms: S_2  and  C_3 
REMARK    2  A    between atoms: C_3  and  C_4 
REMARK    3  A    between atoms: C_7  and  N_8 
REMARK       I    between atoms: N_8  and  C_9 
REMARK    4  A    between atoms: C_9  and  C_11 
ROOT
HETATM    1  C   UNL     1     -42.032 -45.536  10.568  1.00  0.00     0.042 A 
HETATM    2  N   UNL     1     -40.967 -46.238  11.058  1.00  0.00    -0.344 N 
ATOM      3  HN  UNL     1     -40.214 -45.765  11.557  1.00  0.00     0.167 HD
HETATM    4  C   UNL     1     -40.938 -47.571  10.865  1.00  0.00     0.107 A 
HETATM    5  C   UNL     1     -41.876 -48.237  10.094  1.00  0.00     0.050 A 
HETATM    6  C   UNL     1     -42.922 -47.507   9.536  1.00  0.00     0.029 A 
HETATM    7  C   UNL     1     -43.027 -46.144   9.800  1.00  0.00     0.057 A 
HETATM    8 CL   UNL     1     -44.386 -45.292   9.170  1.00  0.00    -0.082 Cl
ENDROOT
BRANCH   4   9
HETATM    9  N   UNL     1     -39.882 -48.220  11.492  1.00  0.00    -0.311 N 
HETATM   10  C   UNL     1     -39.369 -47.925  12.744  1.00  0.00     0.254 C 
HETATM   11  O   UNL     1     -39.772 -47.043  13.490  1.00  0.00    -0.270 OA
HETATM   12  H   UNL     1     -39.271 -48.732  10.866  1.00  0.00     0.170 HD
BRANCH  10  13
HETATM   13  C   UNL     1     -38.248 -48.914  13.113  1.00  0.00     0.237 C 
HETATM   14  C   UNL     1     -38.017 -50.027  12.079  1.00  0.00     0.209 C 
HETATM   15  O   UNL     1     -38.921 -51.131  12.225  1.00  0.00    -0.386 OA
HETATM   16  C   UNL     1     -38.923 -51.614  13.573  1.00  0.00     0.193 C 
HETATM   17  C   UNL     1     -39.354 -50.487  14.501  1.00  0.00     0.195 C 
HETATM   18  O   UNL     1     -38.392 -49.421  14.450  1.00  0.00    -0.372 OA
ENDBRANCH  10  13
ENDBRANCH   4   9
BRANCH   1  19
HETATM   19  C   UNL     1     -42.099 -44.088  10.985  1.00  0.00     0.132 C 
BRANCH  19  20
HETATM   20  S   UNL     1     -40.533 -43.470  11.701  1.00  0.00    -0.167 SA
HETATM   21  C   UNL     1     -40.925 -41.705  11.815  1.00  0.00     0.090 C 
ENDBRANCH  19  20
ENDBRANCH   1  19
TORSDOF 4
ENDMDL
MODEL 9
REMARK VINA RESULT:      -4.9      3.894      7.104
REMARK  4 active torsions:
REMARK  status: ('A' for Active; 'I' for Inactive)
REMARK    1  A    between atoms: S_2  and  C_3 
REMARK    2  A    between atoms: C_3  and  C_4 
REMARK    3  A    between atoms: C_7  and  N_8 
REMARK       I    between atoms: N_8  and  C_9 
REMARK    4  A    between atoms: C_9  and  C_11 
ROOT
HETATM    1  C   UNL     1     -40.419 -50.881  12.280  1.00  0.00     0.042 A 
HETATM    2  N   UNL     1     -40.586 -49.717  11.583  1.00  0.00    -0.344 N 
ATOM      3  HN  UNL     1     -41.403 -49.575  10.990  1.00  0.00     0.167 HD
HETATM    4  C   UNL     1     -39.642 -48.763  11.702  1.00  0.00     0.107 A 
HETATM    5  C   UNL     1     -38.462 -48.958  12.400  1.00  0.00     0.050 A 
HETATM    6  C   UNL     1     -38.263 -50.173  13.051  1.00  0.00     0.029 A 
HETATM    7  C   UNL     1     -39.266 -51.139  13.023  1.00  0.00     0.057 A 
HETATM    8 CL   UNL     1     -39.023 -52.592  13.916  1.00  0.00    -0.082 Cl
ENDROOT
BRANCH   4   9
HETATM    9  N   UNL     1     -39.945 -47.572  11.054  1.00  0.00    -0.311 N 
HETATM   10  C   UNL     1     -41.201 -47.002  10.936  1.00  0.00     0.254 C 
HETATM   11  O   UNL     1     -42.239 -47.464  11.388  1.00  0.00    -0.270 OA
HETATM   12  H   UNL     1     -39.251 -47.272  10.378  1.00  0.00     0.170 HD
BRANCH  10  13
HETATM   13  C   UNL     1     -41.112 -45.649  10.206  1.00  0.00     0.237 C 
HETATM   14  C   UNL     1     -39.722 -44.994  10.250  1.00  0.00     0.209 C 
HETATM   15  O   UNL     1     -39.480 -44.260  11.459  1.00  0.00    -0.386 OA
HETATM   16  C   UNL     1     -40.542 -43.334  11.714  1.00  0.00     0.193 C 
HETATM   17  C   UNL     1     -41.848 -44.104  11.848  1.00  0.00     0.195 C 
HETATM   18  O   UNL     1     -42.161 -44.750  10.603  1.00  0.00    -0.372 OA
ENDBRANCH  10  13
ENDBRANCH   4   9
BRANCH   1  19
HETATM   19  C   UNL     1     -41.598 -51.822  12.258  1.00  0.00     0.132 C 
BRANCH  19  20
HETATM   20  S   UNL     1     -42.616 -51.737  13.776  1.00  0.00    -0.167 SA
HETATM   21  C   UNL     1     -43.875 -50.552  13.234  1.00  0.00     0.090 C 
ENDBRANCH  19  20
ENDBRANCH   1  19
TORSDOF 4
ENDMDL
