MODEL 1
REMARK VINA RESULT:      -6.1      0.000      0.000
REMARK  3 active torsions:
REMARK  status: ('A' for Active; 'I' for Inactive)
REMARK    1  A    between atoms: C_2  and  C_3 
REMARK       I    between atoms: C_2  and  N_12 
REMARK    2  A    between atoms: C_3  and  N_4 
REMARK    3  A    between atoms: N_12  and  C_13 
ROOT
HETATM    1  O   UNL     1     -39.774 -46.149  10.576  1.00  0.00    -0.272 OA
HETATM    2  C   UNL     1     -40.628 -46.647  11.308  1.00  0.00     0.236 C 
HETATM    3  N   UNL     1     -40.379 -47.745  12.124  1.00  0.00    -0.346 N 
HETATM    4  H   UNL     1     -41.033 -47.939  12.877  1.00  0.00     0.163 HD
ENDROOT
BRANCH   2   5
HETATM    5  C   UNL     1     -42.027 -46.040  11.496  1.00  0.00     0.235 C 
BRANCH   5   6
HETATM    6  N   UNL     1     -43.081 -46.506  10.583  1.00  0.00    -0.301 N 
HETATM    7  C   UNL     1     -43.512 -45.696   9.548  1.00  0.00     0.102 C 
HETATM    8  C   UNL     1     -44.599 -45.989   8.830  1.00  0.00     0.092 C 
HETATM    9  C   UNL     1     -45.362 -47.206   9.158  1.00  0.00     0.250 C 
HETATM   10  O   UNL     1     -46.450 -47.433   8.642  1.00  0.00    -0.268 OA
HETATM   11  N   UNL     1     -44.783 -48.030  10.077  1.00  0.00    -0.275 N 
HETATM   12  C   UNL     1     -43.702 -47.719  10.863  1.00  0.00     0.329 C 
HETATM   13  H   UNL     1     -45.294 -48.860  10.328  1.00  0.00     0.173 HD
HETATM   14  O   UNL     1     -43.367 -48.464  11.778  1.00  0.00    -0.246 OA
ENDBRANCH   5   6
ENDBRANCH   2   5
BRANCH   3  15
HETATM   15  C   UNL     1     -39.045 -48.356  12.288  1.00  0.00     0.176 C 
HETATM   16  C   UNL     1     -38.911 -49.662  11.505  1.00  0.00     0.035 C 
HETATM   17  C   UNL     1     -37.473 -50.185  11.521  1.00  0.00     0.004 C 
HETATM   18  C   UNL     1     -37.165 -51.098  12.700  1.00  0.00     0.020 C 
HETATM   19  C   UNL     1     -37.896 -50.754  13.987  1.00  0.00     0.122 C 
HETATM   20  N   UNL     1     -37.880 -49.348  14.334  1.00  0.00    -0.359 N 
HETATM   21  C   UNL     1     -38.762 -48.435  13.813  1.00  0.00     0.240 C 
HETATM   22  H   UNL     1     -37.764 -49.176  15.327  1.00  0.00     0.162 HD
HETATM   23  O   UNL     1     -39.235 -47.592  14.586  1.00  0.00    -0.271 OA
ENDBRANCH   3  15
TORSDOF 3
ENDMDL
MODEL 2
REMARK VINA RESULT:      -6.0      5.363      8.476
REMARK  3 active torsions:
REMARK  status: ('A' for Active; 'I' for Inactive)
REMARK    1  A    between atoms: C_2  and  C_3 
REMARK       I    between atoms: C_2  and  N_12 
REMARK    2  A    between atoms: C_3  and  N_4 
REMARK    3  A    between atoms: N_12  and  C_13 
ROOT
HETATM    1  O   UNL     1     -42.844 -53.452  14.937  1.00  0.00    -0.272 OA
HETATM    2  C   UNL     1     -42.587 -53.871  13.809  1.00  0.00     0.236 C 
HETATM    3  N   UNL     1     -43.539 -53.958  12.799  1.00  0.00    -0.346 N 
HETATM    4  H   UNL     1     -43.213 -54.064  11.843  1.00  0.00     0.163 HD
ENDROOT
BRANCH   2   5
HETATM    5  C   UNL     1     -41.165 -54.232  13.352  1.00  0.00     0.235 C 
BRANCH   5   6
HETATM    6  N   UNL     1     -40.221 -53.119  13.175  1.00  0.00    -0.301 N 
HETATM    7  C   UNL     1     -39.164 -52.958  14.051  1.00  0.00     0.102 C 
HETATM    8  C   UNL     1     -38.410 -51.855  14.053  1.00  0.00     0.092 C 
HETATM    9  C   UNL     1     -38.724 -50.779  13.097  1.00  0.00     0.250 C 
HETATM   10  O   UNL     1     -38.173 -49.687  13.166  1.00  0.00    -0.268 OA
HETATM   11  N   UNL     1     -39.671 -51.082  12.165  1.00  0.00    -0.275 N 
HETATM   12  C   UNL     1     -40.492 -52.181  12.184  1.00  0.00     0.329 C 
HETATM   13  H   UNL     1     -39.913 -50.355  11.510  1.00  0.00     0.173 HD
HETATM   14  O   UNL     1     -41.426 -52.272  11.393  1.00  0.00    -0.246 OA
ENDBRANCH   5   6
ENDBRANCH   2   5
BRANCH   3  15
HETATM   15  C   UNL     1     -44.920 -53.453  12.932  1.00  0.00     0.176 C 
HETATM   16  C   UNL     1     -44.957 -51.970  13.298  1.00  0.00     0.035 C 
HETATM   17  C   UNL     1     -46.379 -51.409  13.242  1.00  0.00     0.004 C 
HETATM   18  C   UNL     1     -47.144 -51.542  14.551  1.00  0.00     0.020 C 
HETATM   19  C   UNL     1     -46.815 -52.783  15.364  1.00  0.00     0.122 C 
HETATM   20  N   UNL     1     -46.772 -54.013  14.600  1.00  0.00    -0.359 N 
HETATM   21  C   UNL     1     -45.671 -54.418  13.889  1.00  0.00     0.240 C 
HETATM   22  H   UNL     1     -47.170 -54.808  15.088  1.00  0.00     0.162 HD
HETATM   23  O   UNL     1     -45.366 -55.617  13.943  1.00  0.00    -0.271 OA
ENDBRANCH   3  15
TORSDOF 3
ENDMDL
MODEL 3
REMARK VINA RESULT:      -5.8      4.797      7.021
REMARK  3 active torsions:
REMARK  status: ('A' for Active; 'I' for Inactive)
REMARK    1  A    between atoms: C_2  and  C_3 
REMARK       I    between atoms: C_2  and  N_12 
REMARK    2  A    between atoms: C_3  and  N_4 
REMARK    3  A    between atoms: N_12  and  C_13 
ROOT
HETATM    1  O   UNL     1     -42.647 -51.905  14.253  1.00  0.00    -0.272 OA
HETATM    2  C   UNL     1     -42.687 -51.899  13.023  1.00  0.00     0.236 C 
HETATM    3  N   UNL     1     -43.856 -52.117  12.304  1.00  0.00    -0.346 N 
HETATM    4  H   UNL     1     -43.872 -51.847  11.324  1.00  0.00     0.163 HD
ENDROOT
BRANCH   2   5
HETATM    5  C   UNL     1     -41.480 -51.530  12.147  1.00  0.00     0.235 C 
BRANCH   5   6
HETATM    6  N   UNL     1     -41.208 -50.098  11.958  1.00  0.00    -0.301 N 
HETATM    7  C   UNL     1     -42.252 -49.194  11.901  1.00  0.00     0.102 C 
HETATM    8  C   UNL     1     -42.067 -47.925  11.527  1.00  0.00     0.092 C 
HETATM    9  C   UNL     1     -40.711 -47.483  11.159  1.00  0.00     0.250 C 
HETATM   10  O   UNL     1     -40.515 -46.383  10.656  1.00  0.00    -0.268 OA
HETATM   11  N   UNL     1     -39.717 -48.385  11.399  1.00  0.00    -0.275 N 
HETATM   12  C   UNL     1     -39.894 -49.705  11.725  1.00  0.00     0.329 C 
HETATM   13  H   UNL     1     -38.782 -48.110  11.140  1.00  0.00     0.173 HD
HETATM   14  O   UNL     1     -38.936 -50.472  11.750  1.00  0.00    -0.246 OA
ENDBRANCH   5   6
ENDBRANCH   2   5
BRANCH   3  15
HETATM   15  C   UNL     1     -45.186 -52.263  12.928  1.00  0.00     0.176 C 
HETATM   16  C   UNL     1     -45.393 -51.276  14.076  1.00  0.00     0.035 C 
HETATM   17  C   UNL     1     -46.835 -51.299  14.588  1.00  0.00     0.004 C 
HETATM   18  C   UNL     1     -47.079 -52.319  15.692  1.00  0.00     0.020 C 
HETATM   19  C   UNL     1     -46.258 -53.593  15.581  1.00  0.00     0.122 C 
HETATM   20  N   UNL     1     -46.228 -54.180  14.257  1.00  0.00    -0.359 N 
HETATM   21  C   UNL     1     -45.368 -53.767  13.271  1.00  0.00     0.240 C 
HETATM   22  H   UNL     1     -46.275 -55.194  14.261  1.00  0.00     0.162 HD
HETATM   23  O   UNL     1     -44.831 -54.641  12.579  1.00  0.00    -0.271 OA
ENDBRANCH   3  15
TORSDOF 3
ENDMDL
MODEL 4
REMARK VINA RESULT:      -5.7      3.906      6.854
REMARK  3 active torsions:
REMARK  status: ('A' for Active; 'I' for Inactive)
REMARK    1  A    between atoms: C_2  and  C_3 
REMARK       I    between atoms: C_2  and  N_12 
REMARK    2  A    between atoms: C_3  and  N_4 
REMARK    3  A    between atoms: N_12  and  C_13 
ROOT
HETATM    1  O   UNL     1     -42.584 -48.393  12.106  1.00  0.00    -0.272 OA
HETATM    2  C   UNL     1     -41.970 -48.981  12.996  1.00  0.00     0.236 C 
HETATM    3  N   UNL     1     -42.357 -50.221  13.490  1.00  0.00    -0.346 N 
HETATM    4  H   UNL     1     -41.679 -50.755  14.025  1.00  0.00     0.163 HD
ENDROOT
BRANCH   2   5
HETATM    5  C   UNL     1     -40.643 -48.469  13.576  1.00  0.00     0.235 C 
BRANCH   5   6
HETATM    6  N   UNL     1     -39.434 -49.238  13.249  1.00  0.00    -0.301 N 
HETATM    7  C   UNL     1     -38.747 -48.988  12.076  1.00  0.00     0.102 C 
HETATM    8  C   UNL     1     -37.773 -49.793  11.642  1.00  0.00     0.092 C 
HETATM    9  C   UNL     1     -37.432 -50.986  12.437  1.00  0.00     0.250 C 
HETATM   10  O   UNL     1     -36.666 -51.840  12.005  1.00  0.00    -0.268 OA
HETATM   11  N   UNL     1     -38.038 -51.071  13.655  1.00  0.00    -0.275 N 
HETATM   12  C   UNL     1     -39.078 -50.289  14.089  1.00  0.00     0.329 C 
HETATM   13  H   UNL     1     -37.831 -51.887  14.209  1.00  0.00     0.173 HD
HETATM   14  O   UNL     1     -39.664 -50.560  15.132  1.00  0.00    -0.246 OA
ENDBRANCH   5   6
ENDBRANCH   2   5
BRANCH   3  15
HETATM   15  C   UNL     1     -43.467 -51.016  12.927  1.00  0.00     0.176 C 
HETATM   16  C   UNL     1     -44.644 -51.126  13.896  1.00  0.00     0.035 C 
HETATM   17  C   UNL     1     -45.860 -51.780  13.236  1.00  0.00     0.004 C 
HETATM   18  C   UNL     1     -45.882 -53.297  13.357  1.00  0.00     0.020 C 
HETATM   19  C   UNL     1     -44.516 -53.963  13.335  1.00  0.00     0.122 C 
HETATM   20  N   UNL     1     -43.627 -53.487  12.296  1.00  0.00    -0.359 N 
HETATM   21  C   UNL     1     -42.862 -52.354  12.423  1.00  0.00     0.240 C 
HETATM   22  H   UNL     1     -43.075 -54.220  11.865  1.00  0.00     0.162 HD
HETATM   23  O   UNL     1     -41.698 -52.402  12.005  1.00  0.00    -0.271 OA
ENDBRANCH   3  15
TORSDOF 3
ENDMDL
MODEL 5
REMARK VINA RESULT:      -5.7      3.824      4.660
REMARK  3 active torsions:
REMARK  status: ('A' for Active; 'I' for Inactive)
REMARK    1  A    between atoms: C_2  and  C_3 
REMARK       I    between atoms: C_2  and  N_12 
REMARK    2  A    between atoms: C_3  and  N_4 
REMARK    3  A    between atoms: N_12  and  C_13 
ROOT
HETATM    1  O   UNL     1     -41.728 -50.060  13.227  1.00  0.00    -0.272 OA
HETATM    2  C   UNL     1     -41.066 -50.193  12.199  1.00  0.00     0.236 C 
HETATM    3  N   UNL     1     -40.909 -51.415  11.554  1.00  0.00    -0.346 N 
HETATM    4  H   UNL     1     -40.577 -51.408  10.594  1.00  0.00     0.163 HD
ENDROOT
BRANCH   2   5
HETATM    5  C   UNL     1     -40.439 -49.009  11.446  1.00  0.00     0.235 C 
BRANCH   5   6
HETATM    6  N   UNL     1     -41.357 -47.970  10.959  1.00  0.00    -0.301 N 
HETATM    7  C   UNL     1     -42.668 -48.288  10.656  1.00  0.00     0.102 C 
HETATM    8  C   UNL     1     -43.473 -47.432  10.020  1.00  0.00     0.092 C 
HETATM    9  C   UNL     1     -42.941 -46.116   9.626  1.00  0.00     0.250 C 
HETATM   10  O   UNL     1     -43.580 -45.362   8.902  1.00  0.00    -0.268 OA
HETATM   11  N   UNL     1     -41.699 -45.820  10.104  1.00  0.00    -0.275 N 
HETATM   12  C   UNL     1     -40.840 -46.704  10.705  1.00  0.00     0.329 C 
HETATM   13  H   UNL     1     -41.308 -44.931   9.834  1.00  0.00     0.173 HD
HETATM   14  O   UNL     1     -39.681 -46.379  10.943  1.00  0.00    -0.246 OA
ENDBRANCH   5   6
ENDBRANCH   2   5
BRANCH   3  15
HETATM   15  C   UNL     1     -41.608 -52.650  11.960  1.00  0.00     0.176 C 
HETATM   16  C   UNL     1     -43.070 -52.391  12.322  1.00  0.00     0.035 C 
HETATM   17  C   UNL     1     -43.835 -53.696  12.551  1.00  0.00     0.004 C 
HETATM   18  C   UNL     1     -43.780 -54.196  13.988  1.00  0.00     0.020 C 
HETATM   19  C   UNL     1     -42.483 -53.899  14.722  1.00  0.00     0.122 C 
HETATM   20  N   UNL     1     -41.281 -54.194  13.970  1.00  0.00    -0.359 N 
HETATM   21  C   UNL     1     -40.738 -53.330  13.052  1.00  0.00     0.240 C 
HETATM   22  H   UNL     1     -40.540 -54.600  14.530  1.00  0.00     0.162 HD
HETATM   23  O   UNL     1     -39.506 -53.203  13.047  1.00  0.00    -0.271 OA
ENDBRANCH   3  15
TORSDOF 3
ENDMDL
MODEL 6
REMARK VINA RESULT:      -5.7      3.464      5.734
REMARK  3 active torsions:
REMARK  status: ('A' for Active; 'I' for Inactive)
REMARK    1  A    between atoms: C_2  and  C_3 
REMARK       I    between atoms: C_2  and  N_12 
REMARK    2  A    between atoms: C_3  and  N_4 
REMARK    3  A    between atoms: N_12  and  C_13 
ROOT
HETATM    1  O   UNL     1     -40.459 -49.569  10.946  1.00  0.00    -0.272 OA
HETATM    2  C   UNL     1     -40.884 -49.280  12.064  1.00  0.00     0.236 C 
HETATM    3  N   UNL     1     -41.155 -47.974  12.457  1.00  0.00    -0.346 N 
HETATM    4  H   UNL     1     -41.735 -47.834  13.279  1.00  0.00     0.163 HD
ENDROOT
BRANCH   2   5
HETATM    5  C   UNL     1     -41.278 -50.336  13.109  1.00  0.00     0.235 C 
BRANCH   5   6
HETATM    6  N   UNL     1     -42.464 -51.153  12.814  1.00  0.00    -0.301 N 
HETATM    7  C   UNL     1     -43.705 -50.773  13.289  1.00  0.00     0.102 C 
HETATM    8  C   UNL     1     -44.764 -51.584  13.224  1.00  0.00     0.092 C 
HETATM    9  C   UNL     1     -44.598 -52.924  12.634  1.00  0.00     0.250 C 
HETATM   10  O   UNL     1     -45.489 -53.762  12.698  1.00  0.00    -0.268 OA
HETATM   11  N   UNL     1     -43.391 -53.158  12.044  1.00  0.00    -0.275 N 
HETATM   12  C   UNL     1     -42.278 -52.363  12.153  1.00  0.00     0.329 C 
HETATM   13  H   UNL     1     -43.249 -54.074  11.648  1.00  0.00     0.173 HD
HETATM   14  O   UNL     1     -41.195 -52.751  11.727  1.00  0.00    -0.246 OA
ENDBRANCH   5   6
ENDBRANCH   2   5
BRANCH   3  15
HETATM   15  C   UNL     1     -41.075 -46.814  11.548  1.00  0.00     0.176 C 
HETATM   16  C   UNL     1     -40.092 -45.757  12.051  1.00  0.00     0.035 C 
HETATM   17  C   UNL     1     -39.868 -44.655  11.014  1.00  0.00     0.004 C 
HETATM   18  C   UNL     1     -40.852 -43.498  11.125  1.00  0.00     0.020 C 
HETATM   19  C   UNL     1     -42.250 -43.886  11.578  1.00  0.00     0.122 C 
HETATM   20  N   UNL     1     -42.804 -45.044  10.909  1.00  0.00    -0.359 N 
HETATM   21  C   UNL     1     -42.529 -46.334  11.288  1.00  0.00     0.240 C 
HETATM   22  H   UNL     1     -43.792 -44.958  10.698  1.00  0.00     0.162 HD
HETATM   23  O   UNL     1     -43.470 -47.139  11.299  1.00  0.00    -0.271 OA
ENDBRANCH   3  15
TORSDOF 3
ENDMDL
MODEL 7
REMARK VINA RESULT:      -5.6      4.588      7.794
REMARK  3 active torsions:
REMARK  status: ('A' for Active; 'I' for Inactive)
REMARK    1  A    between atoms: C_2  and  C_3 
REMARK       I    between atoms: C_2  and  N_12 
REMARK    2  A    between atoms: C_3  and  N_4 
REMARK    3  A    between atoms: N_12  and  C_13 
ROOT
HETATM    1  O   UNL     1     -43.301 -49.349  12.478  1.00  0.00    -0.272 OA
HETATM    2  C   UNL     1     -42.667 -50.402  12.518  1.00  0.00     0.236 C 
HETATM    3  N   UNL     1     -43.231 -51.611  12.908  1.00  0.00    -0.346 N 
HETATM    4  H   UNL     1     -42.736 -52.466  12.675  1.00  0.00     0.163 HD
ENDROOT
BRANCH   2   5
HETATM    5  C   UNL     1     -41.215 -50.525  12.028  1.00  0.00     0.235 C 
BRANCH   5   6
HETATM    6  N   UNL     1     -40.158 -50.395  13.041  1.00  0.00    -0.301 N 
HETATM    7  C   UNL     1     -39.575 -49.165  13.283  1.00  0.00     0.102 C 
HETATM    8  C   UNL     1     -38.479 -49.040  14.037  1.00  0.00     0.092 C 
HETATM    9  C   UNL     1     -37.876 -50.251  14.619  1.00  0.00     0.250 C 
HETATM   10  O   UNL     1     -36.786 -50.213  15.178  1.00  0.00    -0.268 OA
HETATM   11  N   UNL     1     -38.600 -51.397  14.470  1.00  0.00    -0.275 N 
HETATM   12  C   UNL     1     -39.691 -51.554  13.653  1.00  0.00     0.329 C 
HETATM   13  H   UNL     1     -38.199 -52.241  14.847  1.00  0.00     0.173 HD
HETATM   14  O   UNL     1     -40.165 -52.669  13.460  1.00  0.00    -0.246 OA
ENDBRANCH   5   6
ENDBRANCH   2   5
BRANCH   3  15
HETATM   15  C   UNL     1     -44.668 -51.786  13.201  1.00  0.00     0.176 C 
HETATM   16  C   UNL     1     -45.047 -51.227  14.572  1.00  0.00     0.035 C 
HETATM   17  C   UNL     1     -46.561 -51.234  14.787  1.00  0.00     0.004 C 
HETATM   18  C   UNL     1     -47.089 -52.527  15.394  1.00  0.00     0.020 C 
HETATM   19  C   UNL     1     -46.342 -53.783  14.979  1.00  0.00     0.122 C 
HETATM   20  N   UNL     1     -46.076 -53.887  13.560  1.00  0.00    -0.359 N 
HETATM   21  C   UNL     1     -45.007 -53.280  12.949  1.00  0.00     0.240 C 
HETATM   22  H   UNL     1     -46.184 -54.827  13.193  1.00  0.00     0.162 HD
HETATM   23  O   UNL     1     -44.394 -53.930  12.093  1.00  0.00    -0.271 OA
ENDBRANCH   3  15
TORSDOF 3
ENDMDL
MODEL 8
REMARK VINA RESULT:      -5.5      7.170      9.290
REMARK  3 active torsions:
REMARK  status: ('A' for Active; 'I' for Inactive)
REMARK    1  A    between atoms: C_2  and  C_3 
REMARK       I    between atoms: C_2  and  N_12 
REMARK    2  A    between atoms: C_3  and  N_4 
REMARK    3  A    between atoms: N_12  and  C_13 
ROOT
HETATM    1  O   UNL     1     -46.780 -54.958  14.823  1.00  0.00    -0.272 OA
HETATM    2  C   UNL     1     -45.896 -54.193  14.439  1.00  0.00     0.236 C 
HETATM    3  N   UNL     1     -45.639 -52.968  15.044  1.00  0.00    -0.346 N 
HETATM    4  H   UNL     1     -44.751 -52.516  14.848  1.00  0.00     0.163 HD
ENDROOT
BRANCH   2   5
HETATM    5  C   UNL     1     -44.899 -54.557  13.328  1.00  0.00     0.235 C 
BRANCH   5   6
HETATM    6  N   UNL     1     -43.513 -54.100  13.502  1.00  0.00    -0.301 N 
HETATM    7  C   UNL     1     -42.991 -53.130  12.666  1.00  0.00     0.102 C 
HETATM    8  C   UNL     1     -41.688 -52.837  12.654  1.00  0.00     0.092 C 
HETATM    9  C   UNL     1     -40.785 -53.575  13.554  1.00  0.00     0.250 C 
HETATM   10  O   UNL     1     -39.567 -53.462  13.467  1.00  0.00    -0.268 OA
HETATM   11  N   UNL     1     -41.397 -54.392  14.457  1.00  0.00    -0.275 N 
HETATM   12  C   UNL     1     -42.722 -54.748  14.445  1.00  0.00     0.329 C 
HETATM   13  H   UNL     1     -40.798 -54.919  15.072  1.00  0.00     0.173 HD
HETATM   14  O   UNL     1     -43.135 -55.624  15.198  1.00  0.00    -0.246 OA
ENDBRANCH   5   6
ENDBRANCH   2   5
BRANCH   3  15
HETATM   15  C   UNL     1     -46.314 -52.506  16.273  1.00  0.00     0.176 C 
HETATM   16  C   UNL     1     -47.331 -51.401  15.990  1.00  0.00     0.035 C 
HETATM   17  C   UNL     1     -48.161 -51.065  17.230  1.00  0.00     0.004 C 
HETATM   18  C   UNL     1     -47.542 -49.988  18.110  1.00  0.00     0.020 C 
HETATM   19  C   UNL     1     -46.023 -49.987  18.150  1.00  0.00     0.122 C 
HETATM   20  N   UNL     1     -45.421 -51.290  18.336  1.00  0.00    -0.359 N 
HETATM   21  C   UNL     1     -45.203 -52.171  17.306  1.00  0.00     0.240 C 
HETATM   22  H   UNL     1     -44.613 -51.282  18.949  1.00  0.00     0.162 HD
HETATM   23  O   UNL     1     -44.129 -52.785  17.298  1.00  0.00    -0.271 OA
ENDBRANCH   3  15
TORSDOF 3
ENDMDL
MODEL 9
REMARK VINA RESULT:      -5.5      6.399      8.235
REMARK  3 active torsions:
REMARK  status: ('A' for Active; 'I' for Inactive)
REMARK    1  A    between atoms: C_2  and  C_3 
REMARK       I    between atoms: C_2  and  N_12 
REMARK    2  A    between atoms: C_3  and  N_4 
REMARK    3  A    between atoms: N_12  and  C_13 
ROOT
HETATM    1  O   UNL     1     -45.514 -53.405  12.652  1.00  0.00    -0.272 OA
HETATM    2  C   UNL     1     -44.512 -53.258  13.350  1.00  0.00     0.236 C 
HETATM    3  N   UNL     1     -44.572 -52.940  14.703  1.00  0.00    -0.346 N 
HETATM    4  H   UNL     1     -43.739 -53.087  15.265  1.00  0.00     0.163 HD
ENDROOT
BRANCH   2   5
HETATM    5  C   UNL     1     -43.088 -53.529  12.840  1.00  0.00     0.235 C 
BRANCH   5   6
HETATM    6  N   UNL     1     -42.220 -52.360  12.642  1.00  0.00    -0.301 N 
HETATM    7  C   UNL     1     -42.760 -51.087  12.625  1.00  0.00     0.102 C 
HETATM    8  C   UNL     1     -42.048 -50.023  12.245  1.00  0.00     0.092 C 
HETATM    9  C   UNL     1     -40.649 -50.217  11.826  1.00  0.00     0.250 C 
HETATM   10  O   UNL     1     -40.006 -49.308  11.316  1.00  0.00    -0.268 OA
HETATM   11  N   UNL     1     -40.146 -51.468  12.026  1.00  0.00    -0.275 N 
HETATM   12  C   UNL     1     -40.876 -52.582  12.359  1.00  0.00     0.329 C 
HETATM   13  H   UNL     1     -39.196 -51.628  11.733  1.00  0.00     0.173 HD
HETATM   14  O   UNL     1     -40.354 -53.692  12.347  1.00  0.00    -0.246 OA
ENDBRANCH   5   6
ENDBRANCH   2   5
BRANCH   3  15
HETATM   15  C   UNL     1     -45.832 -52.858  15.469  1.00  0.00     0.176 C 
HETATM   16  C   UNL     1     -46.344 -51.423  15.580  1.00  0.00     0.035 C 
HETATM   17  C   UNL     1     -47.741 -51.368  16.201  1.00  0.00     0.004 C 
HETATM   18  C   UNL     1     -47.734 -51.267  17.721  1.00  0.00     0.020 C 
HETATM   19  C   UNL     1     -46.590 -51.995  18.407  1.00  0.00     0.122 C 
HETATM   20  N   UNL     1     -46.351 -53.338  17.924  1.00  0.00    -0.359 N 
HETATM   21  C   UNL     1     -45.604 -53.614  16.806  1.00  0.00     0.240 C 
HETATM   22  H   UNL     1     -46.116 -53.999  18.657  1.00  0.00     0.162 HD
HETATM   23  O   UNL     1     -44.822 -54.571  16.864  1.00  0.00    -0.271 OA
ENDBRANCH   3  15
TORSDOF 3
ENDMDL
