MODEL 1
REMARK VINA RESULT:      -5.4      0.000      0.000
REMARK  3 active torsions:
REMARK  status: ('A' for Active; 'I' for Inactive)
REMARK       I    between atoms: C_2  and  N_3 
REMARK    1  A    between atoms: C_2  and  C_7 
REMARK    2  A    between atoms: N_3  and  C_4 
REMARK    3  A    between atoms: C_13  and  N_14 
ROOT
HETATM    1  C   UNL     1     -44.146 -50.751  14.876  1.00  0.00     0.216 C 
HETATM    2  C   UNL     1     -45.614 -51.143  14.828  1.00  0.00    -0.098 C 
HETATM    3  C   UNL     1     -46.873 -51.478  14.787  1.00  0.00     0.014 C 
ENDROOT
BRANCH   1   4
HETATM    4  N   UNL     1     -43.697 -50.310  13.582  1.00  0.00    -0.346 N 
HETATM    5  C   UNL     1     -42.924 -49.164  13.504  1.00  0.00     0.256 C 
HETATM    6  O   UNL     1     -42.482 -48.623  14.510  1.00  0.00    -0.268 OA
HETATM    7  H   UNL     1     -44.150 -50.686  12.761  1.00  0.00     0.163 HD
BRANCH   5   8
HETATM    8  C   UNL     1     -42.689 -48.619  12.140  1.00  0.00     0.075 A 
HETATM    9  C   UNL     1     -43.648 -47.743  11.602  1.00  0.00     0.022 A 
HETATM   10  C   UNL     1     -43.512 -47.298  10.293  1.00  0.00     0.018 A 
HETATM   11  C   UNL     1     -42.433 -47.756   9.568  1.00  0.00     0.089 A 
HETATM   12  N   UNL     1     -41.501 -48.608  10.057  1.00  0.00    -0.352 N 
HETATM   13  C   UNL     1     -41.612 -49.040  11.339  1.00  0.00     0.119 A 
ATOM     14  HN  UNL     1     -40.726 -48.920   9.471  1.00  0.00     0.166 HD
BRANCH  13  15
HETATM   15  N   UNL     1     -40.653 -49.931  11.775  1.00  0.00    -0.362 N 
HETATM   16  C   UNL     1     -40.914 -51.370  11.720  1.00  0.00     0.150 C 
HETATM   17  C   UNL     1     -40.172 -52.004  12.912  1.00  0.00     0.187 C 
HETATM   18  O   UNL     1     -38.757 -51.734  12.856  1.00  0.00    -0.388 OA
HETATM   19  C   UNL     1     -38.519 -50.311  12.875  1.00  0.00     0.187 C 
HETATM   20  C   UNL     1     -39.225 -49.608  11.703  1.00  0.00     0.150 C 
ENDBRANCH  13  15
ENDBRANCH   5   8
ENDBRANCH   1   4
TORSDOF 3
ENDMDL
MODEL 2
REMARK VINA RESULT:      -5.2      4.029      6.607
REMARK  3 active torsions:
REMARK  status: ('A' for Active; 'I' for Inactive)
REMARK       I    between atoms: C_2  and  N_3 
REMARK    1  A    between atoms: C_2  and  C_7 
REMARK    2  A    between atoms: N_3  and  C_4 
REMARK    3  A    between atoms: C_13  and  N_14 
ROOT
HETATM    1  C   UNL     1     -42.424 -55.733  17.084  1.00  0.00     0.216 C 
HETATM    2  C   UNL     1     -41.198 -56.629  17.153  1.00  0.00    -0.098 C 
HETATM    3  C   UNL     1     -40.146 -57.398  17.213  1.00  0.00     0.014 C 
ENDROOT
BRANCH   1   4
HETATM    4  N   UNL     1     -42.253 -54.717  16.079  1.00  0.00    -0.346 N 
HETATM    5  C   UNL     1     -43.019 -54.789  14.927  1.00  0.00     0.256 C 
HETATM    6  O   UNL     1     -43.942 -55.587  14.824  1.00  0.00    -0.268 OA
HETATM    7  H   UNL     1     -41.426 -54.137  16.115  1.00  0.00     0.163 HD
BRANCH   5   8
HETATM    8  C   UNL     1     -42.639 -53.865  13.825  1.00  0.00     0.075 A 
HETATM    9  C   UNL     1     -41.383 -54.038  13.219  1.00  0.00     0.022 A 
HETATM   10  C   UNL     1     -40.954 -53.131  12.257  1.00  0.00     0.018 A 
HETATM   11  C   UNL     1     -41.790 -52.078  11.951  1.00  0.00     0.089 A 
HETATM   12  N   UNL     1     -42.999 -51.881  12.527  1.00  0.00    -0.352 N 
HETATM   13  C   UNL     1     -43.438 -52.767  13.456  1.00  0.00     0.119 A 
ATOM     14  HN  UNL     1     -43.572 -51.078  12.266  1.00  0.00     0.166 HD
BRANCH  13  15
HETATM   15  N   UNL     1     -44.662 -52.500  14.034  1.00  0.00    -0.362 N 
HETATM   16  C   UNL     1     -44.865 -51.255  14.776  1.00  0.00     0.150 C 
HETATM   17  C   UNL     1     -45.867 -51.565  15.903  1.00  0.00     0.187 C 
HETATM   18  O   UNL     1     -47.116 -52.061  15.378  1.00  0.00    -0.388 OA
HETATM   19  C   UNL     1     -46.893 -53.268  14.620  1.00  0.00     0.187 C 
HETATM   20  C   UNL     1     -45.904 -53.033  13.466  1.00  0.00     0.150 C 
ENDBRANCH  13  15
ENDBRANCH   5   8
ENDBRANCH   1   4
TORSDOF 3
ENDMDL
MODEL 3
REMARK VINA RESULT:      -5.1      1.789      4.654
REMARK  3 active torsions:
REMARK  status: ('A' for Active; 'I' for Inactive)
REMARK       I    between atoms: C_2  and  N_3 
REMARK    1  A    between atoms: C_2  and  C_7 
REMARK    2  A    between atoms: N_3  and  C_4 
REMARK    3  A    between atoms: C_13  and  N_14 
ROOT
HETATM    1  C   UNL     1     -42.888 -48.349  12.029  1.00  0.00     0.216 C 
HETATM    2  C   UNL     1     -43.231 -47.647  10.724  1.00  0.00    -0.098 C 
HETATM    3  C   UNL     1     -43.524 -47.044   9.606  1.00  0.00     0.014 C 
ENDROOT
BRANCH   1   4
HETATM    4  N   UNL     1     -43.734 -49.497  12.222  1.00  0.00    -0.346 N 
HETATM    5  C   UNL     1     -43.803 -50.064  13.484  1.00  0.00     0.256 C 
HETATM    6  O   UNL     1     -43.302 -49.516  14.458  1.00  0.00    -0.268 OA
HETATM    7  H   UNL     1     -44.051 -50.006  11.409  1.00  0.00     0.163 HD
BRANCH   5   8
HETATM    8  C   UNL     1     -44.494 -51.378  13.579  1.00  0.00     0.075 A 
HETATM    9  C   UNL     1     -45.880 -51.383  13.809  1.00  0.00     0.022 A 
HETATM   10  C   UNL     1     -46.539 -52.591  14.005  1.00  0.00     0.018 A 
HETATM   11  C   UNL     1     -45.785 -53.745  13.979  1.00  0.00     0.089 A 
HETATM   12  N   UNL     1     -44.447 -53.769  13.770  1.00  0.00    -0.352 N 
HETATM   13  C   UNL     1     -43.793 -52.598  13.562  1.00  0.00     0.119 A 
ATOM     14  HN  UNL     1     -43.939 -54.653  13.769  1.00  0.00     0.166 HD
BRANCH  13  15
HETATM   15  N   UNL     1     -42.426 -52.678  13.386  1.00  0.00    -0.362 N 
HETATM   16  C   UNL     1     -41.621 -53.510  14.282  1.00  0.00     0.150 C 
HETATM   17  C   UNL     1     -40.250 -52.823  14.417  1.00  0.00     0.187 C 
HETATM   18  O   UNL     1     -39.606 -52.674  13.136  1.00  0.00    -0.388 OA
HETATM   19  C   UNL     1     -40.428 -51.880  12.254  1.00  0.00     0.187 C 
HETATM   20  C   UNL     1     -41.818 -52.511  12.063  1.00  0.00     0.150 C 
ENDBRANCH  13  15
ENDBRANCH   5   8
ENDBRANCH   1   4
TORSDOF 3
ENDMDL
MODEL 4
REMARK VINA RESULT:      -5.0      2.294      2.896
REMARK  3 active torsions:
REMARK  status: ('A' for Active; 'I' for Inactive)
REMARK       I    between atoms: C_2  and  N_3 
REMARK    1  A    between atoms: C_2  and  C_7 
REMARK    2  A    between atoms: N_3  and  C_4 
REMARK    3  A    between atoms: C_13  and  N_14 
ROOT
HETATM    1  C   UNL     1     -42.407 -52.490  12.312  1.00  0.00     0.216 C 
HETATM    2  C   UNL     1     -41.294 -53.358  12.878  1.00  0.00    -0.098 C 
HETATM    3  C   UNL     1     -40.341 -54.104  13.362  1.00  0.00     0.014 C 
ENDROOT
BRANCH   1   4
HETATM    4  N   UNL     1     -41.876 -51.247  11.816  1.00  0.00    -0.346 N 
HETATM    5  C   UNL     1     -42.088 -50.095  12.553  1.00  0.00     0.256 C 
HETATM    6  O   UNL     1     -42.562 -50.137  13.681  1.00  0.00    -0.268 OA
HETATM    7  H   UNL     1     -41.590 -51.197  10.848  1.00  0.00     0.163 HD
BRANCH   5   8
HETATM    8  C   UNL     1     -41.734 -48.812  11.887  1.00  0.00     0.075 A 
HETATM    9  C   UNL     1     -42.739 -48.135  11.176  1.00  0.00     0.022 A 
HETATM   10  C   UNL     1     -42.418 -46.990  10.458  1.00  0.00     0.018 A 
HETATM   11  C   UNL     1     -41.103 -46.575  10.466  1.00  0.00     0.089 A 
HETATM   12  N   UNL     1     -40.113 -47.213  11.134  1.00  0.00    -0.352 N 
HETATM   13  C   UNL     1     -40.414 -48.324  11.852  1.00  0.00     0.119 A 
ATOM     14  HN  UNL     1     -39.155 -46.864  11.098  1.00  0.00     0.166 HD
BRANCH  13  15
HETATM   15  N   UNL     1     -39.362 -48.953  12.486  1.00  0.00    -0.362 N 
HETATM   16  C   UNL     1     -38.434 -49.782  11.715  1.00  0.00     0.150 C 
HETATM   17  C   UNL     1     -37.966 -50.914  12.648  1.00  0.00     0.187 C 
HETATM   18  O   UNL     1     -37.330 -50.393  13.832  1.00  0.00    -0.388 OA
HETATM   19  C   UNL     1     -38.247 -49.551  14.561  1.00  0.00     0.187 C 
HETATM   20  C   UNL     1     -38.752 -48.387  13.692  1.00  0.00     0.150 C 
ENDBRANCH  13  15
ENDBRANCH   5   8
ENDBRANCH   1   4
TORSDOF 3
ENDMDL
MODEL 5
REMARK VINA RESULT:      -4.9      3.149      6.971
REMARK  3 active torsions:
REMARK  status: ('A' for Active; 'I' for Inactive)
REMARK       I    between atoms: C_2  and  N_3 
REMARK    1  A    between atoms: C_2  and  C_7 
REMARK    2  A    between atoms: N_3  and  C_4 
REMARK    3  A    between atoms: C_13  and  N_14 
ROOT
HETATM    1  C   UNL     1     -39.902 -50.408  12.463  1.00  0.00     0.216 C 
HETATM    2  C   UNL     1     -38.551 -50.175  11.804  1.00  0.00    -0.098 C 
HETATM    3  C   UNL     1     -37.394 -49.975  11.239  1.00  0.00     0.014 C 
ENDROOT
BRANCH   1   4
HETATM    4  N   UNL     1     -39.804 -51.432  13.470  1.00  0.00    -0.346 N 
HETATM    5  C   UNL     1     -40.222 -52.714  13.153  1.00  0.00     0.256 C 
HETATM    6  O   UNL     1     -40.509 -53.026  12.004  1.00  0.00    -0.268 OA
HETATM    7  H   UNL     1     -39.677 -51.153  14.432  1.00  0.00     0.163 HD
BRANCH   5   8
HETATM    8  C   UNL     1     -40.326 -53.672  14.287  1.00  0.00     0.075 A 
HETATM    9  C   UNL     1     -39.155 -54.320  14.716  1.00  0.00     0.022 A 
HETATM   10  C   UNL     1     -39.234 -55.296  15.702  1.00  0.00     0.018 A 
HETATM   11  C   UNL     1     -40.480 -55.596  16.210  1.00  0.00     0.089 A 
HETATM   12  N   UNL     1     -41.625 -54.996  15.807  1.00  0.00    -0.352 N 
HETATM   13  C   UNL     1     -41.562 -54.031  14.855  1.00  0.00     0.119 A 
ATOM     14  HN  UNL     1     -42.521 -55.265  16.213  1.00  0.00     0.166 HD
BRANCH  13  15
HETATM   15  N   UNL     1     -42.762 -53.475  14.460  1.00  0.00    -0.362 N 
HETATM   16  C   UNL     1     -43.694 -54.254  13.643  1.00  0.00     0.150 C 
HETATM   17  C   UNL     1     -44.427 -53.256  12.728  1.00  0.00     0.187 C 
HETATM   18  O   UNL     1     -45.126 -52.254  13.493  1.00  0.00    -0.388 OA
HETATM   19  C   UNL     1     -44.198 -51.519  14.318  1.00  0.00     0.187 C 
HETATM   20  C   UNL     1     -43.431 -52.453  15.269  1.00  0.00     0.150 C 
ENDBRANCH  13  15
ENDBRANCH   5   8
ENDBRANCH   1   4
TORSDOF 3
ENDMDL
MODEL 6
REMARK VINA RESULT:      -4.9      3.025      4.354
REMARK  3 active torsions:
REMARK  status: ('A' for Active; 'I' for Inactive)
REMARK       I    between atoms: C_2  and  N_3 
REMARK    1  A    between atoms: C_2  and  C_7 
REMARK    2  A    between atoms: N_3  and  C_4 
REMARK    3  A    between atoms: C_13  and  N_14 
ROOT
HETATM    1  C   UNL     1     -41.808 -49.068  15.782  1.00  0.00     0.216 C 
HETATM    2  C   UNL     1     -40.574 -48.736  14.958  1.00  0.00    -0.098 C 
HETATM    3  C   UNL     1     -39.516 -48.452  14.251  1.00  0.00     0.014 C 
ENDROOT
BRANCH   1   4
HETATM    4  N   UNL     1     -42.864 -49.560  14.938  1.00  0.00    -0.346 N 
HETATM    5  C   UNL     1     -43.402 -50.807  15.209  1.00  0.00     0.256 C 
HETATM    6  O   UNL     1     -43.121 -51.414  16.235  1.00  0.00    -0.268 OA
HETATM    7  H   UNL     1     -43.012 -49.117  14.042  1.00  0.00     0.163 HD
BRANCH   5   8
HETATM    8  C   UNL     1     -44.313 -51.370  14.177  1.00  0.00     0.075 A 
HETATM    9  C   UNL     1     -45.691 -51.129  14.307  1.00  0.00     0.022 A 
HETATM   10  C   UNL     1     -46.579 -51.726  13.419  1.00  0.00     0.018 A 
HETATM   11  C   UNL     1     -46.055 -52.551  12.446  1.00  0.00     0.089 A 
HETATM   12  N   UNL     1     -44.734 -52.809  12.305  1.00  0.00    -0.352 N 
HETATM   13  C   UNL     1     -43.854 -52.222  13.155  1.00  0.00     0.119 A 
ATOM     14  HN  UNL     1     -44.404 -53.436  11.570  1.00  0.00     0.166 HD
BRANCH  13  15
HETATM   15  N   UNL     1     -42.523 -52.546  12.986  1.00  0.00    -0.362 N 
HETATM   16  C   UNL     1     -42.081 -53.931  13.145  1.00  0.00     0.150 C 
HETATM   17  C   UNL     1     -40.649 -53.882  13.708  1.00  0.00     0.187 C 
HETATM   18  O   UNL     1     -39.763 -53.157  12.831  1.00  0.00    -0.388 OA
HETATM   19  C   UNL     1     -40.232 -51.803  12.657  1.00  0.00     0.187 C 
HETATM   20  C   UNL     1     -41.660 -51.772  12.088  1.00  0.00     0.150 C 
ENDBRANCH  13  15
ENDBRANCH   5   8
ENDBRANCH   1   4
TORSDOF 3
ENDMDL
MODEL 7
REMARK VINA RESULT:      -4.9      3.152      4.837
REMARK  3 active torsions:
REMARK  status: ('A' for Active; 'I' for Inactive)
REMARK       I    between atoms: C_2  and  N_3 
REMARK    1  A    between atoms: C_2  and  C_7 
REMARK    2  A    between atoms: N_3  and  C_4 
REMARK    3  A    between atoms: C_13  and  N_14 
ROOT
HETATM    1  C   UNL     1     -43.246 -54.549  17.509  1.00  0.00     0.216 C 
HETATM    2  C   UNL     1     -42.241 -55.641  17.177  1.00  0.00    -0.098 C 
HETATM    3  C   UNL     1     -41.380 -56.577  16.893  1.00  0.00     0.014 C 
ENDROOT
BRANCH   1   4
HETATM    4  N   UNL     1     -43.865 -54.049  16.310  1.00  0.00    -0.346 N 
HETATM    5  C   UNL     1     -43.740 -52.703  16.012  1.00  0.00     0.256 C 
HETATM    6  O   UNL     1     -42.986 -51.976  16.646  1.00  0.00    -0.268 OA
HETATM    7  H   UNL     1     -44.569 -54.616  15.858  1.00  0.00     0.163 HD
BRANCH   5   8
HETATM    8  C   UNL     1     -44.590 -52.192  14.902  1.00  0.00     0.075 A 
HETATM    9  C   UNL     1     -45.921 -51.848  15.192  1.00  0.00     0.022 A 
HETATM   10  C   UNL     1     -46.771 -51.466  14.161  1.00  0.00     0.018 A 
HETATM   11  C   UNL     1     -46.261 -51.458  12.879  1.00  0.00     0.089 A 
HETATM   12  N   UNL     1     -44.987 -51.794  12.571  1.00  0.00    -0.352 N 
HETATM   13  C   UNL     1     -44.141 -52.155  13.569  1.00  0.00     0.119 A 
ATOM     14  HN  UNL     1     -44.667 -51.777  11.602  1.00  0.00     0.166 HD
BRANCH  13  15
HETATM   15  N   UNL     1     -42.864 -52.520  13.194  1.00  0.00    -0.362 N 
HETATM   16  C   UNL     1     -42.539 -53.931  12.980  1.00  0.00     0.150 C 
HETATM   17  C   UNL     1     -41.067 -54.118  13.389  1.00  0.00     0.187 C 
HETATM   18  O   UNL     1     -40.194 -53.266  12.620  1.00  0.00    -0.388 OA
HETATM   19  C   UNL     1     -40.549 -51.881  12.816  1.00  0.00     0.187 C 
HETATM   20  C   UNL     1     -42.011 -51.615  12.418  1.00  0.00     0.150 C 
ENDBRANCH  13  15
ENDBRANCH   5   8
ENDBRANCH   1   4
TORSDOF 3
ENDMDL
MODEL 8
REMARK VINA RESULT:      -4.9      3.013      5.318
REMARK  3 active torsions:
REMARK  status: ('A' for Active; 'I' for Inactive)
REMARK       I    between atoms: C_2  and  N_3 
REMARK    1  A    between atoms: C_2  and  C_7 
REMARK    2  A    between atoms: N_3  and  C_4 
REMARK    3  A    between atoms: C_13  and  N_14 
ROOT
HETATM    1  C   UNL     1     -40.447 -49.793  11.851  1.00  0.00     0.216 C 
HETATM    2  C   UNL     1     -38.943 -49.767  11.625  1.00  0.00    -0.098 C 
HETATM    3  C   UNL     1     -37.654 -49.745  11.431  1.00  0.00     0.014 C 
ENDROOT
BRANCH   1   4
HETATM    4  N   UNL     1     -41.086 -48.725  11.131  1.00  0.00    -0.346 N 
HETATM    5  C   UNL     1     -42.198 -48.120  11.692  1.00  0.00     0.256 C 
HETATM    6  O   UNL     1     -42.540 -48.356  12.843  1.00  0.00    -0.268 OA
HETATM    7  H   UNL     1     -40.875 -48.611  10.149  1.00  0.00     0.163 HD
BRANCH   5   8
HETATM    8  C   UNL     1     -42.960 -47.194  10.810  1.00  0.00     0.075 A 
HETATM    9  C   UNL     1     -43.854 -47.751   9.880  1.00  0.00     0.022 A 
HETATM   10  C   UNL     1     -44.504 -46.923   8.973  1.00  0.00     0.018 A 
HETATM   11  C   UNL     1     -44.223 -45.574   9.020  1.00  0.00     0.089 A 
HETATM   12  N   UNL     1     -43.359 -45.012   9.897  1.00  0.00    -0.352 N 
HETATM   13  C   UNL     1     -42.728 -45.806  10.799  1.00  0.00     0.119 A 
ATOM     14  HN  UNL     1     -43.183 -44.008   9.880  1.00  0.00     0.166 HD
BRANCH  13  15
HETATM   15  N   UNL     1     -41.833 -45.186  11.647  1.00  0.00    -0.362 N 
HETATM   16  C   UNL     1     -40.576 -44.652  11.121  1.00  0.00     0.150 C 
HETATM   17  C   UNL     1     -39.526 -44.799  12.237  1.00  0.00     0.187 C 
HETATM   18  O   UNL     1     -39.924 -44.096  13.432  1.00  0.00    -0.388 OA
HETATM   19  C   UNL     1     -41.182 -44.611  13.918  1.00  0.00     0.187 C 
HETATM   20  C   UNL     1     -42.286 -44.490  12.854  1.00  0.00     0.150 C 
ENDBRANCH  13  15
ENDBRANCH   5   8
ENDBRANCH   1   4
TORSDOF 3
ENDMDL
MODEL 9
REMARK VINA RESULT:      -4.9      4.483      6.169
REMARK  3 active torsions:
REMARK  status: ('A' for Active; 'I' for Inactive)
REMARK       I    between atoms: C_2  and  N_3 
REMARK    1  A    between atoms: C_2  and  C_7 
REMARK    2  A    between atoms: N_3  and  C_4 
REMARK    3  A    between atoms: C_13  and  N_14 
ROOT
HETATM    1  C   UNL     1     -45.745 -52.062  12.610  1.00  0.00     0.216 C 
HETATM    2  C   UNL     1     -46.500 -51.686  13.875  1.00  0.00    -0.098 C 
HETATM    3  C   UNL     1     -47.148 -51.365  14.960  1.00  0.00     0.014 C 
ENDROOT
BRANCH   1   4
HETATM    4  N   UNL     1     -44.352 -52.280  12.898  1.00  0.00    -0.346 N 
HETATM    5  C   UNL     1     -43.930 -53.566  13.188  1.00  0.00     0.256 C 
HETATM    6  O   UNL     1     -44.671 -54.530  13.042  1.00  0.00    -0.268 OA
HETATM    7  H   UNL     1     -43.776 -51.482  13.125  1.00  0.00     0.163 HD
BRANCH   5   8
HETATM    8  C   UNL     1     -42.542 -53.702  13.710  1.00  0.00     0.075 A 
HETATM    9  C   UNL     1     -41.527 -54.056  12.805  1.00  0.00     0.022 A 
HETATM   10  C   UNL     1     -40.241 -54.292  13.276  1.00  0.00     0.018 A 
HETATM   11  C   UNL     1     -40.024 -54.180  14.633  1.00  0.00     0.089 A 
HETATM   12  N   UNL     1     -40.985 -53.851  15.528  1.00  0.00    -0.352 N 
HETATM   13  C   UNL     1     -42.243 -53.603  15.081  1.00  0.00     0.119 A 
ATOM     14  HN  UNL     1     -40.768 -53.791  16.522  1.00  0.00     0.166 HD
BRANCH  13  15
HETATM   15  N   UNL     1     -43.190 -53.305  16.039  1.00  0.00    -0.362 N 
HETATM   16  C   UNL     1     -43.931 -54.383  16.695  1.00  0.00     0.150 C 
HETATM   17  C   UNL     1     -45.334 -53.833  17.010  1.00  0.00     0.187 C 
HETATM   18  O   UNL     1     -45.266 -52.666  17.855  1.00  0.00    -0.388 OA
HETATM   19  C   UNL     1     -44.504 -51.626  17.207  1.00  0.00     0.187 C 
HETATM   20  C   UNL     1     -43.081 -52.102  16.868  1.00  0.00     0.150 C 
ENDBRANCH  13  15
ENDBRANCH   5   8
ENDBRANCH   1   4
TORSDOF 3
ENDMDL
