MODEL 1
REMARK VINA RESULT:      -5.8      0.000      0.000
REMARK  2 active torsions:
REMARK  status: ('A' for Active; 'I' for Inactive)
REMARK       I    between atoms: N_2  and  C_3 
REMARK       I    between atoms: C_3  and  N_5 
REMARK    1  A    between atoms: N_5  and  C_6 
REMARK    2  A    between atoms: C_9  and  N_13 
ROOT
HETATM    1  C   UNL     1     -41.428 -52.203  12.147  1.00  0.00     0.051 A 
HETATM    2  C   UNL     1     -41.016 -53.476  12.515  1.00  0.00     0.035 A 
HETATM    3  C   UNL     1     -41.860 -54.268  13.290  1.00  0.00     0.051 A 
HETATM    4  C   UNL     1     -43.136 -53.823  13.652  1.00  0.00     0.103 A 
HETATM    5  N   UNL     1     -43.546 -52.594  13.263  1.00  0.00    -0.350 N 
ATOM      6  HN  UNL     1     -44.481 -52.262  13.498  1.00  0.00     0.166 HD
HETATM    7  C   UNL     1     -42.693 -51.810  12.554  1.00  0.00     0.119 A 
ENDROOT
BRANCH   1   8
HETATM    8  N   UNL     1     -40.547 -51.397  11.403  1.00  0.00    -0.308 N 
HETATM    9  C   UNL     1     -39.414 -50.827  11.949  1.00  0.00     0.320 C 
HETATM   10  N   UNL     1     -38.738 -50.102  10.992  1.00  0.00    -0.347 N 
HETATM   11  O   UNL     1     -39.011 -50.988  13.090  1.00  0.00    -0.247 OA
HETATM   12  C   UNL     1     -37.435 -49.560  11.294  1.00  0.00     0.151 C 
HETATM   13  H   UNL     1     -39.335 -49.550  10.391  1.00  0.00     0.163 HD
HETATM   14  H   UNL     1     -40.439 -51.622  10.425  1.00  0.00     0.170 HD
ENDBRANCH   1   8
BRANCH   4  15
HETATM   15  N   UNL     1     -43.963 -54.587  14.449  1.00  0.00    -0.363 N 
HETATM   16  C   UNL     1     -45.286 -55.049  14.011  1.00  0.00     0.150 C 
HETATM   17  C   UNL     1     -46.397 -54.362  14.822  1.00  0.00     0.187 C 
HETATM   18  O   UNL     1     -46.202 -54.519  16.235  1.00  0.00    -0.388 OA
HETATM   19  C   UNL     1     -44.946 -53.931  16.624  1.00  0.00     0.187 C 
HETATM   20  C   UNL     1     -43.765 -54.598  15.906  1.00  0.00     0.150 C 
ENDBRANCH   4  15
TORSDOF 2
ENDMDL
MODEL 2
REMARK VINA RESULT:      -5.5      1.191      2.143
REMARK  2 active torsions:
REMARK  status: ('A' for Active; 'I' for Inactive)
REMARK       I    between atoms: N_2  and  C_3 
REMARK       I    between atoms: C_3  and  N_5 
REMARK    1  A    between atoms: N_5  and  C_6 
REMARK    2  A    between atoms: C_9  and  N_13 
ROOT
HETATM    1  C   UNL     1     -41.832 -51.057  12.112  1.00  0.00     0.051 A 
HETATM    2  C   UNL     1     -42.609 -50.134  12.795  1.00  0.00     0.035 A 
HETATM    3  C   UNL     1     -43.693 -50.579  13.548  1.00  0.00     0.051 A 
HETATM    4  C   UNL     1     -43.973 -51.944  13.673  1.00  0.00     0.103 A 
HETATM    5  N   UNL     1     -43.192 -52.843  13.031  1.00  0.00    -0.350 N 
ATOM      6  HN  UNL     1     -43.368 -53.843  13.129  1.00  0.00     0.166 HD
HETATM    7  C   UNL     1     -42.172 -52.394  12.256  1.00  0.00     0.119 A 
ENDROOT
BRANCH   1   8
HETATM    8  N   UNL     1     -40.767 -50.590  11.319  1.00  0.00    -0.308 N 
HETATM    9  C   UNL     1     -39.480 -50.458  11.800  1.00  0.00     0.320 C 
HETATM   10  N   UNL     1     -38.647 -49.991  10.806  1.00  0.00    -0.347 N 
HETATM   11  O   UNL     1     -39.097 -50.772  12.916  1.00  0.00    -0.247 OA
HETATM   12  C   UNL     1     -37.223 -49.938  11.034  1.00  0.00     0.151 C 
HETATM   13  H   UNL     1     -39.047 -49.255  10.241  1.00  0.00     0.163 HD
HETATM   14  H   UNL     1     -40.797 -50.818  10.336  1.00  0.00     0.170 HD
ENDBRANCH   1   8
BRANCH   4  15
HETATM   15  N   UNL     1     -45.065 -52.390  14.387  1.00  0.00    -0.363 N 
HETATM   16  C   UNL     1     -45.110 -52.392  15.855  1.00  0.00     0.150 C 
HETATM   17  C   UNL     1     -45.122 -53.832  16.395  1.00  0.00     0.187 C 
HETATM   18  O   UNL     1     -46.176 -54.612  15.814  1.00  0.00    -0.388 OA
HETATM   19  C   UNL     1     -46.003 -54.681  14.385  1.00  0.00     0.187 C 
HETATM   20  C   UNL     1     -46.040 -53.286  13.746  1.00  0.00     0.150 C 
ENDBRANCH   4  15
TORSDOF 2
ENDMDL
MODEL 3
REMARK VINA RESULT:      -5.3      3.077      4.416
REMARK  2 active torsions:
REMARK  status: ('A' for Active; 'I' for Inactive)
REMARK       I    between atoms: N_2  and  C_3 
REMARK       I    between atoms: C_3  and  N_5 
REMARK    1  A    between atoms: N_5  and  C_6 
REMARK    2  A    between atoms: C_9  and  N_13 
ROOT
HETATM    1  C   UNL     1     -41.215 -48.935  11.137  1.00  0.00     0.051 A 
HETATM    2  C   UNL     1     -42.301 -49.113  11.980  1.00  0.00     0.035 A 
HETATM    3  C   UNL     1     -42.466 -50.332  12.633  1.00  0.00     0.051 A 
HETATM    4  C   UNL     1     -41.523 -51.356  12.497  1.00  0.00     0.103 A 
HETATM    5  N   UNL     1     -40.447 -51.167  11.699  1.00  0.00    -0.350 N 
ATOM      6  HN  UNL     1     -39.738 -51.894  11.605  1.00  0.00     0.166 HD
HETATM    7  C   UNL     1     -40.326 -49.994  11.025  1.00  0.00     0.119 A 
ENDROOT
BRANCH   1   8
HETATM    8  N   UNL     1     -41.085 -47.714  10.450  1.00  0.00    -0.308 N 
HETATM    9  C   UNL     1     -40.400 -46.634  10.968  1.00  0.00     0.320 C 
HETATM   10  N   UNL     1     -40.427 -45.582  10.078  1.00  0.00    -0.347 N 
HETATM   11  O   UNL     1     -39.790 -46.615  12.026  1.00  0.00    -0.247 OA
HETATM   12  C   UNL     1     -39.630 -44.407  10.337  1.00  0.00     0.151 C 
HETATM   13  H   UNL     1     -41.323 -45.438   9.633  1.00  0.00     0.163 HD
HETATM   14  H   UNL     1     -41.038 -47.761   9.442  1.00  0.00     0.170 HD
ENDBRANCH   1   8
BRANCH   4  15
HETATM   15  N   UNL     1     -41.697 -52.579  13.111  1.00  0.00    -0.363 N 
HETATM   16  C   UNL     1     -42.384 -52.732  14.399  1.00  0.00     0.150 C 
HETATM   17  C   UNL     1     -41.397 -53.176  15.491  1.00  0.00     0.187 C 
HETATM   18  O   UNL     1     -40.676 -54.357  15.112  1.00  0.00    -0.388 OA
HETATM   19  C   UNL     1     -39.919 -54.104  13.913  1.00  0.00     0.187 C 
HETATM   20  C   UNL     1     -40.832 -53.711  12.744  1.00  0.00     0.150 C 
ENDBRANCH   4  15
TORSDOF 2
ENDMDL
MODEL 4
REMARK VINA RESULT:      -5.3      4.889      8.314
REMARK  2 active torsions:
REMARK  status: ('A' for Active; 'I' for Inactive)
REMARK       I    between atoms: N_2  and  C_3 
REMARK       I    between atoms: C_3  and  N_5 
REMARK    1  A    between atoms: N_5  and  C_6 
REMARK    2  A    between atoms: C_9  and  N_13 
ROOT
HETATM    1  C   UNL     1     -40.817 -49.100  10.968  1.00  0.00     0.051 A 
HETATM    2  C   UNL     1     -39.906 -48.337  11.684  1.00  0.00     0.035 A 
HETATM    3  C   UNL     1     -40.000 -46.948  11.645  1.00  0.00     0.051 A 
HETATM    4  C   UNL     1     -41.032 -46.314  10.945  1.00  0.00     0.103 A 
HETATM    5  N   UNL     1     -41.937 -47.063  10.274  1.00  0.00    -0.350 N 
ATOM      6  HN  UNL     1     -42.709 -46.619   9.777  1.00  0.00     0.166 HD
HETATM    7  C   UNL     1     -41.803 -48.415  10.275  1.00  0.00     0.119 A 
ENDROOT
BRANCH   1   8
HETATM    8  N   UNL     1     -40.683 -50.500  10.980  1.00  0.00    -0.308 N 
HETATM    9  C   UNL     1     -41.156 -51.287  12.012  1.00  0.00     0.320 C 
HETATM   10  N   UNL     1     -40.896 -52.616  11.754  1.00  0.00    -0.347 N 
HETATM   11  O   UNL     1     -41.781 -50.893  12.984  1.00  0.00    -0.247 OA
HETATM   12  C   UNL     1     -41.453 -53.632  12.614  1.00  0.00     0.151 C 
HETATM   13  H   UNL     1     -39.977 -52.792  11.372  1.00  0.00     0.163 HD
HETATM   14  H   UNL     1     -40.710 -50.969  10.087  1.00  0.00     0.170 HD
ENDBRANCH   1   8
BRANCH   4  15
HETATM   15  N   UNL     1     -41.110 -44.940  10.871  1.00  0.00    -0.363 N 
HETATM   16  C   UNL     1     -39.949 -44.063  11.074  1.00  0.00     0.150 C 
HETATM   17  C   UNL     1     -40.105 -43.247  12.368  1.00  0.00     0.187 C 
HETATM   18  O   UNL     1     -41.346 -42.527  12.399  1.00  0.00    -0.388 OA
HETATM   19  C   UNL     1     -42.449 -43.450  12.327  1.00  0.00     0.187 C 
HETATM   20  C   UNL     1     -42.412 -44.272  11.032  1.00  0.00     0.150 C 
ENDBRANCH   4  15
TORSDOF 2
ENDMDL
MODEL 5
REMARK VINA RESULT:      -5.3      3.137      3.976
REMARK  2 active torsions:
REMARK  status: ('A' for Active; 'I' for Inactive)
REMARK       I    between atoms: N_2  and  C_3 
REMARK       I    between atoms: C_3  and  N_5 
REMARK    1  A    between atoms: N_5  and  C_6 
REMARK    2  A    between atoms: C_9  and  N_13 
ROOT
HETATM    1  C   UNL     1     -41.594 -48.716  11.150  1.00  0.00     0.051 A 
HETATM    2  C   UNL     1     -40.758 -49.797  11.387  1.00  0.00     0.035 A 
HETATM    3  C   UNL     1     -41.195 -50.828  12.215  1.00  0.00     0.051 A 
HETATM    4  C   UNL     1     -42.483 -50.819  12.761  1.00  0.00     0.103 A 
HETATM    5  N   UNL     1     -43.307 -49.778  12.501  1.00  0.00    -0.350 N 
ATOM      6  HN  UNL     1     -44.256 -49.764  12.872  1.00  0.00     0.166 HD
HETATM    7  C   UNL     1     -42.849 -48.752  11.737  1.00  0.00     0.119 A 
ENDROOT
BRANCH   1   8
HETATM    8  N   UNL     1     -41.122 -47.660  10.348  1.00  0.00    -0.308 N 
HETATM    9  C   UNL     1     -40.544 -46.522  10.876  1.00  0.00     0.320 C 
HETATM   10  N   UNL     1     -40.168 -45.667   9.863  1.00  0.00    -0.347 N 
HETATM   11  O   UNL     1     -40.321 -46.316  12.058  1.00  0.00    -0.247 OA
HETATM   12  C   UNL     1     -39.389 -44.492  10.173  1.00  0.00     0.151 C 
HETATM   13  H   UNL     1     -40.846 -45.583   9.118  1.00  0.00     0.163 HD
HETATM   14  H   UNL     1     -40.747 -47.906   9.444  1.00  0.00     0.170 HD
ENDBRANCH   1   8
BRANCH   4  15
HETATM   15  N   UNL     1     -42.909 -51.817  13.610  1.00  0.00    -0.363 N 
HETATM   16  C   UNL     1     -41.983 -52.705  14.325  1.00  0.00     0.150 C 
HETATM   17  C   UNL     1     -42.097 -54.145  13.798  1.00  0.00     0.187 C 
HETATM   18  O   UNL     1     -43.449 -54.623  13.835  1.00  0.00    -0.388 OA
HETATM   19  C   UNL     1     -44.285 -53.787  13.011  1.00  0.00     0.187 C 
HETATM   20  C   UNL     1     -44.283 -52.332  13.501  1.00  0.00     0.150 C 
ENDBRANCH   4  15
TORSDOF 2
ENDMDL
MODEL 6
REMARK VINA RESULT:      -5.2      3.927      6.620
REMARK  2 active torsions:
REMARK  status: ('A' for Active; 'I' for Inactive)
REMARK       I    between atoms: N_2  and  C_3 
REMARK       I    between atoms: C_3  and  N_5 
REMARK    1  A    between atoms: N_5  and  C_6 
REMARK    2  A    between atoms: C_9  and  N_13 
ROOT
HETATM    1  C   UNL     1     -41.231 -51.393  12.188  1.00  0.00     0.051 A 
HETATM    2  C   UNL     1     -40.442 -50.454  11.540  1.00  0.00     0.035 A 
HETATM    3  C   UNL     1     -40.971 -49.198  11.255  1.00  0.00     0.051 A 
HETATM    4  C   UNL     1     -42.262 -48.849  11.664  1.00  0.00     0.103 A 
HETATM    5  N   UNL     1     -43.017 -49.756  12.325  1.00  0.00    -0.350 N 
ATOM      6  HN  UNL     1     -43.953 -49.513  12.650  1.00  0.00     0.166 HD
HETATM    7  C   UNL     1     -42.510 -50.997  12.548  1.00  0.00     0.119 A 
ENDROOT
BRANCH   1   8
HETATM    8  N   UNL     1     -40.699 -52.673  12.429  1.00  0.00    -0.308 N 
HETATM    9  C   UNL     1     -40.038 -52.999  13.596  1.00  0.00     0.320 C 
HETATM   10  N   UNL     1     -39.636 -54.317  13.563  1.00  0.00    -0.347 N 
HETATM   11  O   UNL     1     -39.885 -52.266  14.560  1.00  0.00    -0.247 OA
HETATM   12  C   UNL     1     -39.077 -54.923  14.746  1.00  0.00     0.151 C 
HETATM   13  H   UNL     1     -39.256 -54.612  12.674  1.00  0.00     0.163 HD
HETATM   14  H   UNL     1     -41.195 -53.456  12.028  1.00  0.00     0.170 HD
ENDBRANCH   1   8
BRANCH   4  15
HETATM   15  N   UNL     1     -42.806 -47.620  11.354  1.00  0.00    -0.363 N 
HETATM   16  C   UNL     1     -43.843 -47.444  10.330  1.00  0.00     0.150 C 
HETATM   17  C   UNL     1     -43.293 -46.657   9.130  1.00  0.00     0.187 C 
HETATM   18  O   UNL     1     -42.704 -45.412   9.532  1.00  0.00    -0.388 OA
HETATM   19  C   UNL     1     -41.609 -45.658  10.434  1.00  0.00     0.187 C 
HETATM   20  C   UNL     1     -42.076 -46.390  11.700  1.00  0.00     0.150 C 
ENDBRANCH   4  15
TORSDOF 2
ENDMDL
MODEL 7
REMARK VINA RESULT:      -5.2      3.384      7.496
REMARK  2 active torsions:
REMARK  status: ('A' for Active; 'I' for Inactive)
REMARK       I    between atoms: N_2  and  C_3 
REMARK       I    between atoms: C_3  and  N_5 
REMARK    1  A    between atoms: N_5  and  C_6 
REMARK    2  A    between atoms: C_9  and  N_13 
ROOT
HETATM    1  C   UNL     1     -42.931 -51.340  13.055  1.00  0.00     0.051 A 
HETATM    2  C   UNL     1     -43.545 -50.102  13.176  1.00  0.00     0.035 A 
HETATM    3  C   UNL     1     -43.019 -49.010  12.490  1.00  0.00     0.051 A 
HETATM    4  C   UNL     1     -41.919 -49.155  11.637  1.00  0.00     0.103 A 
HETATM    5  N   UNL     1     -41.343 -50.371  11.497  1.00  0.00    -0.350 N 
ATOM      6  HN  UNL     1     -40.555 -50.500  10.864  1.00  0.00     0.166 HD
HETATM    7  C   UNL     1     -41.832 -51.417  12.214  1.00  0.00     0.119 A 
ENDROOT
BRANCH   1   8
HETATM    8  N   UNL     1     -43.446 -52.424  13.789  1.00  0.00    -0.308 N 
HETATM    9  C   UNL     1     -44.424 -53.264  13.293  1.00  0.00     0.320 C 
HETATM   10  N   UNL     1     -44.727 -54.239  14.219  1.00  0.00    -0.347 N 
HETATM   11  O   UNL     1     -44.910 -53.214  12.174  1.00  0.00    -0.247 OA
HETATM   12  C   UNL     1     -45.600 -55.327  13.850  1.00  0.00     0.151 C 
HETATM   13  H   UNL     1     -44.793 -53.902  15.169  1.00  0.00     0.163 HD
HETATM   14  H   UNL     1     -42.811 -52.892  14.418  1.00  0.00     0.170 HD
ENDBRANCH   1   8
BRANCH   4  15
HETATM   15  N   UNL     1     -41.370 -48.072  10.984  1.00  0.00    -0.363 N 
HETATM   16  C   UNL     1     -40.157 -47.390  11.452  1.00  0.00     0.150 C 
HETATM   17  C   UNL     1     -40.485 -45.970  11.939  1.00  0.00     0.187 C 
HETATM   18  O   UNL     1     -41.188 -45.213  10.942  1.00  0.00    -0.388 OA
HETATM   19  C   UNL     1     -42.431 -45.865  10.620  1.00  0.00     0.187 C 
HETATM   20  C   UNL     1     -42.199 -47.277  10.064  1.00  0.00     0.150 C 
ENDBRANCH   4  15
TORSDOF 2
ENDMDL
MODEL 8
REMARK VINA RESULT:      -5.1      6.478      9.418
REMARK  2 active torsions:
REMARK  status: ('A' for Active; 'I' for Inactive)
REMARK       I    between atoms: N_2  and  C_3 
REMARK       I    between atoms: C_3  and  N_5 
REMARK    1  A    between atoms: N_5  and  C_6 
REMARK    2  A    between atoms: C_9  and  N_13 
ROOT
HETATM    1  C   UNL     1     -41.290 -47.064  10.742  1.00  0.00     0.051 A 
HETATM    2  C   UNL     1     -40.162 -46.260  10.807  1.00  0.00     0.035 A 
HETATM    3  C   UNL     1     -40.313 -44.885  10.970  1.00  0.00     0.051 A 
HETATM    4  C   UNL     1     -41.580 -44.312  11.128  1.00  0.00     0.103 A 
HETATM    5  N   UNL     1     -42.676 -45.104  11.097  1.00  0.00    -0.350 N 
ATOM      6  HN  UNL     1     -43.605 -44.707  11.233  1.00  0.00     0.166 HD
HETATM    7  C   UNL     1     -42.519 -46.436  10.882  1.00  0.00     0.119 A 
ENDROOT
BRANCH   1   8
HETATM    8  N   UNL     1     -41.124 -48.445  10.532  1.00  0.00    -0.308 N 
HETATM    9  C   UNL     1     -41.036 -49.353  11.569  1.00  0.00     0.320 C 
HETATM   10  N   UNL     1     -40.888 -50.630  11.071  1.00  0.00    -0.347 N 
HETATM   11  O   UNL     1     -41.145 -49.095  12.757  1.00  0.00    -0.247 OA
HETATM   12  C   UNL     1     -40.947 -51.757  11.969  1.00  0.00     0.151 C 
HETATM   13  H   UNL     1     -40.250 -50.699  10.291  1.00  0.00     0.163 HD
HETATM   14  H   UNL     1     -41.552 -48.835   9.705  1.00  0.00     0.170 HD
ENDBRANCH   1   8
BRANCH   4  15
HETATM   15  N   UNL     1     -41.740 -42.948  11.254  1.00  0.00    -0.363 N 
HETATM   16  C   UNL     1     -40.706 -42.074  11.823  1.00  0.00     0.150 C 
HETATM   17  C   UNL     1     -41.169 -41.489  13.167  1.00  0.00     0.187 C 
HETATM   18  O   UNL     1     -42.440 -40.832  13.054  1.00  0.00    -0.388 OA
HETATM   19  C   UNL     1     -43.440 -41.773  12.617  1.00  0.00     0.187 C 
HETATM   20  C   UNL     1     -43.091 -42.367  11.245  1.00  0.00     0.150 C 
ENDBRANCH   4  15
TORSDOF 2
ENDMDL
MODEL 9
REMARK VINA RESULT:      -5.1      2.636      3.001
REMARK  2 active torsions:
REMARK  status: ('A' for Active; 'I' for Inactive)
REMARK       I    between atoms: N_2  and  C_3 
REMARK       I    between atoms: C_3  and  N_5 
REMARK    1  A    between atoms: N_5  and  C_6 
REMARK    2  A    between atoms: C_9  and  N_13 
ROOT
HETATM    1  C   UNL     1     -41.399 -49.710  12.353  1.00  0.00     0.051 A 
HETATM    2  C   UNL     1     -40.623 -50.822  12.060  1.00  0.00     0.035 A 
HETATM    3  C   UNL     1     -41.163 -52.094  12.227  1.00  0.00     0.051 A 
HETATM    4  C   UNL     1     -42.492 -52.267  12.630  1.00  0.00     0.103 A 
HETATM    5  N   UNL     1     -43.255 -51.180  12.885  1.00  0.00    -0.350 N 
ATOM      6  HN  UNL     1     -44.232 -51.286  13.158  1.00  0.00     0.166 HD
HETATM    7  C   UNL     1     -42.701 -49.945  12.770  1.00  0.00     0.119 A 
ENDROOT
BRANCH   1   8
HETATM    8  N   UNL     1     -40.826 -48.432  12.222  1.00  0.00    -0.308 N 
HETATM    9  C   UNL     1     -41.045 -47.624  11.124  1.00  0.00     0.320 C 
HETATM   10  N   UNL     1     -40.371 -46.431  11.269  1.00  0.00    -0.347 N 
HETATM   11  O   UNL     1     -41.783 -47.879  10.185  1.00  0.00    -0.247 OA
HETATM   12  C   UNL     1     -40.592 -45.366  10.321  1.00  0.00     0.151 C 
HETATM   13  H   UNL     1     -39.436 -46.526  11.641  1.00  0.00     0.163 HD
HETATM   14  H   UNL     1     -40.685 -47.906  13.073  1.00  0.00     0.170 HD
ENDBRANCH   1   8
BRANCH   4  15
HETATM   15  N   UNL     1     -43.022 -53.524  12.833  1.00  0.00    -0.363 N 
HETATM   16  C   UNL     1     -44.418 -53.858  12.526  1.00  0.00     0.150 C 
HETATM   17  C   UNL     1     -45.205 -54.145  13.815  1.00  0.00     0.187 C 
HETATM   18  O   UNL     1     -44.566 -55.148  14.619  1.00  0.00    -0.388 OA
HETATM   19  C   UNL     1     -43.249 -54.706  14.997  1.00  0.00     0.187 C 
HETATM   20  C   UNL     1     -42.366 -54.452  13.768  1.00  0.00     0.150 C 
ENDBRANCH   4  15
TORSDOF 2
ENDMDL
