MODEL 1
REMARK VINA RESULT:      -6.5      0.000      0.000
REMARK  6 active torsions:
REMARK  status: ('A' for Active; 'I' for Inactive)
REMARK    1  A    between atoms: C_2  and  C_4 
REMARK    2  A    between atoms: C_4  and  N_5 
REMARK    3  A    between atoms: C_4  and  C_9 
REMARK       I    between atoms: N_5  and  C_6 
REMARK       I    between atoms: C_9  and  N_11 
REMARK    4  A    between atoms: N_11  and  C_12 
REMARK    5  A    between atoms: C_12  and  C_13 
REMARK    6  A    between atoms: C_16  and  N_20 
ROOT
HETATM    1  C   UNL     1     -41.330 -51.927  12.307  1.00  0.00    -0.025 A 
HETATM    2  C   UNL     1     -40.935 -53.221  12.625  1.00  0.00     0.014 A 
HETATM    3  C   UNL     1     -41.790 -54.048  13.359  1.00  0.00     0.049 A 
HETATM    4  C   UNL     1     -43.037 -53.589  13.787  1.00  0.00     0.103 A 
HETATM    5  N   UNL     1     -43.402 -52.317  13.514  1.00  0.00    -0.352 N 
ATOM      6  HN  UNL     1     -44.295 -51.955  13.847  1.00  0.00     0.166 HD
HETATM    7  C   UNL     1     -42.567 -51.528  12.789  1.00  0.00     0.098 A 
ENDROOT
BRANCH   1   8
HETATM    8  C   UNL     1     -40.482 -51.028  11.462  1.00  0.00     0.162 C 
BRANCH   8   9
HETATM    9  N   UNL     1     -41.050 -49.712  11.277  1.00  0.00    -0.355 N 
HETATM   10  C   UNL     1     -40.279 -48.598  11.565  1.00  0.00     0.241 C 
HETATM   11  O   UNL     1     -39.099 -48.697  11.896  1.00  0.00    -0.271 OA
HETATM   12  H   UNL     1     -42.044 -49.611  11.132  1.00  0.00     0.162 HD
BRANCH  10  13
HETATM   13  C   UNL     1     -40.941 -47.230  11.281  1.00  0.00     0.179 C 
BRANCH  13  14
HETATM   14  C   UNL     1     -39.907 -46.082  11.391  1.00  0.00     0.009 C 
HETATM   15  C   UNL     1     -40.022 -45.096  10.221  1.00  0.00     0.012 C 
HETATM   16  C   UNL     1     -40.071 -45.309  12.706  1.00  0.00     0.012 C 
ENDBRANCH  13  14
BRANCH  13  17
HETATM   17  N   UNL     1     -41.564 -47.268   9.954  1.00  0.00    -0.348 N 
HETATM   18  C   UNL     1     -42.907 -47.545   9.812  1.00  0.00     0.214 C 
HETATM   19  O   UNL     1     -43.661 -47.761  10.755  1.00  0.00    -0.274 OA
HETATM   20  C   UNL     1     -43.398 -47.524   8.392  1.00  0.00     0.117 C 
HETATM   21  H   UNL     1     -40.997 -47.122   9.131  1.00  0.00     0.163 HD
ENDBRANCH  13  17
ENDBRANCH  10  13
ENDBRANCH   8   9
ENDBRANCH   1   8
BRANCH   4  22
HETATM   22  N   UNL     1     -43.891 -54.387  14.516  1.00  0.00    -0.363 N 
HETATM   23  C   UNL     1     -45.134 -54.949  13.974  1.00  0.00     0.150 C 
HETATM   24  C   UNL     1     -46.352 -54.423  14.756  1.00  0.00     0.188 C 
HETATM   25  O   UNL     1     -46.215 -54.639  16.167  1.00  0.00    -0.383 OA
HETATM   26  C   UNL     1     -45.054 -53.943  16.665  1.00  0.00     0.135 C 
HETATM   27  C   UNL     1     -45.001 -54.179  18.170  1.00  0.00     0.041 C 
HETATM   28  C   UNL     1     -43.770 -54.457  15.980  1.00  0.00     0.155 C 
ENDBRANCH   4  22
TORSDOF 6
ENDMDL
MODEL 2
REMARK VINA RESULT:      -6.5      1.436      2.606
REMARK  6 active torsions:
REMARK  status: ('A' for Active; 'I' for Inactive)
REMARK    1  A    between atoms: C_2  and  C_4 
REMARK    2  A    between atoms: C_4  and  N_5 
REMARK    3  A    between atoms: C_4  and  C_9 
REMARK       I    between atoms: N_5  and  C_6 
REMARK       I    between atoms: C_9  and  N_11 
REMARK    4  A    between atoms: N_11  and  C_12 
REMARK    5  A    between atoms: C_12  and  C_13 
REMARK    6  A    between atoms: C_16  and  N_20 
ROOT
HETATM    1  C   UNL     1     -41.139 -51.228  12.174  1.00  0.00    -0.025 A 
HETATM    2  C   UNL     1     -41.975 -50.793  13.194  1.00  0.00     0.014 A 
HETATM    3  C   UNL     1     -42.811 -51.707  13.844  1.00  0.00     0.049 A 
HETATM    4  C   UNL     1     -42.825 -53.052  13.475  1.00  0.00     0.103 A 
HETATM    5  N   UNL     1     -42.043 -53.465  12.453  1.00  0.00    -0.352 N 
ATOM      6  HN  UNL     1     -42.065 -54.438  12.147  1.00  0.00     0.166 HD
HETATM    7  C   UNL     1     -41.226 -52.570  11.838  1.00  0.00     0.098 A 
ENDROOT
BRANCH   1   8
HETATM    8  C   UNL     1     -40.174 -50.304  11.496  1.00  0.00     0.162 C 
BRANCH   8   9
HETATM    9  N   UNL     1     -40.819 -49.277  10.711  1.00  0.00    -0.355 N 
HETATM   10  C   UNL     1     -40.856 -47.981  11.197  1.00  0.00     0.241 C 
HETATM   11  O   UNL     1     -40.284 -47.664  12.238  1.00  0.00    -0.271 OA
HETATM   12  H   UNL     1     -41.398 -49.536   9.926  1.00  0.00     0.162 HD
BRANCH  10  13
HETATM   13  C   UNL     1     -41.510 -46.932  10.267  1.00  0.00     0.179 C 
BRANCH  13  14
HETATM   14  C   UNL     1     -42.901 -47.411   9.785  1.00  0.00     0.009 C 
HETATM   15  C   UNL     1     -43.864 -47.638  10.957  1.00  0.00     0.012 C 
HETATM   16  C   UNL     1     -43.532 -46.403   8.816  1.00  0.00     0.012 C 
ENDBRANCH  13  14
BRANCH  13  17
HETATM   17  N   UNL     1     -41.597 -45.653  10.980  1.00  0.00    -0.348 N 
HETATM   18  C   UNL     1     -40.758 -44.607  10.659  1.00  0.00     0.214 C 
HETATM   19  O   UNL     1     -39.911 -44.660   9.774  1.00  0.00    -0.274 OA
HETATM   20  C   UNL     1     -40.989 -43.359  11.464  1.00  0.00     0.117 C 
HETATM   21  H   UNL     1     -42.258 -45.546  11.736  1.00  0.00     0.163 HD
ENDBRANCH  13  17
ENDBRANCH  10  13
ENDBRANCH   8   9
ENDBRANCH   1   8
BRANCH   4  22
HETATM   22  N   UNL     1     -43.646 -53.966  14.099  1.00  0.00    -0.363 N 
HETATM   23  C   UNL     1     -44.865 -54.509  13.487  1.00  0.00     0.150 C 
HETATM   24  C   UNL     1     -46.103 -54.132  14.319  1.00  0.00     0.188 C 
HETATM   25  O   UNL     1     -45.958 -54.510  15.695  1.00  0.00    -0.383 OA
HETATM   26  C   UNL     1     -44.827 -53.831  16.279  1.00  0.00     0.135 C 
HETATM   27  C   UNL     1     -44.764 -54.243  17.745  1.00  0.00     0.041 C 
HETATM   28  C   UNL     1     -43.523 -54.206  15.544  1.00  0.00     0.155 C 
ENDBRANCH   4  22
TORSDOF 6
ENDMDL
MODEL 3
REMARK VINA RESULT:      -6.3      2.005      8.032
REMARK  6 active torsions:
REMARK  status: ('A' for Active; 'I' for Inactive)
REMARK    1  A    between atoms: C_2  and  C_4 
REMARK    2  A    between atoms: C_4  and  N_5 
REMARK    3  A    between atoms: C_4  and  C_9 
REMARK       I    between atoms: N_5  and  C_6 
REMARK       I    between atoms: C_9  and  N_11 
REMARK    4  A    between atoms: N_11  and  C_12 
REMARK    5  A    between atoms: C_12  and  C_13 
REMARK    6  A    between atoms: C_16  and  N_20 
ROOT
HETATM    1  C   UNL     1     -40.278 -51.028  12.835  1.00  0.00    -0.025 A 
HETATM    2  C   UNL     1     -39.414 -49.942  12.758  1.00  0.00     0.014 A 
HETATM    3  C   UNL     1     -39.768 -48.827  11.992  1.00  0.00     0.049 A 
HETATM    4  C   UNL     1     -40.975 -48.792  11.294  1.00  0.00     0.103 A 
HETATM    5  N   UNL     1     -41.795 -49.865  11.335  1.00  0.00    -0.352 N 
ATOM      6  HN  UNL     1     -42.665 -49.871  10.803  1.00  0.00     0.166 HD
HETATM    7  C   UNL     1     -41.445 -50.938  12.092  1.00  0.00     0.098 A 
ENDROOT
BRANCH   1   8
HETATM    8  C   UNL     1     -39.979 -52.215  13.698  1.00  0.00     0.162 C 
BRANCH   8   9
HETATM    9  N   UNL     1     -41.145 -52.749  14.363  1.00  0.00    -0.355 N 
HETATM   10  C   UNL     1     -41.775 -53.860  13.829  1.00  0.00     0.241 C 
HETATM   11  O   UNL     1     -41.322 -54.454  12.852  1.00  0.00    -0.271 OA
HETATM   12  H   UNL     1     -41.604 -52.209  15.082  1.00  0.00     0.162 HD
BRANCH  10  13
HETATM   13  C   UNL     1     -42.978 -54.404  14.634  1.00  0.00     0.179 C 
BRANCH  13  14
HETATM   14  C   UNL     1     -42.605 -54.594  16.125  1.00  0.00     0.009 C 
HETATM   15  C   UNL     1     -43.767 -54.222  17.056  1.00  0.00     0.012 C 
HETATM   16  C   UNL     1     -42.184 -56.040  16.415  1.00  0.00     0.012 C 
ENDBRANCH  13  14
BRANCH  13  17
HETATM   17  N   UNL     1     -44.111 -53.488  14.475  1.00  0.00    -0.348 N 
HETATM   18  C   UNL     1     -45.018 -53.656  13.449  1.00  0.00     0.214 C 
HETATM   19  O   UNL     1     -44.954 -54.564  12.627  1.00  0.00    -0.274 OA
HETATM   20  C   UNL     1     -46.134 -52.650  13.437  1.00  0.00     0.117 C 
HETATM   21  H   UNL     1     -44.213 -52.704  15.103  1.00  0.00     0.163 HD
ENDBRANCH  13  17
ENDBRANCH  10  13
ENDBRANCH   8   9
ENDBRANCH   1   8
BRANCH   4  22
HETATM   22  N   UNL     1     -41.339 -47.704  10.529  1.00  0.00    -0.363 N 
HETATM   23  C   UNL     1     -40.830 -46.347  10.760  1.00  0.00     0.150 C 
HETATM   24  C   UNL     1     -41.982 -45.389  11.111  1.00  0.00     0.188 C 
HETATM   25  O   UNL     1     -43.029 -45.430  10.132  1.00  0.00    -0.383 OA
HETATM   26  C   UNL     1     -43.586 -46.758  10.055  1.00  0.00     0.135 C 
HETATM   27  C   UNL     1     -44.717 -46.713   9.035  1.00  0.00     0.041 C 
HETATM   28  C   UNL     1     -42.508 -47.781   9.640  1.00  0.00     0.155 C 
ENDBRANCH   4  22
TORSDOF 6
ENDMDL
MODEL 4
REMARK VINA RESULT:      -6.3      2.355      3.014
REMARK  6 active torsions:
REMARK  status: ('A' for Active; 'I' for Inactive)
REMARK    1  A    between atoms: C_2  and  C_4 
REMARK    2  A    between atoms: C_4  and  N_5 
REMARK    3  A    between atoms: C_4  and  C_9 
REMARK       I    between atoms: N_5  and  C_6 
REMARK       I    between atoms: C_9  and  N_11 
REMARK    4  A    between atoms: N_11  and  C_12 
REMARK    5  A    between atoms: C_12  and  C_13 
REMARK    6  A    between atoms: C_16  and  N_20 
ROOT
HETATM    1  C   UNL     1     -43.073 -48.941  13.926  1.00  0.00    -0.025 A 
HETATM    2  C   UNL     1     -43.259 -49.716  15.063  1.00  0.00     0.014 A 
HETATM    3  C   UNL     1     -43.311 -51.110  14.953  1.00  0.00     0.049 A 
HETATM    4  C   UNL     1     -43.187 -51.734  13.712  1.00  0.00     0.103 A 
HETATM    5  N   UNL     1     -43.049 -50.977  12.601  1.00  0.00    -0.352 N 
ATOM      6  HN  UNL     1     -42.991 -51.415  11.682  1.00  0.00     0.166 HD
HETATM    7  C   UNL     1     -42.988 -49.625  12.723  1.00  0.00     0.098 A 
ENDROOT
BRANCH   1   8
HETATM    8  C   UNL     1     -42.938 -47.451  13.999  1.00  0.00     0.162 C 
BRANCH   8   9
HETATM    9  N   UNL     1     -42.556 -46.847  12.744  1.00  0.00    -0.355 N 
HETATM   10  C   UNL     1     -42.625 -45.470  12.610  1.00  0.00     0.241 C 
HETATM   11  O   UNL     1     -42.923 -44.742  13.555  1.00  0.00    -0.271 OA
HETATM   12  H   UNL     1     -42.434 -47.426  11.925  1.00  0.00     0.162 HD
BRANCH  10  13
HETATM   13  C   UNL     1     -42.141 -44.901  11.256  1.00  0.00     0.179 C 
BRANCH  13  14
HETATM   14  C   UNL     1     -40.648 -44.495  11.327  1.00  0.00     0.009 C 
HETATM   15  C   UNL     1     -39.837 -45.098  10.174  1.00  0.00     0.012 C 
HETATM   16  C   UNL     1     -40.484 -42.970  11.302  1.00  0.00     0.012 C 
ENDBRANCH  13  14
BRANCH  13  17
HETATM   17  N   UNL     1     -42.378 -45.899  10.208  1.00  0.00    -0.348 N 
HETATM   18  C   UNL     1     -43.319 -45.680   9.223  1.00  0.00     0.214 C 
HETATM   19  O   UNL     1     -43.997 -44.662   9.144  1.00  0.00    -0.274 OA
HETATM   20  C   UNL     1     -43.424 -46.786   8.211  1.00  0.00     0.117 C 
HETATM   21  H   UNL     1     -41.870 -46.771  10.224  1.00  0.00     0.163 HD
ENDBRANCH  13  17
ENDBRANCH  10  13
ENDBRANCH   8   9
ENDBRANCH   1   8
BRANCH   4  22
HETATM   22  N   UNL     1     -43.241 -53.105  13.582  1.00  0.00    -0.363 N 
HETATM   23  C   UNL     1     -44.316 -53.809  12.872  1.00  0.00     0.150 C 
HETATM   24  C   UNL     1     -45.081 -54.738  13.831  1.00  0.00     0.188 C 
HETATM   25  O   UNL     1     -44.200 -55.630  14.528  1.00  0.00    -0.383 OA
HETATM   26  C   UNL     1     -43.258 -54.879  15.321  1.00  0.00     0.135 C 
HETATM   27  C   UNL     1     -42.391 -55.888  16.064  1.00  0.00     0.041 C 
HETATM   28  C   UNL     1     -42.397 -53.963  14.427  1.00  0.00     0.155 C 
ENDBRANCH   4  22
TORSDOF 6
ENDMDL
MODEL 5
REMARK VINA RESULT:      -6.3      4.398      6.651
REMARK  6 active torsions:
REMARK  status: ('A' for Active; 'I' for Inactive)
REMARK    1  A    between atoms: C_2  and  C_4 
REMARK    2  A    between atoms: C_4  and  N_5 
REMARK    3  A    between atoms: C_4  and  C_9 
REMARK       I    between atoms: N_5  and  C_6 
REMARK       I    between atoms: C_9  and  N_11 
REMARK    4  A    between atoms: N_11  and  C_12 
REMARK    5  A    between atoms: C_12  and  C_13 
REMARK    6  A    between atoms: C_16  and  N_20 
ROOT
HETATM    1  C   UNL     1     -39.839 -49.681  12.507  1.00  0.00    -0.025 A 
HETATM    2  C   UNL     1     -38.972 -48.597  12.557  1.00  0.00     0.014 A 
HETATM    3  C   UNL     1     -38.235 -48.350  13.719  1.00  0.00     0.049 A 
HETATM    4  C   UNL     1     -38.365 -49.174  14.838  1.00  0.00     0.103 A 
HETATM    5  N   UNL     1     -39.241 -50.202  14.803  1.00  0.00    -0.352 N 
ATOM      6  HN  UNL     1     -39.374 -50.794  15.623  1.00  0.00     0.166 HD
HETATM    7  C   UNL     1     -39.942 -50.438  13.663  1.00  0.00     0.098 A 
ENDROOT
BRANCH   1   8
HETATM    8  C   UNL     1     -40.596 -50.029  11.263  1.00  0.00     0.162 C 
BRANCH   8   9
HETATM    9  N   UNL     1     -41.042 -48.873  10.520  1.00  0.00    -0.355 N 
HETATM   10  C   UNL     1     -42.277 -48.319  10.812  1.00  0.00     0.241 C 
HETATM   11  O   UNL     1     -42.968 -48.733  11.741  1.00  0.00    -0.271 OA
HETATM   12  H   UNL     1     -40.556 -48.600   9.678  1.00  0.00     0.162 HD
BRANCH  10  13
HETATM   13  C   UNL     1     -42.651 -47.049  10.014  1.00  0.00     0.179 C 
BRANCH  13  14
HETATM   14  C   UNL     1     -43.883 -47.305   9.112  1.00  0.00     0.009 C 
HETATM   15  C   UNL     1     -44.715 -46.032   8.907  1.00  0.00     0.012 C 
HETATM   16  C   UNL     1     -43.465 -47.848   7.739  1.00  0.00     0.012 C 
ENDBRANCH  13  14
BRANCH  13  17
HETATM   17  N   UNL     1     -42.891 -45.949  10.953  1.00  0.00    -0.348 N 
HETATM   18  C   UNL     1     -42.050 -44.856  10.991  1.00  0.00     0.214 C 
HETATM   19  O   UNL     1     -41.077 -44.719  10.257  1.00  0.00    -0.274 OA
HETATM   20  C   UNL     1     -42.444 -43.805  11.991  1.00  0.00     0.117 C 
HETATM   21  H   UNL     1     -43.661 -46.005  11.603  1.00  0.00     0.163 HD
ENDBRANCH  13  17
ENDBRANCH  10  13
ENDBRANCH   8   9
ENDBRANCH   1   8
BRANCH   4  22
HETATM   22  N   UNL     1     -37.652 -48.944  15.994  1.00  0.00    -0.363 N 
HETATM   23  C   UNL     1     -36.939 -47.690  16.269  1.00  0.00     0.150 C 
HETATM   24  C   UNL     1     -35.429 -47.947  16.419  1.00  0.00     0.188 C 
HETATM   25  O   UNL     1     -35.154 -48.966  17.390  1.00  0.00    -0.383 OA
HETATM   26  C   UNL     1     -35.762 -50.211  16.989  1.00  0.00     0.135 C 
HETATM   27  C   UNL     1     -35.389 -51.251  18.039  1.00  0.00     0.041 C 
HETATM   28  C   UNL     1     -37.294 -50.063  16.878  1.00  0.00     0.155 C 
ENDBRANCH   4  22
TORSDOF 6
ENDMDL
MODEL 6
REMARK VINA RESULT:      -6.1      2.670      8.483
REMARK  6 active torsions:
REMARK  status: ('A' for Active; 'I' for Inactive)
REMARK    1  A    between atoms: C_2  and  C_4 
REMARK    2  A    between atoms: C_4  and  N_5 
REMARK    3  A    between atoms: C_4  and  C_9 
REMARK       I    between atoms: N_5  and  C_6 
REMARK       I    between atoms: C_9  and  N_11 
REMARK    4  A    between atoms: N_11  and  C_12 
REMARK    5  A    between atoms: C_12  and  C_13 
REMARK    6  A    between atoms: C_16  and  N_20 
ROOT
HETATM    1  C   UNL     1     -40.807 -48.846  11.465  1.00  0.00    -0.025 A 
HETATM    2  C   UNL     1     -41.934 -48.113  11.112  1.00  0.00     0.014 A 
HETATM    3  C   UNL     1     -41.940 -46.725  11.281  1.00  0.00     0.049 A 
HETATM    4  C   UNL     1     -40.831 -46.063  11.810  1.00  0.00     0.103 A 
HETATM    5  N   UNL     1     -39.753 -46.781  12.193  1.00  0.00    -0.352 N 
ATOM      6  HN  UNL     1     -38.947 -46.318  12.612  1.00  0.00     0.166 HD
HETATM    7  C   UNL     1     -39.754 -48.128  12.012  1.00  0.00     0.098 A 
ENDROOT
BRANCH   1   8
HETATM    8  C   UNL     1     -40.723 -50.324  11.236  1.00  0.00     0.162 C 
BRANCH   8   9
HETATM    9  N   UNL     1     -41.815 -51.059  11.832  1.00  0.00    -0.355 N 
HETATM   10  C   UNL     1     -41.621 -52.383  12.187  1.00  0.00     0.241 C 
HETATM   11  O   UNL     1     -40.523 -52.927  12.084  1.00  0.00    -0.271 OA
HETATM   12  H   UNL     1     -42.749 -50.677  11.807  1.00  0.00     0.162 HD
BRANCH  10  13
HETATM   13  C   UNL     1     -42.820 -53.078  12.874  1.00  0.00     0.179 C 
BRANCH  13  14
HETATM   14  C   UNL     1     -42.455 -53.515  14.314  1.00  0.00     0.009 C 
HETATM   15  C   UNL     1     -42.879 -52.469  15.353  1.00  0.00     0.012 C 
HETATM   16  C   UNL     1     -43.107 -54.858  14.670  1.00  0.00     0.012 C 
ENDBRANCH  13  14
BRANCH  13  17
HETATM   17  N   UNL     1     -43.969 -52.167  12.862  1.00  0.00    -0.348 N 
HETATM   18  C   UNL     1     -45.246 -52.644  12.652  1.00  0.00     0.214 C 
HETATM   19  O   UNL     1     -45.510 -53.829  12.479  1.00  0.00    -0.274 OA
HETATM   20  C   UNL     1     -46.316 -51.589  12.694  1.00  0.00     0.117 C 
HETATM   21  H   UNL     1     -43.822 -51.175  12.977  1.00  0.00     0.163 HD
ENDBRANCH  13  17
ENDBRANCH  10  13
ENDBRANCH   8   9
ENDBRANCH   1   8
BRANCH   4  22
HETATM   22  N   UNL     1     -40.821 -44.697  11.990  1.00  0.00    -0.363 N 
HETATM   23  C   UNL     1     -40.185 -44.037  13.136  1.00  0.00     0.150 C 
HETATM   24  C   UNL     1     -41.229 -43.266  13.964  1.00  0.00     0.188 C 
HETATM   25  O   UNL     1     -41.991 -42.359  13.155  1.00  0.00    -0.383 OA
HETATM   26  C   UNL     1     -42.706 -43.086  12.135  1.00  0.00     0.135 C 
HETATM   27  C   UNL     1     -43.525 -42.069  11.349  1.00  0.00     0.041 C 
HETATM   28  C   UNL     1     -41.728 -43.841  11.210  1.00  0.00     0.155 C 
ENDBRANCH   4  22
TORSDOF 6
ENDMDL
MODEL 7
REMARK VINA RESULT:      -6.1      2.193      8.025
REMARK  6 active torsions:
REMARK  status: ('A' for Active; 'I' for Inactive)
REMARK    1  A    between atoms: C_2  and  C_4 
REMARK    2  A    between atoms: C_4  and  N_5 
REMARK    3  A    between atoms: C_4  and  C_9 
REMARK       I    between atoms: N_5  and  C_6 
REMARK       I    between atoms: C_9  and  N_11 
REMARK    4  A    between atoms: N_11  and  C_12 
REMARK    5  A    between atoms: C_12  and  C_13 
REMARK    6  A    between atoms: C_16  and  N_20 
ROOT
HETATM    1  C   UNL     1     -41.319 -50.988  13.467  1.00  0.00    -0.025 A 
HETATM    2  C   UNL     1     -40.544 -49.877  13.777  1.00  0.00     0.014 A 
HETATM    3  C   UNL     1     -40.509 -48.788  12.900  1.00  0.00     0.049 A 
HETATM    4  C   UNL     1     -41.235 -48.804  11.710  1.00  0.00     0.103 A 
HETATM    5  N   UNL     1     -41.954 -49.902  11.388  1.00  0.00    -0.352 N 
ATOM      6  HN  UNL     1     -42.464 -49.945  10.506  1.00  0.00     0.166 HD
HETATM    7  C   UNL     1     -41.990 -50.949  12.254  1.00  0.00     0.098 A 
ENDROOT
BRANCH   1   8
HETATM    8  C   UNL     1     -41.448 -52.148  14.405  1.00  0.00     0.162 C 
BRANCH   8   9
HETATM    9  N   UNL     1     -42.784 -52.694  14.462  1.00  0.00    -0.355 N 
HETATM   10  C   UNL     1     -43.702 -52.141  15.339  1.00  0.00     0.241 C 
HETATM   11  O   UNL     1     -43.436 -51.146  16.012  1.00  0.00    -0.271 OA
HETATM   12  H   UNL     1     -42.983 -53.580  14.020  1.00  0.00     0.162 HD
BRANCH  10  13
HETATM   13  C   UNL     1     -45.125 -52.744  15.294  1.00  0.00     0.179 C 
BRANCH  13  14
HETATM   14  C   UNL     1     -45.850 -52.556  16.649  1.00  0.00     0.009 C 
HETATM   15  C   UNL     1     -47.204 -51.856  16.481  1.00  0.00     0.012 C 
HETATM   16  C   UNL     1     -46.072 -53.901  17.353  1.00  0.00     0.012 C 
ENDBRANCH  13  14
BRANCH  13  17
HETATM   17  N   UNL     1     -45.870 -52.123  14.194  1.00  0.00    -0.348 N 
HETATM   18  C   UNL     1     -45.897 -52.703  12.943  1.00  0.00     0.214 C 
HETATM   19  O   UNL     1     -45.330 -53.754  12.668  1.00  0.00    -0.274 OA
HETATM   20  C   UNL     1     -46.724 -51.957  11.933  1.00  0.00     0.117 C 
HETATM   21  H   UNL     1     -46.344 -51.244  14.344  1.00  0.00     0.163 HD
ENDBRANCH  13  17
ENDBRANCH  10  13
ENDBRANCH   8   9
ENDBRANCH   1   8
BRANCH   4  22
HETATM   22  N   UNL     1     -41.208 -47.744  10.830  1.00  0.00    -0.363 N 
HETATM   23  C   UNL     1     -40.356 -46.562  11.013  1.00  0.00     0.150 C 
HETATM   24  C   UNL     1     -41.215 -45.294  11.163  1.00  0.00     0.188 C 
HETATM   25  O   UNL     1     -42.143 -45.145  10.080  1.00  0.00    -0.383 OA
HETATM   26  C   UNL     1     -43.045 -46.270  10.042  1.00  0.00     0.135 C 
HETATM   27  C   UNL     1     -44.026 -46.021   8.902  1.00  0.00     0.041 C 
HETATM   28  C   UNL     1     -42.271 -47.587   9.826  1.00  0.00     0.155 C 
ENDBRANCH   4  22
TORSDOF 6
ENDMDL
MODEL 8
REMARK VINA RESULT:      -6.1      2.695      4.095
REMARK  6 active torsions:
REMARK  status: ('A' for Active; 'I' for Inactive)
REMARK    1  A    between atoms: C_2  and  C_4 
REMARK    2  A    between atoms: C_4  and  N_5 
REMARK    3  A    between atoms: C_4  and  C_9 
REMARK       I    between atoms: N_5  and  C_6 
REMARK       I    between atoms: C_9  and  N_11 
REMARK    4  A    between atoms: N_11  and  C_12 
REMARK    5  A    between atoms: C_12  and  C_13 
REMARK    6  A    between atoms: C_16  and  N_20 
ROOT
HETATM    1  C   UNL     1     -39.585 -49.737  12.117  1.00  0.00    -0.025 A 
HETATM    2  C   UNL     1     -40.758 -50.356  11.703  1.00  0.00     0.014 A 
HETATM    3  C   UNL     1     -41.070 -51.636  12.170  1.00  0.00     0.049 A 
HETATM    4  C   UNL     1     -40.213 -52.309  13.041  1.00  0.00     0.103 A 
HETATM    5  N   UNL     1     -39.051 -51.724  13.408  1.00  0.00    -0.352 N 
ATOM      6  HN  UNL     1     -38.396 -52.215  14.017  1.00  0.00     0.166 HD
HETATM    7  C   UNL     1     -38.765 -50.475  12.957  1.00  0.00     0.098 A 
ENDROOT
BRANCH   1   8
HETATM    8  C   UNL     1     -39.241 -48.340  11.703  1.00  0.00     0.162 C 
BRANCH   8   9
HETATM    9  N   UNL     1     -40.292 -47.687  10.957  1.00  0.00    -0.355 N 
HETATM   10  C   UNL     1     -40.716 -46.429  11.349  1.00  0.00     0.241 C 
HETATM   11  O   UNL     1     -40.167 -45.817  12.263  1.00  0.00    -0.271 OA
HETATM   12  H   UNL     1     -40.838 -48.216  10.292  1.00  0.00     0.162 HD
BRANCH  10  13
HETATM   13  C   UNL     1     -41.801 -45.777  10.461  1.00  0.00     0.179 C 
BRANCH  13  14
HETATM   14  C   UNL     1     -42.720 -46.852   9.831  1.00  0.00     0.009 C 
HETATM   15  C   UNL     1     -43.683 -47.455  10.861  1.00  0.00     0.012 C 
HETATM   16  C   UNL     1     -43.539 -46.273   8.669  1.00  0.00     0.012 C 
ENDBRANCH  13  14
BRANCH  13  17
HETATM   17  N   UNL     1     -42.566 -44.821  11.268  1.00  0.00    -0.348 N 
HETATM   18  C   UNL     1     -42.260 -43.476  11.250  1.00  0.00     0.214 C 
HETATM   19  O   UNL     1     -41.363 -42.992  10.569  1.00  0.00    -0.274 OA
HETATM   20  C   UNL     1     -43.151 -42.626  12.112  1.00  0.00     0.117 C 
HETATM   21  H   UNL     1     -43.305 -45.154  11.870  1.00  0.00     0.163 HD
ENDBRANCH  13  17
ENDBRANCH  10  13
ENDBRANCH   8   9
ENDBRANCH   1   8
BRANCH   4  22
HETATM   22  N   UNL     1     -40.500 -53.574  13.507  1.00  0.00    -0.363 N 
HETATM   23  C   UNL     1     -41.866 -54.076  13.695  1.00  0.00     0.150 C 
HETATM   24  C   UNL     1     -42.120 -54.415  15.175  1.00  0.00     0.188 C 
HETATM   25  O   UNL     1     -41.125 -55.305  15.698  1.00  0.00    -0.383 OA
HETATM   26  C   UNL     1     -39.821 -54.695  15.617  1.00  0.00     0.135 C 
HETATM   27  C   UNL     1     -38.827 -55.675  16.231  1.00  0.00     0.041 C 
HETATM   28  C   UNL     1     -39.452 -54.380  14.152  1.00  0.00     0.155 C 
ENDBRANCH   4  22
TORSDOF 6
ENDMDL
MODEL 9
REMARK VINA RESULT:      -5.9      3.343      8.719
REMARK  6 active torsions:
REMARK  status: ('A' for Active; 'I' for Inactive)
REMARK    1  A    between atoms: C_2  and  C_4 
REMARK    2  A    between atoms: C_4  and  N_5 
REMARK    3  A    between atoms: C_4  and  C_9 
REMARK       I    between atoms: N_5  and  C_6 
REMARK       I    between atoms: C_9  and  N_11 
REMARK    4  A    between atoms: N_11  and  C_12 
REMARK    5  A    between atoms: C_12  and  C_13 
REMARK    6  A    between atoms: C_16  and  N_20 
ROOT
HETATM    1  C   UNL     1     -41.777 -46.801  10.751  1.00  0.00    -0.025 A 
HETATM    2  C   UNL     1     -40.597 -46.076  10.637  1.00  0.00     0.014 A 
HETATM    3  C   UNL     1     -40.487 -44.827  11.256  1.00  0.00     0.049 A 
HETATM    4  C   UNL     1     -41.551 -44.292  11.982  1.00  0.00     0.103 A 
HETATM    5  N   UNL     1     -42.713 -44.978  12.056  1.00  0.00    -0.352 N 
ATOM      6  HN  UNL     1     -43.512 -44.587  12.554  1.00  0.00     0.166 HD
HETATM    7  C   UNL     1     -42.803 -46.196  11.460  1.00  0.00     0.098 A 
ENDROOT
BRANCH   1   8
HETATM    8  C   UNL     1     -41.920 -48.173  10.168  1.00  0.00     0.162 C 
BRANCH   8   9
HETATM    9  N   UNL     1     -40.839 -49.063  10.524  1.00  0.00    -0.355 N 
HETATM   10  C   UNL     1     -40.906 -49.760  11.719  1.00  0.00     0.241 C 
HETATM   11  O   UNL     1     -41.896 -49.705  12.446  1.00  0.00    -0.271 OA
HETATM   12  H   UNL     1     -39.969 -49.026  10.013  1.00  0.00     0.162 HD
BRANCH  10  13
HETATM   13  C   UNL     1     -39.738 -50.736  11.995  1.00  0.00     0.179 C 
BRANCH  13  14
HETATM   14  C   UNL     1     -38.381 -49.990  11.995  1.00  0.00     0.009 C 
HETATM   15  C   UNL     1     -38.351 -48.858  13.030  1.00  0.00     0.012 C 
HETATM   16  C   UNL     1     -37.218 -50.950  12.278  1.00  0.00     0.012 C 
ENDBRANCH  13  14
BRANCH  13  17
HETATM   17  N   UNL     1     -39.978 -51.416  13.272  1.00  0.00    -0.348 N 
HETATM   18  C   UNL     1     -40.348 -52.744  13.307  1.00  0.00     0.214 C 
HETATM   19  O   UNL     1     -40.487 -53.438  12.306  1.00  0.00    -0.274 OA
HETATM   20  C   UNL     1     -40.533 -53.300  14.691  1.00  0.00     0.117 C 
HETATM   21  H   UNL     1     -39.903 -50.899  14.136  1.00  0.00     0.163 HD
ENDBRANCH  13  17
ENDBRANCH  10  13
ENDBRANCH   8   9
ENDBRANCH   1   8
BRANCH   4  22
HETATM   22  N   UNL     1     -41.464 -43.060  12.594  1.00  0.00    -0.363 N 
HETATM   23  C   UNL     1     -40.673 -41.945  12.059  1.00  0.00     0.150 C 
HETATM   24  C   UNL     1     -39.561 -41.547  13.045  1.00  0.00     0.188 C 
HETATM   25  O   UNL     1     -40.079 -41.281  14.356  1.00  0.00    -0.383 OA
HETATM   26  C   UNL     1     -40.718 -42.460  14.886  1.00  0.00     0.135 C 
HETATM   27  C   UNL     1     -41.199 -42.117  16.291  1.00  0.00     0.041 C 
HETATM   28  C   UNL     1     -41.897 -42.894  13.989  1.00  0.00     0.155 C 
ENDBRANCH   4  22
TORSDOF 6
ENDMDL
