MODEL 1
REMARK VINA RESULT:      -6.2      0.000      0.000
REMARK  4 active torsions:
REMARK  status: ('A' for Active; 'I' for Inactive)
REMARK    1  A    between atoms: O_2  and  C_3 
REMARK    2  A    between atoms: C_9  and  N_10 
REMARK       I    between atoms: N_10  and  C_11 
REMARK       I    between atoms: C_11  and  N_13 
REMARK    3  A    between atoms: N_13  and  C_14 
REMARK    4  A    between atoms: N_17  and  S_20 
ROOT
HETATM    1  N   UNL     1     -44.883 -50.820  12.613  1.00  0.00    -0.305 N 
HETATM    2  C   UNL     1     -43.746 -50.177  13.054  1.00  0.00     0.321 C 
HETATM    3  O   UNL     1     -43.141 -50.459  14.085  1.00  0.00    -0.247 OA
HETATM    4  N   UNL     1     -43.319 -49.191  12.189  1.00  0.00    -0.338 N 
HETATM    5  H   UNL     1     -44.921 -51.002  11.617  1.00  0.00     0.171 HD
HETATM    6  H   UNL     1     -43.969 -48.849  11.494  1.00  0.00     0.164 HD
ENDROOT
BRANCH   1   7
HETATM    7  C   UNL     1     -45.568 -51.776  13.412  1.00  0.00     0.087 A 
HETATM    8  C   UNL     1     -45.408 -53.149  13.187  1.00  0.00     0.169 A 
HETATM    9  N   UNL     1     -46.047 -54.112  13.896  1.00  0.00    -0.345 N 
HETATM   10  C   UNL     1     -46.886 -53.699  14.866  1.00  0.00     0.090 A 
ATOM     11  HN  UNL     1     -45.898 -55.103  13.704  1.00  0.00     0.167 HD
HETATM   12  C   UNL     1     -47.128 -52.368  15.157  1.00  0.00     0.019 A 
HETATM   13  C   UNL     1     -46.457 -51.395  14.419  1.00  0.00     0.035 A 
BRANCH   8  14
HETATM   14  O   UNL     1     -44.488 -53.527  12.220  1.00  0.00    -0.339 OA
HETATM   15  C   UNL     1     -43.232 -53.909  12.780  1.00  0.00     0.211 C 
ENDBRANCH   8  14
ENDBRANCH   1   7
BRANCH   4  16
HETATM   16  C   UNL     1     -42.020 -48.540  12.388  1.00  0.00     0.089 C 
HETATM   17  C   UNL     1     -42.073 -47.284  13.270  1.00  0.00     0.045 C 
HETATM   18  C   UNL     1     -42.532 -46.015  12.555  1.00  0.00     0.137 C 
HETATM   19  N   UNL     1     -41.884 -45.852  11.233  1.00  0.00    -0.311 N 
HETATM   20  C   UNL     1     -41.999 -47.043  10.368  1.00  0.00     0.137 C 
HETATM   21  C   UNL     1     -41.352 -48.243  11.041  1.00  0.00     0.045 C 
BRANCH  19  22
HETATM   22  S   UNL     1     -40.473 -44.926  11.117  1.00  0.00     0.224 S 
HETATM   23  O   UNL     1     -39.558 -45.382  12.142  1.00  0.00    -0.206 OA
HETATM   24  O   UNL     1     -40.071 -44.847   9.730  1.00  0.00    -0.206 OA
HETATM   25  C   UNL     1     -41.077 -43.316  11.580  1.00  0.00     0.186 C 
ENDBRANCH  19  22
ENDBRANCH   4  16
TORSDOF 4
ENDMDL
MODEL 2
REMARK VINA RESULT:      -6.1      1.549      2.328
REMARK  4 active torsions:
REMARK  status: ('A' for Active; 'I' for Inactive)
REMARK    1  A    between atoms: O_2  and  C_3 
REMARK    2  A    between atoms: C_9  and  N_10 
REMARK       I    between atoms: N_10  and  C_11 
REMARK       I    between atoms: C_11  and  N_13 
REMARK    3  A    between atoms: N_13  and  C_14 
REMARK    4  A    between atoms: N_17  and  S_20 
ROOT
HETATM    1  N   UNL     1     -43.091 -51.943  12.419  1.00  0.00    -0.305 N 
HETATM    2  C   UNL     1     -43.268 -50.651  12.865  1.00  0.00     0.321 C 
HETATM    3  O   UNL     1     -43.810 -50.347  13.924  1.00  0.00    -0.247 OA
HETATM    4  N   UNL     1     -42.733 -49.711  12.009  1.00  0.00    -0.338 N 
HETATM    5  H   UNL     1     -42.193 -52.136  11.991  1.00  0.00     0.171 HD
HETATM    6  H   UNL     1     -42.515 -49.994  11.063  1.00  0.00     0.164 HD
ENDROOT
BRANCH   1   7
HETATM    7  C   UNL     1     -43.679 -53.058  13.078  1.00  0.00     0.087 A 
HETATM    8  C   UNL     1     -45.013 -53.411  12.844  1.00  0.00     0.169 A 
HETATM    9  N   UNL     1     -45.641 -54.447  13.454  1.00  0.00    -0.345 N 
HETATM   10  C   UNL     1     -44.917 -55.161  14.340  1.00  0.00     0.090 A 
ATOM     11  HN  UNL     1     -46.615 -54.675  13.253  1.00  0.00     0.167 HD
HETATM   12  C   UNL     1     -43.599 -54.885  14.654  1.00  0.00     0.019 A 
HETATM   13  C   UNL     1     -42.972 -53.819  14.012  1.00  0.00     0.035 A 
BRANCH   8  14
HETATM   14  O   UNL     1     -45.699 -52.685  11.881  1.00  0.00    -0.339 OA
HETATM   15  C   UNL     1     -46.710 -51.849  12.444  1.00  0.00     0.211 C 
ENDBRANCH   8  14
ENDBRANCH   1   7
BRANCH   4  16
HETATM   16  C   UNL     1     -42.646 -48.303  12.412  1.00  0.00     0.089 C 
HETATM   17  C   UNL     1     -43.243 -47.319  11.396  1.00  0.00     0.045 C 
HETATM   18  C   UNL     1     -42.330 -46.976  10.221  1.00  0.00     0.137 C 
HETATM   19  N   UNL     1     -40.941 -46.699  10.653  1.00  0.00    -0.311 N 
HETATM   20  C   UNL     1     -40.365 -47.759  11.505  1.00  0.00     0.137 C 
HETATM   21  C   UNL     1     -41.202 -47.930  12.763  1.00  0.00     0.045 C 
BRANCH  19  22
HETATM   22  S   UNL     1     -40.477 -45.101  10.959  1.00  0.00     0.224 S 
HETATM   23  O   UNL     1     -41.606 -44.247  10.656  1.00  0.00    -0.206 OA
HETATM   24  O   UNL     1     -39.809 -45.039  12.240  1.00  0.00    -0.206 OA
HETATM   25  C   UNL     1     -39.235 -44.856   9.707  1.00  0.00     0.186 C 
ENDBRANCH  19  22
ENDBRANCH   4  16
TORSDOF 4
ENDMDL
MODEL 3
REMARK VINA RESULT:      -6.1      3.276      8.166
REMARK  4 active torsions:
REMARK  status: ('A' for Active; 'I' for Inactive)
REMARK    1  A    between atoms: O_2  and  C_3 
REMARK    2  A    between atoms: C_9  and  N_10 
REMARK       I    between atoms: N_10  and  C_11 
REMARK       I    between atoms: C_11  and  N_13 
REMARK    3  A    between atoms: N_13  and  C_14 
REMARK    4  A    between atoms: N_17  and  S_20 
ROOT
HETATM    1  N   UNL     1     -41.851 -49.340  11.016  1.00  0.00    -0.305 N 
HETATM    2  C   UNL     1     -42.015 -49.828  12.295  1.00  0.00     0.321 C 
HETATM    3  O   UNL     1     -42.047 -49.133  13.307  1.00  0.00    -0.247 OA
HETATM    4  N   UNL     1     -42.183 -51.197  12.329  1.00  0.00    -0.338 N 
HETATM    5  H   UNL     1     -42.433 -49.773  10.308  1.00  0.00     0.171 HD
HETATM    6  H   UNL     1     -41.917 -51.731  11.513  1.00  0.00     0.164 HD
ENDROOT
BRANCH   1   7
HETATM    7  C   UNL     1     -41.532 -47.978  10.762  1.00  0.00     0.087 A 
HETATM    8  C   UNL     1     -42.320 -47.202   9.903  1.00  0.00     0.169 A 
HETATM    9  N   UNL     1     -42.060 -45.906   9.601  1.00  0.00    -0.345 N 
HETATM   10  C   UNL     1     -40.968 -45.356  10.168  1.00  0.00     0.090 A 
ATOM     11  HN  UNL     1     -42.662 -45.373   8.974  1.00  0.00     0.167 HD
HETATM   12  C   UNL     1     -40.115 -46.040  11.016  1.00  0.00     0.019 A 
HETATM   13  C   UNL     1     -40.404 -47.369  11.317  1.00  0.00     0.035 A 
BRANCH   8  14
HETATM   14  O   UNL     1     -43.466 -47.793   9.391  1.00  0.00    -0.339 OA
HETATM   15  C   UNL     1     -43.488 -47.796   7.964  1.00  0.00     0.211 C 
ENDBRANCH   8  14
ENDBRANCH   1   7
BRANCH   4  16
HETATM   16  C   UNL     1     -42.570 -51.867  13.575  1.00  0.00     0.089 C 
HETATM   17  C   UNL     1     -42.313 -53.380  13.583  1.00  0.00     0.045 C 
HETATM   18  C   UNL     1     -43.374 -54.217  12.872  1.00  0.00     0.137 C 
HETATM   19  N   UNL     1     -44.749 -53.793  13.222  1.00  0.00    -0.311 N 
HETATM   20  C   UNL     1     -44.982 -52.345  13.047  1.00  0.00     0.137 C 
HETATM   21  C   UNL     1     -44.028 -51.552  13.927  1.00  0.00     0.045 C 
BRANCH  19  22
HETATM   22  S   UNL     1     -45.555 -54.574  14.488  1.00  0.00     0.224 S 
HETATM   23  O   UNL     1     -46.079 -55.822  13.975  1.00  0.00    -0.206 OA
HETATM   24  O   UNL     1     -44.726 -54.535  15.673  1.00  0.00    -0.206 OA
HETATM   25  C   UNL     1     -46.920 -53.464  14.765  1.00  0.00     0.186 C 
ENDBRANCH  19  22
ENDBRANCH   4  16
TORSDOF 4
ENDMDL
MODEL 4
REMARK VINA RESULT:      -5.8      3.686      8.147
REMARK  4 active torsions:
REMARK  status: ('A' for Active; 'I' for Inactive)
REMARK    1  A    between atoms: O_2  and  C_3 
REMARK    2  A    between atoms: C_9  and  N_10 
REMARK       I    between atoms: N_10  and  C_11 
REMARK       I    between atoms: C_11  and  N_13 
REMARK    3  A    between atoms: N_13  and  C_14 
REMARK    4  A    between atoms: N_17  and  S_20 
ROOT
HETATM    1  N   UNL     1     -41.802 -49.410  11.045  1.00  0.00    -0.305 N 
HETATM    2  C   UNL     1     -42.444 -49.838  12.186  1.00  0.00     0.321 C 
HETATM    3  O   UNL     1     -42.900 -49.094  13.051  1.00  0.00    -0.247 OA
HETATM    4  N   UNL     1     -42.565 -51.211  12.251  1.00  0.00    -0.338 N 
HETATM    5  H   UNL     1     -42.039 -49.914  10.198  1.00  0.00     0.171 HD
HETATM    6  H   UNL     1     -41.979 -51.771  11.647  1.00  0.00     0.164 HD
ENDROOT
BRANCH   1   7
HETATM    7  C   UNL     1     -41.454 -48.047  10.839  1.00  0.00     0.087 A 
HETATM    8  C   UNL     1     -42.253 -47.212  10.049  1.00  0.00     0.169 A 
HETATM    9  N   UNL     1     -41.968 -45.911   9.794  1.00  0.00    -0.345 N 
HETATM   10  C   UNL     1     -40.839 -45.416  10.341  1.00  0.00     0.090 A 
ATOM     11  HN  UNL     1     -42.579 -45.333   9.217  1.00  0.00     0.167 HD
HETATM   12  C   UNL     1     -39.974 -46.161  11.121  1.00  0.00     0.019 A 
HETATM   13  C   UNL     1     -40.288 -47.495  11.374  1.00  0.00     0.035 A 
BRANCH   8  14
HETATM   14  O   UNL     1     -43.434 -47.747   9.558  1.00  0.00    -0.339 OA
HETATM   15  C   UNL     1     -43.552 -47.606   8.142  1.00  0.00     0.211 C 
ENDBRANCH   8  14
ENDBRANCH   1   7
BRANCH   4  16
HETATM   16  C   UNL     1     -43.393 -51.836  13.288  1.00  0.00     0.089 C 
HETATM   17  C   UNL     1     -42.888 -51.608  14.720  1.00  0.00     0.045 C 
HETATM   18  C   UNL     1     -41.752 -52.531  15.155  1.00  0.00     0.137 C 
HETATM   19  N   UNL     1     -41.997 -53.941  14.771  1.00  0.00    -0.311 N 
HETATM   20  C   UNL     1     -42.329 -54.113  13.342  1.00  0.00     0.137 C 
HETATM   21  C   UNL     1     -43.585 -53.329  12.999  1.00  0.00     0.045 C 
BRANCH  19  22
HETATM   22  S   UNL     1     -42.732 -54.982  15.884  1.00  0.00     0.224 S 
HETATM   23  O   UNL     1     -43.338 -54.169  16.917  1.00  0.00    -0.206 OA
HETATM   24  O   UNL     1     -43.493 -55.980  15.166  1.00  0.00    -0.206 OA
HETATM   25  C   UNL     1     -41.312 -55.803  16.578  1.00  0.00     0.186 C 
ENDBRANCH  19  22
ENDBRANCH   4  16
TORSDOF 4
ENDMDL
MODEL 5
REMARK VINA RESULT:      -5.6      1.988      2.463
REMARK  4 active torsions:
REMARK  status: ('A' for Active; 'I' for Inactive)
REMARK    1  A    between atoms: O_2  and  C_3 
REMARK    2  A    between atoms: C_9  and  N_10 
REMARK       I    between atoms: N_10  and  C_11 
REMARK       I    between atoms: C_11  and  N_13 
REMARK    3  A    between atoms: N_13  and  C_14 
REMARK    4  A    between atoms: N_17  and  S_20 
ROOT
HETATM    1  N   UNL     1     -42.890 -51.698  12.365  1.00  0.00    -0.305 N 
HETATM    2  C   UNL     1     -43.228 -50.424  12.765  1.00  0.00     0.321 C 
HETATM    3  O   UNL     1     -43.811 -50.154  13.812  1.00  0.00    -0.247 OA
HETATM    4  N   UNL     1     -42.807 -49.454  11.879  1.00  0.00    -0.338 N 
HETATM    5  H   UNL     1     -41.971 -51.793  11.946  1.00  0.00     0.171 HD
HETATM    6  H   UNL     1     -42.550 -49.740  10.944  1.00  0.00     0.164 HD
ENDROOT
BRANCH   1   7
HETATM    7  C   UNL     1     -43.340 -52.854  13.060  1.00  0.00     0.087 A 
HETATM    8  C   UNL     1     -42.505 -53.520  13.965  1.00  0.00     0.169 A 
HETATM    9  N   UNL     1     -42.863 -54.638  14.644  1.00  0.00    -0.345 N 
HETATM   10  C   UNL     1     -44.100 -55.122  14.411  1.00  0.00     0.090 A 
ATOM     11  HN  UNL     1     -42.227 -55.092  15.299  1.00  0.00     0.167 HD
HETATM   12  C   UNL     1     -44.994 -54.550  13.525  1.00  0.00     0.019 A 
HETATM   13  C   UNL     1     -44.607 -53.398  12.842  1.00  0.00     0.035 A 
BRANCH   8  14
HETATM   14  O   UNL     1     -41.265 -52.952  14.217  1.00  0.00    -0.339 OA
HETATM   15  C   UNL     1     -40.186 -53.788  13.801  1.00  0.00     0.211 C 
ENDBRANCH   8  14
ENDBRANCH   1   7
BRANCH   4  16
HETATM   16  C   UNL     1     -42.898 -48.033  12.234  1.00  0.00     0.089 C 
HETATM   17  C   UNL     1     -43.324 -47.121  11.075  1.00  0.00     0.045 C 
HETATM   18  C   UNL     1     -42.203 -46.745  10.108  1.00  0.00     0.137 C 
HETATM   19  N   UNL     1     -40.960 -46.360  10.814  1.00  0.00    -0.311 N 
HETATM   20  C   UNL     1     -40.515 -47.353  11.812  1.00  0.00     0.137 C 
HETATM   21  C   UNL     1     -41.590 -47.550  12.869  1.00  0.00     0.045 C 
BRANCH  19  22
HETATM   22  S   UNL     1     -40.675 -44.725  11.146  1.00  0.00     0.224 S 
HETATM   23  O   UNL     1     -40.081 -44.130   9.968  1.00  0.00    -0.206 OA
HETATM   24  O   UNL     1     -41.851 -44.157  11.767  1.00  0.00    -0.206 OA
HETATM   25  C   UNL     1     -39.422 -44.843  12.406  1.00  0.00     0.186 C 
ENDBRANCH  19  22
ENDBRANCH   4  16
TORSDOF 4
ENDMDL
MODEL 6
REMARK VINA RESULT:      -5.5      1.283      2.069
REMARK  4 active torsions:
REMARK  status: ('A' for Active; 'I' for Inactive)
REMARK    1  A    between atoms: O_2  and  C_3 
REMARK    2  A    between atoms: C_9  and  N_10 
REMARK       I    between atoms: N_10  and  C_11 
REMARK       I    between atoms: C_11  and  N_13 
REMARK    3  A    between atoms: N_13  and  C_14 
REMARK    4  A    between atoms: N_17  and  S_20 
ROOT
HETATM    1  N   UNL     1     -44.890 -51.200  12.819  1.00  0.00    -0.305 N 
HETATM    2  C   UNL     1     -43.602 -50.721  12.933  1.00  0.00     0.321 C 
HETATM    3  O   UNL     1     -42.667 -51.346  13.426  1.00  0.00    -0.247 OA
HETATM    4  N   UNL     1     -43.450 -49.461  12.393  1.00  0.00    -0.338 N 
HETATM    5  H   UNL     1     -45.355 -50.990  11.943  1.00  0.00     0.171 HD
HETATM    6  H   UNL     1     -44.280 -48.911  12.220  1.00  0.00     0.164 HD
ENDROOT
BRANCH   1   7
HETATM    7  C   UNL     1     -45.299 -52.420  13.423  1.00  0.00     0.087 A 
HETATM    8  C   UNL     1     -46.064 -52.422  14.595  1.00  0.00     0.169 A 
HETATM    9  N   UNL     1     -46.469 -53.547  15.234  1.00  0.00    -0.345 N 
HETATM   10  C   UNL     1     -46.095 -54.723  14.692  1.00  0.00     0.090 A 
ATOM     11  HN  UNL     1     -47.031 -53.506  16.084  1.00  0.00     0.167 HD
HETATM   12  C   UNL     1     -45.325 -54.831  13.548  1.00  0.00     0.019 A 
HETATM   13  C   UNL     1     -44.924 -53.662  12.905  1.00  0.00     0.035 A 
BRANCH   8  14
HETATM   14  O   UNL     1     -46.477 -51.190  15.081  1.00  0.00    -0.339 OA
HETATM   15  C   UNL     1     -47.370 -51.311  16.188  1.00  0.00     0.211 C 
ENDBRANCH   8  14
ENDBRANCH   1   7
BRANCH   4  16
HETATM   16  C   UNL     1     -42.113 -48.875  12.242  1.00  0.00     0.089 C 
HETATM   17  C   UNL     1     -41.766 -47.817  13.299  1.00  0.00     0.045 C 
HETATM   18  C   UNL     1     -42.341 -46.427  13.032  1.00  0.00     0.137 C 
HETATM   19  N   UNL     1     -42.169 -46.013  11.620  1.00  0.00    -0.311 N 
HETATM   20  C   UNL     1     -42.664 -47.009  10.649  1.00  0.00     0.137 C 
HETATM   21  C   UNL     1     -41.922 -48.325  10.825  1.00  0.00     0.045 C 
BRANCH  19  22
HETATM   22  S   UNL     1     -40.814 -45.096  11.189  1.00  0.00     0.224 S 
HETATM   23  O   UNL     1     -39.766 -46.014  10.796  1.00  0.00    -0.206 OA
HETATM   24  O   UNL     1     -41.231 -44.014  10.326  1.00  0.00    -0.206 OA
HETATM   25  C   UNL     1     -40.372 -44.377  12.757  1.00  0.00     0.186 C 
ENDBRANCH  19  22
ENDBRANCH   4  16
TORSDOF 4
ENDMDL
MODEL 7
REMARK VINA RESULT:      -5.5      3.229      8.151
REMARK  4 active torsions:
REMARK  status: ('A' for Active; 'I' for Inactive)
REMARK    1  A    between atoms: O_2  and  C_3 
REMARK    2  A    between atoms: C_9  and  N_10 
REMARK       I    between atoms: N_10  and  C_11 
REMARK       I    between atoms: C_11  and  N_13 
REMARK    3  A    between atoms: N_13  and  C_14 
REMARK    4  A    between atoms: N_17  and  S_20 
ROOT
HETATM    1  N   UNL     1     -42.025 -49.296  11.120  1.00  0.00    -0.305 N 
HETATM    2  C   UNL     1     -42.327 -49.711  12.400  1.00  0.00     0.321 C 
HETATM    3  O   UNL     1     -42.413 -48.966  13.372  1.00  0.00    -0.247 OA
HETATM    4  N   UNL     1     -42.566 -51.067  12.481  1.00  0.00    -0.338 N 
HETATM    5  H   UNL     1     -42.563 -49.736  10.383  1.00  0.00     0.171 HD
HETATM    6  H   UNL     1     -42.257 -51.654  11.718  1.00  0.00     0.164 HD
ENDROOT
BRANCH   1   7
HETATM    7  C   UNL     1     -41.615 -47.965  10.834  1.00  0.00     0.087 A 
HETATM    8  C   UNL     1     -40.298 -47.552  11.065  1.00  0.00     0.169 A 
HETATM    9  N   UNL     1     -39.847 -46.294  10.834  1.00  0.00    -0.345 N 
HETATM   10  C   UNL     1     -40.742 -45.404  10.361  1.00  0.00     0.090 A 
ATOM     11  HN  UNL     1     -38.877 -46.034  11.011  1.00  0.00     0.167 HD
HETATM   12  C   UNL     1     -42.069 -45.705  10.115  1.00  0.00     0.019 A 
HETATM   13  C   UNL     1     -42.510 -47.005  10.355  1.00  0.00     0.035 A 
BRANCH   8  14
HETATM   14  O   UNL     1     -39.400 -48.517  11.494  1.00  0.00    -0.339 OA
HETATM   15  C   UNL     1     -38.974 -48.307  12.840  1.00  0.00     0.211 C 
ENDBRANCH   8  14
ENDBRANCH   1   7
BRANCH   4  16
HETATM   16  C   UNL     1     -43.097 -51.655  13.715  1.00  0.00     0.089 C 
HETATM   17  C   UNL     1     -42.840 -53.162  13.857  1.00  0.00     0.045 C 
HETATM   18  C   UNL     1     -43.809 -54.055  13.085  1.00  0.00     0.137 C 
HETATM   19  N   UNL     1     -45.216 -53.621  13.242  1.00  0.00    -0.311 N 
HETATM   20  C   UNL     1     -45.429 -52.191  12.943  1.00  0.00     0.137 C 
HETATM   21  C   UNL     1     -44.587 -51.331  13.871  1.00  0.00     0.045 C 
BRANCH  19  22
HETATM   22  S   UNL     1     -46.164 -54.323  14.455  1.00  0.00     0.224 S 
HETATM   23  O   UNL     1     -47.323 -53.478  14.655  1.00  0.00    -0.206 OA
HETATM   24  O   UNL     1     -46.301 -55.738  14.190  1.00  0.00    -0.206 OA
HETATM   25  C   UNL     1     -45.096 -54.154  15.869  1.00  0.00     0.186 C 
ENDBRANCH  19  22
ENDBRANCH   4  16
TORSDOF 4
ENDMDL
MODEL 8
REMARK VINA RESULT:      -5.3      4.779      7.250
REMARK  4 active torsions:
REMARK  status: ('A' for Active; 'I' for Inactive)
REMARK    1  A    between atoms: O_2  and  C_3 
REMARK    2  A    between atoms: C_9  and  N_10 
REMARK       I    between atoms: N_10  and  C_11 
REMARK       I    between atoms: C_11  and  N_13 
REMARK    3  A    between atoms: N_13  and  C_14 
REMARK    4  A    between atoms: N_17  and  S_20 
ROOT
HETATM    1  N   UNL     1     -41.476 -47.264  12.536  1.00  0.00    -0.305 N 
HETATM    2  C   UNL     1     -40.583 -48.300  12.705  1.00  0.00     0.321 C 
HETATM    3  O   UNL     1     -40.255 -49.089  11.823  1.00  0.00    -0.247 OA
HETATM    4  N   UNL     1     -40.049 -48.345  13.977  1.00  0.00    -0.338 N 
HETATM    5  H   UNL     1     -41.219 -46.392  12.983  1.00  0.00     0.171 HD
HETATM    6  H   UNL     1     -40.519 -47.834  14.711  1.00  0.00     0.164 HD
ENDROOT
BRANCH   1   7
HETATM    7  C   UNL     1     -42.241 -47.112  11.348  1.00  0.00     0.087 A 
HETATM    8  C   UNL     1     -41.780 -46.319  10.291  1.00  0.00     0.169 A 
HETATM    9  N   UNL     1     -42.468 -46.114   9.140  1.00  0.00    -0.345 N 
HETATM   10  C   UNL     1     -43.669 -46.716   9.034  1.00  0.00     0.090 A 
ATOM     11  HN  UNL     1     -42.093 -45.532   8.391  1.00  0.00     0.167 HD
HETATM   12  C   UNL     1     -44.223 -47.505  10.026  1.00  0.00     0.019 A 
HETATM   13  C   UNL     1     -43.497 -47.706  11.198  1.00  0.00     0.035 A 
BRANCH   8  14
HETATM   14  O   UNL     1     -40.513 -45.769  10.420  1.00  0.00    -0.339 OA
HETATM   15  C   UNL     1     -40.550 -44.381  10.750  1.00  0.00     0.211 C 
ENDBRANCH   8  14
ENDBRANCH   1   7
BRANCH   4  16
HETATM   16  C   UNL     1     -38.936 -49.250  14.283  1.00  0.00     0.089 C 
HETATM   17  C   UNL     1     -38.929 -49.775  15.726  1.00  0.00     0.045 C 
HETATM   18  C   UNL     1     -38.350 -48.809  16.758  1.00  0.00     0.137 C 
HETATM   19  N   UNL     1     -37.094 -48.178  16.292  1.00  0.00    -0.311 N 
HETATM   20  C   UNL     1     -37.206 -47.555  14.958  1.00  0.00     0.137 C 
HETATM   21  C   UNL     1     -37.596 -48.599  13.924  1.00  0.00     0.045 C 
BRANCH  19  22
HETATM   22  S   UNL     1     -35.614 -48.882  16.712  1.00  0.00     0.224 S 
HETATM   23  O   UNL     1     -35.607 -50.237  16.202  1.00  0.00    -0.206 OA
HETATM   24  O   UNL     1     -34.546 -47.957  16.406  1.00  0.00    -0.206 OA
HETATM   25  C   UNL     1     -35.756 -48.952  18.486  1.00  0.00     0.186 C 
ENDBRANCH  19  22
ENDBRANCH   4  16
TORSDOF 4
ENDMDL
MODEL 9
REMARK VINA RESULT:      -5.2      4.904      8.319
REMARK  4 active torsions:
REMARK  status: ('A' for Active; 'I' for Inactive)
REMARK    1  A    between atoms: O_2  and  C_3 
REMARK    2  A    between atoms: C_9  and  N_10 
REMARK       I    between atoms: N_10  and  C_11 
REMARK       I    between atoms: C_11  and  N_13 
REMARK    3  A    between atoms: N_13  and  C_14 
REMARK    4  A    between atoms: N_17  and  S_20 
ROOT
HETATM    1  N   UNL     1     -41.694 -50.103  13.224  1.00  0.00    -0.305 N 
HETATM    2  C   UNL     1     -41.633 -51.468  13.050  1.00  0.00     0.321 C 
HETATM    3  O   UNL     1     -41.703 -52.038  11.964  1.00  0.00    -0.247 OA
HETATM    4  N   UNL     1     -41.443 -52.151  14.234  1.00  0.00    -0.338 N 
HETATM    5  H   UNL     1     -41.044 -49.721  13.901  1.00  0.00     0.171 HD
HETATM    6  H   UNL     1     -41.626 -51.665  15.101  1.00  0.00     0.164 HD
ENDROOT
BRANCH   1   7
HETATM    7  C   UNL     1     -42.017 -49.219  12.158  1.00  0.00     0.087 A 
HETATM    8  C   UNL     1     -41.061 -48.873  11.195  1.00  0.00     0.169 A 
HETATM    9  N   UNL     1     -41.296 -48.021  10.167  1.00  0.00    -0.345 N 
HETATM   10  C   UNL     1     -42.529 -47.482  10.092  1.00  0.00     0.090 A 
ATOM     11  HN  UNL     1     -40.573 -47.798   9.482  1.00  0.00     0.167 HD
HETATM   12  C   UNL     1     -43.538 -47.744  11.001  1.00  0.00     0.019 A 
HETATM   13  C   UNL     1     -43.277 -48.627  12.047  1.00  0.00     0.035 A 
BRANCH   8  14
HETATM   14  O   UNL     1     -39.826 -49.499  11.278  1.00  0.00    -0.339 OA
HETATM   15  C   UNL     1     -38.858 -48.708  11.965  1.00  0.00     0.211 C 
ENDBRANCH   8  14
ENDBRANCH   1   7
BRANCH   4  16
HETATM   16  C   UNL     1     -41.152 -53.589  14.224  1.00  0.00     0.089 C 
HETATM   17  C   UNL     1     -41.840 -54.378  15.347  1.00  0.00     0.045 C 
HETATM   18  C   UNL     1     -41.143 -54.307  16.704  1.00  0.00     0.137 C 
HETATM   19  N   UNL     1     -39.677 -54.487  16.590  1.00  0.00    -0.311 N 
HETATM   20  C   UNL     1     -39.048 -53.589  15.601  1.00  0.00     0.137 C 
HETATM   21  C   UNL     1     -39.639 -53.834  14.222  1.00  0.00     0.045 C 
BRANCH  19  22
HETATM   22  S   UNL     1     -39.019 -56.034  16.783  1.00  0.00     0.224 S 
HETATM   23  O   UNL     1     -40.089 -56.994  16.613  1.00  0.00    -0.206 OA
HETATM   24  O   UNL     1     -37.795 -56.126  16.018  1.00  0.00    -0.206 OA
HETATM   25  C   UNL     1     -38.563 -56.002  18.504  1.00  0.00     0.186 C 
ENDBRANCH  19  22
ENDBRANCH   4  16
TORSDOF 4
ENDMDL
