MODEL 1
REMARK VINA RESULT:      -6.4      0.000      0.000
REMARK  5 active torsions:
REMARK  status: ('A' for Active; 'I' for Inactive)
REMARK    1  A    between atoms: N_5  and  C_6 
REMARK    2  A    between atoms: C_6  and  C_7 
REMARK    3  A    between atoms: C_7  and  O_8 
REMARK    4  A    between atoms: C_7  and  C_9 
REMARK    5  A    between atoms: C_9  and  N_10 
ROOT
HETATM    1  N   UNL     1     -41.660 -48.214  11.509  1.00  0.00    -0.254 N 
HETATM    2  N   UNL     1     -42.915 -48.389  10.999  1.00  0.00    -0.300 N 
ATOM      3  HN  UNL     1     -43.413 -49.271  11.123  1.00  0.00     0.187 HD
HETATM    4  C   UNL     1     -43.457 -47.406  10.353  1.00  0.00     0.029 A 
HETATM    5  C   UNL     1     -44.819 -47.672   9.753  1.00  0.00     0.070 C 
HETATM    6  C   UNL     1     -42.835 -46.062  10.183  1.00  0.00    -0.012 A 
HETATM    7  C   UNL     1     -43.599 -44.934   9.556  1.00  0.00     0.052 C 
HETATM    8  C   UNL     1     -41.585 -45.933  10.663  1.00  0.00     0.121 A 
HETATM    9  C   UNL     1     -40.894 -44.690  10.622  1.00  0.00     0.105 C 
HETATM   10  N   UNL     1     -40.392 -43.645  10.562  1.00  0.00    -0.191 NA
HETATM   11  C   UNL     1     -40.900 -47.065  11.325  1.00  0.00     0.283 A 
HETATM   12  O   UNL     1     -39.737 -46.962  11.724  1.00  0.00    -0.265 OA
ENDROOT
BRANCH   1  13
HETATM   13  C   UNL     1     -41.202 -49.231  12.456  1.00  0.00     0.186 C 
BRANCH  13  14
HETATM   14  C   UNL     1     -40.579 -50.432  11.709  1.00  0.00     0.166 C 
BRANCH  14  15
HETATM   15  C   UNL     1     -41.396 -51.720  11.991  1.00  0.00     0.305 C 
BRANCH  15  16
HETATM   16  N   UNL     1     -42.184 -51.743  13.245  1.00  0.00     0.091 N 
HETATM   17  C   UNL     1     -41.766 -52.770  14.213  1.00  0.00     0.273 C 
HETATM   18  C   UNL     1     -42.016 -54.198  13.716  1.00  0.00     0.034 C 
HETATM   19  C   UNL     1     -43.496 -54.426  13.379  1.00  0.00    -0.015 C 
HETATM   20  C   UNL     1     -44.330 -54.577  14.655  1.00  0.00     0.010 C 
HETATM   21  C   UNL     1     -44.027 -53.292  12.486  1.00  0.00     0.034 C 
HETATM   22  C   UNL     1     -43.626 -51.895  12.978  1.00  0.00     0.273 C 
ENDBRANCH  15  16
ENDBRANCH  14  15
BRANCH  14  23
HETATM   23  O   UNL     1     -40.535 -50.143  10.302  1.00  0.00    -0.392 OA
HETATM   24  H   UNL     1     -41.022 -49.312  10.141  1.00  0.00     0.210 HD
ENDBRANCH  14  23
ENDBRANCH  13  14
ENDBRANCH   1  13
TORSDOF 5
ENDMDL
MODEL 2
REMARK VINA RESULT:      -6.3      1.911      2.720
REMARK  5 active torsions:
REMARK  status: ('A' for Active; 'I' for Inactive)
REMARK    1  A    between atoms: N_5  and  C_6 
REMARK    2  A    between atoms: C_6  and  C_7 
REMARK    3  A    between atoms: C_7  and  O_8 
REMARK    4  A    between atoms: C_7  and  C_9 
REMARK    5  A    between atoms: C_9  and  N_10 
ROOT
HETATM    1  N   UNL     1     -41.514 -47.186  11.348  1.00  0.00    -0.254 N 
HETATM    2  N   UNL     1     -40.567 -46.697  10.493  1.00  0.00    -0.300 N 
ATOM      3  HN  UNL     1     -40.105 -47.307   9.818  1.00  0.00     0.187 HD
HETATM    4  C   UNL     1     -40.271 -45.439  10.562  1.00  0.00     0.029 A 
HETATM    5  C   UNL     1     -39.172 -44.960   9.640  1.00  0.00     0.070 C 
HETATM    6  C   UNL     1     -40.942 -44.460  11.464  1.00  0.00    -0.012 A 
HETATM    7  C   UNL     1     -40.645 -42.994  11.367  1.00  0.00     0.052 C 
HETATM    8  C   UNL     1     -41.841 -44.979  12.320  1.00  0.00     0.121 A 
HETATM    9  C   UNL     1     -42.599 -44.154  13.198  1.00  0.00     0.105 C 
HETATM   10  N   UNL     1     -43.187 -43.422  13.880  1.00  0.00    -0.191 NA
HETATM   11  C   UNL     1     -42.137 -46.429  12.332  1.00  0.00     0.283 A 
HETATM   12  O   UNL     1     -42.927 -46.912  13.148  1.00  0.00    -0.265 OA
ENDROOT
BRANCH   1  13
HETATM   13  C   UNL     1     -42.013 -48.530  11.056  1.00  0.00     0.186 C 
BRANCH  13  14
HETATM   14  C   UNL     1     -40.959 -49.597  11.428  1.00  0.00     0.166 C 
BRANCH  14  15
HETATM   15  C   UNL     1     -41.650 -50.837  12.055  1.00  0.00     0.305 C 
BRANCH  15  16
HETATM   16  N   UNL     1     -41.134 -51.288  13.368  1.00  0.00     0.091 N 
HETATM   17  C   UNL     1     -40.236 -52.453  13.305  1.00  0.00     0.273 C 
HETATM   18  C   UNL     1     -40.945 -53.731  12.844  1.00  0.00     0.034 C 
HETATM   19  C   UNL     1     -42.127 -54.082  13.759  1.00  0.00    -0.015 C 
HETATM   20  C   UNL     1     -41.637 -54.668  15.086  1.00  0.00     0.010 C 
HETATM   21  C   UNL     1     -43.022 -52.850  13.980  1.00  0.00     0.034 C 
HETATM   22  C   UNL     1     -42.229 -51.578  14.312  1.00  0.00     0.273 C 
ENDBRANCH  15  16
ENDBRANCH  14  15
BRANCH  14  23
HETATM   23  O   UNL     1     -40.215 -49.957  10.252  1.00  0.00    -0.392 OA
HETATM   24  H   UNL     1     -40.840 -50.293   9.581  1.00  0.00     0.210 HD
ENDBRANCH  14  23
ENDBRANCH  13  14
ENDBRANCH   1  13
TORSDOF 5
ENDMDL
MODEL 3
REMARK VINA RESULT:      -6.3      3.692      7.208
REMARK  5 active torsions:
REMARK  status: ('A' for Active; 'I' for Inactive)
REMARK    1  A    between atoms: N_5  and  C_6 
REMARK    2  A    between atoms: C_6  and  C_7 
REMARK    3  A    between atoms: C_7  and  O_8 
REMARK    4  A    between atoms: C_7  and  C_9 
REMARK    5  A    between atoms: C_9  and  N_10 
ROOT
HETATM    1  N   UNL     1     -42.269 -52.723  12.630  1.00  0.00    -0.254 N 
HETATM    2  N   UNL     1     -43.523 -52.390  12.202  1.00  0.00    -0.300 N 
ATOM      3  HN  UNL     1     -43.658 -51.707  11.457  1.00  0.00     0.187 HD
HETATM    4  C   UNL     1     -44.535 -52.964  12.768  1.00  0.00     0.029 A 
HETATM    5  C   UNL     1     -45.903 -52.514  12.305  1.00  0.00     0.070 C 
HETATM    6  C   UNL     1     -44.432 -54.023  13.813  1.00  0.00    -0.012 A 
HETATM    7  C   UNL     1     -45.652 -54.744  14.301  1.00  0.00     0.052 C 
HETATM    8  C   UNL     1     -43.187 -54.301  14.239  1.00  0.00     0.121 A 
HETATM    9  C   UNL     1     -42.936 -55.330  15.190  1.00  0.00     0.105 C 
HETATM   10  N   UNL     1     -42.803 -56.186  15.962  1.00  0.00    -0.191 NA
HETATM   11  C   UNL     1     -42.012 -53.596  13.680  1.00  0.00     0.283 A 
HETATM   12  O   UNL     1     -40.875 -53.818  14.103  1.00  0.00    -0.265 OA
ENDROOT
BRANCH   1  13
HETATM   13  C   UNL     1     -41.160 -52.269  11.790  1.00  0.00     0.186 C 
BRANCH  13  14
HETATM   14  C   UNL     1     -41.083 -50.726  11.774  1.00  0.00     0.166 C 
BRANCH  14  15
HETATM   15  C   UNL     1     -40.293 -50.216  13.008  1.00  0.00     0.305 C 
BRANCH  15  16
HETATM   16  N   UNL     1     -38.824 -50.403  12.978  1.00  0.00     0.091 N 
HETATM   17  C   UNL     1     -38.317 -51.426  13.908  1.00  0.00     0.273 C 
HETATM   18  C   UNL     1     -38.506 -51.044  15.379  1.00  0.00     0.034 C 
HETATM   19  C   UNL     1     -37.820 -49.711  15.708  1.00  0.00    -0.015 C 
HETATM   20  C   UNL     1     -36.301 -49.887  15.806  1.00  0.00     0.010 C 
HETATM   21  C   UNL     1     -38.200 -48.638  14.673  1.00  0.00     0.034 C 
HETATM   22  C   UNL     1     -38.110 -49.137  13.224  1.00  0.00     0.273 C 
ENDBRANCH  15  16
ENDBRANCH  14  15
BRANCH  14  23
HETATM   23  O   UNL     1     -40.466 -50.295  10.550  1.00  0.00    -0.392 OA
HETATM   24  H   UNL     1     -40.110 -51.080  10.090  1.00  0.00     0.210 HD
ENDBRANCH  14  23
ENDBRANCH  13  14
ENDBRANCH   1  13
TORSDOF 5
ENDMDL
MODEL 4
REMARK VINA RESULT:      -6.0      4.122      5.694
REMARK  5 active torsions:
REMARK  status: ('A' for Active; 'I' for Inactive)
REMARK    1  A    between atoms: N_5  and  C_6 
REMARK    2  A    between atoms: C_6  and  C_7 
REMARK    3  A    between atoms: C_7  and  O_8 
REMARK    4  A    between atoms: C_7  and  C_9 
REMARK    5  A    between atoms: C_9  and  N_10 
ROOT
HETATM    1  N   UNL     1     -39.775 -51.008  13.728  1.00  0.00    -0.254 N 
HETATM    2  N   UNL     1     -39.761 -52.033  14.630  1.00  0.00    -0.300 N 
ATOM      3  HN  UNL     1     -40.353 -52.853  14.500  1.00  0.00     0.187 HD
HETATM    4  C   UNL     1     -38.975 -51.937  15.655  1.00  0.00     0.029 A 
HETATM    5  C   UNL     1     -39.044 -53.067  16.657  1.00  0.00     0.070 C 
HETATM    6  C   UNL     1     -38.026 -50.812  15.890  1.00  0.00    -0.012 A 
HETATM    7  C   UNL     1     -37.042 -50.858  17.020  1.00  0.00     0.052 C 
HETATM    8  C   UNL     1     -38.091 -49.801  15.005  1.00  0.00     0.121 A 
HETATM    9  C   UNL     1     -37.203 -48.690  15.073  1.00  0.00     0.105 C 
HETATM   10  N   UNL     1     -36.443 -47.820  15.184  1.00  0.00    -0.191 NA
HETATM   11  C   UNL     1     -39.043 -49.835  13.873  1.00  0.00     0.283 A 
HETATM   12  O   UNL     1     -39.136 -48.888  13.088  1.00  0.00    -0.265 OA
ENDROOT
BRANCH   1  13
HETATM   13  C   UNL     1     -40.456 -51.274  12.460  1.00  0.00     0.186 C 
BRANCH  13  14
HETATM   14  C   UNL     1     -41.068 -52.692  12.456  1.00  0.00     0.166 C 
BRANCH  14  15
HETATM   15  C   UNL     1     -42.612 -52.609  12.340  1.00  0.00     0.305 C 
BRANCH  15  16
HETATM   16  N   UNL     1     -43.388 -52.981  13.547  1.00  0.00     0.091 N 
HETATM   17  C   UNL     1     -44.707 -53.572  13.268  1.00  0.00     0.273 C 
HETATM   18  C   UNL     1     -45.682 -52.583  12.621  1.00  0.00     0.034 C 
HETATM   19  C   UNL     1     -45.885 -51.338  13.495  1.00  0.00    -0.015 C 
HETATM   20  C   UNL     1     -46.786 -51.653  14.694  1.00  0.00     0.010 C 
HETATM   21  C   UNL     1     -44.529 -50.763  13.940  1.00  0.00     0.034 C 
HETATM   22  C   UNL     1     -43.559 -51.835  14.457  1.00  0.00     0.273 C 
ENDBRANCH  15  16
ENDBRANCH  14  15
BRANCH  14  23
HETATM   23  O   UNL     1     -40.506 -53.447  11.370  1.00  0.00    -0.392 OA
HETATM   24  H   UNL     1     -41.226 -53.937  10.928  1.00  0.00     0.210 HD
ENDBRANCH  14  23
ENDBRANCH  13  14
ENDBRANCH   1  13
TORSDOF 5
ENDMDL
MODEL 5
REMARK VINA RESULT:      -5.9      2.679      4.354
REMARK  5 active torsions:
REMARK  status: ('A' for Active; 'I' for Inactive)
REMARK    1  A    between atoms: N_5  and  C_6 
REMARK    2  A    between atoms: C_6  and  C_7 
REMARK    3  A    between atoms: C_7  and  O_8 
REMARK    4  A    between atoms: C_7  and  C_9 
REMARK    5  A    between atoms: C_9  and  N_10 
ROOT
HETATM    1  N   UNL     1     -40.550 -50.631  12.554  1.00  0.00    -0.254 N 
HETATM    2  N   UNL     1     -39.624 -51.063  13.461  1.00  0.00    -0.300 N 
ATOM      3  HN  UNL     1     -39.552 -52.050  13.708  1.00  0.00     0.187 HD
HETATM    4  C   UNL     1     -38.840 -50.185  13.999  1.00  0.00     0.029 A 
HETATM    5  C   UNL     1     -37.877 -50.703  15.044  1.00  0.00     0.070 C 
HETATM    6  C   UNL     1     -38.825 -48.736  13.650  1.00  0.00    -0.012 A 
HETATM    7  C   UNL     1     -37.778 -47.820  14.208  1.00  0.00     0.052 C 
HETATM    8  C   UNL     1     -39.773 -48.337  12.783  1.00  0.00     0.121 A 
HETATM    9  C   UNL     1     -39.839 -46.994  12.315  1.00  0.00     0.105 C 
HETATM   10  N   UNL     1     -39.830 -45.886  11.971  1.00  0.00    -0.191 NA
HETATM   11  C   UNL     1     -40.746 -49.297  12.218  1.00  0.00     0.283 A 
HETATM   12  O   UNL     1     -41.645 -48.924  11.460  1.00  0.00    -0.265 OA
ENDROOT
BRANCH   1  13
HETATM   13  C   UNL     1     -41.220 -51.671  11.773  1.00  0.00     0.186 C 
BRANCH  13  14
HETATM   14  C   UNL     1     -41.449 -52.937  12.630  1.00  0.00     0.166 C 
BRANCH  14  15
HETATM   15  C   UNL     1     -42.936 -53.373  12.553  1.00  0.00     0.305 C 
BRANCH  15  16
HETATM   16  N   UNL     1     -43.690 -53.384  13.828  1.00  0.00     0.091 N 
HETATM   17  C   UNL     1     -45.091 -53.821  13.707  1.00  0.00     0.273 C 
HETATM   18  C   UNL     1     -45.954 -52.848  12.897  1.00  0.00     0.034 C 
HETATM   19  C   UNL     1     -45.938 -51.439  13.507  1.00  0.00    -0.015 C 
HETATM   20  C   UNL     1     -46.808 -51.378  14.766  1.00  0.00     0.010 C 
HETATM   21  C   UNL     1     -44.494 -50.991  13.793  1.00  0.00     0.034 C 
HETATM   22  C   UNL     1     -43.654 -52.069  14.492  1.00  0.00     0.273 C 
ENDBRANCH  15  16
ENDBRANCH  14  15
BRANCH  14  23
HETATM   23  O   UNL     1     -40.577 -53.983  12.173  1.00  0.00    -0.392 OA
HETATM   24  H   UNL     1     -40.415 -54.597  12.914  1.00  0.00     0.210 HD
ENDBRANCH  14  23
ENDBRANCH  13  14
ENDBRANCH   1  13
TORSDOF 5
ENDMDL
MODEL 6
REMARK VINA RESULT:      -5.8      4.280      6.955
REMARK  5 active torsions:
REMARK  status: ('A' for Active; 'I' for Inactive)
REMARK    1  A    between atoms: N_5  and  C_6 
REMARK    2  A    between atoms: C_6  and  C_7 
REMARK    3  A    between atoms: C_7  and  O_8 
REMARK    4  A    between atoms: C_7  and  C_9 
REMARK    5  A    between atoms: C_9  and  N_10 
ROOT
HETATM    1  N   UNL     1     -43.064 -53.499  14.009  1.00  0.00    -0.254 N 
HETATM    2  N   UNL     1     -43.231 -52.961  15.254  1.00  0.00    -0.300 N 
ATOM      3  HN  UNL     1     -42.501 -53.044  15.962  1.00  0.00     0.187 HD
HETATM    4  C   UNL     1     -44.339 -52.343  15.511  1.00  0.00     0.029 A 
HETATM    5  C   UNL     1     -44.501 -51.823  16.921  1.00  0.00     0.070 C 
HETATM    6  C   UNL     1     -45.428 -52.113  14.520  1.00  0.00    -0.012 A 
HETATM    7  C   UNL     1     -46.608 -51.252  14.859  1.00  0.00     0.052 C 
HETATM    8  C   UNL     1     -45.251 -52.687  13.316  1.00  0.00     0.121 A 
HETATM    9  C   UNL     1     -46.183 -52.501  12.256  1.00  0.00     0.105 C 
HETATM   10  N   UNL     1     -46.978 -52.301  11.435  1.00  0.00    -0.191 NA
HETATM   11  C   UNL     1     -44.038 -53.479  13.017  1.00  0.00     0.283 A 
HETATM   12  O   UNL     1     -43.897 -54.044  11.930  1.00  0.00    -0.265 OA
ENDROOT
BRANCH   1  13
HETATM   13  C   UNL     1     -41.710 -53.939  13.673  1.00  0.00     0.186 C 
BRANCH  13  14
HETATM   14  C   UNL     1     -41.006 -52.899  12.772  1.00  0.00     0.166 C 
BRANCH  14  15
HETATM   15  C   UNL     1     -39.749 -52.337  13.485  1.00  0.00     0.305 C 
BRANCH  15  16
HETATM   16  N   UNL     1     -39.937 -51.104  14.285  1.00  0.00     0.091 N 
HETATM   17  C   UNL     1     -40.179 -49.889  13.490  1.00  0.00     0.273 C 
HETATM   18  C   UNL     1     -38.969 -49.475  12.646  1.00  0.00     0.034 C 
HETATM   19  C   UNL     1     -37.726 -49.243  13.518  1.00  0.00    -0.015 C 
HETATM   20  C   UNL     1     -37.829 -47.914  14.272  1.00  0.00     0.010 C 
HETATM   21  C   UNL     1     -37.513 -50.425  14.480  1.00  0.00     0.034 C 
HETATM   22  C   UNL     1     -38.800 -50.865  15.192  1.00  0.00     0.273 C 
ENDBRANCH  15  16
ENDBRANCH  14  15
BRANCH  14  23
HETATM   23  O   UNL     1     -40.661 -53.514  11.520  1.00  0.00    -0.392 OA
HETATM   24  H   UNL     1     -41.465 -53.565  10.968  1.00  0.00     0.210 HD
ENDBRANCH  14  23
ENDBRANCH  13  14
ENDBRANCH   1  13
TORSDOF 5
ENDMDL
MODEL 7
REMARK VINA RESULT:      -5.8      5.352      7.773
REMARK  5 active torsions:
REMARK  status: ('A' for Active; 'I' for Inactive)
REMARK    1  A    between atoms: N_5  and  C_6 
REMARK    2  A    between atoms: C_6  and  C_7 
REMARK    3  A    between atoms: C_7  and  O_8 
REMARK    4  A    between atoms: C_7  and  C_9 
REMARK    5  A    between atoms: C_9  and  N_10 
ROOT
HETATM    1  N   UNL     1     -43.742 -54.391  14.093  1.00  0.00    -0.254 N 
HETATM    2  N   UNL     1     -43.353 -55.217  15.109  1.00  0.00    -0.300 N 
ATOM      3  HN  UNL     1     -44.025 -55.826  15.575  1.00  0.00     0.187 HD
HETATM    4  C   UNL     1     -42.108 -55.206  15.464  1.00  0.00     0.029 A 
HETATM    5  C   UNL     1     -41.741 -56.089  16.636  1.00  0.00     0.070 C 
HETATM    6  C   UNL     1     -41.045 -54.404  14.796  1.00  0.00    -0.012 A 
HETATM    7  C   UNL     1     -39.603 -54.570  15.172  1.00  0.00     0.052 C 
HETATM    8  C   UNL     1     -41.466 -53.573  13.826  1.00  0.00     0.121 A 
HETATM    9  C   UNL     1     -40.552 -52.791  13.064  1.00  0.00     0.105 C 
HETATM   10  N   UNL     1     -39.752 -52.189  12.477  1.00  0.00    -0.191 NA
HETATM   11  C   UNL     1     -42.896 -53.491  13.456  1.00  0.00     0.283 A 
HETATM   12  O   UNL     1     -43.289 -52.696  12.598  1.00  0.00    -0.265 OA
ENDROOT
BRANCH   1  13
HETATM   13  C   UNL     1     -45.076 -54.631  13.542  1.00  0.00     0.186 C 
BRANCH  13  14
HETATM   14  C   UNL     1     -46.133 -54.672  14.669  1.00  0.00     0.166 C 
BRANCH  14  15
HETATM   15  C   UNL     1     -46.805 -53.282  14.823  1.00  0.00     0.305 C 
BRANCH  15  16
HETATM   16  N   UNL     1     -46.019 -52.242  15.529  1.00  0.00     0.091 N 
HETATM   17  C   UNL     1     -45.412 -52.687  16.794  1.00  0.00     0.273 C 
HETATM   18  C   UNL     1     -46.449 -53.015  17.873  1.00  0.00     0.034 C 
HETATM   19  C   UNL     1     -47.355 -51.811  18.169  1.00  0.00    -0.015 C 
HETATM   20  C   UNL     1     -46.614 -50.762  19.005  1.00  0.00     0.010 C 
HETATM   21  C   UNL     1     -47.900 -51.212  16.862  1.00  0.00     0.034 C 
HETATM   22  C   UNL     1     -46.823 -51.033  15.782  1.00  0.00     0.273 C 
ENDBRANCH  15  16
ENDBRANCH  14  15
BRANCH  14  23
HETATM   23  O   UNL     1     -47.105 -55.688  14.369  1.00  0.00    -0.392 OA
HETATM   24  H   UNL     1     -47.732 -55.745  15.115  1.00  0.00     0.210 HD
ENDBRANCH  14  23
ENDBRANCH  13  14
ENDBRANCH   1  13
TORSDOF 5
ENDMDL
MODEL 8
REMARK VINA RESULT:      -5.7      2.083      7.960
REMARK  5 active torsions:
REMARK  status: ('A' for Active; 'I' for Inactive)
REMARK    1  A    between atoms: N_5  and  C_6 
REMARK    2  A    between atoms: C_6  and  C_7 
REMARK    3  A    between atoms: C_7  and  O_8 
REMARK    4  A    between atoms: C_7  and  C_9 
REMARK    5  A    between atoms: C_9  and  N_10 
ROOT
HETATM    1  N   UNL     1     -41.695 -52.427  13.677  1.00  0.00    -0.254 N 
HETATM    2  N   UNL     1     -40.711 -52.921  14.484  1.00  0.00    -0.300 N 
ATOM      3  HN  UNL     1     -39.821 -52.432  14.586  1.00  0.00     0.187 HD
HETATM    4  C   UNL     1     -40.937 -54.027  15.119  1.00  0.00     0.029 A 
HETATM    5  C   UNL     1     -39.793 -54.566  15.948  1.00  0.00     0.070 C 
HETATM    6  C   UNL     1     -42.227 -54.772  15.087  1.00  0.00    -0.012 A 
HETATM    7  C   UNL     1     -42.454 -55.959  15.974  1.00  0.00     0.052 C 
HETATM    8  C   UNL     1     -43.162 -54.281  14.253  1.00  0.00     0.121 A 
HETATM    9  C   UNL     1     -44.461 -54.857  14.166  1.00  0.00     0.105 C 
HETATM   10  N   UNL     1     -45.501 -55.372  14.151  1.00  0.00    -0.191 NA
HETATM   11  C   UNL     1     -42.905 -53.070  13.443  1.00  0.00     0.283 A 
HETATM   12  O   UNL     1     -43.744 -52.647  12.644  1.00  0.00    -0.265 OA
ENDROOT
BRANCH   1  13
HETATM   13  C   UNL     1     -41.512 -51.055  13.203  1.00  0.00     0.186 C 
BRANCH  13  14
HETATM   14  C   UNL     1     -40.769 -51.039  11.848  1.00  0.00     0.166 C 
BRANCH  14  15
HETATM   15  C   UNL     1     -40.716 -49.594  11.285  1.00  0.00     0.305 C 
BRANCH  15  16
HETATM   16  N   UNL     1     -41.472 -48.563  12.033  1.00  0.00     0.091 N 
HETATM   17  C   UNL     1     -42.713 -48.118  11.377  1.00  0.00     0.273 C 
HETATM   18  C   UNL     1     -42.461 -47.365  10.067  1.00  0.00     0.034 C 
HETATM   19  C   UNL     1     -41.563 -46.138  10.285  1.00  0.00    -0.015 C 
HETATM   20  C   UNL     1     -42.344 -45.000  10.949  1.00  0.00     0.010 C 
HETATM   21  C   UNL     1     -40.316 -46.521  11.101  1.00  0.00     0.034 C 
HETATM   22  C   UNL     1     -40.637 -47.385  12.328  1.00  0.00     0.273 C 
ENDBRANCH  15  16
ENDBRANCH  14  15
BRANCH  14  23
HETATM   23  O   UNL     1     -39.449 -51.576  12.026  1.00  0.00    -0.392 OA
HETATM   24  H   UNL     1     -39.497 -52.312  12.666  1.00  0.00     0.210 HD
ENDBRANCH  14  23
ENDBRANCH  13  14
ENDBRANCH   1  13
TORSDOF 5
ENDMDL
MODEL 9
REMARK VINA RESULT:      -5.7      2.218      7.606
REMARK  5 active torsions:
REMARK  status: ('A' for Active; 'I' for Inactive)
REMARK    1  A    between atoms: N_5  and  C_6 
REMARK    2  A    between atoms: C_6  and  C_7 
REMARK    3  A    between atoms: C_7  and  O_8 
REMARK    4  A    between atoms: C_7  and  C_9 
REMARK    5  A    between atoms: C_9  and  N_10 
ROOT
HETATM    1  N   UNL     1     -42.889 -51.881  13.242  1.00  0.00    -0.254 N 
HETATM    2  N   UNL     1     -44.137 -51.758  12.700  1.00  0.00    -0.300 N 
ATOM      3  HN  UNL     1     -44.369 -50.975  12.090  1.00  0.00     0.187 HD
HETATM    4  C   UNL     1     -45.018 -52.664  12.983  1.00  0.00     0.029 A 
HETATM    5  C   UNL     1     -46.402 -52.449  12.412  1.00  0.00     0.070 C 
HETATM    6  C   UNL     1     -44.750 -53.877  13.806  1.00  0.00    -0.012 A 
HETATM    7  C   UNL     1     -45.785 -54.952  13.953  1.00  0.00     0.052 C 
HETATM    8  C   UNL     1     -43.524 -53.949  14.355  1.00  0.00     0.121 A 
HETATM    9  C   UNL     1     -43.112 -55.079  15.116  1.00  0.00     0.105 C 
HETATM   10  N   UNL     1     -42.840 -56.034  15.718  1.00  0.00    -0.191 NA
HETATM   11  C   UNL     1     -42.521 -52.885  14.129  1.00  0.00     0.283 A 
HETATM   12  O   UNL     1     -41.414 -52.927  14.670  1.00  0.00    -0.265 OA
ENDROOT
BRANCH   1  13
HETATM   13  C   UNL     1     -41.856 -51.005  12.685  1.00  0.00     0.186 C 
BRANCH  13  14
HETATM   14  C   UNL     1     -42.003 -49.569  13.236  1.00  0.00     0.166 C 
BRANCH  14  15
HETATM   15  C   UNL     1     -42.464 -48.608  12.109  1.00  0.00     0.305 C 
BRANCH  15  16
HETATM   16  N   UNL     1     -41.483 -48.328  11.035  1.00  0.00     0.091 N 
HETATM   17  C   UNL     1     -40.157 -47.902  11.513  1.00  0.00     0.273 C 
HETATM   18  C   UNL     1     -40.182 -46.539  12.212  1.00  0.00     0.034 C 
HETATM   19  C   UNL     1     -40.738 -45.443  11.291  1.00  0.00    -0.015 C 
HETATM   20  C   UNL     1     -39.704 -45.038  10.237  1.00  0.00     0.010 C 
HETATM   21  C   UNL     1     -42.057 -45.900  10.645  1.00  0.00     0.034 C 
HETATM   22  C   UNL     1     -41.993 -47.327  10.081  1.00  0.00     0.273 C 
ENDBRANCH  15  16
ENDBRANCH  14  15
BRANCH  14  23
HETATM   23  O   UNL     1     -42.936 -49.574  14.329  1.00  0.00    -0.392 OA
HETATM   24  H   UNL     1     -43.764 -49.151  14.030  1.00  0.00     0.210 HD
ENDBRANCH  14  23
ENDBRANCH  13  14
ENDBRANCH   1  13
TORSDOF 5
ENDMDL
