MODEL 1
REMARK VINA RESULT:      -5.9      0.000      0.000
REMARK  6 active torsions:
REMARK  status: ('A' for Active; 'I' for Inactive)
REMARK    1  A    between atoms: C_6  and  O_8 
REMARK    2  A    between atoms: O_8  and  C_9 
REMARK    3  A    between atoms: C_9  and  C_10 
REMARK       I    between atoms: C_10  and  N_12 
REMARK    4  A    between atoms: N_12  and  C_13 
REMARK    5  A    between atoms: C_13  and  C_14 
REMARK    6  A    between atoms: C_14  and  N_15 
ROOT
HETATM    1  C   UNL     1     -41.275 -53.981  13.805  1.00  0.00     0.241 C 
HETATM    2  O   UNL     1     -40.921 -54.214  12.652  1.00  0.00    -0.271 OA
HETATM    3  N   UNL     1     -40.554 -53.167  14.652  1.00  0.00    -0.358 N 
HETATM    4  H   UNL     1     -40.888 -53.035  15.600  1.00  0.00     0.162 HD
ENDROOT
BRANCH   3   5
HETATM    5  C   UNL     1     -39.324 -52.538  14.211  1.00  0.00     0.143 C 
BRANCH   5   6
HETATM    6  C   UNL     1     -39.450 -51.018  14.088  1.00  0.00     0.151 C 
BRANCH   6   7
HETATM    7  N   UNL     1     -39.519 -50.594  12.709  1.00  0.00    -0.329 N 
HETATM    8  C   UNL     1     -38.462 -50.260  11.923  1.00  0.00     0.201 A 
HETATM    9  N   UNL     1     -38.888 -49.941  10.725  1.00  0.00    -0.295 N 
HETATM   10  N   UNL     1     -40.263 -50.054  10.730  1.00  0.00    -0.288 N 
ATOM     11  HN  UNL     1     -38.309 -49.661   9.934  1.00  0.00     0.187 HD
HETATM   12  C   UNL     1     -40.641 -50.442  11.932  1.00  0.00     0.095 A 
ATOM     13  HN  UNL     1     -40.881 -49.870   9.940  1.00  0.00     0.188 HD
HETATM   14  C   UNL     1     -42.028 -50.684  12.390  1.00  0.00     0.091 C 
ENDBRANCH   6   7
ENDBRANCH   5   6
ENDBRANCH   3   5
BRANCH   1  15
HETATM   15  C   UNL     1     -42.522 -54.602  14.422  1.00  0.00     0.270 C 
BRANCH  15  16
HETATM   16  O   UNL     1     -43.182 -53.723  15.330  1.00  0.00    -0.377 OA
BRANCH  16  17
HETATM   17  C   UNL     1     -44.471 -53.291  14.863  1.00  0.00     0.122 C 
HETATM   18  C   UNL     1     -44.627 -53.474  13.345  1.00  0.00     0.032 C 
HETATM   19  C   UNL     1     -45.924 -52.881  12.813  1.00  0.00     0.003 C 
HETATM   20  C   UNL     1     -46.082 -51.418  13.207  1.00  0.00     0.004 C 
HETATM   21  C   UNL     1     -45.939 -51.192  14.718  1.00  0.00    -0.016 C 
HETATM   22  C   UNL     1     -47.155 -51.721  15.484  1.00  0.00     0.010 C 
HETATM   23  C   UNL     1     -44.629 -51.810  15.235  1.00  0.00     0.036 C 
ENDBRANCH  16  17
ENDBRANCH  15  16
ENDBRANCH   1  15
TORSDOF 6
ENDMDL
MODEL 2
REMARK VINA RESULT:      -5.8      2.501      3.023
REMARK  6 active torsions:
REMARK  status: ('A' for Active; 'I' for Inactive)
REMARK    1  A    between atoms: C_6  and  O_8 
REMARK    2  A    between atoms: O_8  and  C_9 
REMARK    3  A    between atoms: C_9  and  C_10 
REMARK       I    between atoms: C_10  and  N_12 
REMARK    4  A    between atoms: N_12  and  C_13 
REMARK    5  A    between atoms: C_13  and  C_14 
REMARK    6  A    between atoms: C_14  and  N_15 
ROOT
HETATM    1  C   UNL     1     -41.182 -52.282  12.319  1.00  0.00     0.241 C 
HETATM    2  O   UNL     1     -39.979 -52.460  12.498  1.00  0.00    -0.271 OA
HETATM    3  N   UNL     1     -41.686 -51.114  11.787  1.00  0.00    -0.358 N 
HETATM    4  H   UNL     1     -42.690 -51.021  11.687  1.00  0.00     0.162 HD
ENDROOT
BRANCH   3   5
HETATM    5  C   UNL     1     -40.804 -50.027  11.408  1.00  0.00     0.143 C 
BRANCH   5   6
HETATM    6  C   UNL     1     -41.134 -48.721  12.132  1.00  0.00     0.151 C 
BRANCH   6   7
HETATM    7  N   UNL     1     -41.043 -47.580  11.251  1.00  0.00    -0.329 N 
HETATM    8  C   UNL     1     -39.946 -46.800  11.067  1.00  0.00     0.201 A 
HETATM    9  N   UNL     1     -40.212 -45.868  10.185  1.00  0.00    -0.295 N 
HETATM   10  N   UNL     1     -41.525 -46.032   9.791  1.00  0.00    -0.288 N 
ATOM     11  HN  UNL     1     -39.567 -45.152   9.850  1.00  0.00     0.187 HD
HETATM   12  C   UNL     1     -42.025 -47.063  10.442  1.00  0.00     0.095 A 
ATOM     13  HN  UNL     1     -42.022 -45.455   9.112  1.00  0.00     0.188 HD
HETATM   14  C   UNL     1     -43.402 -47.595  10.335  1.00  0.00     0.091 C 
ENDBRANCH   6   7
ENDBRANCH   5   6
ENDBRANCH   3   5
BRANCH   1  15
HETATM   15  C   UNL     1     -42.231 -53.316  12.705  1.00  0.00     0.270 C 
BRANCH  15  16
HETATM   16  O   UNL     1     -43.556 -52.903  12.378  1.00  0.00    -0.377 OA
BRANCH  16  17
HETATM   17  C   UNL     1     -44.427 -52.844  13.520  1.00  0.00     0.122 C 
HETATM   18  C   UNL     1     -45.246 -54.133  13.690  1.00  0.00     0.032 C 
HETATM   19  C   UNL     1     -46.282 -54.028  14.801  1.00  0.00     0.003 C 
HETATM   20  C   UNL     1     -47.193 -52.822  14.613  1.00  0.00     0.004 C 
HETATM   21  C   UNL     1     -46.413 -51.510  14.446  1.00  0.00    -0.016 C 
HETATM   22  C   UNL     1     -45.780 -51.059  15.765  1.00  0.00     0.010 C 
HETATM   23  C   UNL     1     -45.366 -51.644  13.329  1.00  0.00     0.036 C 
ENDBRANCH  16  17
ENDBRANCH  15  16
ENDBRANCH   1  15
TORSDOF 6
ENDMDL
MODEL 3
REMARK VINA RESULT:      -5.8      3.749      6.629
REMARK  6 active torsions:
REMARK  status: ('A' for Active; 'I' for Inactive)
REMARK    1  A    between atoms: C_6  and  O_8 
REMARK    2  A    between atoms: O_8  and  C_9 
REMARK    3  A    between atoms: C_9  and  C_10 
REMARK       I    between atoms: C_10  and  N_12 
REMARK    4  A    between atoms: N_12  and  C_13 
REMARK    5  A    between atoms: C_13  and  C_14 
REMARK    6  A    between atoms: C_14  and  N_15 
ROOT
HETATM    1  C   UNL     1     -41.007 -51.640  12.102  1.00  0.00     0.241 C 
HETATM    2  O   UNL     1     -40.319 -52.629  12.346  1.00  0.00    -0.271 OA
HETATM    3  N   UNL     1     -42.332 -51.551  12.468  1.00  0.00    -0.358 N 
HETATM    4  H   UNL     1     -42.851 -50.718  12.215  1.00  0.00     0.162 HD
ENDROOT
BRANCH   3   5
HETATM    5  C   UNL     1     -42.984 -52.639  13.171  1.00  0.00     0.143 C 
BRANCH   5   6
HETATM    6  C   UNL     1     -44.097 -53.291  12.348  1.00  0.00     0.151 C 
BRANCH   6   7
HETATM    7  N   UNL     1     -45.211 -53.693  13.174  1.00  0.00    -0.329 N 
HETATM    8  C   UNL     1     -45.423 -54.938  13.676  1.00  0.00     0.201 A 
HETATM    9  N   UNL     1     -46.519 -54.942  14.394  1.00  0.00    -0.295 N 
HETATM   10  N   UNL     1     -47.050 -53.669  14.349  1.00  0.00    -0.288 N 
ATOM     11  HN  UNL     1     -46.909 -55.740  14.896  1.00  0.00     0.187 HD
HETATM   12  C   UNL     1     -46.261 -52.919  13.604  1.00  0.00     0.095 A 
ATOM     13  HN  UNL     1     -47.905 -53.360  14.811  1.00  0.00     0.188 HD
HETATM   14  C   UNL     1     -46.448 -51.488  13.279  1.00  0.00     0.091 C 
ENDBRANCH   6   7
ENDBRANCH   5   6
ENDBRANCH   3   5
BRANCH   1  15
HETATM   15  C   UNL     1     -40.472 -50.438  11.335  1.00  0.00     0.270 C 
BRANCH  15  16
HETATM   16  O   UNL     1     -40.834 -49.197  11.937  1.00  0.00    -0.377 OA
BRANCH  16  17
HETATM   17  C   UNL     1     -41.309 -48.227  10.988  1.00  0.00     0.122 C 
HETATM   18  C   UNL     1     -40.675 -46.845  11.208  1.00  0.00     0.032 C 
HETATM   19  C   UNL     1     -41.280 -45.772  10.313  1.00  0.00     0.003 C 
HETATM   20  C   UNL     1     -42.795 -45.707  10.451  1.00  0.00     0.004 C 
HETATM   21  C   UNL     1     -43.470 -47.069  10.232  1.00  0.00    -0.016 C 
HETATM   22  C   UNL     1     -43.436 -47.483   8.758  1.00  0.00     0.010 C 
HETATM   23  C   UNL     1     -42.835 -48.137  11.136  1.00  0.00     0.036 C 
ENDBRANCH  16  17
ENDBRANCH  15  16
ENDBRANCH   1  15
TORSDOF 6
ENDMDL
MODEL 4
REMARK VINA RESULT:      -5.7      1.329      2.296
REMARK  6 active torsions:
REMARK  status: ('A' for Active; 'I' for Inactive)
REMARK    1  A    between atoms: C_6  and  O_8 
REMARK    2  A    between atoms: O_8  and  C_9 
REMARK    3  A    between atoms: C_9  and  C_10 
REMARK       I    between atoms: C_10  and  N_12 
REMARK    4  A    between atoms: N_12  and  C_13 
REMARK    5  A    between atoms: C_13  and  C_14 
REMARK    6  A    between atoms: C_14  and  N_15 
ROOT
HETATM    1  C   UNL     1     -41.924 -54.515  14.859  1.00  0.00     0.241 C 
HETATM    2  O   UNL     1     -41.299 -54.470  15.916  1.00  0.00    -0.271 OA
HETATM    3  N   UNL     1     -41.427 -54.000  13.681  1.00  0.00    -0.358 N 
HETATM    4  H   UNL     1     -42.003 -54.048  12.849  1.00  0.00     0.162 HD
ENDROOT
BRANCH   3   5
HETATM    5  C   UNL     1     -40.121 -53.371  13.637  1.00  0.00     0.143 C 
BRANCH   5   6
HETATM    6  C   UNL     1     -40.186 -51.858  13.853  1.00  0.00     0.151 C 
BRANCH   6   7
HETATM    7  N   UNL     1     -39.957 -51.130  12.626  1.00  0.00    -0.329 N 
HETATM    8  C   UNL     1     -40.904 -50.786  11.714  1.00  0.00     0.201 A 
HETATM    9  N   UNL     1     -40.346 -50.118  10.733  1.00  0.00    -0.295 N 
HETATM   10  N   UNL     1     -38.995 -50.036  11.002  1.00  0.00    -0.288 N 
ATOM     11  HN  UNL     1     -40.824 -49.730   9.920  1.00  0.00     0.187 HD
HETATM   12  C   UNL     1     -38.763 -50.655  12.142  1.00  0.00     0.095 A 
ATOM     13  HN  UNL     1     -38.296 -49.576  10.418  1.00  0.00     0.188 HD
HETATM   14  C   UNL     1     -37.452 -50.819  12.810  1.00  0.00     0.091 C 
ENDBRANCH   6   7
ENDBRANCH   5   6
ENDBRANCH   3   5
BRANCH   1  15
HETATM   15  C   UNL     1     -43.324 -55.107  14.758  1.00  0.00     0.270 C 
BRANCH  15  16
HETATM   16  O   UNL     1     -44.205 -54.608  15.762  1.00  0.00    -0.377 OA
BRANCH  16  17
HETATM   17  C   UNL     1     -44.751 -53.317  15.442  1.00  0.00     0.122 C 
HETATM   18  C   UNL     1     -44.680 -52.348  16.632  1.00  0.00     0.032 C 
HETATM   19  C   UNL     1     -45.391 -51.030  16.359  1.00  0.00     0.003 C 
HETATM   20  C   UNL     1     -46.832 -51.245  15.914  1.00  0.00     0.004 C 
HETATM   21  C   UNL     1     -46.947 -52.205  14.721  1.00  0.00    -0.016 C 
HETATM   22  C   UNL     1     -46.449 -51.554  13.426  1.00  0.00     0.010 C 
HETATM   23  C   UNL     1     -46.212 -53.522  15.014  1.00  0.00     0.036 C 
ENDBRANCH  16  17
ENDBRANCH  15  16
ENDBRANCH   1  15
TORSDOF 6
ENDMDL
MODEL 5
REMARK VINA RESULT:      -5.6      3.221      4.110
REMARK  6 active torsions:
REMARK  status: ('A' for Active; 'I' for Inactive)
REMARK    1  A    between atoms: C_6  and  O_8 
REMARK    2  A    between atoms: O_8  and  C_9 
REMARK    3  A    between atoms: C_9  and  C_10 
REMARK       I    between atoms: C_10  and  N_12 
REMARK    4  A    between atoms: N_12  and  C_13 
REMARK    5  A    between atoms: C_13  and  C_14 
REMARK    6  A    between atoms: C_14  and  N_15 
ROOT
HETATM    1  C   UNL     1     -41.752 -51.248  12.726  1.00  0.00     0.241 C 
HETATM    2  O   UNL     1     -41.067 -50.897  13.685  1.00  0.00    -0.271 OA
HETATM    3  N   UNL     1     -42.227 -50.356  11.789  1.00  0.00    -0.358 N 
HETATM    4  H   UNL     1     -42.807 -50.706  11.035  1.00  0.00     0.162 HD
ENDROOT
BRANCH   3   5
HETATM    5  C   UNL     1     -41.933 -48.940  11.894  1.00  0.00     0.143 C 
BRANCH   5   6
HETATM    6  C   UNL     1     -41.643 -48.294  10.537  1.00  0.00     0.151 C 
BRANCH   6   7
HETATM    7  N   UNL     1     -42.590 -47.249  10.227  1.00  0.00    -0.329 N 
HETATM    8  C   UNL     1     -43.869 -47.430   9.806  1.00  0.00     0.201 A 
HETATM    9  N   UNL     1     -44.446 -46.266   9.636  1.00  0.00    -0.295 N 
HETATM   10  N   UNL     1     -43.514 -45.293   9.938  1.00  0.00    -0.288 N 
ATOM     11  HN  UNL     1     -45.407 -46.106   9.335  1.00  0.00     0.187 HD
HETATM   12  C   UNL     1     -42.392 -45.891  10.288  1.00  0.00     0.095 A 
ATOM     13  HN  UNL     1     -43.666 -44.286   9.898  1.00  0.00     0.188 HD
HETATM   14  C   UNL     1     -41.126 -45.236  10.686  1.00  0.00     0.091 C 
ENDBRANCH   6   7
ENDBRANCH   5   6
ENDBRANCH   3   5
BRANCH   1  15
HETATM   15  C   UNL     1     -42.176 -52.694  12.505  1.00  0.00     0.270 C 
BRANCH  15  16
HETATM   16  O   UNL     1     -43.563 -52.821  12.205  1.00  0.00    -0.377 OA
BRANCH  16  17
HETATM   17  C   UNL     1     -44.396 -52.829  13.377  1.00  0.00     0.122 C 
HETATM   18  C   UNL     1     -45.053 -54.199  13.611  1.00  0.00     0.032 C 
HETATM   19  C   UNL     1     -46.056 -54.182  14.756  1.00  0.00     0.003 C 
HETATM   20  C   UNL     1     -47.107 -53.095  14.573  1.00  0.00     0.004 C 
HETATM   21  C   UNL     1     -46.492 -51.707  14.343  1.00  0.00    -0.016 C 
HETATM   22  C   UNL     1     -45.870 -51.148  15.626  1.00  0.00     0.010 C 
HETATM   23  C   UNL     1     -45.475 -51.752  13.191  1.00  0.00     0.036 C 
ENDBRANCH  16  17
ENDBRANCH  15  16
ENDBRANCH   1  15
TORSDOF 6
ENDMDL
MODEL 6
REMARK VINA RESULT:      -5.5      3.622      5.044
REMARK  6 active torsions:
REMARK  status: ('A' for Active; 'I' for Inactive)
REMARK    1  A    between atoms: C_6  and  O_8 
REMARK    2  A    between atoms: O_8  and  C_9 
REMARK    3  A    between atoms: C_9  and  C_10 
REMARK       I    between atoms: C_10  and  N_12 
REMARK    4  A    between atoms: N_12  and  C_13 
REMARK    5  A    between atoms: C_13  and  C_14 
REMARK    6  A    between atoms: C_14  and  N_15 
ROOT
HETATM    1  C   UNL     1     -40.948 -50.025  12.067  1.00  0.00     0.241 C 
HETATM    2  O   UNL     1     -40.902 -49.278  13.043  1.00  0.00    -0.271 OA
HETATM    3  N   UNL     1     -41.419 -49.611  10.840  1.00  0.00    -0.358 N 
HETATM    4  H   UNL     1     -41.454 -50.283  10.082  1.00  0.00     0.162 HD
ENDROOT
BRANCH   3   5
HETATM    5  C   UNL     1     -41.889 -48.253  10.642  1.00  0.00     0.143 C 
BRANCH   5   6
HETATM    6  C   UNL     1     -43.395 -48.110  10.871  1.00  0.00     0.151 C 
BRANCH   6   7
HETATM    7  N   UNL     1     -43.955 -47.027  10.096  1.00  0.00    -0.329 N 
HETATM    8  C   UNL     1     -43.417 -45.787   9.954  1.00  0.00     0.201 A 
HETATM    9  N   UNL     1     -44.179 -45.064   9.171  1.00  0.00    -0.295 N 
HETATM   10  N   UNL     1     -45.255 -45.847   8.801  1.00  0.00    -0.288 N 
ATOM     11  HN  UNL     1     -44.009 -44.100   8.886  1.00  0.00     0.187 HD
HETATM   12  C   UNL     1     -45.119 -47.029   9.368  1.00  0.00     0.095 A 
ATOM     13  HN  UNL     1     -46.022 -45.560   8.194  1.00  0.00     0.188 HD
HETATM   14  C   UNL     1     -46.044 -48.179   9.252  1.00  0.00     0.091 C 
ENDBRANCH   6   7
ENDBRANCH   5   6
ENDBRANCH   3   5
BRANCH   1  15
HETATM   15  C   UNL     1     -40.528 -51.487  12.132  1.00  0.00     0.270 C 
BRANCH  15  16
HETATM   16  O   UNL     1     -41.581 -52.378  11.773  1.00  0.00    -0.377 OA
BRANCH  16  17
HETATM   17  C   UNL     1     -42.384 -52.785  12.894  1.00  0.00     0.122 C 
HETATM   18  C   UNL     1     -41.900 -54.110  13.501  1.00  0.00     0.032 C 
HETATM   19  C   UNL     1     -42.829 -54.632  14.589  1.00  0.00     0.003 C 
HETATM   20  C   UNL     1     -44.267 -54.748  14.098  1.00  0.00     0.004 C 
HETATM   21  C   UNL     1     -44.792 -53.441  13.488  1.00  0.00    -0.016 C 
HETATM   22  C   UNL     1     -45.050 -52.382  14.563  1.00  0.00     0.010 C 
HETATM   23  C   UNL     1     -43.833 -52.928  12.403  1.00  0.00     0.036 C 
ENDBRANCH  16  17
ENDBRANCH  15  16
ENDBRANCH   1  15
TORSDOF 6
ENDMDL
MODEL 7
REMARK VINA RESULT:      -5.5      2.645      3.399
REMARK  6 active torsions:
REMARK  status: ('A' for Active; 'I' for Inactive)
REMARK    1  A    between atoms: C_6  and  O_8 
REMARK    2  A    between atoms: O_8  and  C_9 
REMARK    3  A    between atoms: C_9  and  C_10 
REMARK       I    between atoms: C_10  and  N_12 
REMARK    4  A    between atoms: N_12  and  C_13 
REMARK    5  A    between atoms: C_13  and  C_14 
REMARK    6  A    between atoms: C_14  and  N_15 
ROOT
HETATM    1  C   UNL     1     -40.992 -51.945  12.189  1.00  0.00     0.241 C 
HETATM    2  O   UNL     1     -39.829 -52.285  12.401  1.00  0.00    -0.271 OA
HETATM    3  N   UNL     1     -41.317 -50.737  11.611  1.00  0.00    -0.358 N 
HETATM    4  H   UNL     1     -42.296 -50.507  11.485  1.00  0.00     0.162 HD
ENDROOT
BRANCH   3   5
HETATM    5  C   UNL     1     -40.284 -49.798  11.219  1.00  0.00     0.143 C 
BRANCH   5   6
HETATM    6  C   UNL     1     -40.509 -48.399  11.798  1.00  0.00     0.151 C 
BRANCH   6   7
HETATM    7  N   UNL     1     -41.171 -47.528  10.855  1.00  0.00    -0.329 N 
HETATM    8  C   UNL     1     -42.157 -47.889   9.993  1.00  0.00     0.201 A 
HETATM    9  N   UNL     1     -42.538 -46.844   9.298  1.00  0.00    -0.295 N 
HETATM   10  N   UNL     1     -41.769 -45.773   9.706  1.00  0.00    -0.288 N 
ATOM     11  HN  UNL     1     -43.269 -46.827   8.587  1.00  0.00     0.187 HD
HETATM   12  C   UNL     1     -40.940 -46.191  10.641  1.00  0.00     0.095 A 
ATOM     13  HN  UNL     1     -41.832 -44.821   9.345  1.00  0.00     0.188 HD
HETATM   14  C   UNL     1     -39.929 -45.380  11.356  1.00  0.00     0.091 C 
ENDBRANCH   6   7
ENDBRANCH   5   6
ENDBRANCH   3   5
BRANCH   1  15
HETATM   15  C   UNL     1     -42.183 -52.809  12.582  1.00  0.00     0.270 C 
BRANCH  15  16
HETATM   16  O   UNL     1     -42.779 -52.396  13.810  1.00  0.00    -0.377 OA
BRANCH  16  17
HETATM   17  C   UNL     1     -44.208 -52.555  13.826  1.00  0.00     0.122 C 
HETATM   18  C   UNL     1     -44.933 -51.335  13.236  1.00  0.00     0.032 C 
HETATM   19  C   UNL     1     -46.445 -51.422  13.386  1.00  0.00     0.003 C 
HETATM   20  C   UNL     1     -46.858 -51.658  14.833  1.00  0.00     0.004 C 
HETATM   21  C   UNL     1     -46.160 -52.873  15.459  1.00  0.00    -0.016 C 
HETATM   22  C   UNL     1     -46.707 -54.188  14.895  1.00  0.00     0.010 C 
HETATM   23  C   UNL     1     -44.637 -52.770  15.285  1.00  0.00     0.036 C 
ENDBRANCH  16  17
ENDBRANCH  15  16
ENDBRANCH   1  15
TORSDOF 6
ENDMDL
MODEL 8
REMARK VINA RESULT:      -5.5      1.414      1.631
REMARK  6 active torsions:
REMARK  status: ('A' for Active; 'I' for Inactive)
REMARK    1  A    between atoms: C_6  and  O_8 
REMARK    2  A    between atoms: O_8  and  C_9 
REMARK    3  A    between atoms: C_9  and  C_10 
REMARK       I    between atoms: C_10  and  N_12 
REMARK    4  A    between atoms: N_12  and  C_13 
REMARK    5  A    between atoms: C_13  and  C_14 
REMARK    6  A    between atoms: C_14  and  N_15 
ROOT
HETATM    1  C   UNL     1     -40.351 -52.783  13.547  1.00  0.00     0.241 C 
HETATM    2  O   UNL     1     -39.394 -53.534  13.374  1.00  0.00    -0.271 OA
HETATM    3  N   UNL     1     -40.252 -51.611  14.265  1.00  0.00    -0.358 N 
HETATM    4  H   UNL     1     -41.085 -51.048  14.392  1.00  0.00     0.162 HD
ENDROOT
BRANCH   3   5
HETATM    5  C   UNL     1     -38.992 -51.204  14.856  1.00  0.00     0.143 C 
BRANCH   5   6
HETATM    6  C   UNL     1     -38.451 -49.904  14.257  1.00  0.00     0.151 C 
BRANCH   6   7
HETATM    7  N   UNL     1     -38.140 -50.047  12.854  1.00  0.00    -0.329 N 
HETATM    8  C   UNL     1     -37.250 -50.925  12.320  1.00  0.00     0.201 A 
HETATM    9  N   UNL     1     -37.233 -50.794  11.016  1.00  0.00    -0.295 N 
HETATM   10  N   UNL     1     -38.124 -49.793  10.687  1.00  0.00    -0.288 N 
ATOM     11  HN  UNL     1     -36.664 -51.334  10.363  1.00  0.00     0.187 HD
HETATM   12  C   UNL     1     -38.664 -49.339  11.801  1.00  0.00     0.095 A 
ATOM     13  HN  UNL     1     -38.329 -49.461   9.744  1.00  0.00     0.188 HD
HETATM   14  C   UNL     1     -39.669 -48.259  11.921  1.00  0.00     0.091 C 
ENDBRANCH   6   7
ENDBRANCH   5   6
ENDBRANCH   3   5
BRANCH   1  15
HETATM   15  C   UNL     1     -41.746 -53.097  13.022  1.00  0.00     0.270 C 
BRANCH  15  16
HETATM   16  O   UNL     1     -42.572 -53.727  13.998  1.00  0.00    -0.377 OA
BRANCH  16  17
HETATM   17  C   UNL     1     -43.941 -53.291  13.947  1.00  0.00     0.122 C 
HETATM   18  C   UNL     1     -44.503 -53.317  12.517  1.00  0.00     0.032 C 
HETATM   19  C   UNL     1     -45.898 -52.714  12.424  1.00  0.00     0.003 C 
HETATM   20  C   UNL     1     -45.947 -51.307  13.007  1.00  0.00     0.004 C 
HETATM   21  C   UNL     1     -45.399 -51.239  14.439  1.00  0.00    -0.016 C 
HETATM   22  C   UNL     1     -46.360 -51.887  15.440  1.00  0.00     0.010 C 
HETATM   23  C   UNL     1     -43.997 -51.864  14.511  1.00  0.00     0.036 C 
ENDBRANCH  16  17
ENDBRANCH  15  16
ENDBRANCH   1  15
TORSDOF 6
ENDMDL
MODEL 9
REMARK VINA RESULT:      -5.4      3.182      7.059
REMARK  6 active torsions:
REMARK  status: ('A' for Active; 'I' for Inactive)
REMARK    1  A    between atoms: C_6  and  O_8 
REMARK    2  A    between atoms: O_8  and  C_9 
REMARK    3  A    between atoms: C_9  and  C_10 
REMARK       I    between atoms: C_10  and  N_12 
REMARK    4  A    between atoms: N_12  and  C_13 
REMARK    5  A    between atoms: C_13  and  C_14 
REMARK    6  A    between atoms: C_14  and  N_15 
ROOT
HETATM    1  C   UNL     1     -41.103 -51.709  11.971  1.00  0.00     0.241 C 
HETATM    2  O   UNL     1     -40.448 -52.724  12.199  1.00  0.00    -0.271 OA
HETATM    3  N   UNL     1     -42.475 -51.669  12.094  1.00  0.00    -0.358 N 
HETATM    4  H   UNL     1     -42.957 -50.806  11.868  1.00  0.00     0.162 HD
ENDROOT
BRANCH   3   5
HETATM    5  C   UNL     1     -43.219 -52.842  12.507  1.00  0.00     0.143 C 
BRANCH   5   6
HETATM    6  C   UNL     1     -43.814 -52.701  13.910  1.00  0.00     0.151 C 
BRANCH   6   7
HETATM    7  N   UNL     1     -45.060 -53.420  14.039  1.00  0.00    -0.329 N 
HETATM    8  C   UNL     1     -45.210 -54.770  13.999  1.00  0.00     0.201 A 
HETATM    9  N   UNL     1     -46.473 -55.077  14.167  1.00  0.00    -0.295 N 
HETATM   10  N   UNL     1     -47.173 -53.896  14.306  1.00  0.00    -0.288 N 
ATOM     11  HN  UNL     1     -46.867 -56.018  14.191  1.00  0.00     0.187 HD
HETATM   12  C   UNL     1     -46.317 -52.897  14.221  1.00  0.00     0.095 A 
ATOM     13  HN  UNL     1     -48.179 -53.810  14.449  1.00  0.00     0.188 HD
HETATM   14  C   UNL     1     -46.630 -51.453  14.309  1.00  0.00     0.091 C 
ENDBRANCH   6   7
ENDBRANCH   5   6
ENDBRANCH   3   5
BRANCH   1  15
HETATM   15  C   UNL     1     -40.464 -50.412  11.491  1.00  0.00     0.270 C 
BRANCH  15  16
HETATM   16  O   UNL     1     -39.087 -50.314  11.844  1.00  0.00    -0.377 OA
BRANCH  16  17
HETATM   17  C   UNL     1     -38.874 -49.694  13.124  1.00  0.00     0.122 C 
HETATM   18  C   UNL     1     -38.812 -48.163  13.021  1.00  0.00     0.032 C 
HETATM   19  C   UNL     1     -38.435 -47.501  14.340  1.00  0.00     0.003 C 
HETATM   20  C   UNL     1     -37.138 -48.065  14.906  1.00  0.00     0.004 C 
HETATM   21  C   UNL     1     -37.161 -49.595  15.031  1.00  0.00    -0.016 C 
HETATM   22  C   UNL     1     -38.076 -50.052  16.171  1.00  0.00     0.010 C 
HETATM   23  C   UNL     1     -37.556 -50.239  13.693  1.00  0.00     0.036 C 
ENDBRANCH  16  17
ENDBRANCH  15  16
ENDBRANCH   1  15
TORSDOF 6
ENDMDL
