MODEL 1
REMARK VINA RESULT:      -5.5      0.000      0.000
REMARK  5 active torsions:
REMARK  status: ('A' for Active; 'I' for Inactive)
REMARK    1  A    between atoms: C_2  and  C_3 
REMARK    2  A    between atoms: C_2  and  N_10 
REMARK    3  A    between atoms: C_3  and  N_4 
REMARK       I    between atoms: N_10  and  C_11 
REMARK    4  A    between atoms: C_11  and  C_13 
REMARK    5  A    between atoms: C_13  and  N_14 
ROOT
HETATM    1  N   UNL     1     -41.459 -47.885  10.196  1.00  0.00    -0.354 N 
HETATM    2  C   UNL     1     -41.396 -48.953  11.072  1.00  0.00     0.235 C 
HETATM    3  O   UNL     1     -42.332 -49.264  11.805  1.00  0.00    -0.272 OA
HETATM    4  H   UNL     1     -40.731 -47.790   9.497  1.00  0.00     0.163 HD
ENDROOT
BRANCH   1   5
HETATM    5  C   UNL     1     -42.693 -47.107  10.006  1.00  0.00     0.100 C 
HETATM    6  C   UNL     1     -42.421 -45.646  10.367  1.00  0.00     0.034 C 
BRANCH   5   7
HETATM    7  C   UNL     1     -43.247 -47.267   8.577  1.00  0.00     0.172 C 
BRANCH   7   8
HETATM    8  N   UNL     1     -44.614 -47.749   8.547  1.00  0.00    -0.302 N 
HETATM    9  C   UNL     1     -45.577 -47.539   9.492  1.00  0.00     0.111 A 
HETATM   10  C   UNL     1     -46.706 -48.175   9.032  1.00  0.00     0.037 A 
HETATM   11  C   UNL     1     -46.320 -48.749   7.808  1.00  0.00     0.108 A 
HETATM   12  N   UNL     1     -45.043 -48.498   7.510  1.00  0.00    -0.310 N 
ATOM     13  HN  UNL     1     -44.516 -48.800   6.690  1.00  0.00     0.186 HD
ENDBRANCH   7   8
ENDBRANCH   5   7
ENDBRANCH   1   5
BRANCH   2  14
HETATM   14  C   UNL     1     -40.026 -49.651  11.111  1.00  0.00     0.229 C 
BRANCH  14  15
HETATM   15  N   UNL     1     -39.471 -49.705  12.454  1.00  0.00    -0.334 N 
HETATM   16  C   UNL     1     -39.145 -48.500  13.179  1.00  0.00     0.138 C 
HETATM   17  C   UNL     1     -38.795 -48.841  14.618  1.00  0.00     0.104 C 
HETATM   18  S   UNL     1     -38.663 -50.640  14.699  1.00  0.00    -0.068 SA
HETATM   19  C   UNL     1     -39.288 -50.902  13.091  1.00  0.00     0.282 C 
HETATM   20  O   UNL     1     -39.505 -52.009  12.624  1.00  0.00    -0.260 OA
ENDBRANCH  14  15
ENDBRANCH   2  14
TORSDOF 5
ENDMDL
MODEL 2
REMARK VINA RESULT:      -5.1      4.029      4.781
REMARK  5 active torsions:
REMARK  status: ('A' for Active; 'I' for Inactive)
REMARK    1  A    between atoms: C_2  and  C_3 
REMARK    2  A    between atoms: C_2  and  N_10 
REMARK    3  A    between atoms: C_3  and  N_4 
REMARK       I    between atoms: N_10  and  C_11 
REMARK    4  A    between atoms: C_11  and  C_13 
REMARK    5  A    between atoms: C_13  and  N_14 
ROOT
HETATM    1  N   UNL     1     -42.091 -50.374  11.971  1.00  0.00    -0.354 N 
HETATM    2  C   UNL     1     -43.025 -51.042  12.741  1.00  0.00     0.235 C 
HETATM    3  O   UNL     1     -43.772 -50.464  13.527  1.00  0.00    -0.272 OA
HETATM    4  H   UNL     1     -41.636 -50.877  11.219  1.00  0.00     0.163 HD
ENDROOT
BRANCH   1   5
HETATM    5  C   UNL     1     -41.997 -48.905  11.965  1.00  0.00     0.100 C 
HETATM    6  C   UNL     1     -41.164 -48.455  13.165  1.00  0.00     0.034 C 
BRANCH   5   7
HETATM    7  C   UNL     1     -41.438 -48.381  10.629  1.00  0.00     0.172 C 
BRANCH   7   8
HETATM    8  N   UNL     1     -42.428 -47.682   9.832  1.00  0.00    -0.302 N 
HETATM    9  C   UNL     1     -43.057 -46.512  10.150  1.00  0.00     0.111 A 
HETATM   10  C   UNL     1     -43.897 -46.234   9.097  1.00  0.00     0.037 A 
HETATM   11  C   UNL     1     -43.710 -47.301   8.200  1.00  0.00     0.108 A 
HETATM   12  N   UNL     1     -42.819 -48.189   8.645  1.00  0.00    -0.310 N 
ATOM     13  HN  UNL     1     -42.508 -49.050   8.194  1.00  0.00     0.186 HD
ENDBRANCH   7   8
ENDBRANCH   5   7
ENDBRANCH   1   5
BRANCH   2  14
HETATM   14  C   UNL     1     -42.980 -52.573  12.591  1.00  0.00     0.229 C 
BRANCH  14  15
HETATM   15  N   UNL     1     -43.862 -53.246  13.530  1.00  0.00    -0.334 N 
HETATM   16  C   UNL     1     -43.404 -53.640  14.841  1.00  0.00     0.138 C 
HETATM   17  C   UNL     1     -44.578 -54.117  15.678  1.00  0.00     0.104 C 
HETATM   18  S   UNL     1     -45.986 -54.250  14.556  1.00  0.00    -0.068 SA
HETATM   19  C   UNL     1     -45.174 -53.482  13.216  1.00  0.00     0.282 C 
HETATM   20  O   UNL     1     -45.720 -53.221  12.156  1.00  0.00    -0.260 OA
ENDBRANCH  14  15
ENDBRANCH   2  14
TORSDOF 5
ENDMDL
MODEL 3
REMARK VINA RESULT:      -5.1      4.043      5.645
REMARK  5 active torsions:
REMARK  status: ('A' for Active; 'I' for Inactive)
REMARK    1  A    between atoms: C_2  and  C_3 
REMARK    2  A    between atoms: C_2  and  N_10 
REMARK    3  A    between atoms: C_3  and  N_4 
REMARK       I    between atoms: N_10  and  C_11 
REMARK    4  A    between atoms: C_11  and  C_13 
REMARK    5  A    between atoms: C_13  and  N_14 
ROOT
HETATM    1  N   UNL     1     -40.441 -46.364  11.667  1.00  0.00    -0.354 N 
HETATM    2  C   UNL     1     -40.652 -45.208  10.939  1.00  0.00     0.235 C 
HETATM    3  O   UNL     1     -41.046 -45.221   9.775  1.00  0.00    -0.272 OA
HETATM    4  H   UNL     1     -40.291 -46.286  12.665  1.00  0.00     0.163 HD
ENDROOT
BRANCH   1   5
HETATM    5  C   UNL     1     -40.774 -47.693  11.129  1.00  0.00     0.100 C 
HETATM    6  C   UNL     1     -39.833 -48.729  11.745  1.00  0.00     0.034 C 
BRANCH   5   7
HETATM    7  C   UNL     1     -42.258 -48.037  11.354  1.00  0.00     0.172 C 
BRANCH   7   8
HETATM    8  N   UNL     1     -43.083 -47.794  10.185  1.00  0.00    -0.302 N 
HETATM    9  C   UNL     1     -44.400 -47.437  10.174  1.00  0.00     0.111 A 
HETATM   10  C   UNL     1     -44.749 -47.312   8.849  1.00  0.00     0.037 A 
HETATM   11  C   UNL     1     -43.575 -47.626   8.140  1.00  0.00     0.108 A 
HETATM   12  N   UNL     1     -42.558 -47.926   8.950  1.00  0.00    -0.310 N 
ATOM     13  HN  UNL     1     -41.606 -48.192   8.694  1.00  0.00     0.186 HD
ENDBRANCH   7   8
ENDBRANCH   5   7
ENDBRANCH   1   5
BRANCH   2  14
HETATM   14  C   UNL     1     -40.262 -43.919  11.683  1.00  0.00     0.229 C 
BRANCH  14  15
HETATM   15  N   UNL     1     -41.411 -43.257  12.280  1.00  0.00    -0.334 N 
HETATM   16  C   UNL     1     -41.794 -43.506  13.649  1.00  0.00     0.138 C 
HETATM   17  C   UNL     1     -42.878 -42.529  14.070  1.00  0.00     0.104 C 
HETATM   18  S   UNL     1     -43.409 -41.677  12.569  1.00  0.00    -0.068 SA
HETATM   19  C   UNL     1     -42.135 -42.335  11.573  1.00  0.00     0.282 C 
HETATM   20  O   UNL     1     -41.953 -42.011  10.410  1.00  0.00    -0.260 OA
ENDBRANCH  14  15
ENDBRANCH   2  14
TORSDOF 5
ENDMDL
MODEL 4
REMARK VINA RESULT:      -5.1      2.821      3.565
REMARK  5 active torsions:
REMARK  status: ('A' for Active; 'I' for Inactive)
REMARK    1  A    between atoms: C_2  and  C_3 
REMARK    2  A    between atoms: C_2  and  N_10 
REMARK    3  A    between atoms: C_3  and  N_4 
REMARK       I    between atoms: N_10  and  C_11 
REMARK    4  A    between atoms: C_11  and  C_13 
REMARK    5  A    between atoms: C_13  and  N_14 
ROOT
HETATM    1  N   UNL     1     -41.758 -50.206  11.708  1.00  0.00    -0.354 N 
HETATM    2  C   UNL     1     -42.504 -51.010  12.551  1.00  0.00     0.235 C 
HETATM    3  O   UNL     1     -43.133 -50.565  13.507  1.00  0.00    -0.272 OA
HETATM    4  H   UNL     1     -41.413 -50.602  10.842  1.00  0.00     0.163 HD
ENDROOT
BRANCH   1   5
HETATM    5  C   UNL     1     -41.751 -48.741  11.840  1.00  0.00     0.100 C 
HETATM    6  C   UNL     1     -40.681 -48.338  12.855  1.00  0.00     0.034 C 
BRANCH   5   7
HETATM    7  C   UNL     1     -41.557 -48.052  10.476  1.00  0.00     0.172 C 
BRANCH   7   8
HETATM    8  N   UNL     1     -42.803 -47.839   9.763  1.00  0.00    -0.302 N 
HETATM    9  C   UNL     1     -44.008 -47.499  10.307  1.00  0.00     0.111 A 
HETATM   10  C   UNL     1     -44.886 -47.400   9.253  1.00  0.00     0.037 A 
HETATM   11  C   UNL     1     -44.117 -47.709   8.117  1.00  0.00     0.108 A 
HETATM   12  N   UNL     1     -42.847 -47.983   8.423  1.00  0.00    -0.310 N 
ATOM     13  HN  UNL     1     -42.088 -48.241   7.791  1.00  0.00     0.186 HD
ENDBRANCH   7   8
ENDBRANCH   5   7
ENDBRANCH   1   5
BRANCH   2  14
HETATM   14  C   UNL     1     -42.398 -52.513  12.236  1.00  0.00     0.229 C 
BRANCH  14  15
HETATM   15  N   UNL     1     -41.930 -53.284  13.377  1.00  0.00    -0.334 N 
HETATM   16  C   UNL     1     -42.854 -53.964  14.253  1.00  0.00     0.138 C 
HETATM   17  C   UNL     1     -42.092 -54.860  15.215  1.00  0.00     0.104 C 
HETATM   18  S   UNL     1     -40.344 -54.451  15.019  1.00  0.00    -0.068 SA
HETATM   19  C   UNL     1     -40.591 -53.432  13.624  1.00  0.00     0.282 C 
HETATM   20  O   UNL     1     -39.681 -52.924  12.990  1.00  0.00    -0.260 OA
ENDBRANCH  14  15
ENDBRANCH   2  14
TORSDOF 5
ENDMDL
MODEL 5
REMARK VINA RESULT:      -5.1      1.974      3.780
REMARK  5 active torsions:
REMARK  status: ('A' for Active; 'I' for Inactive)
REMARK    1  A    between atoms: C_2  and  C_3 
REMARK    2  A    between atoms: C_2  and  N_10 
REMARK    3  A    between atoms: C_3  and  N_4 
REMARK       I    between atoms: N_10  and  C_11 
REMARK    4  A    between atoms: C_11  and  C_13 
REMARK    5  A    between atoms: C_13  and  N_14 
ROOT
HETATM    1  N   UNL     1     -42.728 -48.575  10.667  1.00  0.00    -0.354 N 
HETATM    2  C   UNL     1     -41.611 -49.057  11.325  1.00  0.00     0.235 C 
HETATM    3  O   UNL     1     -40.476 -48.656  11.084  1.00  0.00    -0.272 OA
HETATM    4  H   UNL     1     -43.643 -48.811  11.031  1.00  0.00     0.163 HD
ENDROOT
BRANCH   1   5
HETATM    5  C   UNL     1     -42.642 -47.469   9.701  1.00  0.00     0.100 C 
HETATM    6  C   UNL     1     -43.662 -47.702   8.586  1.00  0.00     0.034 C 
BRANCH   5   7
HETATM    7  C   UNL     1     -42.823 -46.103  10.389  1.00  0.00     0.172 C 
BRANCH   7   8
HETATM    8  N   UNL     1     -41.575 -45.384  10.564  1.00  0.00    -0.302 N 
HETATM    9  C   UNL     1     -41.378 -44.258  11.310  1.00  0.00     0.111 A 
HETATM   10  C   UNL     1     -40.044 -43.946  11.182  1.00  0.00     0.037 A 
HETATM   11  C   UNL     1     -39.526 -44.937  10.330  1.00  0.00     0.108 A 
HETATM   12  N   UNL     1     -40.456 -45.814   9.945  1.00  0.00    -0.310 N 
ATOM     13  HN  UNL     1     -40.346 -46.619   9.329  1.00  0.00     0.186 HD
ENDBRANCH   7   8
ENDBRANCH   5   7
ENDBRANCH   1   5
BRANCH   2  14
HETATM   14  C   UNL     1     -41.912 -50.199  12.312  1.00  0.00     0.229 C 
BRANCH  14  15
HETATM   15  N   UNL     1     -40.807 -50.445  13.225  1.00  0.00    -0.334 N 
HETATM   16  C   UNL     1     -40.500 -49.528  14.297  1.00  0.00     0.138 C 
HETATM   17  C   UNL     1     -39.454 -50.135  15.215  1.00  0.00     0.104 C 
HETATM   18  S   UNL     1     -38.847 -51.621  14.387  1.00  0.00    -0.068 SA
HETATM   19  C   UNL     1     -40.054 -51.584  13.126  1.00  0.00     0.282 C 
HETATM   20  O   UNL     1     -40.173 -52.457  12.281  1.00  0.00    -0.260 OA
ENDBRANCH  14  15
ENDBRANCH   2  14
TORSDOF 5
ENDMDL
MODEL 6
REMARK VINA RESULT:      -5.0      1.778      2.237
REMARK  5 active torsions:
REMARK  status: ('A' for Active; 'I' for Inactive)
REMARK    1  A    between atoms: C_2  and  C_3 
REMARK    2  A    between atoms: C_2  and  N_10 
REMARK    3  A    between atoms: C_3  and  N_4 
REMARK       I    between atoms: N_10  and  C_11 
REMARK    4  A    between atoms: C_11  and  C_13 
REMARK    5  A    between atoms: C_13  and  N_14 
ROOT
HETATM    1  N   UNL     1     -40.708 -47.741  10.997  1.00  0.00    -0.354 N 
HETATM    2  C   UNL     1     -41.341 -48.928  11.317  1.00  0.00     0.235 C 
HETATM    3  O   UNL     1     -42.422 -48.965  11.899  1.00  0.00    -0.272 OA
HETATM    4  H   UNL     1     -39.917 -47.771  10.365  1.00  0.00     0.163 HD
ENDROOT
BRANCH   1   5
HETATM    5  C   UNL     1     -41.339 -46.434  11.240  1.00  0.00     0.100 C 
HETATM    6  C   UNL     1     -40.299 -45.481  11.830  1.00  0.00     0.034 C 
BRANCH   5   7
HETATM    7  C   UNL     1     -41.990 -45.875   9.960  1.00  0.00     0.172 C 
BRANCH   7   8
HETATM    8  N   UNL     1     -43.174 -46.610   9.557  1.00  0.00    -0.302 N 
HETATM    9  C   UNL     1     -43.435 -47.127   8.320  1.00  0.00     0.111 A 
HETATM   10  C   UNL     1     -44.662 -47.739   8.414  1.00  0.00     0.037 A 
HETATM   11  C   UNL     1     -45.066 -47.527   9.745  1.00  0.00     0.108 A 
HETATM   12  N   UNL     1     -44.165 -46.834  10.445  1.00  0.00    -0.310 N 
ATOM     13  HN  UNL     1     -44.214 -46.543  11.421  1.00  0.00     0.186 HD
ENDBRANCH   7   8
ENDBRANCH   5   7
ENDBRANCH   1   5
BRANCH   2  14
HETATM   14  C   UNL     1     -40.528 -50.186  10.964  1.00  0.00     0.229 C 
BRANCH  14  15
HETATM   15  N   UNL     1     -39.656 -50.603  12.051  1.00  0.00    -0.334 N 
HETATM   16  C   UNL     1     -40.099 -51.552  13.045  1.00  0.00     0.138 C 
HETATM   17  C   UNL     1     -38.929 -51.969  13.920  1.00  0.00     0.104 C 
HETATM   18  S   UNL     1     -37.561 -50.865  13.505  1.00  0.00    -0.068 SA
HETATM   19  C   UNL     1     -38.368 -50.147  12.134  1.00  0.00     0.282 C 
HETATM   20  O   UNL     1     -37.838 -49.342  11.384  1.00  0.00    -0.260 OA
ENDBRANCH  14  15
ENDBRANCH   2  14
TORSDOF 5
ENDMDL
MODEL 7
REMARK VINA RESULT:      -4.9      4.640      5.741
REMARK  5 active torsions:
REMARK  status: ('A' for Active; 'I' for Inactive)
REMARK    1  A    between atoms: C_2  and  C_3 
REMARK    2  A    between atoms: C_2  and  N_10 
REMARK    3  A    between atoms: C_3  and  N_4 
REMARK       I    between atoms: N_10  and  C_11 
REMARK    4  A    between atoms: C_11  and  C_13 
REMARK    5  A    between atoms: C_13  and  N_14 
ROOT
HETATM    1  N   UNL     1     -41.549 -52.974  13.950  1.00  0.00    -0.354 N 
HETATM    2  C   UNL     1     -40.190 -53.138  13.753  1.00  0.00     0.235 C 
HETATM    3  O   UNL     1     -39.713 -54.146  13.238  1.00  0.00    -0.272 OA
HETATM    4  H   UNL     1     -41.892 -52.057  14.211  1.00  0.00     0.163 HD
ENDROOT
BRANCH   1   5
HETATM    5  C   UNL     1     -42.529 -53.955  13.459  1.00  0.00     0.100 C 
HETATM    6  C   UNL     1     -43.184 -54.646  14.656  1.00  0.00     0.034 C 
BRANCH   5   7
HETATM    7  C   UNL     1     -43.561 -53.301  12.520  1.00  0.00     0.172 C 
BRANCH   7   8
HETATM    8  N   UNL     1     -44.713 -52.768  13.223  1.00  0.00    -0.302 N 
HETATM    9  C   UNL     1     -44.792 -51.571  13.874  1.00  0.00     0.111 A 
HETATM   10  C   UNL     1     -46.070 -51.495  14.377  1.00  0.00     0.037 A 
HETATM   11  C   UNL     1     -46.680 -52.700  13.984  1.00  0.00     0.108 A 
HETATM   12  N   UNL     1     -45.855 -53.483  13.285  1.00  0.00    -0.310 N 
ATOM     13  HN  UNL     1     -46.045 -54.405  12.891  1.00  0.00     0.186 HD
ENDBRANCH   7   8
ENDBRANCH   5   7
ENDBRANCH   1   5
BRANCH   2  14
HETATM   14  C   UNL     1     -39.333 -51.993  14.320  1.00  0.00     0.229 C 
BRANCH  14  15
HETATM   15  N   UNL     1     -39.030 -50.983  13.319  1.00  0.00    -0.334 N 
HETATM   16  C   UNL     1     -39.902 -49.851  13.108  1.00  0.00     0.138 C 
HETATM   17  C   UNL     1     -39.239 -48.855  12.172  1.00  0.00     0.104 C 
HETATM   18  S   UNL     1     -37.771 -49.672  11.511  1.00  0.00    -0.068 SA
HETATM   19  C   UNL     1     -37.879 -51.046  12.581  1.00  0.00     0.282 C 
HETATM   20  O   UNL     1     -37.040 -51.932  12.629  1.00  0.00    -0.260 OA
ENDBRANCH  14  15
ENDBRANCH   2  14
TORSDOF 5
ENDMDL
MODEL 8
REMARK VINA RESULT:      -4.9      4.055      5.898
REMARK  5 active torsions:
REMARK  status: ('A' for Active; 'I' for Inactive)
REMARK    1  A    between atoms: C_2  and  C_3 
REMARK    2  A    between atoms: C_2  and  N_10 
REMARK    3  A    between atoms: C_3  and  N_4 
REMARK       I    between atoms: N_10  and  C_11 
REMARK    4  A    between atoms: C_11  and  C_13 
REMARK    5  A    between atoms: C_13  and  N_14 
ROOT
HETATM    1  N   UNL     1     -40.924 -51.829  12.901  1.00  0.00    -0.354 N 
HETATM    2  C   UNL     1     -42.285 -51.663  12.723  1.00  0.00     0.235 C 
HETATM    3  O   UNL     1     -42.838 -50.571  12.827  1.00  0.00    -0.272 OA
HETATM    4  H   UNL     1     -40.505 -52.710  12.628  1.00  0.00     0.163 HD
ENDROOT
BRANCH   1   5
HETATM    5  C   UNL     1     -40.025 -50.686  13.126  1.00  0.00     0.100 C 
HETATM    6  C   UNL     1     -38.894 -51.119  14.060  1.00  0.00     0.034 C 
BRANCH   5   7
HETATM    7  C   UNL     1     -39.503 -50.108  11.798  1.00  0.00     0.172 C 
BRANCH   7   8
HETATM    8  N   UNL     1     -40.255 -48.953  11.344  1.00  0.00    -0.302 N 
HETATM    9  C   UNL     1     -40.046 -47.651  11.698  1.00  0.00     0.111 A 
HETATM   10  C   UNL     1     -40.989 -46.916  11.019  1.00  0.00     0.037 A 
HETATM   11  C   UNL     1     -41.726 -47.867  10.291  1.00  0.00     0.108 A 
HETATM   12  N   UNL     1     -41.286 -49.112  10.490  1.00  0.00    -0.310 N 
ATOM     13  HN  UNL     1     -41.645 -49.979  10.090  1.00  0.00     0.186 HD
ENDBRANCH   7   8
ENDBRANCH   5   7
ENDBRANCH   1   5
BRANCH   2  14
HETATM   14  C   UNL     1     -43.049 -52.976  12.478  1.00  0.00     0.229 C 
BRANCH  14  15
HETATM   15  N   UNL     1     -44.075 -53.214  13.480  1.00  0.00    -0.334 N 
HETATM   16  C   UNL     1     -43.732 -53.467  14.859  1.00  0.00     0.138 C 
HETATM   17  C   UNL     1     -44.987 -53.462  15.714  1.00  0.00     0.104 C 
HETATM   18  S   UNL     1     -46.385 -53.429  14.571  1.00  0.00    -0.068 SA
HETATM   19  C   UNL     1     -45.403 -53.155  13.154  1.00  0.00     0.282 C 
HETATM   20  O   UNL     1     -45.864 -52.959  12.041  1.00  0.00    -0.260 OA
ENDBRANCH  14  15
ENDBRANCH   2  14
TORSDOF 5
ENDMDL
MODEL 9
REMARK VINA RESULT:      -4.9      4.040      5.654
REMARK  5 active torsions:
REMARK  status: ('A' for Active; 'I' for Inactive)
REMARK    1  A    between atoms: C_2  and  C_3 
REMARK    2  A    between atoms: C_2  and  N_10 
REMARK    3  A    between atoms: C_3  and  N_4 
REMARK       I    between atoms: N_10  and  C_11 
REMARK    4  A    between atoms: C_11  and  C_13 
REMARK    5  A    between atoms: C_13  and  N_14 
ROOT
HETATM    1  N   UNL     1     -40.152 -51.167  11.835  1.00  0.00    -0.354 N 
HETATM    2  C   UNL     1     -40.445 -51.949  12.937  1.00  0.00     0.235 C 
HETATM    3  O   UNL     1     -40.264 -51.564  14.089  1.00  0.00    -0.272 OA
HETATM    4  H   UNL     1     -40.487 -51.466  10.927  1.00  0.00     0.163 HD
ENDROOT
BRANCH   1   5
HETATM    5  C   UNL     1     -39.697 -49.774  11.970  1.00  0.00     0.100 C 
HETATM    6  C   UNL     1     -38.236 -49.682  11.529  1.00  0.00     0.034 C 
BRANCH   5   7
HETATM    7  C   UNL     1     -40.608 -48.805  11.193  1.00  0.00     0.172 C 
BRANCH   7   8
HETATM    8  N   UNL     1     -40.320 -47.410  11.466  1.00  0.00    -0.302 N 
HETATM    9  C   UNL     1     -40.200 -46.823  12.693  1.00  0.00     0.111 A 
HETATM   10  C   UNL     1     -39.917 -45.499  12.456  1.00  0.00     0.037 A 
HETATM   11  C   UNL     1     -39.898 -45.383  11.054  1.00  0.00     0.108 A 
HETATM   12  N   UNL     1     -40.148 -46.544  10.445  1.00  0.00    -0.310 N 
ATOM     13  HN  UNL     1     -40.198 -46.733   9.443  1.00  0.00     0.186 HD
ENDBRANCH   7   8
ENDBRANCH   5   7
ENDBRANCH   1   5
BRANCH   2  14
HETATM   14  C   UNL     1     -40.927 -53.368  12.587  1.00  0.00     0.229 C 
BRANCH  14  15
HETATM   15  N   UNL     1     -42.254 -53.646  13.111  1.00  0.00    -0.334 N 
HETATM   16  C   UNL     1     -43.442 -53.220  12.410  1.00  0.00     0.138 C 
HETATM   17  C   UNL     1     -44.673 -53.827  13.061  1.00  0.00     0.104 C 
HETATM   18  S   UNL     1     -44.116 -54.582  14.604  1.00  0.00    -0.068 SA
HETATM   19  C   UNL     1     -42.418 -54.367  14.263  1.00  0.00     0.282 C 
HETATM   20  O   UNL     1     -41.526 -54.795  14.978  1.00  0.00    -0.260 OA
ENDBRANCH  14  15
ENDBRANCH   2  14
TORSDOF 5
ENDMDL
