MODEL 1
REMARK VINA RESULT:      -5.8      0.000      0.000
REMARK  5 active torsions:
REMARK  status: ('A' for Active; 'I' for Inactive)
REMARK    1  A    between atoms: C_2  and  C_3 
REMARK    2  A    between atoms: C_3  and  N_4 
REMARK       I    between atoms: N_4  and  C_5 
REMARK    3  A    between atoms: C_5  and  C_7 
REMARK    4  A    between atoms: C_7  and  C_8 
REMARK    5  A    between atoms: C_11  and  N_14 
ROOT
HETATM    1  C   UNL     1     -42.291 -50.090  12.317  1.00  0.00     0.026 A 
HETATM    2  C   UNL     1     -41.117 -50.750  12.016  1.00  0.00     0.078 A 
HETATM    3  S   UNL     1     -41.346 -52.442  12.150  1.00  0.00    -0.064 SA
HETATM    4  C   UNL     1     -42.951 -52.175  12.691  1.00  0.00     0.155 A 
HETATM    5  N   UNL     1     -43.334 -50.922  12.692  1.00  0.00    -0.339 N 
ATOM      6  HN  UNL     1     -44.271 -50.602  12.936  1.00  0.00     0.168 HD
ENDROOT
BRANCH   1   7
HETATM    7  C   UNL     1     -42.522 -48.618  12.332  1.00  0.00     0.160 C 
BRANCH   7   8
HETATM    8  C   UNL     1     -42.706 -48.066  10.934  1.00  0.00     0.223 C 
HETATM    9  N   UNL     1     -44.027 -47.883  10.566  1.00  0.00    -0.361 N 
HETATM   10  H   UNL     1     -44.727 -48.383  11.114  1.00  0.00     0.162 HD
HETATM   11  O   UNL     1     -41.756 -47.763  10.219  1.00  0.00    -0.273 OA
BRANCH   9  12
HETATM   12  C   UNL     1     -44.399 -47.415   9.247  1.00  0.00     0.122 C 
BRANCH  12  13
HETATM   13  C   UNL     1     -45.892 -47.124   9.122  1.00  0.00     0.015 C 
HETATM   14  C   UNL     1     -46.712 -48.375   8.842  1.00  0.00     0.006 C 
ENDBRANCH  12  13
ENDBRANCH   9  12
ENDBRANCH   7   8
ENDBRANCH   1   7
BRANCH   4  15
HETATM   15  N   UNL     1     -43.680 -53.258  13.125  1.00  0.00    -0.278 N 
HETATM   16  C   UNL     1     -43.292 -54.311  14.034  1.00  0.00     0.155 C 
HETATM   17  C   UNL     1     -44.608 -54.965  14.431  1.00  0.00     0.145 C 
HETATM   18  N   UNL     1     -45.548 -54.472  13.470  1.00  0.00    -0.341 N 
HETATM   19  C   UNL     1     -45.029 -53.386  12.766  1.00  0.00     0.324 C 
HETATM   20  H   UNL     1     -46.554 -54.582  13.509  1.00  0.00     0.164 HD
HETATM   21  O   UNL     1     -45.720 -52.713  12.020  1.00  0.00    -0.247 OA
ENDBRANCH   4  15
TORSDOF 5
ENDMDL
MODEL 2
REMARK VINA RESULT:      -5.7      1.530      1.943
REMARK  5 active torsions:
REMARK  status: ('A' for Active; 'I' for Inactive)
REMARK    1  A    between atoms: C_2  and  C_3 
REMARK    2  A    between atoms: C_3  and  N_4 
REMARK       I    between atoms: N_4  and  C_5 
REMARK    3  A    between atoms: C_5  and  C_7 
REMARK    4  A    between atoms: C_7  and  C_8 
REMARK    5  A    between atoms: C_11  and  N_14 
ROOT
HETATM    1  C   UNL     1     -41.227 -50.746  12.044  1.00  0.00     0.026 A 
HETATM    2  C   UNL     1     -40.574 -51.665  12.841  1.00  0.00     0.078 A 
HETATM    3  S   UNL     1     -41.715 -52.668  13.631  1.00  0.00    -0.064 SA
HETATM    4  C   UNL     1     -42.989 -51.751  12.941  1.00  0.00     0.155 A 
HETATM    5  N   UNL     1     -42.609 -50.815  12.106  1.00  0.00    -0.339 N 
ATOM      6  HN  UNL     1     -43.244 -50.219  11.575  1.00  0.00     0.168 HD
ENDROOT
BRANCH   1   7
HETATM    7  C   UNL     1     -40.611 -49.685  11.198  1.00  0.00     0.160 C 
BRANCH   7   8
HETATM    8  C   UNL     1     -41.542 -48.506  11.012  1.00  0.00     0.223 C 
HETATM    9  N   UNL     1     -41.935 -48.293   9.703  1.00  0.00    -0.361 N 
HETATM   10  H   UNL     1     -41.366 -48.732   8.979  1.00  0.00     0.162 HD
HETATM   11  O   UNL     1     -41.946 -47.835  11.957  1.00  0.00    -0.273 OA
BRANCH   9  12
HETATM   12  C   UNL     1     -42.779 -47.180   9.325  1.00  0.00     0.122 C 
BRANCH  12  13
HETATM   13  C   UNL     1     -43.890 -47.581   8.357  1.00  0.00     0.015 C 
HETATM   14  C   UNL     1     -45.264 -47.581   9.010  1.00  0.00     0.006 C 
ENDBRANCH  12  13
ENDBRANCH   9  12
ENDBRANCH   7   8
ENDBRANCH   1   7
BRANCH   4  15
HETATM   15  N   UNL     1     -44.277 -52.020  13.344  1.00  0.00    -0.278 N 
HETATM   16  C   UNL     1     -45.168 -51.211  14.143  1.00  0.00     0.155 C 
HETATM   17  C   UNL     1     -46.539 -51.828  13.912  1.00  0.00     0.145 C 
HETATM   18  N   UNL     1     -46.256 -53.097  13.314  1.00  0.00    -0.341 N 
HETATM   19  C   UNL     1     -44.933 -53.168  12.880  1.00  0.00     0.324 C 
HETATM   20  H   UNL     1     -46.933 -53.723  12.893  1.00  0.00     0.164 HD
HETATM   21  O   UNL     1     -44.528 -54.094  12.197  1.00  0.00    -0.247 OA
ENDBRANCH   4  15
TORSDOF 5
ENDMDL
MODEL 3
REMARK VINA RESULT:      -5.7      2.632      6.229
REMARK  5 active torsions:
REMARK  status: ('A' for Active; 'I' for Inactive)
REMARK    1  A    between atoms: C_2  and  C_3 
REMARK    2  A    between atoms: C_3  and  N_4 
REMARK       I    between atoms: N_4  and  C_5 
REMARK    3  A    between atoms: C_5  and  C_7 
REMARK    4  A    between atoms: C_7  and  C_8 
REMARK    5  A    between atoms: C_11  and  N_14 
ROOT
HETATM    1  C   UNL     1     -40.797 -51.087  11.919  1.00  0.00     0.026 A 
HETATM    2  C   UNL     1     -39.526 -50.928  12.433  1.00  0.00     0.078 A 
HETATM    3  S   UNL     1     -39.093 -49.271  12.420  1.00  0.00    -0.064 SA
HETATM    4  C   UNL     1     -40.576 -48.897  11.645  1.00  0.00     0.155 A 
HETATM    5  N   UNL     1     -41.388 -49.912  11.481  1.00  0.00    -0.339 N 
ATOM      6  HN  UNL     1     -42.325 -49.847  11.085  1.00  0.00     0.168 HD
ENDROOT
BRANCH   1   7
HETATM    7  C   UNL     1     -41.547 -52.362  11.742  1.00  0.00     0.160 C 
BRANCH   7   8
HETATM    8  C   UNL     1     -42.772 -52.419  12.631  1.00  0.00     0.223 C 
HETATM    9  N   UNL     1     -43.787 -53.224  12.147  1.00  0.00    -0.361 N 
HETATM   10  H   UNL     1     -43.751 -53.457  11.154  1.00  0.00     0.162 HD
HETATM   11  O   UNL     1     -42.825 -51.837  13.710  1.00  0.00    -0.273 OA
BRANCH   9  12
HETATM   12  C   UNL     1     -45.055 -53.357  12.833  1.00  0.00     0.122 C 
BRANCH  12  13
HETATM   13  C   UNL     1     -46.052 -52.266  12.451  1.00  0.00     0.015 C 
HETATM   14  C   UNL     1     -46.538 -51.470  13.654  1.00  0.00     0.006 C 
ENDBRANCH  12  13
ENDBRANCH   9  12
ENDBRANCH   7   8
ENDBRANCH   1   7
BRANCH   4  15
HETATM   15  N   UNL     1     -40.778 -47.605  11.214  1.00  0.00    -0.278 N 
HETATM   16  C   UNL     1     -39.983 -46.427  11.469  1.00  0.00     0.155 C 
HETATM   17  C   UNL     1     -40.460 -45.423  10.430  1.00  0.00     0.145 C 
HETATM   18  N   UNL     1     -41.682 -45.983   9.938  1.00  0.00    -0.341 N 
HETATM   19  C   UNL     1     -41.817 -47.317  10.319  1.00  0.00     0.324 C 
HETATM   20  H   UNL     1     -42.206 -45.659   9.133  1.00  0.00     0.164 HD
HETATM   21  O   UNL     1     -42.700 -48.029   9.870  1.00  0.00    -0.247 OA
ENDBRANCH   4  15
TORSDOF 5
ENDMDL
MODEL 4
REMARK VINA RESULT:      -5.6      5.451      7.425
REMARK  5 active torsions:
REMARK  status: ('A' for Active; 'I' for Inactive)
REMARK    1  A    between atoms: C_2  and  C_3 
REMARK    2  A    between atoms: C_3  and  N_4 
REMARK       I    between atoms: N_4  and  C_5 
REMARK    3  A    between atoms: C_5  and  C_7 
REMARK    4  A    between atoms: C_7  and  C_8 
REMARK    5  A    between atoms: C_11  and  N_14 
ROOT
HETATM    1  C   UNL     1     -40.526 -46.096  10.786  1.00  0.00     0.026 A 
HETATM    2  C   UNL     1     -40.489 -47.420  11.175  1.00  0.00     0.078 A 
HETATM    3  S   UNL     1     -41.887 -48.234  10.612  1.00  0.00    -0.064 SA
HETATM    4  C   UNL     1     -42.486 -46.756   9.982  1.00  0.00     0.155 A 
HETATM    5  N   UNL     1     -41.672 -45.735  10.095  1.00  0.00    -0.339 N 
ATOM      6  HN  UNL     1     -41.856 -44.802   9.726  1.00  0.00     0.168 HD
ENDROOT
BRANCH   1   7
HETATM    7  C   UNL     1     -39.515 -45.041  11.075  1.00  0.00     0.160 C 
BRANCH   7   8
HETATM    8  C   UNL     1     -40.167 -43.732  11.467  1.00  0.00     0.223 C 
HETATM    9  N   UNL     1     -39.868 -43.310  12.750  1.00  0.00    -0.361 N 
HETATM   10  H   UNL     1     -39.502 -44.016  13.388  1.00  0.00     0.162 HD
HETATM   11  O   UNL     1     -40.859 -43.086  10.686  1.00  0.00    -0.273 OA
BRANCH   9  12
HETATM   12  C   UNL     1     -40.445 -42.110  13.318  1.00  0.00     0.122 C 
BRANCH  12  13
HETATM   13  C   UNL     1     -39.580 -40.873  13.089  1.00  0.00     0.015 C 
HETATM   14  C   UNL     1     -40.299 -39.795  12.290  1.00  0.00     0.006 C 
ENDBRANCH  12  13
ENDBRANCH   9  12
ENDBRANCH   7   8
ENDBRANCH   1   7
BRANCH   4  15
HETATM   15  N   UNL     1     -43.761 -46.737   9.467  1.00  0.00    -0.278 N 
HETATM   16  C   UNL     1     -44.696 -47.827   9.312  1.00  0.00     0.155 C 
HETATM   17  C   UNL     1     -46.034 -47.140   9.080  1.00  0.00     0.145 C 
HETATM   18  N   UNL     1     -45.685 -45.785   8.778  1.00  0.00    -0.341 N 
HETATM   19  C   UNL     1     -44.357 -45.519   9.110  1.00  0.00     0.324 C 
HETATM   20  H   UNL     1     -46.327 -45.005   8.709  1.00  0.00     0.164 HD
HETATM   21  O   UNL     1     -43.903 -44.388   9.090  1.00  0.00    -0.247 OA
ENDBRANCH   4  15
TORSDOF 5
ENDMDL
MODEL 5
REMARK VINA RESULT:      -5.5      2.099      2.477
REMARK  5 active torsions:
REMARK  status: ('A' for Active; 'I' for Inactive)
REMARK    1  A    between atoms: C_2  and  C_3 
REMARK    2  A    between atoms: C_3  and  N_4 
REMARK       I    between atoms: N_4  and  C_5 
REMARK    3  A    between atoms: C_5  and  C_7 
REMARK    4  A    between atoms: C_7  and  C_8 
REMARK    5  A    between atoms: C_11  and  N_14 
ROOT
HETATM    1  C   UNL     1     -41.942 -48.602  11.715  1.00  0.00     0.026 A 
HETATM    2  C   UNL     1     -42.489 -48.126  12.890  1.00  0.00     0.078 A 
HETATM    3  S   UNL     1     -42.890 -49.435  13.919  1.00  0.00    -0.064 SA
HETATM    4  C   UNL     1     -42.404 -50.536  12.698  1.00  0.00     0.155 A 
HETATM    5  N   UNL     1     -41.891 -49.984  11.625  1.00  0.00    -0.339 N 
ATOM      6  HN  UNL     1     -41.509 -50.500  10.834  1.00  0.00     0.168 HD
ENDROOT
BRANCH   1   7
HETATM    7  C   UNL     1     -41.468 -47.802  10.550  1.00  0.00     0.160 C 
BRANCH   7   8
HETATM    8  C   UNL     1     -42.583 -46.969   9.953  1.00  0.00     0.223 C 
HETATM    9  N   UNL     1     -43.599 -47.709   9.377  1.00  0.00    -0.361 N 
HETATM   10  H   UNL     1     -43.383 -48.680   9.150  1.00  0.00     0.162 HD
HETATM   11  O   UNL     1     -42.596 -45.744  10.026  1.00  0.00    -0.273 OA
BRANCH   9  12
HETATM   12  C   UNL     1     -44.721 -47.085   8.709  1.00  0.00     0.122 C 
BRANCH  12  13
HETATM   13  C   UNL     1     -46.068 -47.532   9.270  1.00  0.00     0.015 C 
HETATM   14  C   UNL     1     -46.632 -48.745   8.543  1.00  0.00     0.006 C 
ENDBRANCH  12  13
ENDBRANCH   9  12
ENDBRANCH   7   8
ENDBRANCH   1   7
BRANCH   4  15
HETATM   15  N   UNL     1     -42.630 -51.878  12.903  1.00  0.00    -0.278 N 
HETATM   16  C   UNL     1     -43.836 -52.540  13.342  1.00  0.00     0.155 C 
HETATM   17  C   UNL     1     -43.605 -54.003  12.994  1.00  0.00     0.145 C 
HETATM   18  N   UNL     1     -42.201 -54.084  12.731  1.00  0.00    -0.341 N 
HETATM   19  C   UNL     1     -41.643 -52.816  12.571  1.00  0.00     0.324 C 
HETATM   20  H   UNL     1     -41.713 -54.875  12.330  1.00  0.00     0.164 HD
HETATM   21  O   UNL     1     -40.499 -52.661  12.178  1.00  0.00    -0.247 OA
ENDBRANCH   4  15
TORSDOF 5
ENDMDL
MODEL 6
REMARK VINA RESULT:      -5.2      3.529      6.213
REMARK  5 active torsions:
REMARK  status: ('A' for Active; 'I' for Inactive)
REMARK    1  A    between atoms: C_2  and  C_3 
REMARK    2  A    between atoms: C_3  and  N_4 
REMARK       I    between atoms: N_4  and  C_5 
REMARK    3  A    between atoms: C_5  and  C_7 
REMARK    4  A    between atoms: C_7  and  C_8 
REMARK    5  A    between atoms: C_11  and  N_14 
ROOT
HETATM    1  C   UNL     1     -41.568 -53.381  13.815  1.00  0.00     0.026 A 
HETATM    2  C   UNL     1     -40.819 -53.454  14.972  1.00  0.00     0.078 A 
HETATM    3  S   UNL     1     -39.524 -52.336  14.901  1.00  0.00    -0.064 SA
HETATM    4  C   UNL     1     -39.988 -51.909  13.308  1.00  0.00     0.155 A 
HETATM    5  N   UNL     1     -41.084 -52.484  12.876  1.00  0.00    -0.339 N 
ATOM      6  HN  UNL     1     -41.520 -52.298  11.973  1.00  0.00     0.168 HD
ENDROOT
BRANCH   1   7
HETATM    7  C   UNL     1     -42.772 -54.187  13.465  1.00  0.00     0.160 C 
BRANCH   7   8
HETATM    8  C   UNL     1     -43.916 -53.928  14.423  1.00  0.00     0.223 C 
HETATM    9  N   UNL     1     -44.420 -52.641  14.371  1.00  0.00    -0.361 N 
HETATM   10  H   UNL     1     -43.824 -51.935  13.939  1.00  0.00     0.162 HD
HETATM   11  O   UNL     1     -44.380 -54.809  15.142  1.00  0.00    -0.273 OA
BRANCH   9  12
HETATM   12  C   UNL     1     -45.478 -52.195  15.253  1.00  0.00     0.122 C 
BRANCH  12  13
HETATM   13  C   UNL     1     -46.627 -51.523  14.505  1.00  0.00     0.015 C 
HETATM   14  C   UNL     1     -46.443 -51.560  12.994  1.00  0.00     0.006 C 
ENDBRANCH  12  13
ENDBRANCH   9  12
ENDBRANCH   7   8
ENDBRANCH   1   7
BRANCH   4  15
HETATM   15  N   UNL     1     -39.172 -51.059  12.597  1.00  0.00    -0.278 N 
HETATM   16  C   UNL     1     -37.732 -50.946  12.624  1.00  0.00     0.155 C 
HETATM   17  C   UNL     1     -37.396 -50.152  11.371  1.00  0.00     0.145 C 
HETATM   18  N   UNL     1     -38.652 -49.602  10.958  1.00  0.00    -0.341 N 
HETATM   19  C   UNL     1     -39.715 -50.220  11.614  1.00  0.00     0.324 C 
HETATM   20  H   UNL     1     -38.838 -49.134  10.079  1.00  0.00     0.164 HD
HETATM   21  O   UNL     1     -40.875 -50.021  11.292  1.00  0.00    -0.247 OA
ENDBRANCH   4  15
TORSDOF 5
ENDMDL
MODEL 7
REMARK VINA RESULT:      -5.2      3.502      5.951
REMARK  5 active torsions:
REMARK  status: ('A' for Active; 'I' for Inactive)
REMARK    1  A    between atoms: C_2  and  C_3 
REMARK    2  A    between atoms: C_3  and  N_4 
REMARK       I    between atoms: N_4  and  C_5 
REMARK    3  A    between atoms: C_5  and  C_7 
REMARK    4  A    between atoms: C_7  and  C_8 
REMARK    5  A    between atoms: C_11  and  N_14 
ROOT
HETATM    1  C   UNL     1     -42.506 -54.208  15.034  1.00  0.00     0.026 A 
HETATM    2  C   UNL     1     -41.626 -54.152  16.095  1.00  0.00     0.078 A 
HETATM    3  S   UNL     1     -40.524 -52.860  15.872  1.00  0.00    -0.064 SA
HETATM    4  C   UNL     1     -41.227 -52.532  14.344  1.00  0.00     0.155 A 
HETATM    5  N   UNL     1     -42.270 -53.267  14.044  1.00  0.00    -0.339 N 
ATOM      6  HN  UNL     1     -42.831 -53.162  13.198  1.00  0.00     0.168 HD
ENDROOT
BRANCH   1   7
HETATM    7  C   UNL     1     -43.613 -55.185  14.828  1.00  0.00     0.160 C 
BRANCH   7   8
HETATM    8  C   UNL     1     -44.809 -54.544  14.157  1.00  0.00     0.223 C 
HETATM    9  N   UNL     1     -45.601 -53.793  15.007  1.00  0.00    -0.361 N 
HETATM   10  H   UNL     1     -45.492 -53.968  16.006  1.00  0.00     0.162 HD
HETATM   11  O   UNL     1     -45.018 -54.647  12.952  1.00  0.00    -0.273 OA
BRANCH   9  12
HETATM   12  C   UNL     1     -46.818 -53.151  14.556  1.00  0.00     0.122 C 
BRANCH  12  13
HETATM   13  C   UNL     1     -46.603 -51.695  14.151  1.00  0.00     0.015 C 
HETATM   14  C   UNL     1     -46.519 -51.513  12.642  1.00  0.00     0.006 C 
ENDBRANCH  12  13
ENDBRANCH   9  12
ENDBRANCH   7   8
ENDBRANCH   1   7
BRANCH   4  15
HETATM   15  N   UNL     1     -40.631 -51.586  13.542  1.00  0.00    -0.278 N 
HETATM   16  C   UNL     1     -39.781 -50.481  13.917  1.00  0.00     0.155 C 
HETATM   17  C   UNL     1     -39.123 -50.056  12.613  1.00  0.00     0.145 C 
HETATM   18  N   UNL     1     -39.904 -50.701  11.601  1.00  0.00    -0.341 N 
HETATM   19  C   UNL     1     -40.725 -51.687  12.147  1.00  0.00     0.324 C 
HETATM   20  H   UNL     1     -39.672 -50.761  10.617  1.00  0.00     0.164 HD
HETATM   21  O   UNL     1     -41.348 -52.467  11.446  1.00  0.00    -0.247 OA
ENDBRANCH   4  15
TORSDOF 5
ENDMDL
MODEL 8
REMARK VINA RESULT:      -5.2      3.332      5.895
REMARK  5 active torsions:
REMARK  status: ('A' for Active; 'I' for Inactive)
REMARK    1  A    between atoms: C_2  and  C_3 
REMARK    2  A    between atoms: C_3  and  N_4 
REMARK       I    between atoms: N_4  and  C_5 
REMARK    3  A    between atoms: C_5  and  C_7 
REMARK    4  A    between atoms: C_7  and  C_8 
REMARK    5  A    between atoms: C_11  and  N_14 
ROOT
HETATM    1  C   UNL     1     -42.523 -52.840  12.794  1.00  0.00     0.026 A 
HETATM    2  C   UNL     1     -41.729 -53.780  13.420  1.00  0.00     0.078 A 
HETATM    3  S   UNL     1     -40.124 -53.195  13.552  1.00  0.00    -0.064 SA
HETATM    4  C   UNL     1     -40.573 -51.786  12.685  1.00  0.00     0.155 A 
HETATM    5  N   UNL     1     -41.847 -51.700  12.388  1.00  0.00    -0.339 N 
ATOM      6  HN  UNL     1     -42.282 -50.904  11.922  1.00  0.00     0.168 HD
ENDROOT
BRANCH   1   7
HETATM    7  C   UNL     1     -43.973 -52.952  12.473  1.00  0.00     0.160 C 
BRANCH   7   8
HETATM    8  C   UNL     1     -44.786 -51.883  13.172  1.00  0.00     0.223 C 
HETATM    9  N   UNL     1     -45.908 -52.360  13.825  1.00  0.00    -0.361 N 
HETATM   10  H   UNL     1     -46.239 -53.284  13.548  1.00  0.00     0.162 HD
HETATM   11  O   UNL     1     -44.440 -50.706  13.193  1.00  0.00    -0.273 OA
BRANCH   9  12
HETATM   12  C   UNL     1     -46.836 -51.478  14.502  1.00  0.00     0.122 C 
BRANCH  12  13
HETATM   13  C   UNL     1     -46.622 -51.442  16.014  1.00  0.00     0.015 C 
HETATM   14  C   UNL     1     -47.900 -51.130  16.779  1.00  0.00     0.006 C 
ENDBRANCH  12  13
ENDBRANCH   9  12
ENDBRANCH   7   8
ENDBRANCH   1   7
BRANCH   4  15
HETATM   15  N   UNL     1     -39.584 -50.900  12.325  1.00  0.00    -0.278 N 
HETATM   16  C   UNL     1     -38.172 -50.941  12.627  1.00  0.00     0.155 C 
HETATM   17  C   UNL     1     -37.554 -49.953  11.650  1.00  0.00     0.145 C 
HETATM   18  N   UNL     1     -38.669 -49.207  11.151  1.00  0.00    -0.341 N 
HETATM   19  C   UNL     1     -39.875 -49.832  11.465  1.00  0.00     0.324 C 
HETATM   20  H   UNL     1     -38.654 -48.558  10.374  1.00  0.00     0.164 HD
HETATM   21  O   UNL     1     -40.937 -49.456  10.996  1.00  0.00    -0.247 OA
ENDBRANCH   4  15
TORSDOF 5
ENDMDL
MODEL 9
REMARK VINA RESULT:      -5.2      4.289      5.189
REMARK  5 active torsions:
REMARK  status: ('A' for Active; 'I' for Inactive)
REMARK    1  A    between atoms: C_2  and  C_3 
REMARK    2  A    between atoms: C_3  and  N_4 
REMARK       I    between atoms: N_4  and  C_5 
REMARK    3  A    between atoms: C_5  and  C_7 
REMARK    4  A    between atoms: C_7  and  C_8 
REMARK    5  A    between atoms: C_11  and  N_14 
ROOT
HETATM    1  C   UNL     1     -41.556 -54.196  14.331  1.00  0.00     0.026 A 
HETATM    2  C   UNL     1     -41.378 -54.564  15.649  1.00  0.00     0.078 A 
HETATM    3  S   UNL     1     -42.894 -54.650  16.442  1.00  0.00    -0.064 SA
HETATM    4  C   UNL     1     -43.665 -54.100  15.013  1.00  0.00     0.155 A 
HETATM    5  N   UNL     1     -42.873 -53.944  13.980  1.00  0.00    -0.339 N 
ATOM      6  HN  UNL     1     -43.183 -53.673  13.047  1.00  0.00     0.168 HD
ENDROOT
BRANCH   1   7
HETATM    7  C   UNL     1     -40.501 -53.996  13.298  1.00  0.00     0.160 C 
BRANCH   7   8
HETATM    8  C   UNL     1     -40.642 -52.657  12.605  1.00  0.00     0.223 C 
HETATM    9  N   UNL     1     -39.591 -51.787  12.831  1.00  0.00    -0.361 N 
HETATM   10  H   UNL     1     -38.996 -51.991  13.634  1.00  0.00     0.162 HD
HETATM   11  O   UNL     1     -41.588 -52.399  11.867  1.00  0.00    -0.273 OA
BRANCH   9  12
HETATM   12  C   UNL     1     -39.579 -50.442  12.296  1.00  0.00     0.122 C 
BRANCH  12  13
HETATM   13  C   UNL     1     -38.212 -49.773  12.409  1.00  0.00     0.015 C 
HETATM   14  C   UNL     1     -37.371 -49.942  11.151  1.00  0.00     0.006 C 
ENDBRANCH  12  13
ENDBRANCH   9  12
ENDBRANCH   7   8
ENDBRANCH   1   7
BRANCH   4  15
HETATM   15  N   UNL     1     -45.011 -53.818  15.066  1.00  0.00    -0.278 N 
HETATM   16  C   UNL     1     -45.680 -52.684  15.661  1.00  0.00     0.155 C 
HETATM   17  C   UNL     1     -47.078 -52.721  15.062  1.00  0.00     0.145 C 
HETATM   18  N   UNL     1     -47.178 -54.027  14.485  1.00  0.00    -0.341 N 
HETATM   19  C   UNL     1     -45.928 -54.636  14.391  1.00  0.00     0.324 C 
HETATM   20  H   UNL     1     -47.918 -54.354  13.875  1.00  0.00     0.164 HD
HETATM   21  O   UNL     1     -45.763 -55.679  13.781  1.00  0.00    -0.247 OA
ENDBRANCH   4  15
TORSDOF 5
ENDMDL
