MODEL 1
REMARK VINA RESULT:      -5.8      0.000      0.000
REMARK  6 active torsions:
REMARK  status: ('A' for Active; 'I' for Inactive)
REMARK    1  A    between atoms: C_2  and  C_3 
REMARK    2  A    between atoms: C_2  and  N_11 
REMARK    3  A    between atoms: C_3  and  C_4 
REMARK    4  A    between atoms: C_4  and  N_5 
REMARK       I    between atoms: N_11  and  C_12 
REMARK    5  A    between atoms: C_12  and  C_14 
REMARK    6  A    between atoms: C_14  and  C_15 
ROOT
HETATM    1  N   UNL     1     -42.465 -50.840  12.059  1.00  0.00    -0.357 N 
HETATM    2  C   UNL     1     -42.589 -52.014  12.771  1.00  0.00     0.222 C 
HETATM    3  O   UNL     1     -41.897 -52.294  13.745  1.00  0.00    -0.273 OA
HETATM    4  H   UNL     1     -43.020 -50.710  11.221  1.00  0.00     0.162 HD
ENDROOT
BRANCH   1   5
HETATM    5  C   UNL     1     -41.458 -49.843  12.391  1.00  0.00     0.082 C 
HETATM    6  C   UNL     1     -40.252 -49.976  11.456  1.00  0.00     0.032 C 
BRANCH   5   7
HETATM    7  C   UNL     1     -42.027 -48.419  12.299  1.00  0.00     0.055 C 
BRANCH   7   8
HETATM    8  C   UNL     1     -43.035 -48.233  11.153  1.00  0.00     0.274 C 
BRANCH   8   9
HETATM    9  N   UNL     1     -42.392 -47.651   9.961  1.00  0.00     0.092 N 
HETATM   10  C   UNL     1     -41.745 -46.343  10.211  1.00  0.00     0.298 C 
HETATM   11  C   UNL     1     -42.734 -45.179  10.375  1.00  0.00     0.198 C 
HETATM   12  O   UNL     1     -43.565 -45.052   9.215  1.00  0.00    -0.388 OA
HETATM   13  C   UNL     1     -44.289 -46.266   8.981  1.00  0.00     0.198 C 
HETATM   14  C   UNL     1     -43.352 -47.478   8.845  1.00  0.00     0.298 C 
ENDBRANCH   8   9
ENDBRANCH   7   8
ENDBRANCH   5   7
ENDBRANCH   1   5
BRANCH   2  15
HETATM   15  C   UNL     1     -43.696 -52.928  12.279  1.00  0.00     0.142 C 
BRANCH  15  16
HETATM   16  C   UNL     1     -44.918 -52.867  13.154  1.00  0.00    -0.034 A 
HETATM   17  C   UNL     1     -45.472 -51.648  13.554  1.00  0.00     0.010 A 
HETATM   18  C   UNL     1     -46.604 -51.638  14.363  1.00  0.00     0.018 A 
HETATM   19  C   UNL     1     -47.151 -52.851  14.743  1.00  0.00     0.087 A 
HETATM   20  N   UNL     1     -46.650 -54.049  14.373  1.00  0.00    -0.375 N 
HETATM   21  C   UNL     1     -45.551 -54.032  13.586  1.00  0.00     0.095 A 
ATOM     22  HN  UNL     1     -47.079 -54.924  14.672  1.00  0.00     0.164 HD
ENDBRANCH  15  16
ENDBRANCH   2  15
TORSDOF 6
ENDMDL
MODEL 2
REMARK VINA RESULT:      -5.7      2.329      6.605
REMARK  6 active torsions:
REMARK  status: ('A' for Active; 'I' for Inactive)
REMARK    1  A    between atoms: C_2  and  C_3 
REMARK    2  A    between atoms: C_2  and  N_11 
REMARK    3  A    between atoms: C_3  and  C_4 
REMARK    4  A    between atoms: C_4  and  N_5 
REMARK       I    between atoms: N_11  and  C_12 
REMARK    5  A    between atoms: C_12  and  C_14 
REMARK    6  A    between atoms: C_14  and  C_15 
ROOT
HETATM    1  N   UNL     1     -43.104 -47.748  11.970  1.00  0.00    -0.357 N 
HETATM    2  C   UNL     1     -42.539 -47.584  10.723  1.00  0.00     0.222 C 
HETATM    3  O   UNL     1     -41.503 -48.139  10.369  1.00  0.00    -0.273 OA
HETATM    4  H   UNL     1     -43.920 -47.201  12.217  1.00  0.00     0.162 HD
ENDROOT
BRANCH   1   5
HETATM    5  C   UNL     1     -42.482 -48.576  12.992  1.00  0.00     0.082 C 
HETATM    6  C   UNL     1     -41.984 -47.704  14.149  1.00  0.00     0.032 C 
BRANCH   5   7
HETATM    7  C   UNL     1     -43.458 -49.634  13.528  1.00  0.00     0.055 C 
BRANCH   7   8
HETATM    8  C   UNL     1     -42.942 -51.076  13.384  1.00  0.00     0.274 C 
BRANCH   8   9
HETATM    9  N   UNL     1     -43.716 -52.009  14.221  1.00  0.00     0.092 N 
HETATM   10  C   UNL     1     -43.452 -53.436  13.927  1.00  0.00     0.298 C 
HETATM   11  C   UNL     1     -44.078 -53.930  12.615  1.00  0.00     0.198 C 
HETATM   12  O   UNL     1     -45.497 -53.732  12.623  1.00  0.00    -0.388 OA
HETATM   13  C   UNL     1     -45.809 -52.346  12.812  1.00  0.00     0.198 C 
HETATM   14  C   UNL     1     -45.175 -51.783  14.096  1.00  0.00     0.298 C 
ENDBRANCH   8   9
ENDBRANCH   7   8
ENDBRANCH   5   7
ENDBRANCH   1   5
BRANCH   2  15
HETATM   15  C   UNL     1     -43.333 -46.688   9.791  1.00  0.00     0.142 C 
BRANCH  15  16
HETATM   16  C   UNL     1     -44.403 -47.440   9.050  1.00  0.00    -0.034 A 
HETATM   17  C   UNL     1     -45.679 -47.621   9.591  1.00  0.00     0.010 A 
HETATM   18  C   UNL     1     -46.640 -48.322   8.870  1.00  0.00     0.018 A 
HETATM   19  C   UNL     1     -46.296 -48.818   7.625  1.00  0.00     0.087 A 
HETATM   20  N   UNL     1     -45.078 -48.659   7.065  1.00  0.00    -0.375 N 
HETATM   21  C   UNL     1     -44.162 -47.972   7.785  1.00  0.00     0.095 A 
ATOM     22  HN  UNL     1     -44.859 -49.038   6.144  1.00  0.00     0.164 HD
ENDBRANCH  15  16
ENDBRANCH   2  15
TORSDOF 6
ENDMDL
MODEL 3
REMARK VINA RESULT:      -5.5      2.849      7.200
REMARK  6 active torsions:
REMARK  status: ('A' for Active; 'I' for Inactive)
REMARK    1  A    between atoms: C_2  and  C_3 
REMARK    2  A    between atoms: C_2  and  N_11 
REMARK    3  A    between atoms: C_3  and  C_4 
REMARK    4  A    between atoms: C_4  and  N_5 
REMARK       I    between atoms: N_11  and  C_12 
REMARK    5  A    between atoms: C_12  and  C_14 
REMARK    6  A    between atoms: C_14  and  C_15 
ROOT
HETATM    1  N   UNL     1     -42.104 -49.218  11.191  1.00  0.00    -0.357 N 
HETATM    2  C   UNL     1     -42.187 -47.848  11.332  1.00  0.00     0.222 C 
HETATM    3  O   UNL     1     -42.066 -47.268  12.406  1.00  0.00    -0.273 OA
HETATM    4  H   UNL     1     -42.287 -49.633  10.286  1.00  0.00     0.162 HD
ENDROOT
BRANCH   1   5
HETATM    5  C   UNL     1     -41.903 -50.096  12.335  1.00  0.00     0.082 C 
HETATM    6  C   UNL     1     -43.241 -50.390  13.019  1.00  0.00     0.032 C 
BRANCH   5   7
HETATM    7  C   UNL     1     -41.237 -51.416  11.918  1.00  0.00     0.055 C 
BRANCH   7   8
HETATM    8  C   UNL     1     -40.405 -52.065  13.036  1.00  0.00     0.274 C 
BRANCH   8   9
HETATM    9  N   UNL     1     -40.466 -53.536  12.967  1.00  0.00     0.092 N 
HETATM   10  C   UNL     1     -41.828 -54.086  13.152  1.00  0.00     0.298 C 
HETATM   11  C   UNL     1     -42.332 -54.030  14.602  1.00  0.00     0.198 C 
HETATM   12  O   UNL     1     -41.442 -54.734  15.477  1.00  0.00    -0.388 OA
HETATM   13  C   UNL     1     -40.123 -54.179  15.406  1.00  0.00     0.198 C 
HETATM   14  C   UNL     1     -39.578 -54.173  13.967  1.00  0.00     0.298 C 
ENDBRANCH   8   9
ENDBRANCH   7   8
ENDBRANCH   5   7
ENDBRANCH   1   5
BRANCH   2  15
HETATM   15  C   UNL     1     -42.395 -47.100  10.029  1.00  0.00     0.142 C 
BRANCH  15  16
HETATM   16  C   UNL     1     -43.646 -47.532   9.315  1.00  0.00    -0.034 A 
HETATM   17  C   UNL     1     -44.886 -47.554   9.959  1.00  0.00     0.010 A 
HETATM   18  C   UNL     1     -46.018 -47.960   9.260  1.00  0.00     0.018 A 
HETATM   19  C   UNL     1     -45.876 -48.329   7.934  1.00  0.00     0.087 A 
HETATM   20  N   UNL     1     -44.697 -48.315   7.275  1.00  0.00    -0.375 N 
HETATM   21  C   UNL     1     -43.612 -47.915   7.975  1.00  0.00     0.095 A 
ATOM     22  HN  UNL     1     -44.629 -48.593   6.296  1.00  0.00     0.164 HD
ENDBRANCH  15  16
ENDBRANCH   2  15
TORSDOF 6
ENDMDL
MODEL 4
REMARK VINA RESULT:      -5.4      2.542      6.733
REMARK  6 active torsions:
REMARK  status: ('A' for Active; 'I' for Inactive)
REMARK    1  A    between atoms: C_2  and  C_3 
REMARK    2  A    between atoms: C_2  and  N_11 
REMARK    3  A    between atoms: C_3  and  C_4 
REMARK    4  A    between atoms: C_4  and  N_5 
REMARK       I    between atoms: N_11  and  C_12 
REMARK    5  A    between atoms: C_12  and  C_14 
REMARK    6  A    between atoms: C_14  and  C_15 
ROOT
HETATM    1  N   UNL     1     -41.052 -52.072  13.540  1.00  0.00    -0.357 N 
HETATM    2  C   UNL     1     -40.084 -51.202  13.084  1.00  0.00     0.222 C 
HETATM    3  O   UNL     1     -39.094 -51.558  12.453  1.00  0.00    -0.273 OA
HETATM    4  H   UNL     1     -41.804 -51.714  14.118  1.00  0.00     0.162 HD
ENDROOT
BRANCH   1   5
HETATM    5  C   UNL     1     -40.949 -53.509  13.338  1.00  0.00     0.082 C 
HETATM    6  C   UNL     1     -40.085 -54.138  14.436  1.00  0.00     0.032 C 
BRANCH   5   7
HETATM    7  C   UNL     1     -42.333 -54.176  13.328  1.00  0.00     0.055 C 
BRANCH   7   8
HETATM    8  C   UNL     1     -43.495 -53.180  13.480  1.00  0.00     0.274 C 
BRANCH   8   9
HETATM    9  N   UNL     1     -44.729 -53.697  12.862  1.00  0.00     0.092 N 
HETATM   10  C   UNL     1     -45.762 -52.662  12.634  1.00  0.00     0.298 C 
HETATM   11  C   UNL     1     -46.474 -52.198  13.913  1.00  0.00     0.198 C 
HETATM   12  O   UNL     1     -47.091 -53.304  14.582  1.00  0.00    -0.388 OA
HETATM   13  C   UNL     1     -46.115 -54.300  14.911  1.00  0.00     0.198 C 
HETATM   14  C   UNL     1     -45.340 -54.778  13.671  1.00  0.00     0.298 C 
ENDBRANCH   8   9
ENDBRANCH   7   8
ENDBRANCH   5   7
ENDBRANCH   1   5
BRANCH   2  15
HETATM   15  C   UNL     1     -40.366 -49.742  13.385  1.00  0.00     0.142 C 
BRANCH  15  16
HETATM   16  C   UNL     1     -41.220 -49.095  12.330  1.00  0.00    -0.034 A 
HETATM   17  C   UNL     1     -42.450 -48.510  12.641  1.00  0.00     0.010 A 
HETATM   18  C   UNL     1     -43.207 -47.920  11.633  1.00  0.00     0.018 A 
HETATM   19  C   UNL     1     -42.708 -47.931  10.343  1.00  0.00     0.087 A 
HETATM   20  N   UNL     1     -41.522 -48.481  10.003  1.00  0.00    -0.375 N 
HETATM   21  C   UNL     1     -40.804 -49.045  11.001  1.00  0.00     0.095 A 
ATOM     22  HN  UNL     1     -41.184 -48.470   9.041  1.00  0.00     0.164 HD
ENDBRANCH  15  16
ENDBRANCH   2  15
TORSDOF 6
ENDMDL
MODEL 5
REMARK VINA RESULT:      -5.4      3.887      7.509
REMARK  6 active torsions:
REMARK  status: ('A' for Active; 'I' for Inactive)
REMARK    1  A    between atoms: C_2  and  C_3 
REMARK    2  A    between atoms: C_2  and  N_11 
REMARK    3  A    between atoms: C_3  and  C_4 
REMARK    4  A    between atoms: C_4  and  N_5 
REMARK       I    between atoms: N_11  and  C_12 
REMARK    5  A    between atoms: C_12  and  C_14 
REMARK    6  A    between atoms: C_14  and  C_15 
ROOT
HETATM    1  N   UNL     1     -42.206 -53.121  14.057  1.00  0.00    -0.357 N 
HETATM    2  C   UNL     1     -40.992 -52.803  13.488  1.00  0.00     0.222 C 
HETATM    3  O   UNL     1     -40.408 -53.527  12.687  1.00  0.00    -0.273 OA
HETATM    4  H   UNL     1     -42.594 -52.509  14.767  1.00  0.00     0.162 HD
ENDROOT
BRANCH   1   5
HETATM    5  C   UNL     1     -42.881 -54.380  13.777  1.00  0.00     0.082 C 
HETATM    6  C   UNL     1     -43.024 -55.202  15.062  1.00  0.00     0.032 C 
BRANCH   5   7
HETATM    7  C   UNL     1     -44.267 -54.148  13.156  1.00  0.00     0.055 C 
BRANCH   7   8
HETATM    8  C   UNL     1     -44.814 -52.730  13.388  1.00  0.00     0.274 C 
BRANCH   8   9
HETATM    9  N   UNL     1     -46.236 -52.761  13.774  1.00  0.00     0.092 N 
HETATM   10  C   UNL     1     -46.729 -51.484  14.339  1.00  0.00     0.298 C 
HETATM   11  C   UNL     1     -46.240 -51.203  15.767  1.00  0.00     0.198 C 
HETATM   12  O   UNL     1     -46.624 -52.261  16.653  1.00  0.00    -0.388 OA
HETATM   13  C   UNL     1     -46.091 -53.512  16.202  1.00  0.00     0.198 C 
HETATM   14  C   UNL     1     -46.518 -53.832  14.759  1.00  0.00     0.298 C 
ENDBRANCH   8   9
ENDBRANCH   7   8
ENDBRANCH   5   7
ENDBRANCH   1   5
BRANCH   2  15
HETATM   15  C   UNL     1     -40.447 -51.448  13.897  1.00  0.00     0.142 C 
BRANCH  15  16
HETATM   16  C   UNL     1     -39.375 -50.957  12.963  1.00  0.00    -0.034 A 
HETATM   17  C   UNL     1     -38.021 -51.199  13.210  1.00  0.00     0.010 A 
HETATM   18  C   UNL     1     -37.063 -50.727  12.319  1.00  0.00     0.018 A 
HETATM   19  C   UNL     1     -37.490 -50.030  11.202  1.00  0.00     0.087 A 
HETATM   20  N   UNL     1     -38.788 -49.781  10.925  1.00  0.00    -0.375 N 
HETATM   21  C   UNL     1     -39.700 -50.251  11.806  1.00  0.00     0.095 A 
ATOM     22  HN  UNL     1     -39.067 -49.263  10.092  1.00  0.00     0.164 HD
ENDBRANCH  15  16
ENDBRANCH   2  15
TORSDOF 6
ENDMDL
MODEL 6
REMARK VINA RESULT:      -5.2      2.022      2.764
REMARK  6 active torsions:
REMARK  status: ('A' for Active; 'I' for Inactive)
REMARK    1  A    between atoms: C_2  and  C_3 
REMARK    2  A    between atoms: C_2  and  N_11 
REMARK    3  A    between atoms: C_3  and  C_4 
REMARK    4  A    between atoms: C_4  and  N_5 
REMARK       I    between atoms: N_11  and  C_12 
REMARK    5  A    between atoms: C_12  and  C_14 
REMARK    6  A    between atoms: C_14  and  C_15 
ROOT
HETATM    1  N   UNL     1     -39.728 -51.910  12.441  1.00  0.00    -0.357 N 
HETATM    2  C   UNL     1     -40.381 -52.483  13.511  1.00  0.00     0.222 C 
HETATM    3  O   UNL     1     -40.487 -51.944  14.609  1.00  0.00    -0.273 OA
HETATM    4  H   UNL     1     -39.616 -52.444  11.587  1.00  0.00     0.162 HD
ENDROOT
BRANCH   1   5
HETATM    5  C   UNL     1     -39.069 -50.616  12.546  1.00  0.00     0.082 C 
HETATM    6  C   UNL     1     -37.548 -50.790  12.489  1.00  0.00     0.032 C 
BRANCH   5   7
HETATM    7  C   UNL     1     -39.520 -49.663  11.428  1.00  0.00     0.055 C 
BRANCH   7   8
HETATM    8  C   UNL     1     -41.028 -49.362  11.449  1.00  0.00     0.274 C 
BRANCH   8   9
HETATM    9  N   UNL     1     -41.345 -48.157  10.662  1.00  0.00     0.092 N 
HETATM   10  C   UNL     1     -40.555 -46.965  11.049  1.00  0.00     0.298 C 
HETATM   11  C   UNL     1     -40.989 -46.336  12.381  1.00  0.00     0.198 C 
HETATM   12  O   UNL     1     -42.371 -45.961  12.340  1.00  0.00    -0.388 OA
HETATM   13  C   UNL     1     -43.192 -47.102  12.060  1.00  0.00     0.198 C 
HETATM   14  C   UNL     1     -42.780 -47.800  10.752  1.00  0.00     0.298 C 
ENDBRANCH   8   9
ENDBRANCH   7   8
ENDBRANCH   5   7
ENDBRANCH   1   5
BRANCH   2  15
HETATM   15  C   UNL     1     -41.009 -53.830  13.209  1.00  0.00     0.142 C 
BRANCH  15  16
HETATM   16  C   UNL     1     -42.512 -53.777  13.225  1.00  0.00    -0.034 A 
HETATM   17  C   UNL     1     -43.262 -54.554  14.111  1.00  0.00     0.010 A 
HETATM   18  C   UNL     1     -44.651 -54.473  14.093  1.00  0.00     0.018 A 
HETATM   19  C   UNL     1     -45.248 -53.613  13.188  1.00  0.00     0.087 A 
HETATM   20  N   UNL     1     -44.558 -52.842  12.320  1.00  0.00    -0.375 N 
HETATM   21  C   UNL     1     -43.209 -52.937  12.359  1.00  0.00     0.095 A 
ATOM     22  HN  UNL     1     -45.030 -52.218  11.666  1.00  0.00     0.164 HD
ENDBRANCH  15  16
ENDBRANCH   2  15
TORSDOF 6
ENDMDL
MODEL 7
REMARK VINA RESULT:      -5.2      2.262      7.403
REMARK  6 active torsions:
REMARK  status: ('A' for Active; 'I' for Inactive)
REMARK    1  A    between atoms: C_2  and  C_3 
REMARK    2  A    between atoms: C_2  and  N_11 
REMARK    3  A    between atoms: C_3  and  C_4 
REMARK    4  A    between atoms: C_4  and  N_5 
REMARK       I    between atoms: N_11  and  C_12 
REMARK    5  A    between atoms: C_12  and  C_14 
REMARK    6  A    between atoms: C_14  and  C_15 
ROOT
HETATM    1  N   UNL     1     -42.326 -50.092  11.877  1.00  0.00    -0.357 N 
HETATM    2  C   UNL     1     -41.276 -49.312  11.441  1.00  0.00     0.222 C 
HETATM    3  O   UNL     1     -40.123 -49.443  11.839  1.00  0.00    -0.273 OA
HETATM    4  H   UNL     1     -43.265 -49.878  11.560  1.00  0.00     0.162 HD
ENDROOT
BRANCH   1   5
HETATM    5  C   UNL     1     -42.149 -51.123  12.889  1.00  0.00     0.082 C 
HETATM    6  C   UNL     1     -42.895 -50.740  14.171  1.00  0.00     0.032 C 
BRANCH   5   7
HETATM    7  C   UNL     1     -42.646 -52.489  12.392  1.00  0.00     0.055 C 
BRANCH   7   8
HETATM    8  C   UNL     1     -43.490 -53.250  13.429  1.00  0.00     0.274 C 
BRANCH   8   9
HETATM    9  N   UNL     1     -44.744 -53.749  12.837  1.00  0.00     0.092 N 
HETATM   10  C   UNL     1     -45.757 -52.694  12.607  1.00  0.00     0.298 C 
HETATM   11  C   UNL     1     -46.439 -52.193  13.889  1.00  0.00     0.198 C 
HETATM   12  O   UNL     1     -47.071 -53.275  14.584  1.00  0.00    -0.388 OA
HETATM   13  C   UNL     1     -46.112 -54.287  14.915  1.00  0.00     0.198 C 
HETATM   14  C   UNL     1     -45.367 -54.803  13.672  1.00  0.00     0.298 C 
ENDBRANCH   8   9
ENDBRANCH   7   8
ENDBRANCH   5   7
ENDBRANCH   1   5
BRANCH   2  15
HETATM   15  C   UNL     1     -41.654 -48.294  10.381  1.00  0.00     0.142 C 
BRANCH  15  16
HETATM   16  C   UNL     1     -41.608 -46.884  10.901  1.00  0.00    -0.034 A 
HETATM   17  C   UNL     1     -40.488 -46.070  10.711  1.00  0.00     0.010 A 
HETATM   18  C   UNL     1     -40.488 -44.770  11.208  1.00  0.00     0.018 A 
HETATM   19  C   UNL     1     -41.614 -44.322  11.877  1.00  0.00     0.087 A 
HETATM   20  N   UNL     1     -42.717 -45.075  12.075  1.00  0.00    -0.375 N 
HETATM   21  C   UNL     1     -42.692 -46.334  11.582  1.00  0.00     0.095 A 
ATOM     22  HN  UNL     1     -43.529 -44.712  12.573  1.00  0.00     0.164 HD
ENDBRANCH  15  16
ENDBRANCH   2  15
TORSDOF 6
ENDMDL
MODEL 8
REMARK VINA RESULT:      -5.2      1.900      7.116
REMARK  6 active torsions:
REMARK  status: ('A' for Active; 'I' for Inactive)
REMARK    1  A    between atoms: C_2  and  C_3 
REMARK    2  A    between atoms: C_2  and  N_11 
REMARK    3  A    between atoms: C_3  and  C_4 
REMARK    4  A    between atoms: C_4  and  N_5 
REMARK       I    between atoms: N_11  and  C_12 
REMARK    5  A    between atoms: C_12  and  C_14 
REMARK    6  A    between atoms: C_14  and  C_15 
ROOT
HETATM    1  N   UNL     1     -42.703 -50.383  13.148  1.00  0.00    -0.357 N 
HETATM    2  C   UNL     1     -42.245 -49.420  12.273  1.00  0.00     0.222 C 
HETATM    3  O   UNL     1     -41.319 -49.601  11.489  1.00  0.00    -0.273 OA
HETATM    4  H   UNL     1     -43.423 -50.138  13.818  1.00  0.00     0.162 HD
ENDROOT
BRANCH   1   5
HETATM    5  C   UNL     1     -42.085 -51.698  13.235  1.00  0.00     0.082 C 
HETATM    6  C   UNL     1     -41.971 -52.133  14.699  1.00  0.00     0.032 C 
BRANCH   5   7
HETATM    7  C   UNL     1     -42.884 -52.747  12.447  1.00  0.00     0.055 C 
BRANCH   7   8
HETATM    8  C   UNL     1     -43.545 -53.812  13.338  1.00  0.00     0.274 C 
BRANCH   8   9
HETATM    9  N   UNL     1     -44.935 -54.072  12.922  1.00  0.00     0.092 N 
HETATM   10  C   UNL     1     -45.745 -52.846  12.747  1.00  0.00     0.298 C 
HETATM   11  C   UNL     1     -46.155 -52.175  14.067  1.00  0.00     0.198 C 
HETATM   12  O   UNL     1     -46.894 -53.085  14.891  1.00  0.00    -0.388 OA
HETATM   13  C   UNL     1     -46.116 -54.256  15.170  1.00  0.00     0.198 C 
HETATM   14  C   UNL     1     -45.642 -54.952  13.882  1.00  0.00     0.298 C 
ENDBRANCH   8   9
ENDBRANCH   7   8
ENDBRANCH   5   7
ENDBRANCH   1   5
BRANCH   2  15
HETATM   15  C   UNL     1     -43.017 -48.115  12.324  1.00  0.00     0.142 C 
BRANCH  15  16
HETATM   16  C   UNL     1     -43.220 -47.518  10.958  1.00  0.00    -0.034 A 
HETATM   17  C   UNL     1     -44.402 -47.719  10.240  1.00  0.00     0.010 A 
HETATM   18  C   UNL     1     -44.548 -47.147   8.980  1.00  0.00     0.018 A 
HETATM   19  C   UNL     1     -43.507 -46.386   8.478  1.00  0.00     0.087 A 
HETATM   20  N   UNL     1     -42.353 -46.163   9.143  1.00  0.00    -0.375 N 
HETATM   21  C   UNL     1     -42.236 -46.728  10.366  1.00  0.00     0.095 A 
ATOM     22  HN  UNL     1     -41.607 -45.596   8.742  1.00  0.00     0.164 HD
ENDBRANCH  15  16
ENDBRANCH   2  15
TORSDOF 6
ENDMDL
MODEL 9
REMARK VINA RESULT:      -5.1      3.429      6.864
REMARK  6 active torsions:
REMARK  status: ('A' for Active; 'I' for Inactive)
REMARK    1  A    between atoms: C_2  and  C_3 
REMARK    2  A    between atoms: C_2  and  N_11 
REMARK    3  A    between atoms: C_3  and  C_4 
REMARK    4  A    between atoms: C_4  and  N_5 
REMARK       I    between atoms: N_11  and  C_12 
REMARK    5  A    between atoms: C_12  and  C_14 
REMARK    6  A    between atoms: C_14  and  C_15 
ROOT
HETATM    1  N   UNL     1     -38.681 -51.072  13.568  1.00  0.00    -0.357 N 
HETATM    2  C   UNL     1     -37.755 -50.901  12.561  1.00  0.00     0.222 C 
HETATM    3  O   UNL     1     -36.886 -51.725  12.291  1.00  0.00    -0.273 OA
HETATM    4  H   UNL     1     -39.322 -50.317  13.782  1.00  0.00     0.162 HD
ENDROOT
BRANCH   1   5
HETATM    5  C   UNL     1     -38.672 -52.245  14.429  1.00  0.00     0.082 C 
HETATM    6  C   UNL     1     -39.008 -51.848  15.870  1.00  0.00     0.032 C 
BRANCH   5   7
HETATM    7  C   UNL     1     -39.670 -53.307  13.941  1.00  0.00     0.055 C 
BRANCH   7   8
HETATM    8  C   UNL     1     -40.789 -52.736  13.055  1.00  0.00     0.274 C 
BRANCH   8   9
HETATM    9  N   UNL     1     -41.955 -52.328  13.860  1.00  0.00     0.092 N 
HETATM   10  C   UNL     1     -42.361 -53.328  14.873  1.00  0.00     0.298 C 
HETATM   11  C   UNL     1     -43.067 -54.560  14.286  1.00  0.00     0.198 C 
HETATM   12  O   UNL     1     -44.232 -54.174  13.548  1.00  0.00    -0.388 OA
HETATM   13  C   UNL     1     -43.880 -53.274  12.489  1.00  0.00     0.198 C 
HETATM   14  C   UNL     1     -43.135 -52.034  13.013  1.00  0.00     0.298 C 
ENDBRANCH   8   9
ENDBRANCH   7   8
ENDBRANCH   5   7
ENDBRANCH   1   5
BRANCH   2  15
HETATM   15  C   UNL     1     -37.925 -49.619  11.768  1.00  0.00     0.142 C 
BRANCH  15  16
HETATM   16  C   UNL     1     -39.347 -49.129  11.772  1.00  0.00    -0.034 A 
HETATM   17  C   UNL     1     -39.723 -47.980  12.472  1.00  0.00     0.010 A 
HETATM   18  C   UNL     1     -41.050 -47.561  12.447  1.00  0.00     0.018 A 
HETATM   19  C   UNL     1     -41.961 -48.305  11.717  1.00  0.00     0.087 A 
HETATM   20  N   UNL     1     -41.635 -49.416  11.023  1.00  0.00    -0.375 N 
HETATM   21  C   UNL     1     -40.340 -49.801  11.062  1.00  0.00     0.095 A 
ATOM     22  HN  UNL     1     -42.333 -49.940  10.495  1.00  0.00     0.164 HD
ENDBRANCH  15  16
ENDBRANCH   2  15
TORSDOF 6
ENDMDL
