MODEL 1
REMARK VINA RESULT:      -5.9      0.000      0.000
REMARK  6 active torsions:
REMARK  status: ('A' for Active; 'I' for Inactive)
REMARK       I    between atoms: N_1  and  C_2 
REMARK    1  A    between atoms: C_2  and  C_4 
REMARK    2  A    between atoms: C_4  and  C_5 
REMARK    3  A    between atoms: C_8  and  N_9 
REMARK       I    between atoms: N_9  and  C_10 
REMARK    4  A    between atoms: C_10  and  C_12 
REMARK    5  A    between atoms: C_12  and  C_13 
REMARK    6  A    between atoms: C_13  and  C_14 
ROOT
HETATM    1  C   UNL     1     -42.543 -47.144   9.960  1.00  0.00     0.026 A 
HETATM    2  C   UNL     1     -41.613 -46.311  10.559  1.00  0.00     0.078 A 
HETATM    3  S   UNL     1     -40.445 -47.247  11.406  1.00  0.00    -0.064 SA
HETATM    4  C   UNL     1     -41.214 -48.662  10.854  1.00  0.00     0.151 A 
HETATM    5  N   UNL     1     -42.304 -48.496  10.154  1.00  0.00    -0.339 N 
ATOM      6  HN  UNL     1     -42.892 -49.250   9.802  1.00  0.00     0.168 HD
ENDROOT
BRANCH   4   7
HETATM    7  N   UNL     1     -40.614 -49.833  11.220  1.00  0.00    -0.307 N 
HETATM    8  C   UNL     1     -41.239 -50.719  12.069  1.00  0.00     0.223 C 
HETATM    9  O   UNL     1     -42.399 -50.652  12.463  1.00  0.00    -0.273 OA
HETATM   10  H   UNL     1     -39.747 -50.070  10.762  1.00  0.00     0.171 HD
BRANCH   8  11
HETATM   11  C   UNL     1     -40.344 -51.878  12.470  1.00  0.00     0.105 C 
BRANCH  11  12
HETATM   12  C   UNL     1     -41.012 -53.242  12.269  1.00  0.00     0.041 C 
BRANCH  12  13
HETATM   13  C   UNL     1     -40.550 -54.279  13.290  1.00  0.00     0.121 C 
HETATM   14  C   UNL     1     -41.295 -54.191  14.612  1.00  0.00     0.034 C 
HETATM   15  C   UNL     1     -40.256 -54.554  15.655  1.00  0.00     0.029 C 
HETATM   16  C   UNL     1     -38.968 -54.727  14.876  1.00  0.00     0.168 C 
HETATM   17  O   UNL     1     -39.176 -54.062  13.626  1.00  0.00    -0.386 OA
ENDBRANCH  12  13
ENDBRANCH  11  12
ENDBRANCH   8  11
ENDBRANCH   4   7
BRANCH   1  18
HETATM   18  C   UNL     1     -43.747 -46.742   9.170  1.00  0.00     0.160 C 
BRANCH  18  19
HETATM   19  C   UNL     1     -44.155 -47.759   8.118  1.00  0.00     0.221 C 
HETATM   20  N   UNL     1     -45.452 -48.176   8.120  1.00  0.00    -0.370 N 
HETATM   21  H   UNL     1     -45.769 -48.838   7.427  1.00  0.00     0.159 HD
HETATM   22  H   UNL     1     -46.109 -47.870   8.841  1.00  0.00     0.159 HD
HETATM   23  O   UNL     1     -43.380 -48.141   7.240  1.00  0.00    -0.273 OA
ENDBRANCH  18  19
ENDBRANCH   1  18
TORSDOF 6
ENDMDL
MODEL 2
REMARK VINA RESULT:      -5.9      1.716      2.398
REMARK  6 active torsions:
REMARK  status: ('A' for Active; 'I' for Inactive)
REMARK       I    between atoms: N_1  and  C_2 
REMARK    1  A    between atoms: C_2  and  C_4 
REMARK    2  A    between atoms: C_4  and  C_5 
REMARK    3  A    between atoms: C_8  and  N_9 
REMARK       I    between atoms: N_9  and  C_10 
REMARK    4  A    between atoms: C_10  and  C_12 
REMARK    5  A    between atoms: C_12  and  C_13 
REMARK    6  A    between atoms: C_13  and  C_14 
ROOT
HETATM    1  C   UNL     1     -44.750 -46.930   9.174  1.00  0.00     0.026 A 
HETATM    2  C   UNL     1     -44.068 -45.726   9.187  1.00  0.00     0.078 A 
HETATM    3  S   UNL     1     -42.432 -45.982   9.651  1.00  0.00    -0.064 SA
HETATM    4  C   UNL     1     -42.739 -47.654   9.722  1.00  0.00     0.151 A 
HETATM    5  N   UNL     1     -43.969 -48.029   9.500  1.00  0.00    -0.339 N 
ATOM      6  HN  UNL     1     -44.307 -48.990   9.558  1.00  0.00     0.168 HD
ENDROOT
BRANCH   4   7
HETATM    7  N   UNL     1     -41.658 -48.433  10.025  1.00  0.00    -0.307 N 
HETATM    8  C   UNL     1     -41.581 -49.110  11.222  1.00  0.00     0.223 C 
HETATM    9  O   UNL     1     -42.476 -49.218  12.055  1.00  0.00    -0.273 OA
HETATM   10  H   UNL     1     -40.975 -48.576   9.298  1.00  0.00     0.171 HD
BRANCH   8  11
HETATM   11  C   UNL     1     -40.239 -49.789  11.426  1.00  0.00     0.105 C 
BRANCH  11  12
HETATM   12  C   UNL     1     -40.197 -50.655  12.690  1.00  0.00     0.041 C 
BRANCH  12  13
HETATM   13  C   UNL     1     -40.545 -52.116  12.412  1.00  0.00     0.121 C 
HETATM   14  C   UNL     1     -41.950 -52.492  12.853  1.00  0.00     0.034 C 
HETATM   15  C   UNL     1     -41.824 -53.927  13.326  1.00  0.00     0.029 C 
HETATM   16  C   UNL     1     -40.346 -54.243  13.218  1.00  0.00     0.168 C 
HETATM   17  O   UNL     1     -39.680 -52.979  13.157  1.00  0.00    -0.386 OA
ENDBRANCH  12  13
ENDBRANCH  11  12
ENDBRANCH   8  11
ENDBRANCH   4   7
BRANCH   1  18
HETATM   18  C   UNL     1     -46.198 -47.153   8.874  1.00  0.00     0.160 C 
BRANCH  18  19
HETATM   19  C   UNL     1     -46.534 -48.588   8.509  1.00  0.00     0.221 C 
HETATM   20  N   UNL     1     -46.952 -49.408   9.514  1.00  0.00    -0.370 N 
HETATM   21  H   UNL     1     -47.202 -50.365   9.311  1.00  0.00     0.159 HD
HETATM   22  H   UNL     1     -46.975 -49.091  10.485  1.00  0.00     0.159 HD
HETATM   23  O   UNL     1     -46.513 -48.991   7.345  1.00  0.00    -0.273 OA
ENDBRANCH  18  19
ENDBRANCH   1  18
TORSDOF 6
ENDMDL
MODEL 3
REMARK VINA RESULT:      -5.9      1.603      2.324
REMARK  6 active torsions:
REMARK  status: ('A' for Active; 'I' for Inactive)
REMARK       I    between atoms: N_1  and  C_2 
REMARK    1  A    between atoms: C_2  and  C_4 
REMARK    2  A    between atoms: C_4  and  C_5 
REMARK    3  A    between atoms: C_8  and  N_9 
REMARK       I    between atoms: N_9  and  C_10 
REMARK    4  A    between atoms: C_10  and  C_12 
REMARK    5  A    between atoms: C_12  and  C_13 
REMARK    6  A    between atoms: C_13  and  C_14 
ROOT
HETATM    1  C   UNL     1     -42.222 -47.188  10.087  1.00  0.00     0.026 A 
HETATM    2  C   UNL     1     -41.344 -46.564  10.955  1.00  0.00     0.078 A 
HETATM    3  S   UNL     1     -40.468 -47.742  11.853  1.00  0.00    -0.064 SA
HETATM    4  C   UNL     1     -41.261 -48.966  10.975  1.00  0.00     0.151 A 
HETATM    5  N   UNL     1     -42.171 -48.574  10.124  1.00  0.00    -0.339 N 
ATOM      6  HN  UNL     1     -42.757 -49.196   9.568  1.00  0.00     0.168 HD
ENDROOT
BRANCH   4   7
HETATM    7  N   UNL     1     -40.872 -50.241  11.270  1.00  0.00    -0.307 N 
HETATM    8  C   UNL     1     -41.601 -51.028  12.133  1.00  0.00     0.223 C 
HETATM    9  O   UNL     1     -42.703 -50.761  12.604  1.00  0.00    -0.273 OA
HETATM   10  H   UNL     1     -40.094 -50.617  10.751  1.00  0.00     0.171 HD
BRANCH   8  11
HETATM   11  C   UNL     1     -40.919 -52.347  12.444  1.00  0.00     0.105 C 
BRANCH  11  12
HETATM   12  C   UNL     1     -40.275 -52.369  13.834  1.00  0.00     0.041 C 
BRANCH  12  13
HETATM   13  C   UNL     1     -38.855 -51.806  13.832  1.00  0.00     0.121 C 
HETATM   14  C   UNL     1     -38.766 -50.405  14.415  1.00  0.00     0.034 C 
HETATM   15  C   UNL     1     -37.682 -49.727  13.600  1.00  0.00     0.029 C 
HETATM   16  C   UNL     1     -37.294 -50.745  12.546  1.00  0.00     0.168 C 
HETATM   17  O   UNL     1     -38.376 -51.679  12.490  1.00  0.00    -0.386 OA
ENDBRANCH  12  13
ENDBRANCH  11  12
ENDBRANCH   8  11
ENDBRANCH   4   7
BRANCH   1  18
HETATM   18  C   UNL     1     -43.201 -46.540   9.161  1.00  0.00     0.160 C 
BRANCH  18  19
HETATM   19  C   UNL     1     -43.907 -47.514   8.235  1.00  0.00     0.221 C 
HETATM   20  N   UNL     1     -45.253 -47.658   8.386  1.00  0.00    -0.370 N 
HETATM   21  H   UNL     1     -45.764 -48.283   7.780  1.00  0.00     0.159 HD
HETATM   22  H   UNL     1     -45.759 -47.181   9.135  1.00  0.00     0.159 HD
HETATM   23  O   UNL     1     -43.317 -48.100   7.327  1.00  0.00    -0.273 OA
ENDBRANCH  18  19
ENDBRANCH   1  18
TORSDOF 6
ENDMDL
MODEL 4
REMARK VINA RESULT:      -5.9      2.207      2.584
REMARK  6 active torsions:
REMARK  status: ('A' for Active; 'I' for Inactive)
REMARK       I    between atoms: N_1  and  C_2 
REMARK    1  A    between atoms: C_2  and  C_4 
REMARK    2  A    between atoms: C_4  and  C_5 
REMARK    3  A    between atoms: C_8  and  N_9 
REMARK       I    between atoms: N_9  and  C_10 
REMARK    4  A    between atoms: C_10  and  C_12 
REMARK    5  A    between atoms: C_12  and  C_13 
REMARK    6  A    between atoms: C_13  and  C_14 
ROOT
HETATM    1  C   UNL     1     -42.856 -47.734   9.730  1.00  0.00     0.026 A 
HETATM    2  C   UNL     1     -43.352 -47.767  11.022  1.00  0.00     0.078 A 
HETATM    3  S   UNL     1     -42.322 -48.713  12.023  1.00  0.00    -0.064 SA
HETATM    4  C   UNL     1     -41.278 -48.935  10.697  1.00  0.00     0.151 A 
HETATM    5  N   UNL     1     -41.667 -48.426   9.559  1.00  0.00    -0.339 N 
ATOM      6  HN  UNL     1     -41.168 -48.524   8.675  1.00  0.00     0.168 HD
ENDROOT
BRANCH   4   7
HETATM    7  N   UNL     1     -40.142 -49.646  10.962  1.00  0.00    -0.307 N 
HETATM    8  C   UNL     1     -39.108 -49.093  11.684  1.00  0.00     0.223 C 
HETATM    9  O   UNL     1     -39.128 -48.017  12.274  1.00  0.00    -0.273 OA
HETATM   10  H   UNL     1     -40.136 -50.620  10.701  1.00  0.00     0.171 HD
BRANCH   8  11
HETATM   11  C   UNL     1     -37.883 -49.988  11.734  1.00  0.00     0.105 C 
BRANCH  11  12
HETATM   12  C   UNL     1     -37.743 -50.729  13.067  1.00  0.00     0.041 C 
BRANCH  12  13
HETATM   13  C   UNL     1     -39.060 -51.345  13.537  1.00  0.00     0.121 C 
HETATM   14  C   UNL     1     -38.931 -52.105  14.848  1.00  0.00     0.034 C 
HETATM   15  C   UNL     1     -39.900 -53.263  14.707  1.00  0.00     0.029 C 
HETATM   16  C   UNL     1     -40.442 -53.147  13.297  1.00  0.00     0.168 C 
HETATM   17  O   UNL     1     -39.517 -52.316  12.591  1.00  0.00    -0.386 OA
ENDBRANCH  12  13
ENDBRANCH  11  12
ENDBRANCH   8  11
ENDBRANCH   4   7
BRANCH   1  18
HETATM   18  C   UNL     1     -43.465 -47.066   8.539  1.00  0.00     0.160 C 
BRANCH  18  19
HETATM   19  C   UNL     1     -44.259 -45.816   8.877  1.00  0.00     0.221 C 
HETATM   20  N   UNL     1     -45.616 -45.927   8.912  1.00  0.00    -0.370 N 
HETATM   21  H   UNL     1     -46.181 -45.124   9.148  1.00  0.00     0.159 HD
HETATM   22  H   UNL     1     -46.086 -46.797   8.655  1.00  0.00     0.159 HD
HETATM   23  O   UNL     1     -43.713 -44.757   9.188  1.00  0.00    -0.273 OA
ENDBRANCH  18  19
ENDBRANCH   1  18
TORSDOF 6
ENDMDL
MODEL 5
REMARK VINA RESULT:      -5.8      3.009      3.654
REMARK  6 active torsions:
REMARK  status: ('A' for Active; 'I' for Inactive)
REMARK       I    between atoms: N_1  and  C_2 
REMARK    1  A    between atoms: C_2  and  C_4 
REMARK    2  A    between atoms: C_4  and  C_5 
REMARK    3  A    between atoms: C_8  and  N_9 
REMARK       I    between atoms: N_9  and  C_10 
REMARK    4  A    between atoms: C_10  and  C_12 
REMARK    5  A    between atoms: C_12  and  C_13 
REMARK    6  A    between atoms: C_13  and  C_14 
ROOT
HETATM    1  C   UNL     1     -42.750 -47.359  10.804  1.00  0.00     0.026 A 
HETATM    2  C   UNL     1     -42.610 -46.685  12.005  1.00  0.00     0.078 A 
HETATM    3  S   UNL     1     -42.772 -47.784  13.318  1.00  0.00    -0.064 SA
HETATM    4  C   UNL     1     -42.936 -49.058  12.200  1.00  0.00     0.151 A 
HETATM    5  N   UNL     1     -42.952 -48.725  10.938  1.00  0.00    -0.339 N 
ATOM      6  HN  UNL     1     -43.092 -49.374  10.164  1.00  0.00     0.168 HD
ENDROOT
BRANCH   4   7
HETATM    7  N   UNL     1     -43.054 -50.303  12.749  1.00  0.00    -0.307 N 
HETATM    8  C   UNL     1     -42.183 -51.315  12.412  1.00  0.00     0.223 C 
HETATM    9  O   UNL     1     -41.164 -51.202  11.736  1.00  0.00    -0.273 OA
HETATM   10  H   UNL     1     -43.733 -50.420  13.485  1.00  0.00     0.171 HD
BRANCH   8  11
HETATM   11  C   UNL     1     -42.578 -52.653  13.010  1.00  0.00     0.105 C 
BRANCH  11  12
HETATM   12  C   UNL     1     -43.891 -53.196  12.436  1.00  0.00     0.041 C 
BRANCH  12  13
HETATM   13  C   UNL     1     -45.065 -53.033  13.400  1.00  0.00     0.121 C 
HETATM   14  C   UNL     1     -46.166 -52.137  12.856  1.00  0.00     0.034 C 
HETATM   15  C   UNL     1     -46.701 -51.415  14.077  1.00  0.00     0.029 C 
HETATM   16  C   UNL     1     -45.810 -51.867  15.216  1.00  0.00     0.168 C 
HETATM   17  O   UNL     1     -44.630 -52.393  14.604  1.00  0.00    -0.386 OA
ENDBRANCH  12  13
ENDBRANCH  11  12
ENDBRANCH   8  11
ENDBRANCH   4   7
BRANCH   1  18
HETATM   18  C   UNL     1     -42.724 -46.778   9.427  1.00  0.00     0.160 C 
BRANCH  18  19
HETATM   19  C   UNL     1     -43.619 -47.505   8.438  1.00  0.00     0.221 C 
HETATM   20  N   UNL     1     -43.056 -47.916   7.268  1.00  0.00    -0.370 N 
HETATM   21  H   UNL     1     -43.612 -48.417   6.590  1.00  0.00     0.159 HD
HETATM   22  H   UNL     1     -42.088 -47.686   7.033  1.00  0.00     0.159 HD
HETATM   23  O   UNL     1     -44.788 -47.791   8.701  1.00  0.00    -0.273 OA
ENDBRANCH  18  19
ENDBRANCH   1  18
TORSDOF 6
ENDMDL
MODEL 6
REMARK VINA RESULT:      -5.7      4.619      5.892
REMARK  6 active torsions:
REMARK  status: ('A' for Active; 'I' for Inactive)
REMARK       I    between atoms: N_1  and  C_2 
REMARK    1  A    between atoms: C_2  and  C_4 
REMARK    2  A    between atoms: C_4  and  C_5 
REMARK    3  A    between atoms: C_8  and  N_9 
REMARK       I    between atoms: N_9  and  C_10 
REMARK    4  A    between atoms: C_10  and  C_12 
REMARK    5  A    between atoms: C_12  and  C_13 
REMARK    6  A    between atoms: C_13  and  C_14 
ROOT
HETATM    1  C   UNL     1     -38.960 -49.926  13.701  1.00  0.00     0.026 A 
HETATM    2  C   UNL     1     -39.301 -49.467  14.961  1.00  0.00     0.078 A 
HETATM    3  S   UNL     1     -40.724 -50.261  15.511  1.00  0.00    -0.064 SA
HETATM    4  C   UNL     1     -40.728 -51.190  14.084  1.00  0.00     0.151 A 
HETATM    5  N   UNL     1     -39.803 -50.909  13.206  1.00  0.00    -0.339 N 
ATOM      6  HN  UNL     1     -39.715 -51.349  12.290  1.00  0.00     0.168 HD
ENDROOT
BRANCH   4   7
HETATM    7  N   UNL     1     -41.717 -52.127  14.000  1.00  0.00    -0.307 N 
HETATM    8  C   UNL     1     -41.589 -53.229  13.185  1.00  0.00     0.223 C 
HETATM    9  O   UNL     1     -40.576 -53.571  12.581  1.00  0.00    -0.273 OA
HETATM   10  H   UNL     1     -42.494 -52.035  14.637  1.00  0.00     0.171 HD
BRANCH   8  11
HETATM   11  C   UNL     1     -42.856 -54.062  13.119  1.00  0.00     0.105 C 
BRANCH  11  12
HETATM   12  C   UNL     1     -44.015 -53.328  12.437  1.00  0.00     0.041 C 
BRANCH  12  13
HETATM   13  C   UNL     1     -45.207 -53.121  13.368  1.00  0.00     0.121 C 
HETATM   14  C   UNL     1     -46.130 -51.999  12.920  1.00  0.00     0.034 C 
HETATM   15  C   UNL     1     -46.625 -51.380  14.212  1.00  0.00     0.029 C 
HETATM   16  C   UNL     1     -45.881 -52.118  15.307  1.00  0.00     0.168 C 
HETATM   17  O   UNL     1     -44.757 -52.731  14.669  1.00  0.00    -0.386 OA
ENDBRANCH  12  13
ENDBRANCH  11  12
ENDBRANCH   8  11
ENDBRANCH   4   7
BRANCH   1  18
HETATM   18  C   UNL     1     -37.823 -49.469  12.844  1.00  0.00     0.160 C 
BRANCH  18  19
HETATM   19  C   UNL     1     -37.368 -50.501  11.827  1.00  0.00     0.221 C 
HETATM   20  N   UNL     1     -37.374 -50.134  10.516  1.00  0.00    -0.370 N 
HETATM   21  H   UNL     1     -37.063 -50.786   9.809  1.00  0.00     0.159 HD
HETATM   22  H   UNL     1     -37.733 -49.225  10.219  1.00  0.00     0.159 HD
HETATM   23  O   UNL     1     -36.933 -51.604  12.163  1.00  0.00    -0.273 OA
ENDBRANCH  18  19
ENDBRANCH   1  18
TORSDOF 6
ENDMDL
MODEL 7
REMARK VINA RESULT:      -5.6      3.546      5.516
REMARK  6 active torsions:
REMARK  status: ('A' for Active; 'I' for Inactive)
REMARK       I    between atoms: N_1  and  C_2 
REMARK    1  A    between atoms: C_2  and  C_4 
REMARK    2  A    between atoms: C_4  and  C_5 
REMARK    3  A    between atoms: C_8  and  N_9 
REMARK       I    between atoms: N_9  and  C_10 
REMARK    4  A    between atoms: C_10  and  C_12 
REMARK    5  A    between atoms: C_12  and  C_13 
REMARK    6  A    between atoms: C_13  and  C_14 
ROOT
HETATM    1  C   UNL     1     -43.586 -53.383  12.794  1.00  0.00     0.026 A 
HETATM    2  C   UNL     1     -42.583 -54.182  13.314  1.00  0.00     0.078 A 
HETATM    3  S   UNL     1     -41.043 -53.528  12.914  1.00  0.00    -0.064 SA
HETATM    4  C   UNL     1     -41.823 -52.217  12.159  1.00  0.00     0.151 A 
HETATM    5  N   UNL     1     -43.127 -52.262  12.119  1.00  0.00    -0.339 N 
ATOM      6  HN  UNL     1     -43.721 -51.573  11.658  1.00  0.00     0.168 HD
ENDROOT
BRANCH   4   7
HETATM    7  N   UNL     1     -40.993 -51.256  11.655  1.00  0.00    -0.307 N 
HETATM    8  C   UNL     1     -41.321 -49.921  11.730  1.00  0.00     0.223 C 
HETATM    9  O   UNL     1     -42.264 -49.438  12.350  1.00  0.00    -0.273 OA
HETATM   10  H   UNL     1     -40.089 -51.555  11.325  1.00  0.00     0.171 HD
BRANCH   8  11
HETATM   11  C   UNL     1     -40.345 -49.034  10.979  1.00  0.00     0.105 C 
BRANCH  11  12
HETATM   12  C   UNL     1     -39.494 -48.165  11.910  1.00  0.00     0.041 C 
BRANCH  12  13
HETATM   13  C   UNL     1     -38.333 -48.937  12.536  1.00  0.00     0.121 C 
HETATM   14  C   UNL     1     -37.609 -49.835  11.546  1.00  0.00     0.034 C 
HETATM   15  C   UNL     1     -37.197 -51.042  12.365  1.00  0.00     0.029 C 
HETATM   16  C   UNL     1     -37.795 -50.803  13.737  1.00  0.00     0.168 C 
HETATM   17  O   UNL     1     -38.818 -49.821  13.550  1.00  0.00    -0.386 OA
ENDBRANCH  12  13
ENDBRANCH  11  12
ENDBRANCH   8  11
ENDBRANCH   4   7
BRANCH   1  18
HETATM   18  C   UNL     1     -45.061 -53.612  12.869  1.00  0.00     0.160 C 
BRANCH  18  19
HETATM   19  C   UNL     1     -45.885 -52.343  12.737  1.00  0.00     0.221 C 
HETATM   20  N   UNL     1     -46.746 -52.262  11.684  1.00  0.00    -0.370 N 
HETATM   21  H   UNL     1     -47.324 -51.442  11.569  1.00  0.00     0.159 HD
HETATM   22  H   UNL     1     -46.788 -52.994  10.973  1.00  0.00     0.159 HD
HETATM   23  O   UNL     1     -45.849 -51.447  13.581  1.00  0.00    -0.273 OA
ENDBRANCH  18  19
ENDBRANCH   1  18
TORSDOF 6
ENDMDL
MODEL 8
REMARK VINA RESULT:      -5.6      2.204      2.717
REMARK  6 active torsions:
REMARK  status: ('A' for Active; 'I' for Inactive)
REMARK       I    between atoms: N_1  and  C_2 
REMARK    1  A    between atoms: C_2  and  C_4 
REMARK    2  A    between atoms: C_4  and  C_5 
REMARK    3  A    between atoms: C_8  and  N_9 
REMARK       I    between atoms: N_9  and  C_10 
REMARK    4  A    between atoms: C_10  and  C_12 
REMARK    5  A    between atoms: C_12  and  C_13 
REMARK    6  A    between atoms: C_13  and  C_14 
ROOT
HETATM    1  C   UNL     1     -42.664 -47.085  10.445  1.00  0.00     0.026 A 
HETATM    2  C   UNL     1     -42.026 -46.484  11.517  1.00  0.00     0.078 A 
HETATM    3  S   UNL     1     -41.753 -47.640  12.762  1.00  0.00    -0.064 SA
HETATM    4  C   UNL     1     -42.426 -48.841  11.761  1.00  0.00     0.151 A 
HETATM    5  N   UNL     1     -42.899 -48.442  10.611  1.00  0.00    -0.339 N 
ATOM      6  HN  UNL     1     -43.372 -49.040   9.935  1.00  0.00     0.168 HD
ENDROOT
BRANCH   4   7
HETATM    7  N   UNL     1     -42.416 -50.105  12.279  1.00  0.00    -0.307 N 
HETATM    8  C   UNL     1     -41.325 -50.930  12.124  1.00  0.00     0.223 C 
HETATM    9  O   UNL     1     -40.233 -50.612  11.662  1.00  0.00    -0.273 OA
HETATM   10  H   UNL     1     -43.192 -50.368  12.867  1.00  0.00     0.171 HD
BRANCH   8  11
HETATM   11  C   UNL     1     -41.575 -52.336  12.637  1.00  0.00     0.105 C 
BRANCH  11  12
HETATM   12  C   UNL     1     -42.869 -52.947  12.089  1.00  0.00     0.041 C 
BRANCH  12  13
HETATM   13  C   UNL     1     -43.819 -53.401  13.197  1.00  0.00     0.121 C 
HETATM   14  C   UNL     1     -43.123 -54.184  14.298  1.00  0.00     0.034 C 
HETATM   15  C   UNL     1     -44.149 -55.212  14.733  1.00  0.00     0.029 C 
HETATM   16  C   UNL     1     -45.320 -55.016  13.791  1.00  0.00     0.168 C 
HETATM   17  O   UNL     1     -44.800 -54.298  12.669  1.00  0.00    -0.386 OA
ENDBRANCH  12  13
ENDBRANCH  11  12
ENDBRANCH   8  11
ENDBRANCH   4   7
BRANCH   1  18
HETATM   18  C   UNL     1     -43.125 -46.435   9.180  1.00  0.00     0.160 C 
BRANCH  18  19
HETATM   19  C   UNL     1     -43.731 -47.403   8.180  1.00  0.00     0.221 C 
HETATM   20  N   UNL     1     -42.950 -47.794   7.134  1.00  0.00    -0.370 N 
HETATM   21  H   UNL     1     -43.309 -48.450   6.455  1.00  0.00     0.159 HD
HETATM   22  H   UNL     1     -42.018 -47.401   6.989  1.00  0.00     0.159 HD
HETATM   23  O   UNL     1     -44.853 -47.888   8.334  1.00  0.00    -0.273 OA
ENDBRANCH  18  19
ENDBRANCH   1  18
TORSDOF 6
ENDMDL
MODEL 9
REMARK VINA RESULT:      -5.5      2.768      3.686
REMARK  6 active torsions:
REMARK  status: ('A' for Active; 'I' for Inactive)
REMARK       I    between atoms: N_1  and  C_2 
REMARK    1  A    between atoms: C_2  and  C_4 
REMARK    2  A    between atoms: C_4  and  C_5 
REMARK    3  A    between atoms: C_8  and  N_9 
REMARK       I    between atoms: N_9  and  C_10 
REMARK    4  A    between atoms: C_10  and  C_12 
REMARK    5  A    between atoms: C_12  and  C_13 
REMARK    6  A    between atoms: C_13  and  C_14 
ROOT
HETATM    1  C   UNL     1     -40.773 -48.619  11.291  1.00  0.00     0.026 A 
HETATM    2  C   UNL     1     -39.547 -48.933  11.850  1.00  0.00     0.078 A 
HETATM    3  S   UNL     1     -39.534 -50.576  12.356  1.00  0.00    -0.064 SA
HETATM    4  C   UNL     1     -41.109 -50.755  11.733  1.00  0.00     0.151 A 
HETATM    5  N   UNL     1     -41.666 -49.679  11.247  1.00  0.00    -0.339 N 
ATOM      6  HN  UNL     1     -42.619 -49.627  10.886  1.00  0.00     0.168 HD
ENDROOT
BRANCH   4   7
HETATM    7  N   UNL     1     -41.634 -52.012  11.826  1.00  0.00    -0.307 N 
HETATM    8  C   UNL     1     -42.747 -52.264  12.596  1.00  0.00     0.223 C 
HETATM    9  O   UNL     1     -43.457 -51.426  13.144  1.00  0.00    -0.273 OA
HETATM   10  H   UNL     1     -41.240 -52.721  11.227  1.00  0.00     0.171 HD
BRANCH   8  11
HETATM   11  C   UNL     1     -43.075 -53.744  12.687  1.00  0.00     0.105 C 
BRANCH  11  12
HETATM   12  C   UNL     1     -42.771 -54.336  14.067  1.00  0.00     0.041 C 
BRANCH  12  13
HETATM   13  C   UNL     1     -44.035 -54.736  14.825  1.00  0.00     0.121 C 
HETATM   14  C   UNL     1     -45.202 -55.071  13.910  1.00  0.00     0.034 C 
HETATM   15  C   UNL     1     -46.423 -54.584  14.665  1.00  0.00     0.029 C 
HETATM   16  C   UNL     1     -45.872 -53.917  15.909  1.00  0.00     0.168 C 
HETATM   17  O   UNL     1     -44.496 -53.644  15.627  1.00  0.00    -0.386 OA
ENDBRANCH  12  13
ENDBRANCH  11  12
ENDBRANCH   8  11
ENDBRANCH   4   7
BRANCH   1  18
HETATM   18  C   UNL     1     -41.222 -47.292  10.768  1.00  0.00     0.160 C 
BRANCH  18  19
HETATM   19  C   UNL     1     -42.628 -47.302  10.195  1.00  0.00     0.221 C 
HETATM   20  N   UNL     1     -43.591 -46.629  10.883  1.00  0.00    -0.370 N 
HETATM   21  H   UNL     1     -44.535 -46.597  10.528  1.00  0.00     0.159 HD
HETATM   22  H   UNL     1     -43.392 -46.190  11.785  1.00  0.00     0.159 HD
HETATM   23  O   UNL     1     -42.889 -47.826   9.111  1.00  0.00    -0.273 OA
ENDBRANCH  18  19
ENDBRANCH   1  18
TORSDOF 6
ENDMDL
