MODEL 1
REMARK VINA RESULT:      -5.8      0.000      0.000
REMARK  4 active torsions:
REMARK  status: ('A' for Active; 'I' for Inactive)
REMARK       I    between atoms: N_2  and  C_3 
REMARK    1  A    between atoms: C_3  and  C_5 
REMARK    2  A    between atoms: C_5  and  C_6 
REMARK    3  A    between atoms: C_10  and  C_11 
REMARK    4  A    between atoms: C_11  and  C_12 
ROOT
HETATM    1  C   UNL     1     -42.276 -47.100   9.925  1.00  0.00     0.112 A 
HETATM    2  N   UNL     1     -42.514 -48.391  10.192  1.00  0.00    -0.247 N 
ATOM      3  HN  UNL     1     -43.311 -48.959   9.905  1.00  0.00     0.196 HD
HETATM    4  O   UNL     1     -41.411 -48.772  10.954  1.00  0.00    -0.223 OA
HETATM    5  C   UNL     1     -40.617 -47.669  11.071  1.00  0.00     0.148 A 
HETATM    6  N   UNL     1     -41.112 -46.606  10.472  1.00  0.00    -0.326 N 
ATOM      7  HN  UNL     1     -40.731 -45.661  10.425  1.00  0.00     0.169 HD
ENDROOT
BRANCH   1   8
HETATM    8  C   UNL     1     -43.238 -46.251   9.189  1.00  0.00     0.181 C 
BRANCH   8   9
HETATM    9  C   UNL     1     -44.475 -47.021   8.780  1.00  0.00     0.224 C 
HETATM   10  N   UNL     1     -45.637 -46.622   9.412  1.00  0.00    -0.365 N 
HETATM   11  C   UNL     1     -46.899 -47.225   9.074  1.00  0.00     0.149 C 
HETATM   12  H   UNL     1     -45.642 -45.693   9.828  1.00  0.00     0.161 HD
HETATM   13  O   UNL     1     -44.431 -47.965   7.997  1.00  0.00    -0.273 OA
ENDBRANCH   8   9
ENDBRANCH   1   8
BRANCH   5  14
HETATM   14  C   UNL     1     -39.395 -47.811  11.903  1.00  0.00     0.091 C 
BRANCH  14  15
HETATM   15  C   UNL     1     -38.972 -49.250  12.208  1.00  0.00    -0.007 C 
HETATM   16  C   UNL     1     -38.769 -49.583  13.695  1.00  0.00     0.005 C 
HETATM   17  C   UNL     1     -37.533 -50.480  13.766  1.00  0.00     0.000 C 
HETATM   18  C   UNL     1     -37.278 -50.932  12.336  1.00  0.00     0.000 C 
HETATM   19  C   UNL     1     -37.693 -49.724  11.512  1.00  0.00     0.005 C 
ENDBRANCH  14  15
ENDBRANCH   5  14
TORSDOF 4
ENDMDL
MODEL 2
REMARK VINA RESULT:      -5.6      4.405      5.446
REMARK  4 active torsions:
REMARK  status: ('A' for Active; 'I' for Inactive)
REMARK       I    between atoms: N_2  and  C_3 
REMARK    1  A    between atoms: C_3  and  C_5 
REMARK    2  A    between atoms: C_5  and  C_6 
REMARK    3  A    between atoms: C_10  and  C_11 
REMARK    4  A    between atoms: C_11  and  C_12 
ROOT
HETATM    1  C   UNL     1     -41.473 -49.567  11.419  1.00  0.00     0.112 A 
HETATM    2  N   UNL     1     -40.695 -50.648  11.272  1.00  0.00    -0.247 N 
ATOM      3  HN  UNL     1     -39.826 -50.734  10.746  1.00  0.00     0.196 HD
HETATM    4  O   UNL     1     -41.357 -51.627  12.011  1.00  0.00    -0.223 OA
HETATM    5  C   UNL     1     -42.472 -51.036  12.531  1.00  0.00     0.148 A 
HETATM    6  N   UNL     1     -42.602 -49.773  12.182  1.00  0.00    -0.326 N 
ATOM      7  HN  UNL     1     -43.346 -49.116  12.417  1.00  0.00     0.169 HD
ENDROOT
BRANCH   1   8
HETATM    8  C   UNL     1     -41.193 -48.287  10.734  1.00  0.00     0.181 C 
BRANCH   8   9
HETATM    9  C   UNL     1     -42.448 -47.671  10.153  1.00  0.00     0.224 C 
HETATM   10  N   UNL     1     -42.735 -48.061   8.859  1.00  0.00    -0.365 N 
HETATM   11  C   UNL     1     -43.931 -47.602   8.205  1.00  0.00     0.149 C 
HETATM   12  H   UNL     1     -42.304 -48.921   8.528  1.00  0.00     0.161 HD
HETATM   13  O   UNL     1     -43.116 -46.844  10.766  1.00  0.00    -0.273 OA
ENDBRANCH   8   9
ENDBRANCH   1   8
BRANCH   5  14
HETATM   14  C   UNL     1     -43.383 -51.906  13.317  1.00  0.00     0.091 C 
BRANCH  14  15
HETATM   15  C   UNL     1     -44.662 -51.233  13.823  1.00  0.00    -0.007 C 
HETATM   16  C   UNL     1     -44.670 -50.855  15.313  1.00  0.00     0.005 C 
HETATM   17  C   UNL     1     -46.073 -51.179  15.826  1.00  0.00     0.000 C 
HETATM   18  C   UNL     1     -46.923 -51.380  14.581  1.00  0.00     0.000 C 
HETATM   19  C   UNL     1     -45.955 -52.021  13.600  1.00  0.00     0.005 C 
ENDBRANCH  14  15
ENDBRANCH   5  14
TORSDOF 4
ENDMDL
MODEL 3
REMARK VINA RESULT:      -5.6      4.731      5.680
REMARK  4 active torsions:
REMARK  status: ('A' for Active; 'I' for Inactive)
REMARK       I    between atoms: N_2  and  C_3 
REMARK    1  A    between atoms: C_3  and  C_5 
REMARK    2  A    between atoms: C_5  and  C_6 
REMARK    3  A    between atoms: C_10  and  C_11 
REMARK    4  A    between atoms: C_11  and  C_12 
ROOT
HETATM    1  C   UNL     1     -40.338 -50.455  11.725  1.00  0.00     0.112 A 
HETATM    2  N   UNL     1     -39.233 -51.029  12.218  1.00  0.00    -0.247 N 
ATOM      3  HN  UNL     1     -38.294 -50.637  12.288  1.00  0.00     0.196 HD
HETATM    4  O   UNL     1     -39.672 -52.292  12.612  1.00  0.00    -0.223 OA
HETATM    5  C   UNL     1     -41.003 -52.352  12.315  1.00  0.00     0.148 A 
HETATM    6  N   UNL     1     -41.460 -51.255  11.750  1.00  0.00    -0.326 N 
ATOM      7  HN  UNL     1     -42.402 -51.049  11.417  1.00  0.00     0.169 HD
ENDROOT
BRANCH   1   8
HETATM    8  C   UNL     1     -40.328 -49.109  11.111  1.00  0.00     0.181 C 
BRANCH   8   9
HETATM    9  C   UNL     1     -41.729 -48.585  10.877  1.00  0.00     0.224 C 
HETATM   10  N   UNL     1     -41.964 -48.123   9.597  1.00  0.00    -0.365 N 
HETATM   11  C   UNL     1     -43.270 -47.654   9.216  1.00  0.00     0.149 C 
HETATM   12  H   UNL     1     -41.336 -48.446   8.865  1.00  0.00     0.161 HD
HETATM   13  O   UNL     1     -42.563 -48.520  11.775  1.00  0.00    -0.273 OA
ENDBRANCH   8   9
ENDBRANCH   1   8
BRANCH   5  14
HETATM   14  C   UNL     1     -41.690 -53.640  12.591  1.00  0.00     0.091 C 
BRANCH  14  15
HETATM   15  C   UNL     1     -43.023 -53.527  13.334  1.00  0.00    -0.007 C 
HETATM   16  C   UNL     1     -43.310 -54.639  14.358  1.00  0.00     0.005 C 
HETATM   17  C   UNL     1     -44.794 -54.975  14.216  1.00  0.00     0.000 C 
HETATM   18  C   UNL     1     -45.392 -53.835  13.405  1.00  0.00     0.000 C 
HETATM   19  C   UNL     1     -44.270 -53.464  12.449  1.00  0.00     0.005 C 
ENDBRANCH  14  15
ENDBRANCH   5  14
TORSDOF 4
ENDMDL
MODEL 4
REMARK VINA RESULT:      -5.6      6.457      8.255
REMARK  4 active torsions:
REMARK  status: ('A' for Active; 'I' for Inactive)
REMARK       I    between atoms: N_2  and  C_3 
REMARK    1  A    between atoms: C_3  and  C_5 
REMARK    2  A    between atoms: C_5  and  C_6 
REMARK    3  A    between atoms: C_10  and  C_11 
REMARK    4  A    between atoms: C_11  and  C_12 
ROOT
HETATM    1  C   UNL     1     -42.131 -53.872  13.232  1.00  0.00     0.112 A 
HETATM    2  N   UNL     1     -41.965 -54.477  14.415  1.00  0.00    -0.247 N 
ATOM      3  HN  UNL     1     -41.103 -54.600  14.946  1.00  0.00     0.196 HD
HETATM    4  O   UNL     1     -43.251 -54.898  14.747  1.00  0.00    -0.223 OA
HETATM    5  C   UNL     1     -44.067 -54.504  13.726  1.00  0.00     0.148 A 
HETATM    6  N   UNL     1     -43.426 -53.883  12.758  1.00  0.00    -0.326 N 
ATOM      7  HN  UNL     1     -43.792 -53.508  11.883  1.00  0.00     0.169 HD
ENDROOT
BRANCH   1   8
HETATM    8  C   UNL     1     -40.999 -53.326  12.451  1.00  0.00     0.181 C 
BRANCH   8   9
HETATM    9  C   UNL     1     -41.185 -51.856  12.139  1.00  0.00     0.224 C 
HETATM   10  N   UNL     1     -40.052 -51.220  11.670  1.00  0.00    -0.365 N 
HETATM   11  C   UNL     1     -40.100 -49.837  11.274  1.00  0.00     0.149 C 
HETATM   12  H   UNL     1     -39.319 -51.808  11.280  1.00  0.00     0.161 HD
HETATM   13  O   UNL     1     -42.242 -51.270  12.350  1.00  0.00    -0.273 OA
ENDBRANCH   8   9
ENDBRANCH   1   8
BRANCH   5  14
HETATM   14  C   UNL     1     -45.496 -54.897  13.824  1.00  0.00     0.091 C 
BRANCH  14  15
HETATM   15  C   UNL     1     -46.447 -53.802  14.312  1.00  0.00    -0.007 C 
HETATM   16  C   UNL     1     -46.508 -52.537  13.441  1.00  0.00     0.005 C 
HETATM   17  C   UNL     1     -46.582 -51.357  14.410  1.00  0.00     0.000 C 
HETATM   18  C   UNL     1     -46.926 -51.964  15.762  1.00  0.00     0.000 C 
HETATM   19  C   UNL     1     -46.201 -53.299  15.737  1.00  0.00     0.005 C 
ENDBRANCH  14  15
ENDBRANCH   5  14
TORSDOF 4
ENDMDL
MODEL 5
REMARK VINA RESULT:      -5.5      5.419      7.542
REMARK  4 active torsions:
REMARK  status: ('A' for Active; 'I' for Inactive)
REMARK       I    between atoms: N_2  and  C_3 
REMARK    1  A    between atoms: C_3  and  C_5 
REMARK    2  A    between atoms: C_5  and  C_6 
REMARK    3  A    between atoms: C_10  and  C_11 
REMARK    4  A    between atoms: C_11  and  C_12 
ROOT
HETATM    1  C   UNL     1     -41.759 -51.201  12.383  1.00  0.00     0.112 A 
HETATM    2  N   UNL     1     -41.747 -51.262  13.721  1.00  0.00    -0.247 N 
ATOM      3  HN  UNL     1     -41.212 -50.691  14.374  1.00  0.00     0.196 HD
HETATM    4  O   UNL     1     -42.639 -52.295  14.006  1.00  0.00    -0.223 OA
HETATM    5  C   UNL     1     -43.101 -52.754  12.807  1.00  0.00     0.148 A 
HETATM    6  N   UNL     1     -42.578 -52.128  11.774  1.00  0.00    -0.326 N 
ATOM      7  HN  UNL     1     -42.737 -52.288  10.779  1.00  0.00     0.169 HD
ENDROOT
BRANCH   1   8
HETATM    8  C   UNL     1     -40.887 -50.281  11.621  1.00  0.00     0.181 C 
BRANCH   8   9
HETATM    9  C   UNL     1     -39.423 -50.627  11.782  1.00  0.00     0.224 C 
HETATM   10  N   UNL     1     -38.571 -49.925  10.952  1.00  0.00    -0.365 N 
HETATM   11  C   UNL     1     -37.146 -50.108  11.041  1.00  0.00     0.149 C 
HETATM   12  H   UNL     1     -38.921 -49.056  10.556  1.00  0.00     0.161 HD
HETATM   13  O   UNL     1     -39.037 -51.508  12.545  1.00  0.00    -0.273 OA
ENDBRANCH   8   9
ENDBRANCH   1   8
BRANCH   5  14
HETATM   14  C   UNL     1     -44.032 -53.911  12.849  1.00  0.00     0.091 C 
BRANCH  14  15
HETATM   15  C   UNL     1     -45.462 -53.588  13.291  1.00  0.00    -0.007 C 
HETATM   16  C   UNL     1     -45.984 -52.199  12.890  1.00  0.00     0.005 C 
HETATM   17  C   UNL     1     -46.781 -51.683  14.088  1.00  0.00     0.000 C 
HETATM   18  C   UNL     1     -47.005 -52.895  14.979  1.00  0.00     0.000 C 
HETATM   19  C   UNL     1     -45.730 -53.701  14.794  1.00  0.00     0.005 C 
ENDBRANCH  14  15
ENDBRANCH   5  14
TORSDOF 4
ENDMDL
MODEL 6
REMARK VINA RESULT:      -5.1      6.956      7.559
REMARK  4 active torsions:
REMARK  status: ('A' for Active; 'I' for Inactive)
REMARK       I    between atoms: N_2  and  C_3 
REMARK    1  A    between atoms: C_3  and  C_5 
REMARK    2  A    between atoms: C_5  and  C_6 
REMARK    3  A    between atoms: C_10  and  C_11 
REMARK    4  A    between atoms: C_11  and  C_12 
ROOT
HETATM    1  C   UNL     1     -46.028 -52.220  13.915  1.00  0.00     0.112 A 
HETATM    2  N   UNL     1     -46.578 -52.931  12.923  1.00  0.00    -0.247 N 
ATOM      3  HN  UNL     1     -47.538 -52.899  12.580  1.00  0.00     0.196 HD
HETATM    4  O   UNL     1     -45.526 -53.725  12.471  1.00  0.00    -0.223 OA
HETATM    5  C   UNL     1     -44.442 -53.412  13.240  1.00  0.00     0.148 A 
HETATM    6  N   UNL     1     -44.701 -52.504  14.158  1.00  0.00    -0.326 N 
ATOM      7  HN  UNL     1     -44.079 -52.112  14.865  1.00  0.00     0.169 HD
ENDROOT
BRANCH   1   8
HETATM    8  C   UNL     1     -46.809 -51.281  14.749  1.00  0.00     0.181 C 
BRANCH   8   9
HETATM    9  C   UNL     1     -47.037 -51.819  16.145  1.00  0.00     0.224 C 
HETATM   10  N   UNL     1     -47.867 -51.046  16.932  1.00  0.00    -0.365 N 
HETATM   11  C   UNL     1     -48.221 -51.470  18.261  1.00  0.00     0.149 C 
HETATM   12  H   UNL     1     -48.486 -50.395  16.454  1.00  0.00     0.161 HD
HETATM   13  O   UNL     1     -46.475 -52.829  16.558  1.00  0.00    -0.273 OA
ENDBRANCH   8   9
ENDBRANCH   1   8
BRANCH   5  14
HETATM   14  C   UNL     1     -43.198 -54.182  12.985  1.00  0.00     0.091 C 
BRANCH  14  15
HETATM   15  C   UNL     1     -42.004 -53.813  13.868  1.00  0.00    -0.007 C 
HETATM   16  C   UNL     1     -40.635 -53.809  13.168  1.00  0.00     0.005 C 
HETATM   17  C   UNL     1     -39.647 -54.417  14.163  1.00  0.00     0.000 C 
HETATM   18  C   UNL     1     -40.368 -54.415  15.503  1.00  0.00     0.000 C 
HETATM   19  C   UNL     1     -41.814 -54.677  15.117  1.00  0.00     0.005 C 
ENDBRANCH  14  15
ENDBRANCH   5  14
TORSDOF 4
ENDMDL
MODEL 7
REMARK VINA RESULT:      -5.0      5.453      6.776
REMARK  4 active torsions:
REMARK  status: ('A' for Active; 'I' for Inactive)
REMARK       I    between atoms: N_2  and  C_3 
REMARK    1  A    between atoms: C_3  and  C_5 
REMARK    2  A    between atoms: C_5  and  C_6 
REMARK    3  A    between atoms: C_10  and  C_11 
REMARK    4  A    between atoms: C_11  and  C_12 
ROOT
HETATM    1  C   UNL     1     -42.015 -51.456  12.639  1.00  0.00     0.112 A 
HETATM    2  N   UNL     1     -41.431 -52.581  13.070  1.00  0.00    -0.247 N 
ATOM      3  HN  UNL     1     -40.451 -52.734  13.308  1.00  0.00     0.196 HD
HETATM    4  O   UNL     1     -42.482 -53.495  13.114  1.00  0.00    -0.223 OA
HETATM    5  C   UNL     1     -43.599 -52.826  12.703  1.00  0.00     0.148 A 
HETATM    6  N   UNL     1     -43.364 -51.572  12.381  1.00  0.00    -0.326 N 
ATOM      7  HN  UNL     1     -44.013 -50.867  12.031  1.00  0.00     0.169 HD
ENDROOT
BRANCH   1   8
HETATM    8  C   UNL     1     -41.252 -50.218  12.367  1.00  0.00     0.181 C 
BRANCH   8   9
HETATM    9  C   UNL     1     -42.135 -49.122  11.808  1.00  0.00     0.224 C 
HETATM   10  N   UNL     1     -41.867 -48.781  10.497  1.00  0.00    -0.365 N 
HETATM   11  C   UNL     1     -42.670 -47.797   9.818  1.00  0.00     0.149 C 
HETATM   12  H   UNL     1     -41.362 -49.461   9.935  1.00  0.00     0.161 HD
HETATM   13  O   UNL     1     -42.974 -48.544  12.492  1.00  0.00    -0.273 OA
ENDBRANCH   8   9
ENDBRANCH   1   8
BRANCH   5  14
HETATM   14  C   UNL     1     -44.853 -53.617  12.607  1.00  0.00     0.091 C 
BRANCH  14  15
HETATM   15  C   UNL     1     -45.930 -53.269  13.638  1.00  0.00    -0.007 C 
HETATM   16  C   UNL     1     -46.581 -51.886  13.479  1.00  0.00     0.005 C 
HETATM   17  C   UNL     1     -46.753 -51.332  14.893  1.00  0.00     0.000 C 
HETATM   18  C   UNL     1     -46.547 -52.519  15.821  1.00  0.00     0.000 C 
HETATM   19  C   UNL     1     -45.490 -53.342  15.102  1.00  0.00     0.005 C 
ENDBRANCH  14  15
ENDBRANCH   5  14
TORSDOF 4
ENDMDL
MODEL 8
REMARK VINA RESULT:      -5.0      4.320      5.958
REMARK  4 active torsions:
REMARK  status: ('A' for Active; 'I' for Inactive)
REMARK       I    between atoms: N_2  and  C_3 
REMARK    1  A    between atoms: C_3  and  C_5 
REMARK    2  A    between atoms: C_5  and  C_6 
REMARK    3  A    between atoms: C_10  and  C_11 
REMARK    4  A    between atoms: C_11  and  C_12 
ROOT
HETATM    1  C   UNL     1     -41.500 -49.339  11.282  1.00  0.00     0.112 A 
HETATM    2  N   UNL     1     -40.738 -50.419  11.068  1.00  0.00    -0.247 N 
ATOM      3  HN  UNL     1     -39.932 -50.511  10.449  1.00  0.00     0.196 HD
HETATM    4  O   UNL     1     -41.309 -51.387  11.891  1.00  0.00    -0.223 OA
HETATM    5  C   UNL     1     -42.363 -50.792  12.522  1.00  0.00     0.148 A 
HETATM    6  N   UNL     1     -42.537 -49.535  12.169  1.00  0.00    -0.326 N 
ATOM      7  HN  UNL     1     -43.254 -48.877  12.474  1.00  0.00     0.169 HD
ENDROOT
BRANCH   1   8
HETATM    8  C   UNL     1     -41.305 -48.069  10.549  1.00  0.00     0.181 C 
BRANCH   8   9
HETATM    9  C   UNL     1     -40.799 -46.966  11.454  1.00  0.00     0.224 C 
HETATM   10  N   UNL     1     -40.313 -45.856  10.792  1.00  0.00    -0.365 N 
HETATM   11  C   UNL     1     -39.858 -44.706  11.528  1.00  0.00     0.149 C 
HETATM   12  H   UNL     1     -40.610 -45.724   9.828  1.00  0.00     0.161 HD
HETATM   13  O   UNL     1     -40.767 -47.083  12.675  1.00  0.00    -0.273 OA
ENDBRANCH   8   9
ENDBRANCH   1   8
BRANCH   5  14
HETATM   14  C   UNL     1     -43.177 -51.652  13.418  1.00  0.00     0.091 C 
BRANCH  14  15
HETATM   15  C   UNL     1     -44.544 -51.086  13.810  1.00  0.00    -0.007 C 
HETATM   16  C   UNL     1     -44.815 -50.987  15.320  1.00  0.00     0.005 C 
HETATM   17  C   UNL     1     -46.272 -51.402  15.518  1.00  0.00     0.000 C 
HETATM   18  C   UNL     1     -46.894 -51.374  14.130  1.00  0.00     0.000 C 
HETATM   19  C   UNL     1     -45.754 -51.823  13.231  1.00  0.00     0.005 C 
ENDBRANCH  14  15
ENDBRANCH   5  14
TORSDOF 4
ENDMDL
MODEL 9
REMARK VINA RESULT:      -4.9      4.200      4.981
REMARK  4 active torsions:
REMARK  status: ('A' for Active; 'I' for Inactive)
REMARK       I    between atoms: N_2  and  C_3 
REMARK    1  A    between atoms: C_3  and  C_5 
REMARK    2  A    between atoms: C_5  and  C_6 
REMARK    3  A    between atoms: C_10  and  C_11 
REMARK    4  A    between atoms: C_11  and  C_12 
ROOT
HETATM    1  C   UNL     1     -42.339 -52.872  12.341  1.00  0.00     0.112 A 
HETATM    2  N   UNL     1     -41.172 -53.527  12.384  1.00  0.00    -0.247 N 
ATOM      3  HN  UNL     1     -41.008 -54.516  12.569  1.00  0.00     0.196 HD
HETATM    4  O   UNL     1     -40.233 -52.532  12.116  1.00  0.00    -0.223 OA
HETATM    5  C   UNL     1     -40.932 -51.373  11.939  1.00  0.00     0.148 A 
HETATM    6  N   UNL     1     -42.232 -51.522  12.084  1.00  0.00    -0.326 N 
ATOM      7  HN  UNL     1     -42.969 -50.820  12.023  1.00  0.00     0.169 HD
ENDROOT
BRANCH   1   8
HETATM    8  C   UNL     1     -43.630 -53.528  12.646  1.00  0.00     0.181 C 
BRANCH   8   9
HETATM    9  C   UNL     1     -44.718 -52.520  12.948  1.00  0.00     0.224 C 
HETATM   10  N   UNL     1     -45.736 -52.475  12.015  1.00  0.00    -0.365 N 
HETATM   11  C   UNL     1     -46.867 -51.607  12.209  1.00  0.00     0.149 C 
HETATM   12  H   UNL     1     -45.848 -53.286  11.412  1.00  0.00     0.161 HD
HETATM   13  O   UNL     1     -44.661 -51.764  13.913  1.00  0.00    -0.273 OA
ENDBRANCH   8   9
ENDBRANCH   1   8
BRANCH   5  14
HETATM   14  C   UNL     1     -40.135 -50.143  11.698  1.00  0.00     0.091 C 
BRANCH  14  15
HETATM   15  C   UNL     1     -39.465 -49.541  12.936  1.00  0.00    -0.007 C 
HETATM   16  C   UNL     1     -39.990 -48.163  13.372  1.00  0.00     0.005 C 
HETATM   17  C   UNL     1     -38.763 -47.357  13.799  1.00  0.00     0.000 C 
HETATM   18  C   UNL     1     -37.641 -48.374  13.947  1.00  0.00     0.000 C 
HETATM   19  C   UNL     1     -37.944 -49.385  12.854  1.00  0.00     0.005 C 
ENDBRANCH  14  15
ENDBRANCH   5  14
TORSDOF 4
ENDMDL
