MODEL 1
REMARK VINA RESULT:      -5.6      0.000      0.000
REMARK  3 active torsions:
REMARK  status: ('A' for Active; 'I' for Inactive)
REMARK    1  A    between atoms: C_2  and  N_5 
REMARK       I    between atoms: N_5  and  C_6 
REMARK       I    between atoms: C_6  and  N_8 
REMARK    2  A    between atoms: N_8  and  C_9 
REMARK    3  A    between atoms: C_12  and  N_16 
ROOT
HETATM    1  C   UNL     1     -40.276 -50.566  11.699  1.00  0.00     0.051 A 
HETATM    2  C   UNL     1     -39.174 -50.261  12.481  1.00  0.00     0.035 A 
HETATM    3  C   UNL     1     -38.761 -51.125  13.497  1.00  0.00     0.051 A 
HETATM    4  C   UNL     1     -39.416 -52.332  13.711  1.00  0.00     0.103 A 
HETATM    5  N   UNL     1     -40.495 -52.644  12.955  1.00  0.00    -0.350 N 
ATOM      6  HN  UNL     1     -41.000 -53.516  13.111  1.00  0.00     0.166 HD
HETATM    7  C   UNL     1     -40.899 -51.775  11.983  1.00  0.00     0.119 A 
ENDROOT
BRANCH   1   8
HETATM    8  N   UNL     1     -40.749 -49.725  10.655  1.00  0.00    -0.308 N 
HETATM    9  C   UNL     1     -41.780 -48.826  10.808  1.00  0.00     0.321 C 
HETATM   10  N   UNL     1     -41.967 -48.015   9.711  1.00  0.00    -0.335 N 
HETATM   11  O   UNL     1     -42.487 -48.736  11.803  1.00  0.00    -0.247 OA
HETATM   12  H   UNL     1     -41.161 -47.877   9.115  1.00  0.00     0.165 HD
HETATM   13  H   UNL     1     -40.484 -49.956   9.709  1.00  0.00     0.170 HD
BRANCH  10  14
HETATM   14  C   UNL     1     -42.989 -46.941   9.722  1.00  0.00     0.023 C 
HETATM   15  C   UNL     1     -42.554 -45.759  10.614  1.00  0.00     0.037 C 
HETATM   16  C   UNL     1     -44.347 -47.492  10.198  1.00  0.00     0.037 C 
HETATM   17  C   UNL     1     -43.176 -46.403   8.292  1.00  0.00     0.037 C 
ENDBRANCH  10  14
ENDBRANCH   1   8
BRANCH   4  18
HETATM   18  N   UNL     1     -38.996 -53.214  14.679  1.00  0.00    -0.367 N 
HETATM   19  C   UNL     1     -38.919 -52.771  16.068  1.00  0.00     0.124 C 
HETATM   20  C   UNL     1     -39.046 -54.054  16.895  1.00  0.00     0.021 C 
HETATM   21  C   UNL     1     -39.616 -55.087  15.938  1.00  0.00     0.021 C 
HETATM   22  C   UNL     1     -39.081 -54.662  14.580  1.00  0.00     0.124 C 
ENDBRANCH   4  18
TORSDOF 3
ENDMDL
MODEL 2
REMARK VINA RESULT:      -5.5      1.755      2.204
REMARK  3 active torsions:
REMARK  status: ('A' for Active; 'I' for Inactive)
REMARK    1  A    between atoms: C_2  and  N_5 
REMARK       I    between atoms: N_5  and  C_6 
REMARK       I    between atoms: C_6  and  N_8 
REMARK    2  A    between atoms: N_8  and  C_9 
REMARK    3  A    between atoms: C_12  and  N_16 
ROOT
HETATM    1  C   UNL     1     -39.824 -50.451  11.973  1.00  0.00     0.051 A 
HETATM    2  C   UNL     1     -38.885 -50.804  12.928  1.00  0.00     0.035 A 
HETATM    3  C   UNL     1     -39.048 -51.960  13.694  1.00  0.00     0.051 A 
HETATM    4  C   UNL     1     -40.130 -52.805  13.479  1.00  0.00     0.103 A 
HETATM    5  N   UNL     1     -41.057 -52.473  12.549  1.00  0.00    -0.350 N 
ATOM      6  HN  UNL     1     -41.867 -53.072  12.391  1.00  0.00     0.166 HD
HETATM    7  C   UNL     1     -40.892 -51.327  11.827  1.00  0.00     0.119 A 
ENDROOT
BRANCH   1   8
HETATM    8  N   UNL     1     -39.717 -49.285  11.166  1.00  0.00    -0.308 N 
HETATM    9  C   UNL     1     -40.164 -48.043  11.557  1.00  0.00     0.321 C 
HETATM   10  N   UNL     1     -39.821 -47.037  10.683  1.00  0.00    -0.335 N 
HETATM   11  O   UNL     1     -40.813 -47.822  12.572  1.00  0.00    -0.247 OA
HETATM   12  H   UNL     1     -39.007 -47.204  10.106  1.00  0.00     0.165 HD
HETATM   13  H   UNL     1     -39.522 -49.409  10.183  1.00  0.00     0.170 HD
BRANCH  10  14
HETATM   14  C   UNL     1     -40.161 -45.623  10.977  1.00  0.00     0.023 C 
HETATM   15  C   UNL     1     -39.656 -45.202  12.372  1.00  0.00     0.037 C 
HETATM   16  C   UNL     1     -41.682 -45.400  10.872  1.00  0.00     0.037 C 
HETATM   17  C   UNL     1     -39.480 -44.712   9.939  1.00  0.00     0.037 C 
ENDBRANCH  10  14
ENDBRANCH   1   8
BRANCH   4  18
HETATM   18  N   UNL     1     -40.283 -53.969  14.195  1.00  0.00    -0.367 N 
HETATM   19  C   UNL     1     -39.119 -54.580  14.829  1.00  0.00     0.124 C 
HETATM   20  C   UNL     1     -39.691 -55.409  15.982  1.00  0.00     0.021 C 
HETATM   21  C   UNL     1     -41.097 -54.874  16.194  1.00  0.00     0.021 C 
HETATM   22  C   UNL     1     -41.525 -54.410  14.811  1.00  0.00     0.124 C 
ENDBRANCH   4  18
TORSDOF 3
ENDMDL
MODEL 3
REMARK VINA RESULT:      -5.5      3.158      3.810
REMARK  3 active torsions:
REMARK  status: ('A' for Active; 'I' for Inactive)
REMARK    1  A    between atoms: C_2  and  N_5 
REMARK       I    between atoms: N_5  and  C_6 
REMARK       I    between atoms: C_6  and  N_8 
REMARK    2  A    between atoms: N_8  and  C_9 
REMARK    3  A    between atoms: C_12  and  N_16 
ROOT
HETATM    1  C   UNL     1     -41.162 -48.640  12.433  1.00  0.00     0.051 A 
HETATM    2  C   UNL     1     -40.072 -49.253  11.838  1.00  0.00     0.035 A 
HETATM    3  C   UNL     1     -38.839 -49.304  12.490  1.00  0.00     0.051 A 
HETATM    4  C   UNL     1     -38.694 -48.785  13.771  1.00  0.00     0.103 A 
HETATM    5  N   UNL     1     -39.750 -48.182  14.367  1.00  0.00    -0.350 N 
ATOM      6  HN  UNL     1     -39.656 -47.779  15.298  1.00  0.00     0.166 HD
HETATM    7  C   UNL     1     -40.940 -48.121  13.702  1.00  0.00     0.119 A 
ENDROOT
BRANCH   1   8
HETATM    8  N   UNL     1     -42.441 -48.552  11.818  1.00  0.00    -0.308 N 
HETATM    9  C   UNL     1     -42.688 -47.827  10.675  1.00  0.00     0.321 C 
HETATM   10  N   UNL     1     -43.959 -48.006  10.176  1.00  0.00    -0.335 N 
HETATM   11  O   UNL     1     -41.883 -47.080  10.133  1.00  0.00    -0.247 OA
HETATM   12  H   UNL     1     -44.417 -48.873  10.422  1.00  0.00     0.165 HD
HETATM   13  H   UNL     1     -43.245 -48.832  12.361  1.00  0.00     0.170 HD
BRANCH  10  14
HETATM   14  C   UNL     1     -44.380 -47.356   8.911  1.00  0.00     0.023 C 
HETATM   15  C   UNL     1     -43.580 -47.895   7.708  1.00  0.00     0.037 C 
HETATM   16  C   UNL     1     -44.222 -45.826   9.010  1.00  0.00     0.037 C 
HETATM   17  C   UNL     1     -45.868 -47.659   8.656  1.00  0.00     0.037 C 
ENDBRANCH  10  14
ENDBRANCH   1   8
BRANCH   4  18
HETATM   18  N   UNL     1     -37.497 -48.864  14.445  1.00  0.00    -0.367 N 
HETATM   19  C   UNL     1     -36.889 -47.647  14.971  1.00  0.00     0.124 C 
HETATM   20  C   UNL     1     -35.999 -48.120  16.124  1.00  0.00     0.021 C 
HETATM   21  C   UNL     1     -36.490 -49.519  16.454  1.00  0.00     0.021 C 
HETATM   22  C   UNL     1     -37.001 -50.051  15.125  1.00  0.00     0.124 C 
ENDBRANCH   4  18
TORSDOF 3
ENDMDL
MODEL 4
REMARK VINA RESULT:      -5.4      2.788      3.611
REMARK  3 active torsions:
REMARK  status: ('A' for Active; 'I' for Inactive)
REMARK    1  A    between atoms: C_2  and  N_5 
REMARK       I    between atoms: N_5  and  C_6 
REMARK       I    between atoms: C_6  and  N_8 
REMARK    2  A    between atoms: N_8  and  C_9 
REMARK    3  A    between atoms: C_12  and  N_16 
ROOT
HETATM    1  C   UNL     1     -39.840 -48.887  12.095  1.00  0.00     0.051 A 
HETATM    2  C   UNL     1     -39.246 -47.726  12.562  1.00  0.00     0.035 A 
HETATM    3  C   UNL     1     -38.491 -47.735  13.737  1.00  0.00     0.051 A 
HETATM    4  C   UNL     1     -38.279 -48.918  14.432  1.00  0.00     0.103 A 
HETATM    5  N   UNL     1     -38.853 -50.062  13.989  1.00  0.00    -0.350 N 
ATOM      6  HN  UNL     1     -38.724 -50.936  14.497  1.00  0.00     0.166 HD
HETATM    7  C   UNL     1     -39.608 -50.027  12.852  1.00  0.00     0.119 A 
ENDROOT
BRANCH   1   8
HETATM    8  N   UNL     1     -40.624 -48.940  10.910  1.00  0.00    -0.308 N 
HETATM    9  C   UNL     1     -41.759 -48.187  10.712  1.00  0.00     0.321 C 
HETATM   10  N   UNL     1     -42.269 -48.289   9.438  1.00  0.00    -0.335 N 
HETATM   11  O   UNL     1     -42.293 -47.490  11.566  1.00  0.00    -0.247 OA
HETATM   12  H   UNL     1     -41.614 -48.548   8.714  1.00  0.00     0.165 HD
HETATM   13  H   UNL     1     -40.485 -49.723  10.288  1.00  0.00     0.170 HD
BRANCH  10  14
HETATM   14  C   UNL     1     -43.451 -47.494   9.024  1.00  0.00     0.023 C 
HETATM   15  C   UNL     1     -43.131 -45.985   8.991  1.00  0.00     0.037 C 
HETATM   16  C   UNL     1     -44.641 -47.763   9.966  1.00  0.00     0.037 C 
HETATM   17  C   UNL     1     -43.872 -47.913   7.604  1.00  0.00     0.037 C 
ENDBRANCH  10  14
ENDBRANCH   1   8
BRANCH   4  18
HETATM   18  N   UNL     1     -37.502 -48.953  15.568  1.00  0.00    -0.367 N 
HETATM   19  C   UNL     1     -36.624 -50.095  15.801  1.00  0.00     0.124 C 
HETATM   20  C   UNL     1     -35.521 -49.560  16.718  1.00  0.00     0.021 C 
HETATM   21  C   UNL     1     -35.606 -48.048  16.599  1.00  0.00     0.021 C 
HETATM   22  C   UNL     1     -37.078 -47.785  16.323  1.00  0.00     0.124 C 
ENDBRANCH   4  18
TORSDOF 3
ENDMDL
MODEL 5
REMARK VINA RESULT:      -5.3      3.058      7.566
REMARK  3 active torsions:
REMARK  status: ('A' for Active; 'I' for Inactive)
REMARK    1  A    between atoms: C_2  and  N_5 
REMARK       I    between atoms: N_5  and  C_6 
REMARK       I    between atoms: C_6  and  N_8 
REMARK    2  A    between atoms: N_8  and  C_9 
REMARK    3  A    between atoms: C_12  and  N_16 
ROOT
HETATM    1  C   UNL     1     -42.020 -48.538  11.730  1.00  0.00     0.051 A 
HETATM    2  C   UNL     1     -42.335 -47.607  12.706  1.00  0.00     0.035 A 
HETATM    3  C   UNL     1     -41.740 -46.344  12.705  1.00  0.00     0.051 A 
HETATM    4  C   UNL     1     -40.858 -45.978  11.696  1.00  0.00     0.103 A 
HETATM    5  N   UNL     1     -40.539 -46.877  10.735  1.00  0.00    -0.350 N 
ATOM      6  HN  UNL     1     -39.879 -46.633   9.997  1.00  0.00     0.166 HD
HETATM    7  C   UNL     1     -41.113 -48.115  10.767  1.00  0.00     0.119 A 
ENDROOT
BRANCH   1   8
HETATM    8  N   UNL     1     -42.588 -49.840  11.681  1.00  0.00    -0.308 N 
HETATM    9  C   UNL     1     -42.226 -50.862  12.529  1.00  0.00     0.321 C 
HETATM   10  N   UNL     1     -43.010 -51.986  12.399  1.00  0.00    -0.335 N 
HETATM   11  O   UNL     1     -41.298 -50.813  13.326  1.00  0.00    -0.247 OA
HETATM   12  H   UNL     1     -43.941 -51.841  12.032  1.00  0.00     0.165 HD
HETATM   13  H   UNL     1     -43.101 -50.099  10.851  1.00  0.00     0.170 HD
BRANCH  10  14
HETATM   14  C   UNL     1     -42.809 -53.162  13.280  1.00  0.00     0.023 C 
HETATM   15  C   UNL     1     -42.886 -52.769  14.770  1.00  0.00     0.037 C 
HETATM   16  C   UNL     1     -41.457 -53.838  12.979  1.00  0.00     0.037 C 
HETATM   17  C   UNL     1     -43.920 -54.193  13.011  1.00  0.00     0.037 C 
ENDBRANCH  10  14
ENDBRANCH   1   8
BRANCH   4  18
HETATM   18  N   UNL     1     -40.295 -44.724  11.655  1.00  0.00    -0.367 N 
HETATM   19  C   UNL     1     -41.083 -43.599  11.160  1.00  0.00     0.124 C 
HETATM   20  C   UNL     1     -40.453 -42.364  11.808  1.00  0.00     0.021 C 
HETATM   21  C   UNL     1     -39.624 -42.901  12.962  1.00  0.00     0.021 C 
HETATM   22  C   UNL     1     -39.190 -44.279  12.490  1.00  0.00     0.124 C 
ENDBRANCH   4  18
TORSDOF 3
ENDMDL
MODEL 6
REMARK VINA RESULT:      -5.2      4.366      5.914
REMARK  3 active torsions:
REMARK  status: ('A' for Active; 'I' for Inactive)
REMARK    1  A    between atoms: C_2  and  N_5 
REMARK       I    between atoms: N_5  and  C_6 
REMARK       I    between atoms: C_6  and  N_8 
REMARK    2  A    between atoms: N_8  and  C_9 
REMARK    3  A    between atoms: C_12  and  N_16 
ROOT
HETATM    1  C   UNL     1     -42.612 -51.425  12.853  1.00  0.00     0.051 A 
HETATM    2  C   UNL     1     -43.593 -50.482  13.113  1.00  0.00     0.035 A 
HETATM    3  C   UNL     1     -44.676 -50.791  13.939  1.00  0.00     0.051 A 
HETATM    4  C   UNL     1     -44.765 -52.033  14.555  1.00  0.00     0.103 A 
HETATM    5  N   UNL     1     -43.814 -52.965  14.310  1.00  0.00    -0.350 N 
ATOM      6  HN  UNL     1     -43.873 -53.888  14.739  1.00  0.00     0.166 HD
HETATM    7  C   UNL     1     -42.776 -52.652  13.481  1.00  0.00     0.119 A 
ENDROOT
BRANCH   1   8
HETATM    8  N   UNL     1     -41.490 -51.172  12.017  1.00  0.00    -0.308 N 
HETATM    9  C   UNL     1     -40.294 -50.671  12.477  1.00  0.00     0.321 C 
HETATM   10  N   UNL     1     -39.304 -50.649  11.520  1.00  0.00    -0.335 N 
HETATM   11  O   UNL     1     -40.098 -50.266  13.616  1.00  0.00    -0.247 OA
HETATM   12  H   UNL     1     -39.401 -51.312  10.763  1.00  0.00     0.165 HD
HETATM   13  H   UNL     1     -41.645 -51.135  11.020  1.00  0.00     0.170 HD
BRANCH  10  14
HETATM   14  C   UNL     1     -37.929 -50.204  11.855  1.00  0.00     0.023 C 
HETATM   15  C   UNL     1     -37.213 -51.225  12.763  1.00  0.00     0.037 C 
HETATM   16  C   UNL     1     -37.960 -48.821  12.534  1.00  0.00     0.037 C 
HETATM   17  C   UNL     1     -37.109 -50.074  10.559  1.00  0.00     0.037 C 
ENDBRANCH  10  14
ENDBRANCH   1   8
BRANCH   4  18
HETATM   18  N   UNL     1     -45.802 -52.339  15.405  1.00  0.00    -0.367 N 
HETATM   19  C   UNL     1     -45.509 -52.806  16.756  1.00  0.00     0.124 C 
HETATM   20  C   UNL     1     -46.755 -52.454  17.572  1.00  0.00     0.021 C 
HETATM   21  C   UNL     1     -47.499 -51.427  16.735  1.00  0.00     0.021 C 
HETATM   22  C   UNL     1     -47.149 -51.799  15.304  1.00  0.00     0.124 C 
ENDBRANCH   4  18
TORSDOF 3
ENDMDL
MODEL 7
REMARK VINA RESULT:      -5.2      3.755      4.765
REMARK  3 active torsions:
REMARK  status: ('A' for Active; 'I' for Inactive)
REMARK    1  A    between atoms: C_2  and  N_5 
REMARK       I    between atoms: N_5  and  C_6 
REMARK       I    between atoms: C_6  and  N_8 
REMARK    2  A    between atoms: N_8  and  C_9 
REMARK    3  A    between atoms: C_12  and  N_16 
ROOT
HETATM    1  C   UNL     1     -42.087 -49.662  13.199  1.00  0.00     0.051 A 
HETATM    2  C   UNL     1     -43.215 -49.599  14.000  1.00  0.00     0.035 A 
HETATM    3  C   UNL     1     -44.159 -50.627  13.984  1.00  0.00     0.051 A 
HETATM    4  C   UNL     1     -43.962 -51.757  13.200  1.00  0.00     0.103 A 
HETATM    5  N   UNL     1     -42.864 -51.834  12.410  1.00  0.00    -0.350 N 
ATOM      6  HN  UNL     1     -42.712 -52.647  11.814  1.00  0.00     0.166 HD
HETATM    7  C   UNL     1     -41.965 -50.807  12.422  1.00  0.00     0.119 A 
ENDROOT
BRANCH   1   8
HETATM    8  N   UNL     1     -41.094 -48.645  13.168  1.00  0.00    -0.308 N 
HETATM    9  C   UNL     1     -41.207 -47.491  12.427  1.00  0.00     0.321 C 
HETATM   10  N   UNL     1     -40.198 -46.585  12.666  1.00  0.00    -0.335 N 
HETATM   11  O   UNL     1     -42.099 -47.263  11.620  1.00  0.00    -0.247 OA
HETATM   12  H   UNL     1     -39.740 -46.654  13.565  1.00  0.00     0.165 HD
HETATM   13  H   UNL     1     -40.172 -48.877  13.510  1.00  0.00     0.170 HD
BRANCH  10  14
HETATM   14  C   UNL     1     -40.194 -45.256  12.007  1.00  0.00     0.023 C 
HETATM   15  C   UNL     1     -41.555 -44.546  12.165  1.00  0.00     0.037 C 
HETATM   16  C   UNL     1     -39.838 -45.395  10.514  1.00  0.00     0.037 C 
HETATM   17  C   UNL     1     -39.124 -44.367  12.665  1.00  0.00     0.037 C 
ENDBRANCH  10  14
ENDBRANCH   1   8
BRANCH   4  18
HETATM   18  N   UNL     1     -44.860 -52.798  13.203  1.00  0.00    -0.367 N 
HETATM   19  C   UNL     1     -44.368 -54.171  13.141  1.00  0.00     0.124 C 
HETATM   20  C   UNL     1     -45.479 -55.014  13.773  1.00  0.00     0.021 C 
HETATM   21  C   UNL     1     -46.339 -54.025  14.540  1.00  0.00     0.021 C 
HETATM   22  C   UNL     1     -46.207 -52.734  13.748  1.00  0.00     0.124 C 
ENDBRANCH   4  18
TORSDOF 3
ENDMDL
MODEL 8
REMARK VINA RESULT:      -5.2      3.427      7.219
REMARK  3 active torsions:
REMARK  status: ('A' for Active; 'I' for Inactive)
REMARK    1  A    between atoms: C_2  and  N_5 
REMARK       I    between atoms: N_5  and  C_6 
REMARK       I    between atoms: C_6  and  N_8 
REMARK    2  A    between atoms: N_8  and  C_9 
REMARK    3  A    between atoms: C_12  and  N_16 
ROOT
HETATM    1  C   UNL     1     -41.345 -49.008  11.785  1.00  0.00     0.051 A 
HETATM    2  C   UNL     1     -40.166 -48.669  12.428  1.00  0.00     0.035 A 
HETATM    3  C   UNL     1     -39.679 -47.362  12.381  1.00  0.00     0.051 A 
HETATM    4  C   UNL     1     -40.392 -46.363  11.729  1.00  0.00     0.103 A 
HETATM    5  N   UNL     1     -41.546 -46.678  11.095  1.00  0.00    -0.350 N 
ATOM      6  HN  UNL     1     -42.074 -45.963  10.596  1.00  0.00     0.166 HD
HETATM    7  C   UNL     1     -41.994 -47.967  11.132  1.00  0.00     0.119 A 
ENDROOT
BRANCH   1   8
HETATM    8  N   UNL     1     -41.888 -50.321  11.792  1.00  0.00    -0.308 N 
HETATM    9  C   UNL     1     -42.821 -50.756  12.705  1.00  0.00     0.321 C 
HETATM   10  N   UNL     1     -43.314 -52.011  12.431  1.00  0.00    -0.335 N 
HETATM   11  O   UNL     1     -43.192 -50.118  13.682  1.00  0.00    -0.247 OA
HETATM   12  H   UNL     1     -43.268 -52.308  11.465  1.00  0.00     0.165 HD
HETATM   13  H   UNL     1     -41.406 -51.033  11.262  1.00  0.00     0.170 HD
BRANCH  10  14
HETATM   14  C   UNL     1     -44.379 -52.613  13.271  1.00  0.00     0.023 C 
HETATM   15  C   UNL     1     -45.707 -51.841  13.134  1.00  0.00     0.037 C 
HETATM   16  C   UNL     1     -43.941 -52.659  14.747  1.00  0.00     0.037 C 
HETATM   17  C   UNL     1     -44.630 -54.061  12.810  1.00  0.00     0.037 C 
ENDBRANCH  10  14
ENDBRANCH   1   8
BRANCH   4  18
HETATM   18  N   UNL     1     -39.949 -45.062  11.709  1.00  0.00    -0.367 N 
HETATM   19  C   UNL     1     -40.716 -44.053  10.985  1.00  0.00     0.124 C 
HETATM   20  C   UNL     1     -40.347 -42.726  11.651  1.00  0.00     0.021 C 
HETATM   21  C   UNL     1     -39.727 -43.111  12.984  1.00  0.00     0.021 C 
HETATM   22  C   UNL     1     -39.083 -44.461  12.711  1.00  0.00     0.124 C 
ENDBRANCH   4  18
TORSDOF 3
ENDMDL
MODEL 9
REMARK VINA RESULT:      -5.1     15.393     18.871
REMARK  3 active torsions:
REMARK  status: ('A' for Active; 'I' for Inactive)
REMARK    1  A    between atoms: C_2  and  N_5 
REMARK       I    between atoms: N_5  and  C_6 
REMARK       I    between atoms: C_6  and  N_8 
REMARK    2  A    between atoms: N_8  and  C_9 
REMARK    3  A    between atoms: C_12  and  N_16 
ROOT
HETATM    1  C   UNL     1     -52.346 -53.167  -0.842  1.00  0.00     0.051 A 
HETATM    2  C   UNL     1     -50.992 -53.091  -0.563  1.00  0.00     0.035 A 
HETATM    3  C   UNL     1     -50.387 -51.862  -0.294  1.00  0.00     0.051 A 
HETATM    4  C   UNL     1     -51.142 -50.696  -0.253  1.00  0.00     0.103 A 
HETATM    5  N   UNL     1     -52.467 -50.753  -0.525  1.00  0.00    -0.350 N 
ATOM      6  HN  UNL     1     -53.033 -49.905  -0.517  1.00  0.00     0.166 HD
HETATM    7  C   UNL     1     -53.035 -51.961  -0.809  1.00  0.00     0.119 A 
ENDROOT
BRANCH   1   8
HETATM    8  N   UNL     1     -53.017 -54.387  -1.128  1.00  0.00    -0.308 N 
HETATM    9  C   UNL     1     -52.908 -55.055  -2.327  1.00  0.00     0.321 C 
HETATM   10  N   UNL     1     -53.523 -56.286  -2.327  1.00  0.00    -0.335 N 
HETATM   11  O   UNL     1     -52.335 -54.621  -3.319  1.00  0.00    -0.247 OA
HETATM   12  H   UNL     1     -53.633 -56.730  -1.425  1.00  0.00     0.165 HD
HETATM   13  H   UNL     1     -53.783 -54.656  -0.527  1.00  0.00     0.170 HD
BRANCH  10  14
HETATM   14  C   UNL     1     -53.449 -57.176  -3.512  1.00  0.00     0.023 C 
HETATM   15  C   UNL     1     -51.995 -57.351  -3.994  1.00  0.00     0.037 C 
HETATM   16  C   UNL     1     -54.325 -56.627  -4.655  1.00  0.00     0.037 C 
HETATM   17  C   UNL     1     -53.987 -58.568  -3.135  1.00  0.00     0.037 C 
ENDBRANCH  10  14
ENDBRANCH   1   8
BRANCH   4  18
HETATM   18  N   UNL     1     -50.570 -49.483   0.052  1.00  0.00    -0.367 N 
HETATM   19  C   UNL     1     -51.371 -48.460   0.717  1.00  0.00     0.124 C 
HETATM   20  C   UNL     1     -50.353 -47.572   1.437  1.00  0.00     0.021 C 
HETATM   21  C   UNL     1     -49.077 -48.395   1.489  1.00  0.00     0.021 C 
HETATM   22  C   UNL     1     -49.146 -49.256   0.238  1.00  0.00     0.124 C 
ENDBRANCH   4  18
TORSDOF 3
ENDMDL
