MODEL 1
REMARK VINA RESULT:      -5.2      0.000      0.000
REMARK  6 active torsions:
REMARK  status: ('A' for Active; 'I' for Inactive)
REMARK    1  A    between atoms: O_2  and  C_3 
REMARK    2  A    between atoms: C_3  and  C_4 
REMARK    3  A    between atoms: C_4  and  C_5 
REMARK    4  A    between atoms: C_5  and  N_6 
REMARK       I    between atoms: N_6  and  C_7 
REMARK    5  A    between atoms: C_7  and  C_9 
REMARK    6  A    between atoms: C_15  and  N_16 
ROOT
HETATM    1  C   UNL     1     -42.779 -49.299  12.473  1.00  0.00     0.075 A 
HETATM    2  C   UNL     1     -43.390 -48.230  11.782  1.00  0.00     0.022 A 
HETATM    3  C   UNL     1     -42.835 -47.726  10.618  1.00  0.00     0.018 A 
HETATM    4  C   UNL     1     -41.654 -48.284  10.195  1.00  0.00     0.089 A 
HETATM    5  N   UNL     1     -41.042 -49.298  10.839  1.00  0.00    -0.352 N 
ATOM      6  HN  UNL     1     -40.163 -49.666  10.473  1.00  0.00     0.166 HD
HETATM    7  C   UNL     1     -41.577 -49.845  11.974  1.00  0.00     0.119 A 
ENDROOT
BRANCH   1   8
HETATM    8  C   UNL     1     -43.434 -49.675  13.762  1.00  0.00     0.255 C 
HETATM    9  N   UNL     1     -44.413 -50.652  13.683  1.00  0.00    -0.357 N 
HETATM   10  H   UNL     1     -44.628 -51.084  12.794  1.00  0.00     0.162 HD
HETATM   11  O   UNL     1     -43.136 -49.118  14.810  1.00  0.00    -0.268 OA
BRANCH   9  12
HETATM   12  C   UNL     1     -44.994 -51.239  14.878  1.00  0.00     0.125 C 
BRANCH  12  13
HETATM   13  C   UNL     1     -46.487 -51.529  14.741  1.00  0.00     0.046 C 
BRANCH  13  14
HETATM   14  C   UNL     1     -46.734 -52.999  14.403  1.00  0.00     0.168 C 
BRANCH  14  15
HETATM   15  O   UNL     1     -45.649 -53.483  13.616  1.00  0.00    -0.396 OA
HETATM   16  C   UNL     1     -45.434 -54.875  13.784  1.00  0.00     0.201 C 
ENDBRANCH  14  15
ENDBRANCH  13  14
ENDBRANCH  12  13
ENDBRANCH   9  12
ENDBRANCH   1   8
BRANCH   7  17
HETATM   17  N   UNL     1     -40.888 -50.962  12.410  1.00  0.00    -0.362 N 
HETATM   18  C   UNL     1     -41.342 -52.261  11.861  1.00  0.00     0.150 C 
HETATM   19  C   UNL     1     -40.984 -53.404  12.824  1.00  0.00     0.187 C 
HETATM   20  O   UNL     1     -39.581 -53.423  13.127  1.00  0.00    -0.388 OA
HETATM   21  C   UNL     1     -39.201 -52.180  13.738  1.00  0.00     0.187 C 
HETATM   22  C   UNL     1     -39.479 -50.975  12.818  1.00  0.00     0.150 C 
ENDBRANCH   7  17
TORSDOF 6
ENDMDL
MODEL 2
REMARK VINA RESULT:      -5.2      2.029      4.837
REMARK  6 active torsions:
REMARK  status: ('A' for Active; 'I' for Inactive)
REMARK    1  A    between atoms: O_2  and  C_3 
REMARK    2  A    between atoms: C_3  and  C_4 
REMARK    3  A    between atoms: C_4  and  C_5 
REMARK    4  A    between atoms: C_5  and  N_6 
REMARK       I    between atoms: N_6  and  C_7 
REMARK    5  A    between atoms: C_7  and  C_9 
REMARK    6  A    between atoms: C_15  and  N_16 
ROOT
HETATM    1  C   UNL     1     -44.357 -51.324  13.490  1.00  0.00     0.075 A 
HETATM    2  C   UNL     1     -45.761 -51.285  13.640  1.00  0.00     0.022 A 
HETATM    3  C   UNL     1     -46.505 -52.452  13.668  1.00  0.00     0.018 A 
HETATM    4  C   UNL     1     -45.824 -53.633  13.503  1.00  0.00     0.089 A 
HETATM    5  N   UNL     1     -44.486 -53.701  13.349  1.00  0.00    -0.352 N 
ATOM      6  HN  UNL     1     -44.041 -54.611  13.229  1.00  0.00     0.166 HD
HETATM    7  C   UNL     1     -43.713 -52.572  13.350  1.00  0.00     0.119 A 
ENDROOT
BRANCH   1   8
HETATM    8  C   UNL     1     -43.697 -49.988  13.382  1.00  0.00     0.255 C 
HETATM    9  N   UNL     1     -43.484 -49.519  12.095  1.00  0.00    -0.357 N 
HETATM   10  H   UNL     1     -43.794 -50.061  11.299  1.00  0.00     0.162 HD
HETATM   11  O   UNL     1     -43.339 -49.375  14.378  1.00  0.00    -0.268 OA
BRANCH   9  12
HETATM   12  C   UNL     1     -43.023 -48.163  11.852  1.00  0.00     0.125 C 
BRANCH  12  13
HETATM   13  C   UNL     1     -42.426 -47.971  10.459  1.00  0.00     0.046 C 
BRANCH  13  14
HETATM   14  C   UNL     1     -43.472 -47.435   9.481  1.00  0.00     0.168 C 
BRANCH  14  15
HETATM   15  O   UNL     1     -44.763 -47.553  10.072  1.00  0.00    -0.396 OA
HETATM   16  C   UNL     1     -45.787 -47.740   9.107  1.00  0.00     0.201 C 
ENDBRANCH  14  15
ENDBRANCH  13  14
ENDBRANCH  12  13
ENDBRANCH   9  12
ENDBRANCH   1   8
BRANCH   7  17
HETATM   17  N   UNL     1     -42.358 -52.846  13.322  1.00  0.00    -0.362 N 
HETATM   18  C   UNL     1     -41.935 -54.098  13.992  1.00  0.00     0.150 C 
HETATM   19  C   UNL     1     -40.470 -53.994  14.445  1.00  0.00     0.187 C 
HETATM   20  O   UNL     1     -39.599 -53.661  13.355  1.00  0.00    -0.388 OA
HETATM   21  C   UNL     1     -39.990 -52.399  12.791  1.00  0.00     0.187 C 
HETATM   22  C   UNL     1     -41.436 -52.427  12.260  1.00  0.00     0.150 C 
ENDBRANCH   7  17
TORSDOF 6
ENDMDL
MODEL 3
REMARK VINA RESULT:      -5.1      2.370      4.922
REMARK  6 active torsions:
REMARK  status: ('A' for Active; 'I' for Inactive)
REMARK    1  A    between atoms: O_2  and  C_3 
REMARK    2  A    between atoms: C_3  and  C_4 
REMARK    3  A    between atoms: C_4  and  C_5 
REMARK    4  A    between atoms: C_5  and  N_6 
REMARK       I    between atoms: N_6  and  C_7 
REMARK    5  A    between atoms: C_7  and  C_9 
REMARK    6  A    between atoms: C_15  and  N_16 
ROOT
HETATM    1  C   UNL     1     -40.512 -50.169  12.183  1.00  0.00     0.075 A 
HETATM    2  C   UNL     1     -39.460 -51.014  12.598  1.00  0.00     0.022 A 
HETATM    3  C   UNL     1     -38.141 -50.701  12.314  1.00  0.00     0.018 A 
HETATM    4  C   UNL     1     -37.912 -49.562  11.582  1.00  0.00     0.089 A 
HETATM    5  N   UNL     1     -38.896 -48.740  11.163  1.00  0.00    -0.352 N 
ATOM      6  HN  UNL     1     -38.658 -47.910  10.620  1.00  0.00     0.166 HD
HETATM    7  C   UNL     1     -40.208 -48.999  11.453  1.00  0.00     0.119 A 
ENDROOT
BRANCH   1   8
HETATM    8  C   UNL     1     -41.885 -50.679  12.474  1.00  0.00     0.255 C 
HETATM    9  N   UNL     1     -42.170 -51.953  12.012  1.00  0.00    -0.357 N 
HETATM   10  H   UNL     1     -41.459 -52.491  11.532  1.00  0.00     0.162 HD
HETATM   11  O   UNL     1     -42.708 -49.986  13.056  1.00  0.00    -0.268 OA
BRANCH   9  12
HETATM   12  C   UNL     1     -43.396 -52.637  12.385  1.00  0.00     0.125 C 
BRANCH  12  13
HETATM   13  C   UNL     1     -43.153 -53.992  13.045  1.00  0.00     0.046 C 
BRANCH  13  14
HETATM   14  C   UNL     1     -41.899 -53.963  13.918  1.00  0.00     0.168 C 
BRANCH  14  15
HETATM   15  O   UNL     1     -40.770 -54.308  13.120  1.00  0.00    -0.396 OA
HETATM   16  C   UNL     1     -39.585 -54.452  13.887  1.00  0.00     0.201 C 
ENDBRANCH  14  15
ENDBRANCH  13  14
ENDBRANCH  12  13
ENDBRANCH   9  12
ENDBRANCH   1   8
BRANCH   7  17
HETATM   17  N   UNL     1     -41.057 -47.978  11.066  1.00  0.00    -0.362 N 
HETATM   18  C   UNL     1     -40.501 -46.607  11.141  1.00  0.00     0.150 C 
HETATM   19  C   UNL     1     -41.631 -45.579  11.309  1.00  0.00     0.187 C 
HETATM   20  O   UNL     1     -42.611 -45.692  10.266  1.00  0.00    -0.388 OA
HETATM   21  C   UNL     1     -43.187 -47.007  10.285  1.00  0.00     0.187 C 
HETATM   22  C   UNL     1     -42.128 -48.106  10.072  1.00  0.00     0.150 C 
ENDBRANCH   7  17
TORSDOF 6
ENDMDL
MODEL 4
REMARK VINA RESULT:      -5.1      4.051      6.595
REMARK  6 active torsions:
REMARK  status: ('A' for Active; 'I' for Inactive)
REMARK    1  A    between atoms: O_2  and  C_3 
REMARK    2  A    between atoms: C_3  and  C_4 
REMARK    3  A    between atoms: C_4  and  C_5 
REMARK    4  A    between atoms: C_5  and  N_6 
REMARK       I    between atoms: N_6  and  C_7 
REMARK    5  A    between atoms: C_7  and  C_9 
REMARK    6  A    between atoms: C_15  and  N_16 
ROOT
HETATM    1  C   UNL     1     -42.703 -47.234  10.402  1.00  0.00     0.075 A 
HETATM    2  C   UNL     1     -43.533 -47.648   9.337  1.00  0.00     0.022 A 
HETATM    3  C   UNL     1     -44.287 -46.730   8.626  1.00  0.00     0.018 A 
HETATM    4  C   UNL     1     -44.220 -45.419   9.028  1.00  0.00     0.089 A 
HETATM    5  N   UNL     1     -43.445 -44.995  10.047  1.00  0.00    -0.352 N 
ATOM      6  HN  UNL     1     -43.443 -44.006  10.297  1.00  0.00     0.166 HD
HETATM    7  C   UNL     1     -42.660 -45.867  10.752  1.00  0.00     0.119 A 
ENDROOT
BRANCH   1   8
HETATM    8  C   UNL     1     -42.022 -48.341  11.140  1.00  0.00     0.255 C 
HETATM    9  N   UNL     1     -40.947 -48.929  10.494  1.00  0.00    -0.357 N 
HETATM   10  H   UNL     1     -40.650 -48.589   9.589  1.00  0.00     0.162 HD
HETATM   11  O   UNL     1     -42.425 -48.715  12.233  1.00  0.00    -0.268 OA
BRANCH   9  12
HETATM   12  C   UNL     1     -40.088 -49.884  11.172  1.00  0.00     0.125 C 
BRANCH  12  13
HETATM   13  C   UNL     1     -38.825 -49.252  11.752  1.00  0.00     0.046 C 
BRANCH  13  14
HETATM   14  C   UNL     1     -37.576 -50.020  11.319  1.00  0.00     0.168 C 
BRANCH  14  15
HETATM   15  O   UNL     1     -37.468 -51.208  12.099  1.00  0.00    -0.396 OA
HETATM   16  C   UNL     1     -37.397 -50.940  13.491  1.00  0.00     0.201 C 
ENDBRANCH  14  15
ENDBRANCH  13  14
ENDBRANCH  12  13
ENDBRANCH   9  12
ENDBRANCH   1   8
BRANCH   7  17
HETATM   17  N   UNL     1     -41.832 -45.233  11.660  1.00  0.00    -0.362 N 
HETATM   18  C   UNL     1     -40.474 -44.895  11.176  1.00  0.00     0.150 C 
HETATM   19  C   UNL     1     -39.493 -44.800  12.355  1.00  0.00     0.187 C 
HETATM   20  O   UNL     1     -39.944 -43.866  13.347  1.00  0.00    -0.388 OA
HETATM   21  C   UNL     1     -41.223 -44.279  13.853  1.00  0.00     0.187 C 
HETATM   22  C   UNL     1     -42.288 -44.353  12.742  1.00  0.00     0.150 C 
ENDBRANCH   7  17
TORSDOF 6
ENDMDL
MODEL 5
REMARK VINA RESULT:      -5.0      2.193      4.550
REMARK  6 active torsions:
REMARK  status: ('A' for Active; 'I' for Inactive)
REMARK    1  A    between atoms: O_2  and  C_3 
REMARK    2  A    between atoms: C_3  and  C_4 
REMARK    3  A    between atoms: C_4  and  C_5 
REMARK    4  A    between atoms: C_5  and  N_6 
REMARK       I    between atoms: N_6  and  C_7 
REMARK    5  A    between atoms: C_7  and  C_9 
REMARK    6  A    between atoms: C_15  and  N_16 
ROOT
HETATM    1  C   UNL     1     -40.106 -50.355  12.359  1.00  0.00     0.075 A 
HETATM    2  C   UNL     1     -38.999 -51.161  12.705  1.00  0.00     0.022 A 
HETATM    3  C   UNL     1     -37.717 -50.814  12.313  1.00  0.00     0.018 A 
HETATM    4  C   UNL     1     -37.582 -49.682  11.546  1.00  0.00     0.089 A 
HETATM    5  N   UNL     1     -38.621 -48.899  11.192  1.00  0.00    -0.352 N 
ATOM      6  HN  UNL     1     -38.452 -48.072  10.619  1.00  0.00     0.166 HD
HETATM    7  C   UNL     1     -39.897 -49.191  11.589  1.00  0.00     0.119 A 
ENDROOT
BRANCH   1   8
HETATM    8  C   UNL     1     -41.436 -50.901  12.767  1.00  0.00     0.255 C 
HETATM    9  N   UNL     1     -41.854 -52.041  12.099  1.00  0.00    -0.357 N 
HETATM   10  H   UNL     1     -41.259 -52.469  11.402  1.00  0.00     0.162 HD
HETATM   11  O   UNL     1     -42.117 -50.342  13.615  1.00  0.00    -0.268 OA
BRANCH   9  12
HETATM   12  C   UNL     1     -43.034 -52.775  12.523  1.00  0.00     0.125 C 
BRANCH  12  13
HETATM   13  C   UNL     1     -42.708 -53.987  13.394  1.00  0.00     0.046 C 
BRANCH  13  14
HETATM   14  C   UNL     1     -43.674 -54.093  14.574  1.00  0.00     0.168 C 
BRANCH  14  15
HETATM   15  O   UNL     1     -44.367 -55.336  14.496  1.00  0.00    -0.396 OA
HETATM   16  C   UNL     1     -45.602 -55.228  13.805  1.00  0.00     0.201 C 
ENDBRANCH  14  15
ENDBRANCH  13  14
ENDBRANCH  12  13
ENDBRANCH   9  12
ENDBRANCH   1   8
BRANCH   7  17
HETATM   17  N   UNL     1     -40.806 -48.204  11.253  1.00  0.00    -0.362 N 
HETATM   18  C   UNL     1     -40.339 -46.808  11.421  1.00  0.00     0.150 C 
HETATM   19  C   UNL     1     -41.535 -45.866  11.635  1.00  0.00     0.187 C 
HETATM   20  O   UNL     1     -42.494 -45.975  10.573  1.00  0.00    -0.388 OA
HETATM   21  C   UNL     1     -42.985 -47.323  10.501  1.00  0.00     0.187 C 
HETATM   22  C   UNL     1     -41.855 -48.337  10.236  1.00  0.00     0.150 C 
ENDBRANCH   7  17
TORSDOF 6
ENDMDL
MODEL 6
REMARK VINA RESULT:      -4.9      2.078      2.848
REMARK  6 active torsions:
REMARK  status: ('A' for Active; 'I' for Inactive)
REMARK    1  A    between atoms: O_2  and  C_3 
REMARK    2  A    between atoms: C_3  and  C_4 
REMARK    3  A    between atoms: C_4  and  C_5 
REMARK    4  A    between atoms: C_5  and  N_6 
REMARK       I    between atoms: N_6  and  C_7 
REMARK    5  A    between atoms: C_7  and  C_9 
REMARK    6  A    between atoms: C_15  and  N_16 
ROOT
HETATM    1  C   UNL     1     -42.247 -48.397  11.545  1.00  0.00     0.075 A 
HETATM    2  C   UNL     1     -43.274 -47.724  10.846  1.00  0.00     0.022 A 
HETATM    3  C   UNL     1     -42.988 -46.646  10.027  1.00  0.00     0.018 A 
HETATM    4  C   UNL     1     -41.677 -46.242   9.959  1.00  0.00     0.089 A 
HETATM    5  N   UNL     1     -40.677 -46.858  10.621  1.00  0.00    -0.352 N 
ATOM      6  HN  UNL     1     -39.724 -46.507  10.529  1.00  0.00     0.166 HD
HETATM    7  C   UNL     1     -40.916 -47.948  11.414  1.00  0.00     0.119 A 
ENDROOT
BRANCH   1   8
HETATM    8  C   UNL     1     -42.713 -49.479  12.464  1.00  0.00     0.255 C 
HETATM    9  N   UNL     1     -42.376 -50.773  12.099  1.00  0.00    -0.357 N 
HETATM   10  H   UNL     1     -41.824 -50.938  11.267  1.00  0.00     0.162 HD
HETATM   11  O   UNL     1     -43.380 -49.223  13.457  1.00  0.00    -0.268 OA
BRANCH   9  12
HETATM   12  C   UNL     1     -42.604 -51.895  12.993  1.00  0.00     0.125 C 
BRANCH  12  13
HETATM   13  C   UNL     1     -43.443 -53.005  12.364  1.00  0.00     0.046 C 
BRANCH  13  14
HETATM   14  C   UNL     1     -44.757 -53.199  13.121  1.00  0.00     0.168 C 
BRANCH  14  15
HETATM   15  O   UNL     1     -45.333 -54.445  12.738  1.00  0.00    -0.396 OA
HETATM   16  C   UNL     1     -45.574 -55.296  13.848  1.00  0.00     0.201 C 
ENDBRANCH  14  15
ENDBRANCH  13  14
ENDBRANCH  12  13
ENDBRANCH   9  12
ENDBRANCH   1   8
BRANCH   7  17
HETATM   17  N   UNL     1     -39.757 -48.529  11.895  1.00  0.00    -0.362 N 
HETATM   18  C   UNL     1     -39.463 -48.301  13.329  1.00  0.00     0.150 C 
HETATM   19  C   UNL     1     -37.952 -48.418  13.591  1.00  0.00     0.187 C 
HETATM   20  O   UNL     1     -37.432 -49.678  13.142  1.00  0.00    -0.388 OA
HETATM   21  C   UNL     1     -37.660 -49.821  11.732  1.00  0.00     0.187 C 
HETATM   22  C   UNL     1     -39.160 -49.766  11.380  1.00  0.00     0.150 C 
ENDBRANCH   7  17
TORSDOF 6
ENDMDL
MODEL 7
REMARK VINA RESULT:      -4.8      3.422      5.596
REMARK  6 active torsions:
REMARK  status: ('A' for Active; 'I' for Inactive)
REMARK    1  A    between atoms: O_2  and  C_3 
REMARK    2  A    between atoms: C_3  and  C_4 
REMARK    3  A    between atoms: C_4  and  C_5 
REMARK    4  A    between atoms: C_5  and  N_6 
REMARK       I    between atoms: N_6  and  C_7 
REMARK    5  A    between atoms: C_7  and  C_9 
REMARK    6  A    between atoms: C_15  and  N_16 
ROOT
HETATM    1  C   UNL     1     -42.229 -47.228  10.289  1.00  0.00     0.075 A 
HETATM    2  C   UNL     1     -42.939 -47.759   9.189  1.00  0.00     0.022 A 
HETATM    3  C   UNL     1     -43.862 -46.990   8.501  1.00  0.00     0.018 A 
HETATM    4  C   UNL     1     -44.081 -45.715   8.960  1.00  0.00     0.089 A 
HETATM    5  N   UNL     1     -43.426 -45.184  10.013  1.00  0.00    -0.352 N 
ATOM      6  HN  UNL     1     -43.638 -44.230  10.305  1.00  0.00     0.166 HD
HETATM    7  C   UNL     1     -42.483 -45.901  10.697  1.00  0.00     0.119 A 
ENDROOT
BRANCH   1   8
HETATM    8  C   UNL     1     -41.338 -48.199  10.994  1.00  0.00     0.255 C 
HETATM    9  N   UNL     1     -41.896 -49.432  11.288  1.00  0.00    -0.357 N 
HETATM   10  H   UNL     1     -42.845 -49.641  11.006  1.00  0.00     0.162 HD
HETATM   11  O   UNL     1     -40.198 -47.893  11.315  1.00  0.00    -0.268 OA
BRANCH   9  12
HETATM   12  C   UNL     1     -41.088 -50.524  11.802  1.00  0.00     0.125 C 
BRANCH  12  13
HETATM   13  C   UNL     1     -41.297 -50.779  13.293  1.00  0.00     0.046 C 
BRANCH  13  14
HETATM   14  C   UNL     1     -42.195 -51.995  13.523  1.00  0.00     0.168 C 
BRANCH  14  15
HETATM   15  O   UNL     1     -42.857 -52.321  12.304  1.00  0.00    -0.396 OA
HETATM   16  C   UNL     1     -43.898 -53.268  12.486  1.00  0.00     0.201 C 
ENDBRANCH  14  15
ENDBRANCH  13  14
ENDBRANCH  12  13
ENDBRANCH   9  12
ENDBRANCH   1   8
BRANCH   7  17
HETATM   17  N   UNL     1     -41.820 -45.149  11.650  1.00  0.00    -0.362 N 
HETATM   18  C   UNL     1     -40.673 -44.348  11.164  1.00  0.00     0.150 C 
HETATM   19  C   UNL     1     -39.679 -44.087  12.307  1.00  0.00     0.187 C 
HETATM   20  O   UNL     1     -40.316 -43.463  13.431  1.00  0.00    -0.388 OA
HETATM   21  C   UNL     1     -41.363 -44.311  13.926  1.00  0.00     0.187 C 
HETATM   22  C   UNL     1     -42.438 -44.587  12.857  1.00  0.00     0.150 C 
ENDBRANCH   7  17
TORSDOF 6
ENDMDL
MODEL 8
REMARK VINA RESULT:      -4.7      2.435      5.670
REMARK  6 active torsions:
REMARK  status: ('A' for Active; 'I' for Inactive)
REMARK    1  A    between atoms: O_2  and  C_3 
REMARK    2  A    between atoms: C_3  and  C_4 
REMARK    3  A    between atoms: C_4  and  C_5 
REMARK    4  A    between atoms: C_5  and  N_6 
REMARK       I    between atoms: N_6  and  C_7 
REMARK    5  A    between atoms: C_7  and  C_9 
REMARK    6  A    between atoms: C_15  and  N_16 
ROOT
HETATM    1  C   UNL     1     -39.942 -49.732  12.044  1.00  0.00     0.075 A 
HETATM    2  C   UNL     1     -38.729 -49.152  11.611  1.00  0.00     0.022 A 
HETATM    3  C   UNL     1     -37.515 -49.765  11.873  1.00  0.00     0.018 A 
HETATM    4  C   UNL     1     -37.546 -50.928  12.602  1.00  0.00     0.089 A 
HETATM    5  N   UNL     1     -38.687 -51.500  13.037  1.00  0.00    -0.352 N 
ATOM      6  HN  UNL     1     -38.640 -52.365  13.576  1.00  0.00     0.166 HD
HETATM    7  C   UNL     1     -39.907 -50.943  12.769  1.00  0.00     0.119 A 
ENDROOT
BRANCH   1   8
HETATM    8  C   UNL     1     -41.164 -48.915  11.775  1.00  0.00     0.255 C 
HETATM    9  N   UNL     1     -41.363 -48.537  10.457  1.00  0.00    -0.357 N 
HETATM   10  H   UNL     1     -40.716 -48.835   9.740  1.00  0.00     0.162 HD
HETATM   11  O   UNL     1     -41.914 -48.580  12.682  1.00  0.00    -0.268 OA
BRANCH   9  12
HETATM   12  C   UNL     1     -42.599 -47.903  10.031  1.00  0.00     0.125 C 
BRANCH  12  13
HETATM   13  C   UNL     1     -42.400 -46.479   9.519  1.00  0.00     0.046 C 
BRANCH  13  14
HETATM   14  C   UNL     1     -41.778 -45.588  10.595  1.00  0.00     0.168 C 
BRANCH  14  15
HETATM   15  O   UNL     1     -40.375 -45.829  10.641  1.00  0.00    -0.396 OA
HETATM   16  C   UNL     1     -39.622 -44.767  10.076  1.00  0.00     0.201 C 
ENDBRANCH  14  15
ENDBRANCH  13  14
ENDBRANCH  12  13
ENDBRANCH   9  12
ENDBRANCH   1   8
BRANCH   7  17
HETATM   17  N   UNL     1     -40.964 -51.740  13.170  1.00  0.00    -0.362 N 
HETATM   18  C   UNL     1     -41.648 -52.500  12.098  1.00  0.00     0.150 C 
HETATM   19  C   UNL     1     -43.097 -52.814  12.505  1.00  0.00     0.187 C 
HETATM   20  O   UNL     1     -43.157 -53.506  13.760  1.00  0.00    -0.388 OA
HETATM   21  C   UNL     1     -42.562 -52.699  14.788  1.00  0.00     0.187 C 
HETATM   22  C   UNL     1     -41.086 -52.375  14.487  1.00  0.00     0.150 C 
ENDBRANCH   7  17
TORSDOF 6
ENDMDL
MODEL 9
REMARK VINA RESULT:      -4.7      3.578      6.014
REMARK  6 active torsions:
REMARK  status: ('A' for Active; 'I' for Inactive)
REMARK    1  A    between atoms: O_2  and  C_3 
REMARK    2  A    between atoms: C_3  and  C_4 
REMARK    3  A    between atoms: C_4  and  C_5 
REMARK    4  A    between atoms: C_5  and  N_6 
REMARK       I    between atoms: N_6  and  C_7 
REMARK    5  A    between atoms: C_7  and  C_9 
REMARK    6  A    between atoms: C_15  and  N_16 
ROOT
HETATM    1  C   UNL     1     -42.486 -46.331  10.604  1.00  0.00     0.075 A 
HETATM    2  C   UNL     1     -43.266 -45.647   9.646  1.00  0.00     0.022 A 
HETATM    3  C   UNL     1     -43.739 -46.299   8.519  1.00  0.00     0.018 A 
HETATM    4  C   UNL     1     -43.381 -47.615   8.360  1.00  0.00     0.089 A 
HETATM    5  N   UNL     1     -42.630 -48.291   9.253  1.00  0.00    -0.352 N 
ATOM      6  HN  UNL     1     -42.397 -49.268   9.074  1.00  0.00     0.166 HD
HETATM    7  C   UNL     1     -42.172 -47.691  10.395  1.00  0.00     0.119 A 
ENDROOT
BRANCH   1   8
HETATM    8  C   UNL     1     -41.966 -45.481  11.717  1.00  0.00     0.255 C 
HETATM    9  N   UNL     1     -40.807 -44.771  11.449  1.00  0.00    -0.357 N 
HETATM   10  H   UNL     1     -40.377 -44.827  10.534  1.00  0.00     0.162 HD
HETATM   11  O   UNL     1     -42.523 -45.452  12.806  1.00  0.00    -0.268 OA
BRANCH   9  12
HETATM   12  C   UNL     1     -40.301 -43.771  12.373  1.00  0.00     0.125 C 
BRANCH  12  13
HETATM   13  C   UNL     1     -38.951 -44.142  12.983  1.00  0.00     0.046 C 
BRANCH  13  14
HETATM   14  C   UNL     1     -39.117 -45.165  14.107  1.00  0.00     0.168 C 
BRANCH  14  15
HETATM   15  O   UNL     1     -39.090 -46.476  13.550  1.00  0.00    -0.396 OA
HETATM   16  C   UNL     1     -38.288 -47.371  14.304  1.00  0.00     0.201 C 
ENDBRANCH  14  15
ENDBRANCH  13  14
ENDBRANCH  12  13
ENDBRANCH   9  12
ENDBRANCH   1   8
BRANCH   7  17
HETATM   17  N   UNL     1     -41.543 -48.574  11.253  1.00  0.00    -0.362 N 
HETATM   18  C   UNL     1     -42.341 -49.034  12.413  1.00  0.00     0.150 C 
HETATM   19  C   UNL     1     -41.416 -49.456  13.566  1.00  0.00     0.187 C 
HETATM   20  O   UNL     1     -40.471 -50.452  13.151  1.00  0.00    -0.388 OA
HETATM   21  C   UNL     1     -39.660 -49.935  12.085  1.00  0.00     0.187 C 
HETATM   22  C   UNL     1     -40.503 -49.532  10.859  1.00  0.00     0.150 C 
ENDBRANCH   7  17
TORSDOF 6
ENDMDL
