MODEL 1
REMARK VINA RESULT:      -6.3      0.000      0.000
REMARK  6 active torsions:
REMARK  status: ('A' for Active; 'I' for Inactive)
REMARK    1  A    between atoms: C_2  and  C_3 
REMARK    2  A    between atoms: C_2  and  C_17 
REMARK    3  A    between atoms: C_3  and  N_4 
REMARK       I    between atoms: N_4  and  C_5 
REMARK    4  A    between atoms: C_5  and  C_7 
REMARK    5  A    between atoms: C_7  and  C_13 
REMARK    6  A    between atoms: C_13  and  N_14 
ROOT
HETATM    1  N   UNL     1     -43.456 -51.918  12.642  1.00  0.00    -0.359 N 
HETATM    2  C   UNL     1     -44.435 -52.881  12.738  1.00  0.00     0.239 C 
HETATM    3  O   UNL     1     -44.226 -54.036  12.360  1.00  0.00    -0.272 OA
HETATM    4  H   UNL     1     -43.600 -50.977  12.991  1.00  0.00     0.162 HD
ENDROOT
BRANCH   1   5
HETATM    5  C   UNL     1     -42.135 -52.231  12.130  1.00  0.00     0.131 C 
BRANCH   5   6
HETATM    6  C   UNL     1     -40.976 -51.517  12.869  1.00  0.00     0.037 C 
HETATM    7  C   UNL     1     -41.317 -51.363  14.358  1.00  0.00     0.017 C 
BRANCH   6   8
HETATM    8  C   UNL     1     -40.522 -50.235  12.196  1.00  0.00     0.003 A 
HETATM    9  C   UNL     1     -39.182 -49.861  11.842  1.00  0.00     0.038 A 
HETATM   10  C   UNL     1     -37.894 -50.578  12.020  1.00  0.00     0.071 C 
HETATM   11  N   UNL     1     -39.140 -48.656  11.269  1.00  0.00    -0.265 N 
HETATM   12  O   UNL     1     -40.428 -48.188  11.278  1.00  0.00    -0.242 OA
ATOM     13  HN  UNL     1     -38.316 -48.180  10.901  1.00  0.00     0.194 HD
HETATM   14  C   UNL     1     -41.251 -49.110  11.839  1.00  0.00     0.081 A 
HETATM   15  C   UNL     1     -42.662 -48.674  11.941  1.00  0.00     0.079 C 
ENDBRANCH   6   8
ENDBRANCH   5   6
ENDBRANCH   1   5
BRANCH   2  16
HETATM   16  C   UNL     1     -45.814 -52.448  13.267  1.00  0.00     0.112 C 
HETATM   17  C   UNL     1     -45.815 -51.218  14.192  1.00  0.00     0.033 C 
HETATM   18  C   UNL     1     -45.098 -51.488  15.516  1.00  0.00     0.002 C 
HETATM   19  C   UNL     1     -45.684 -52.694  16.243  1.00  0.00     0.000 C 
HETATM   20  C   UNL     1     -45.749 -53.929  15.351  1.00  0.00     0.002 C 
HETATM   21  C   UNL     1     -46.459 -53.637  14.026  1.00  0.00     0.033 C 
BRANCH  16  22
HETATM   22  C   UNL     1     -46.656 -52.171  12.032  1.00  0.00    -0.058 C 
BRANCH  22  23
HETATM   23  N   UNL     1     -47.354 -51.942  11.007  1.00  0.00    -0.369 N 
ATOM     24  HN2 UNL     1     -46.801 -52.159  11.836  1.00  0.00     0.165 HD
ATOM     25  HN1 UNL     1     -47.918 -51.756  10.177  1.00  0.00     0.165 HD
ENDBRANCH  22  23
ENDBRANCH  16  22
ENDBRANCH   2  16
TORSDOF 6
ENDMDL
MODEL 2
REMARK VINA RESULT:      -6.3      3.188      4.173
REMARK  6 active torsions:
REMARK  status: ('A' for Active; 'I' for Inactive)
REMARK    1  A    between atoms: C_2  and  C_3 
REMARK    2  A    between atoms: C_2  and  C_17 
REMARK    3  A    between atoms: C_3  and  N_4 
REMARK       I    between atoms: N_4  and  C_5 
REMARK    4  A    between atoms: C_5  and  C_7 
REMARK    5  A    between atoms: C_7  and  C_13 
REMARK    6  A    between atoms: C_13  and  N_14 
ROOT
HETATM    1  N   UNL     1     -43.933 -53.505  14.483  1.00  0.00    -0.359 N 
HETATM    2  C   UNL     1     -45.302 -53.382  14.395  1.00  0.00     0.239 C 
HETATM    3  O   UNL     1     -46.033 -54.370  14.490  1.00  0.00    -0.272 OA
HETATM    4  H   UNL     1     -43.325 -52.694  14.452  1.00  0.00     0.162 HD
ENDROOT
BRANCH   1   5
HETATM    5  C   UNL     1     -43.304 -54.789  14.728  1.00  0.00     0.131 C 
BRANCH   5   6
HETATM    6  C   UNL     1     -42.113 -54.739  15.718  1.00  0.00     0.037 C 
HETATM    7  C   UNL     1     -42.322 -53.611  16.737  1.00  0.00     0.017 C 
BRANCH   6   8
HETATM    8  C   UNL     1     -40.756 -54.724  15.039  1.00  0.00     0.003 A 
HETATM    9  C   UNL     1     -39.531 -55.299  15.521  1.00  0.00     0.038 A 
HETATM   10  C   UNL     1     -39.233 -56.043  16.771  1.00  0.00     0.071 C 
HETATM   11  N   UNL     1     -38.521 -55.093  14.672  1.00  0.00    -0.265 N 
HETATM   12  O   UNL     1     -39.035 -54.343  13.647  1.00  0.00    -0.242 OA
ATOM     13  HN  UNL     1     -37.562 -55.426  14.768  1.00  0.00     0.194 HD
HETATM   14  C   UNL     1     -40.355 -54.107  13.863  1.00  0.00     0.081 A 
HETATM   15  C   UNL     1     -40.991 -53.257  12.832  1.00  0.00     0.079 C 
ENDBRANCH   6   8
ENDBRANCH   5   6
ENDBRANCH   1   5
BRANCH   2  16
HETATM   16  C   UNL     1     -45.877 -51.985  14.105  1.00  0.00     0.112 C 
HETATM   17  C   UNL     1     -44.880 -50.817  14.223  1.00  0.00     0.033 C 
HETATM   18  C   UNL     1     -44.398 -50.612  15.660  1.00  0.00     0.002 C 
HETATM   19  C   UNL     1     -45.560 -50.410  16.626  1.00  0.00     0.000 C 
HETATM   20  C   UNL     1     -46.602 -51.518  16.514  1.00  0.00     0.002 C 
HETATM   21  C   UNL     1     -47.064 -51.718  15.068  1.00  0.00     0.033 C 
BRANCH  16  22
HETATM   22  C   UNL     1     -46.430 -52.057  12.691  1.00  0.00    -0.058 C 
BRANCH  22  23
HETATM   23  N   UNL     1     -46.889 -52.115  11.518  1.00  0.00    -0.369 N 
ATOM     24  HN2 UNL     1     -46.545 -52.050  12.476  1.00  0.00     0.165 HD
ATOM     25  HN1 UNL     1     -47.259 -52.162  10.568  1.00  0.00     0.165 HD
ENDBRANCH  22  23
ENDBRANCH  16  22
ENDBRANCH   2  16
TORSDOF 6
ENDMDL
MODEL 3
REMARK VINA RESULT:      -6.3      2.105      6.082
REMARK  6 active torsions:
REMARK  status: ('A' for Active; 'I' for Inactive)
REMARK    1  A    between atoms: C_2  and  C_3 
REMARK    2  A    between atoms: C_2  and  C_17 
REMARK    3  A    between atoms: C_3  and  N_4 
REMARK       I    between atoms: N_4  and  C_5 
REMARK    4  A    between atoms: C_5  and  C_7 
REMARK    5  A    between atoms: C_7  and  C_13 
REMARK    6  A    between atoms: C_13  and  N_14 
ROOT
HETATM    1  N   UNL     1     -43.584 -51.532  12.887  1.00  0.00    -0.359 N 
HETATM    2  C   UNL     1     -42.383 -50.945  13.215  1.00  0.00     0.239 C 
HETATM    3  O   UNL     1     -42.346 -49.914  13.890  1.00  0.00    -0.272 OA
HETATM    4  H   UNL     1     -43.626 -52.405  12.372  1.00  0.00     0.162 HD
ENDROOT
BRANCH   1   5
HETATM    5  C   UNL     1     -44.845 -50.986  13.353  1.00  0.00     0.131 C 
BRANCH   5   6
HETATM    6  C   UNL     1     -45.762 -52.011  14.065  1.00  0.00     0.037 C 
HETATM    7  C   UNL     1     -46.860 -51.280  14.850  1.00  0.00     0.017 C 
BRANCH   6   8
HETATM    8  C   UNL     1     -45.005 -53.051  14.870  1.00  0.00     0.003 A 
HETATM    9  C   UNL     1     -44.121 -52.824  15.978  1.00  0.00     0.038 A 
HETATM   10  C   UNL     1     -43.695 -51.565  16.640  1.00  0.00     0.071 C 
HETATM   11  N   UNL     1     -43.616 -53.967  16.449  1.00  0.00    -0.265 N 
HETATM   12  O   UNL     1     -44.107 -54.959  15.642  1.00  0.00    -0.242 OA
ATOM     13  HN  UNL     1     -42.991 -54.079  17.248  1.00  0.00     0.194 HD
HETATM   14  C   UNL     1     -44.919 -54.425  14.694  1.00  0.00     0.081 A 
HETATM   15  C   UNL     1     -45.461 -55.415  13.737  1.00  0.00     0.079 C 
ENDBRANCH   6   8
ENDBRANCH   5   6
ENDBRANCH   1   5
BRANCH   2  16
HETATM   16  C   UNL     1     -41.100 -51.579  12.651  1.00  0.00     0.112 C 
HETATM   17  C   UNL     1     -41.225 -53.047  12.201  1.00  0.00     0.033 C 
HETATM   18  C   UNL     1     -41.493 -53.990  13.375  1.00  0.00     0.002 C 
HETATM   19  C   UNL     1     -40.431 -53.863  14.461  1.00  0.00     0.000 C 
HETATM   20  C   UNL     1     -40.234 -52.418  14.907  1.00  0.00     0.002 C 
HETATM   21  C   UNL     1     -39.979 -51.486  13.720  1.00  0.00     0.033 C 
BRANCH  16  22
HETATM   22  C   UNL     1     -40.696 -50.707  11.474  1.00  0.00    -0.058 C 
BRANCH  22  23
HETATM   23  N   UNL     1     -40.361 -49.983  10.497  1.00  0.00    -0.369 N 
ATOM     24  HN2 UNL     1     -40.600 -50.567  11.298  1.00  0.00     0.165 HD
ATOM     25  HN1 UNL     1     -40.091 -49.397   9.707  1.00  0.00     0.165 HD
ENDBRANCH  22  23
ENDBRANCH  16  22
ENDBRANCH   2  16
TORSDOF 6
ENDMDL
MODEL 4
REMARK VINA RESULT:      -6.2      2.880      4.334
REMARK  6 active torsions:
REMARK  status: ('A' for Active; 'I' for Inactive)
REMARK    1  A    between atoms: C_2  and  C_3 
REMARK    2  A    between atoms: C_2  and  C_17 
REMARK    3  A    between atoms: C_3  and  N_4 
REMARK       I    between atoms: N_4  and  C_5 
REMARK    4  A    between atoms: C_5  and  C_7 
REMARK    5  A    between atoms: C_7  and  C_13 
REMARK    6  A    between atoms: C_13  and  N_14 
ROOT
HETATM    1  N   UNL     1     -43.758 -49.903  12.408  1.00  0.00    -0.359 N 
HETATM    2  C   UNL     1     -43.475 -50.682  13.508  1.00  0.00     0.239 C 
HETATM    3  O   UNL     1     -42.691 -50.293  14.375  1.00  0.00    -0.272 OA
HETATM    4  H   UNL     1     -44.436 -50.193  11.712  1.00  0.00     0.162 HD
ENDROOT
BRANCH   1   5
HETATM    5  C   UNL     1     -43.176 -48.584  12.247  1.00  0.00     0.131 C 
BRANCH   5   6
HETATM    6  C   UNL     1     -42.657 -48.284  10.819  1.00  0.00     0.037 C 
HETATM    7  C   UNL     1     -41.140 -48.506  10.752  1.00  0.00     0.017 C 
BRANCH   6   8
HETATM    8  C   UNL     1     -43.117 -46.945  10.272  1.00  0.00     0.003 A 
HETATM    9  C   UNL     1     -44.251 -46.689   9.429  1.00  0.00     0.038 A 
HETATM   10  C   UNL     1     -45.268 -47.609   8.861  1.00  0.00     0.071 C 
HETATM   11  N   UNL     1     -44.358 -45.393   9.127  1.00  0.00    -0.265 N 
HETATM   12  O   UNL     1     -43.283 -44.777   9.712  1.00  0.00    -0.242 OA
ATOM     13  HN  UNL     1     -45.092 -44.951   8.572  1.00  0.00     0.194 HD
HETATM   14  C   UNL     1     -42.534 -45.691  10.379  1.00  0.00     0.081 A 
HETATM   15  C   UNL     1     -41.315 -45.130  11.005  1.00  0.00     0.079 C 
ENDBRANCH   6   8
ENDBRANCH   5   6
ENDBRANCH   1   5
BRANCH   2  16
HETATM   16  C   UNL     1     -44.117 -52.079  13.578  1.00  0.00     0.112 C 
HETATM   17  C   UNL     1     -45.401 -52.264  12.748  1.00  0.00     0.033 C 
HETATM   18  C   UNL     1     -46.558 -51.415  13.276  1.00  0.00     0.002 C 
HETATM   19  C   UNL     1     -46.840 -51.690  14.749  1.00  0.00     0.000 C 
HETATM   20  C   UNL     1     -45.587 -51.568  15.608  1.00  0.00     0.002 C 
HETATM   21  C   UNL     1     -44.436 -52.415  15.059  1.00  0.00     0.033 C 
BRANCH  16  22
HETATM   22  C   UNL     1     -43.045 -53.045  13.101  1.00  0.00    -0.058 C 
BRANCH  22  23
HETATM   23  N   UNL     1     -42.156 -53.847  12.704  1.00  0.00    -0.369 N 
ATOM     24  HN2 UNL     1     -42.891 -53.224  13.041  1.00  0.00     0.165 HD
ATOM     25  HN1 UNL     1     -41.437 -54.495  12.383  1.00  0.00     0.165 HD
ENDBRANCH  22  23
ENDBRANCH  16  22
ENDBRANCH   2  16
TORSDOF 6
ENDMDL
MODEL 5
REMARK VINA RESULT:      -6.2      2.179      3.573
REMARK  6 active torsions:
REMARK  status: ('A' for Active; 'I' for Inactive)
REMARK    1  A    between atoms: C_2  and  C_3 
REMARK    2  A    between atoms: C_2  and  C_17 
REMARK    3  A    between atoms: C_3  and  N_4 
REMARK       I    between atoms: N_4  and  C_5 
REMARK    4  A    between atoms: C_5  and  C_7 
REMARK    5  A    between atoms: C_7  and  C_13 
REMARK    6  A    between atoms: C_13  and  N_14 
ROOT
HETATM    1  N   UNL     1     -43.481 -50.664  13.571  1.00  0.00    -0.359 N 
HETATM    2  C   UNL     1     -42.940 -51.851  14.011  1.00  0.00     0.239 C 
HETATM    3  O   UNL     1     -42.393 -51.927  15.113  1.00  0.00    -0.272 OA
HETATM    4  H   UNL     1     -43.974 -50.601  12.687  1.00  0.00     0.162 HD
ENDROOT
BRANCH   1   5
HETATM    5  C   UNL     1     -43.463 -49.473  14.398  1.00  0.00     0.131 C 
BRANCH   5   6
HETATM    6  C   UNL     1     -42.322 -48.480  14.065  1.00  0.00     0.037 C 
HETATM    7  C   UNL     1     -42.820 -47.036  14.209  1.00  0.00     0.017 C 
BRANCH   6   8
HETATM    8  C   UNL     1     -41.624 -48.772  12.749  1.00  0.00     0.003 A 
HETATM    9  C   UNL     1     -42.107 -48.499  11.425  1.00  0.00     0.038 A 
HETATM   10  C   UNL     1     -43.374 -47.881  10.960  1.00  0.00     0.071 C 
HETATM   11  N   UNL     1     -41.238 -48.895  10.491  1.00  0.00    -0.265 N 
HETATM   12  O   UNL     1     -40.198 -49.478  11.165  1.00  0.00    -0.242 OA
ATOM     13  HN  UNL     1     -41.331 -48.785   9.481  1.00  0.00     0.194 HD
HETATM   14  C   UNL     1     -40.424 -49.424  12.502  1.00  0.00     0.081 A 
HETATM   15  C   UNL     1     -39.377 -50.078  13.318  1.00  0.00     0.079 C 
ENDBRANCH   6   8
ENDBRANCH   5   6
ENDBRANCH   1   5
BRANCH   2  16
HETATM   16  C   UNL     1     -42.980 -53.054  13.052  1.00  0.00     0.112 C 
HETATM   17  C   UNL     1     -44.345 -53.336  12.396  1.00  0.00     0.033 C 
HETATM   18  C   UNL     1     -45.397 -53.775  13.415  1.00  0.00     0.002 C 
HETATM   19  C   UNL     1     -44.939 -54.988  14.219  1.00  0.00     0.000 C 
HETATM   20  C   UNL     1     -43.567 -54.777  14.850  1.00  0.00     0.002 C 
HETATM   21  C   UNL     1     -42.530 -54.326  13.818  1.00  0.00     0.033 C 
BRANCH  16  22
HETATM   22  C   UNL     1     -41.940 -52.760  11.984  1.00  0.00    -0.058 C 
BRANCH  22  23
HETATM   23  N   UNL     1     -41.078 -52.516  11.096  1.00  0.00    -0.369 N 
ATOM     24  HN2 UNL     1     -41.793 -52.731  11.791  1.00  0.00     0.165 HD
ATOM     25  HN1 UNL     1     -40.380 -52.319  10.379  1.00  0.00     0.165 HD
ENDBRANCH  22  23
ENDBRANCH  16  22
ENDBRANCH   2  16
TORSDOF 6
ENDMDL
MODEL 6
REMARK VINA RESULT:      -6.1      2.330      3.124
REMARK  6 active torsions:
REMARK  status: ('A' for Active; 'I' for Inactive)
REMARK    1  A    between atoms: C_2  and  C_3 
REMARK    2  A    between atoms: C_2  and  C_17 
REMARK    3  A    between atoms: C_3  and  N_4 
REMARK       I    between atoms: N_4  and  C_5 
REMARK    4  A    between atoms: C_5  and  C_7 
REMARK    5  A    between atoms: C_7  and  C_13 
REMARK    6  A    between atoms: C_13  and  N_14 
ROOT
HETATM    1  N   UNL     1     -43.589 -52.232  12.545  1.00  0.00    -0.359 N 
HETATM    2  C   UNL     1     -44.488 -51.469  13.257  1.00  0.00     0.239 C 
HETATM    3  O   UNL     1     -44.142 -50.409  13.782  1.00  0.00    -0.272 OA
HETATM    4  H   UNL     1     -43.872 -53.082  12.070  1.00  0.00     0.162 HD
ENDROOT
BRANCH   1   5
HETATM    5  C   UNL     1     -42.217 -51.800  12.354  1.00  0.00     0.131 C 
BRANCH   5   6
HETATM    6  C   UNL     1     -41.158 -52.741  12.981  1.00  0.00     0.037 C 
HETATM    7  C   UNL     1     -41.783 -54.109  13.287  1.00  0.00     0.017 C 
BRANCH   6   8
HETATM    8  C   UNL     1     -40.406 -52.122  14.145  1.00  0.00     0.003 A 
HETATM    9  C   UNL     1     -40.887 -51.907  15.481  1.00  0.00     0.038 A 
HETATM   10  C   UNL     1     -42.203 -52.205  16.099  1.00  0.00     0.071 C 
HETATM   11  N   UNL     1     -39.962 -51.330  16.252  1.00  0.00    -0.265 N 
HETATM   12  O   UNL     1     -38.880 -51.107  15.442  1.00  0.00    -0.242 OA
ATOM     13  HN  UNL     1     -40.045 -51.103  17.243  1.00  0.00     0.194 HD
HETATM   14  C   UNL     1     -39.139 -51.558  14.188  1.00  0.00     0.081 A 
HETATM   15  C   UNL     1     -38.045 -51.314  13.222  1.00  0.00     0.079 C 
ENDBRANCH   6   8
ENDBRANCH   5   6
ENDBRANCH   1   5
BRANCH   2  16
HETATM   16  C   UNL     1     -45.913 -52.022  13.431  1.00  0.00     0.112 C 
HETATM   17  C   UNL     1     -46.729 -51.407  14.583  1.00  0.00     0.033 C 
HETATM   18  C   UNL     1     -46.144 -51.751  15.954  1.00  0.00     0.002 C 
HETATM   19  C   UNL     1     -46.006 -53.258  16.151  1.00  0.00     0.000 C 
HETATM   20  C   UNL     1     -45.246 -53.922  15.008  1.00  0.00     0.002 C 
HETATM   21  C   UNL     1     -45.838 -53.556  13.644  1.00  0.00     0.033 C 
BRANCH  16  22
HETATM   22  C   UNL     1     -46.614 -51.769  12.105  1.00  0.00    -0.058 C 
BRANCH  22  23
HETATM   23  N   UNL     1     -47.195 -51.559  11.006  1.00  0.00    -0.369 N 
ATOM     24  HN2 UNL     1     -46.745 -51.755  11.900  1.00  0.00     0.165 HD
ATOM     25  HN1 UNL     1     -47.665 -51.389  10.117  1.00  0.00     0.165 HD
ENDBRANCH  22  23
ENDBRANCH  16  22
ENDBRANCH   2  16
TORSDOF 6
ENDMDL
MODEL 7
REMARK VINA RESULT:      -6.1      2.302      6.944
REMARK  6 active torsions:
REMARK  status: ('A' for Active; 'I' for Inactive)
REMARK    1  A    between atoms: C_2  and  C_3 
REMARK    2  A    between atoms: C_2  and  C_17 
REMARK    3  A    between atoms: C_3  and  N_4 
REMARK       I    between atoms: N_4  and  C_5 
REMARK    4  A    between atoms: C_5  and  C_7 
REMARK    5  A    between atoms: C_7  and  C_13 
REMARK    6  A    between atoms: C_13  and  N_14 
ROOT
HETATM    1  N   UNL     1     -40.822 -50.833  12.297  1.00  0.00    -0.359 N 
HETATM    2  C   UNL     1     -39.547 -51.179  12.685  1.00  0.00     0.239 C 
HETATM    3  O   UNL     1     -39.276 -52.337  13.009  1.00  0.00    -0.272 OA
HETATM    4  H   UNL     1     -41.046 -49.895  11.984  1.00  0.00     0.162 HD
ENDROOT
BRANCH   1   5
HETATM    5  C   UNL     1     -41.883 -51.821  12.219  1.00  0.00     0.131 C 
BRANCH   5   6
HETATM    6  C   UNL     1     -43.153 -51.460  13.028  1.00  0.00     0.037 C 
HETATM    7  C   UNL     1     -42.770 -50.680  14.293  1.00  0.00     0.017 C 
BRANCH   6   8
HETATM    8  C   UNL     1     -44.074 -52.640  13.276  1.00  0.00     0.003 A 
HETATM    9  C   UNL     1     -45.494 -52.700  13.071  1.00  0.00     0.038 A 
HETATM   10  C   UNL     1     -46.449 -51.675  12.580  1.00  0.00     0.071 C 
HETATM   11  N   UNL     1     -45.991 -53.895  13.401  1.00  0.00    -0.265 N 
HETATM   12  O   UNL     1     -44.934 -54.626  13.875  1.00  0.00    -0.242 OA
ATOM     13  HN  UNL     1     -46.961 -54.200  13.317  1.00  0.00     0.194 HD
HETATM   14  C   UNL     1     -43.797 -53.887  13.819  1.00  0.00     0.081 A 
HETATM   15  C   UNL     1     -42.604 -54.575  14.360  1.00  0.00     0.079 C 
ENDBRANCH   6   8
ENDBRANCH   5   6
ENDBRANCH   1   5
BRANCH   2  16
HETATM   16  C   UNL     1     -38.496 -50.058  12.764  1.00  0.00     0.112 C 
HETATM   17  C   UNL     1     -37.453 -50.203  13.888  1.00  0.00     0.033 C 
HETATM   18  C   UNL     1     -38.080 -50.076  15.278  1.00  0.00     0.002 C 
HETATM   19  C   UNL     1     -38.848 -48.769  15.438  1.00  0.00     0.000 C 
HETATM   20  C   UNL     1     -39.862 -48.555  14.320  1.00  0.00     0.002 C 
HETATM   21  C   UNL     1     -39.220 -48.698  12.936  1.00  0.00     0.033 C 
BRANCH  16  22
HETATM   22  C   UNL     1     -37.804 -50.051  11.411  1.00  0.00    -0.058 C 
BRANCH  22  23
HETATM   23  N   UNL     1     -37.230 -50.045  10.288  1.00  0.00    -0.369 N 
ATOM     24  HN2 UNL     1     -37.664 -50.056  11.211  1.00  0.00     0.165 HD
ATOM     25  HN1 UNL     1     -36.767 -50.041   9.379  1.00  0.00     0.165 HD
ENDBRANCH  22  23
ENDBRANCH  16  22
ENDBRANCH   2  16
TORSDOF 6
ENDMDL
MODEL 8
REMARK VINA RESULT:      -6.1      4.259      6.869
REMARK  6 active torsions:
REMARK  status: ('A' for Active; 'I' for Inactive)
REMARK    1  A    between atoms: C_2  and  C_3 
REMARK    2  A    between atoms: C_2  and  C_17 
REMARK    3  A    between atoms: C_3  and  N_4 
REMARK       I    between atoms: N_4  and  C_5 
REMARK    4  A    between atoms: C_5  and  C_7 
REMARK    5  A    between atoms: C_7  and  C_13 
REMARK    6  A    between atoms: C_13  and  N_14 
ROOT
HETATM    1  N   UNL     1     -40.095 -48.803  11.061  1.00  0.00    -0.359 N 
HETATM    2  C   UNL     1     -39.671 -49.962  11.671  1.00  0.00     0.239 C 
HETATM    3  O   UNL     1     -40.461 -50.876  11.912  1.00  0.00    -0.272 OA
HETATM    4  H   UNL     1     -39.446 -48.063  10.817  1.00  0.00     0.162 HD
ENDROOT
BRANCH   1   5
HETATM    5  C   UNL     1     -41.474 -48.628  10.646  1.00  0.00     0.131 C 
BRANCH   5   6
HETATM    6  C   UNL     1     -42.280 -47.625  11.509  1.00  0.00     0.037 C 
HETATM    7  C   UNL     1     -43.322 -48.373  12.352  1.00  0.00     0.017 C 
BRANCH   6   8
HETATM    8  C   UNL     1     -42.837 -46.453  10.721  1.00  0.00     0.003 A 
HETATM    9  C   UNL     1     -43.874 -46.481   9.729  1.00  0.00     0.038 A 
HETATM   10  C   UNL     1     -44.677 -47.610   9.194  1.00  0.00     0.071 C 
HETATM   11  N   UNL     1     -44.112 -45.267   9.228  1.00  0.00    -0.265 N 
HETATM   12  O   UNL     1     -43.213 -44.426   9.831  1.00  0.00    -0.242 OA
ATOM     13  HN  UNL     1     -44.818 -45.016   8.536  1.00  0.00     0.194 HD
HETATM   14  C   UNL     1     -42.444 -45.123  10.706  1.00  0.00     0.081 A 
HETATM   15  C   UNL     1     -41.403 -44.309  11.373  1.00  0.00     0.079 C 
ENDBRANCH   6   8
ENDBRANCH   5   6
ENDBRANCH   1   5
BRANCH   2  16
HETATM   16  C   UNL     1     -38.196 -50.045  12.101  1.00  0.00     0.112 C 
HETATM   17  C   UNL     1     -37.835 -51.231  13.015  1.00  0.00     0.033 C 
HETATM   18  C   UNL     1     -38.504 -51.129  14.386  1.00  0.00     0.002 C 
HETATM   19  C   UNL     1     -38.179 -49.812  15.081  1.00  0.00     0.000 C 
HETATM   20  C   UNL     1     -38.474 -48.605  14.197  1.00  0.00     0.002 C 
HETATM   21  C   UNL     1     -37.806 -48.729  12.825  1.00  0.00     0.033 C 
BRANCH  16  22
HETATM   22  C   UNL     1     -37.398 -50.121  10.810  1.00  0.00    -0.058 C 
BRANCH  22  23
HETATM   23  N   UNL     1     -36.735 -50.184   9.738  1.00  0.00    -0.369 N 
ATOM     24  HN2 UNL     1     -37.250 -50.155  10.619  1.00  0.00     0.165 HD
ATOM     25  HN1 UNL     1     -36.199 -50.234   8.872  1.00  0.00     0.165 HD
ENDBRANCH  22  23
ENDBRANCH  16  22
ENDBRANCH   2  16
TORSDOF 6
ENDMDL
MODEL 9
REMARK VINA RESULT:      -6.1      2.054      6.715
REMARK  6 active torsions:
REMARK  status: ('A' for Active; 'I' for Inactive)
REMARK    1  A    between atoms: C_2  and  C_3 
REMARK    2  A    between atoms: C_2  and  C_17 
REMARK    3  A    between atoms: C_3  and  N_4 
REMARK       I    between atoms: N_4  and  C_5 
REMARK    4  A    between atoms: C_5  and  C_7 
REMARK    5  A    between atoms: C_7  and  C_13 
REMARK    6  A    between atoms: C_13  and  N_14 
ROOT
HETATM    1  N   UNL     1     -40.764 -50.456  12.714  1.00  0.00    -0.359 N 
HETATM    2  C   UNL     1     -39.802 -49.540  12.350  1.00  0.00     0.239 C 
HETATM    3  O   UNL     1     -40.108 -48.498  11.768  1.00  0.00    -0.272 OA
HETATM    4  H   UNL     1     -40.529 -51.295  13.233  1.00  0.00     0.162 HD
ENDROOT
BRANCH   1   5
HETATM    5  C   UNL     1     -42.172 -50.214  12.462  1.00  0.00     0.131 C 
BRANCH   5   6
HETATM    6  C   UNL     1     -43.123 -50.791  13.539  1.00  0.00     0.037 C 
HETATM    7  C   UNL     1     -42.409 -50.850  14.896  1.00  0.00     0.017 C 
BRANCH   6   8
HETATM    8  C   UNL     1     -43.793 -52.090  13.129  1.00  0.00     0.003 A 
HETATM    9  C   UNL     1     -43.164 -53.356  12.878  1.00  0.00     0.038 A 
HETATM   10  C   UNL     1     -41.737 -53.761  12.937  1.00  0.00     0.071 C 
HETATM   11  N   UNL     1     -44.053 -54.288  12.527  1.00  0.00    -0.265 N 
HETATM   12  O   UNL     1     -45.268 -53.656  12.487  1.00  0.00    -0.242 OA
ATOM     13  HN  UNL     1     -43.865 -55.271  12.328  1.00  0.00     0.194 HD
HETATM   14  C   UNL     1     -45.122 -52.351  12.827  1.00  0.00     0.081 A 
HETATM   15  C   UNL     1     -46.376 -51.568  12.764  1.00  0.00     0.079 C 
ENDBRANCH   6   8
ENDBRANCH   5   6
ENDBRANCH   1   5
BRANCH   2  16
HETATM   16  C   UNL     1     -38.332 -49.897  12.634  1.00  0.00     0.112 C 
HETATM   17  C   UNL     1     -38.103 -51.211  13.404  1.00  0.00     0.033 C 
HETATM   18  C   UNL     1     -38.639 -51.143  14.835  1.00  0.00     0.002 C 
HETATM   19  C   UNL     1     -38.047 -49.970  15.608  1.00  0.00     0.000 C 
HETATM   20  C   UNL     1     -38.205 -48.649  14.863  1.00  0.00     0.002 C 
HETATM   21  C   UNL     1     -37.676 -48.739  13.429  1.00  0.00     0.033 C 
BRANCH  16  22
HETATM   22  C   UNL     1     -37.660 -49.969  11.272  1.00  0.00    -0.058 C 
BRANCH  22  23
HETATM   23  N   UNL     1     -37.102 -50.027  10.143  1.00  0.00    -0.369 N 
ATOM     24  HN2 UNL     1     -37.581 -49.995  11.043  1.00  0.00     0.165 HD
ATOM     25  HN1 UNL     1     -36.650 -50.074   9.229  1.00  0.00     0.165 HD
ENDBRANCH  22  23
ENDBRANCH  16  22
ENDBRANCH   2  16
TORSDOF 6
ENDMDL
