MODEL 1
REMARK VINA RESULT:      -6.7      0.000      0.000
REMARK  3 active torsions:
REMARK  status: ('A' for Active; 'I' for Inactive)
REMARK    1  A    between atoms: N_7  and  C_8 
REMARK    2  A    between atoms: C_8  and  C_9 
REMARK       I    between atoms: C_9  and  N_11 
REMARK    3  A    between atoms: N_11  and  C_12 
ROOT
HETATM    1  C   UNL     1     -41.651 -49.847  12.892  1.00  0.00     0.236 C 
HETATM    2  O   UNL     1     -40.974 -49.478  13.852  1.00  0.00    -0.272 OA
HETATM    3  N   UNL     1     -42.792 -50.621  13.034  1.00  0.00    -0.355 N 
HETATM    4  H   UNL     1     -43.359 -50.815  12.217  1.00  0.00     0.162 HD
ENDROOT
BRANCH   3   5
HETATM    5  C   UNL     1     -43.208 -51.139  14.334  1.00  0.00     0.089 C 
HETATM    6  C   UNL     1     -42.925 -52.635  14.512  1.00  0.00     0.066 C 
HETATM    7  C   UNL     1     -44.048 -53.593  14.066  1.00  0.00     0.153 C 
HETATM    8  C   UNL     1     -44.053 -53.835  12.546  1.00  0.00     0.048 C 
HETATM    9  C   UNL     1     -43.779 -54.976  14.713  1.00  0.00     0.048 C 
HETATM   10  N   UNL     1     -45.358 -53.154  14.561  1.00  0.00     0.101 N 
HETATM   11  C   UNL     1     -45.745 -51.753  14.327  1.00  0.00     0.153 C 
HETATM   12  H   UNL     1     -45.407 -53.339  15.566  1.00  0.00     0.317 HD
HETATM   13  C   UNL     1     -46.199 -51.503  12.881  1.00  0.00     0.048 C 
HETATM   14  C   UNL     1     -46.987 -51.504  15.219  1.00  0.00     0.048 C 
HETATM   15  C   UNL     1     -44.638 -50.768  14.757  1.00  0.00     0.066 C 
ENDBRANCH   3   5
BRANCH   1  16
HETATM   16  C   UNL     1     -41.240 -49.541  11.444  1.00  0.00     0.235 C 
BRANCH  16  17
HETATM   17  N   UNL     1     -41.651 -48.194  11.034  1.00  0.00    -0.301 N 
HETATM   18  C   UNL     1     -42.933 -47.974  10.587  1.00  0.00     0.102 C 
HETATM   19  C   UNL     1     -43.345 -46.769  10.206  1.00  0.00     0.092 C 
HETATM   20  C   UNL     1     -42.402 -45.642  10.225  1.00  0.00     0.252 C 
HETATM   21  N   UNL     1     -41.102 -45.945  10.582  1.00  0.00    -0.271 N 
HETATM   22  O   UNL     1     -42.812 -44.521   9.924  1.00  0.00    -0.268 OA
HETATM   23  C   UNL     1     -40.098 -44.904  10.505  1.00  0.00     0.164 C 
HETATM   24  C   UNL     1     -40.691 -47.186  11.063  1.00  0.00     0.331 C 
HETATM   25  O   UNL     1     -39.550 -47.390  11.487  1.00  0.00    -0.246 OA
ENDBRANCH  16  17
ENDBRANCH   1  16
TORSDOF 3
ENDMDL
MODEL 2
REMARK VINA RESULT:      -6.6      3.848      5.287
REMARK  3 active torsions:
REMARK  status: ('A' for Active; 'I' for Inactive)
REMARK    1  A    between atoms: N_7  and  C_8 
REMARK    2  A    between atoms: C_8  and  C_9 
REMARK       I    between atoms: C_9  and  N_11 
REMARK    3  A    between atoms: N_11  and  C_12 
ROOT
HETATM    1  C   UNL     1     -43.099 -54.827  15.306  1.00  0.00     0.236 C 
HETATM    2  O   UNL     1     -43.555 -55.959  15.143  1.00  0.00    -0.272 OA
HETATM    3  N   UNL     1     -43.900 -53.696  15.345  1.00  0.00    -0.355 N 
HETATM    4  H   UNL     1     -43.478 -52.805  15.575  1.00  0.00     0.162 HD
ENDROOT
BRANCH   3   5
HETATM    5  C   UNL     1     -45.336 -53.766  15.091  1.00  0.00     0.089 C 
HETATM    6  C   UNL     1     -45.722 -53.363  13.663  1.00  0.00     0.066 C 
HETATM    7  C   UNL     1     -46.022 -51.867  13.441  1.00  0.00     0.153 C 
HETATM    8  C   UNL     1     -44.747 -51.024  13.272  1.00  0.00     0.048 C 
HETATM    9  C   UNL     1     -46.800 -51.731  12.107  1.00  0.00     0.048 C 
HETATM   10  N   UNL     1     -46.903 -51.334  14.488  1.00  0.00     0.101 N 
HETATM   11  C   UNL     1     -46.533 -51.589  15.890  1.00  0.00     0.153 C 
HETATM   12  H   UNL     1     -47.849 -51.692  14.333  1.00  0.00     0.317 HD
HETATM   13  C   UNL     1     -45.395 -50.677  16.373  1.00  0.00     0.048 C 
HETATM   14  C   UNL     1     -47.778 -51.208  16.730  1.00  0.00     0.048 C 
HETATM   15  C   UNL     1     -46.219 -53.078  16.144  1.00  0.00     0.066 C 
ENDBRANCH   3   5
BRANCH   1  16
HETATM   16  C   UNL     1     -41.589 -54.567  15.401  1.00  0.00     0.235 C 
BRANCH  16  17
HETATM   17  N   UNL     1     -41.153 -53.537  14.452  1.00  0.00    -0.301 N 
HETATM   18  C   UNL     1     -41.303 -53.743  13.100  1.00  0.00     0.102 C 
HETATM   19  C   UNL     1     -40.921 -52.835  12.207  1.00  0.00     0.092 C 
HETATM   20  C   UNL     1     -40.287 -51.591  12.665  1.00  0.00     0.252 C 
HETATM   21  N   UNL     1     -40.066 -51.488  14.025  1.00  0.00    -0.271 N 
HETATM   22  O   UNL     1     -39.990 -50.735  11.831  1.00  0.00    -0.268 OA
HETATM   23  C   UNL     1     -39.338 -50.341  14.528  1.00  0.00     0.164 C 
HETATM   24  C   UNL     1     -40.543 -52.397  14.967  1.00  0.00     0.331 C 
HETATM   25  O   UNL     1     -40.433 -52.214  16.182  1.00  0.00    -0.246 OA
ENDBRANCH  16  17
ENDBRANCH   1  16
TORSDOF 3
ENDMDL
MODEL 3
REMARK VINA RESULT:      -6.0      4.550      7.483
REMARK  3 active torsions:
REMARK  status: ('A' for Active; 'I' for Inactive)
REMARK    1  A    between atoms: N_7  and  C_8 
REMARK    2  A    between atoms: C_8  and  C_9 
REMARK       I    between atoms: C_9  and  N_11 
REMARK    3  A    between atoms: N_11  and  C_12 
ROOT
HETATM    1  C   UNL     1     -45.069 -53.791  13.434  1.00  0.00     0.236 C 
HETATM    2  O   UNL     1     -45.377 -53.466  12.287  1.00  0.00    -0.272 OA
HETATM    3  N   UNL     1     -43.767 -53.732  13.905  1.00  0.00    -0.355 N 
HETATM    4  H   UNL     1     -43.589 -53.924  14.883  1.00  0.00     0.162 HD
ENDROOT
BRANCH   3   5
HETATM    5  C   UNL     1     -42.653 -53.375  13.031  1.00  0.00     0.089 C 
HETATM    6  C   UNL     1     -41.428 -54.281  13.205  1.00  0.00     0.066 C 
HETATM    7  C   UNL     1     -40.400 -53.832  14.262  1.00  0.00     0.153 C 
HETATM    8  C   UNL     1     -40.813 -54.215  15.693  1.00  0.00     0.048 C 
HETATM    9  C   UNL     1     -39.074 -54.587  13.987  1.00  0.00     0.048 C 
HETATM   10  N   UNL     1     -40.091 -52.401  14.139  1.00  0.00     0.101 N 
HETATM   11  C   UNL     1     -41.222 -51.460  14.078  1.00  0.00     0.153 C 
HETATM   12  H   UNL     1     -39.510 -52.262  13.309  1.00  0.00     0.317 HD
HETATM   13  C   UNL     1     -41.855 -51.213  15.455  1.00  0.00     0.048 C 
HETATM   14  C   UNL     1     -40.617 -50.105  13.631  1.00  0.00     0.048 C 
HETATM   15  C   UNL     1     -42.274 -51.886  13.033  1.00  0.00     0.066 C 
ENDBRANCH   3   5
BRANCH   1  16
HETATM   16  C   UNL     1     -46.098 -54.367  14.417  1.00  0.00     0.235 C 
BRANCH  16  17
HETATM   17  N   UNL     1     -46.415 -53.419  15.491  1.00  0.00    -0.301 N 
HETATM   18  C   UNL     1     -47.101 -52.262  15.204  1.00  0.00     0.102 C 
HETATM   19  C   UNL     1     -47.407 -51.377  16.148  1.00  0.00     0.092 C 
HETATM   20  C   UNL     1     -46.974 -51.615  17.532  1.00  0.00     0.252 C 
HETATM   21  N   UNL     1     -46.198 -52.739  17.739  1.00  0.00    -0.271 N 
HETATM   22  O   UNL     1     -47.313 -50.817  18.405  1.00  0.00    -0.268 OA
HETATM   23  C   UNL     1     -45.639 -52.967  19.056  1.00  0.00     0.164 C 
HETATM   24  C   UNL     1     -45.950 -53.710  16.771  1.00  0.00     0.331 C 
HETATM   25  O   UNL     1     -45.354 -54.761  17.020  1.00  0.00    -0.246 OA
ENDBRANCH  16  17
ENDBRANCH   1  16
TORSDOF 3
ENDMDL
MODEL 4
REMARK VINA RESULT:      -6.0      3.096      6.992
REMARK  3 active torsions:
REMARK  status: ('A' for Active; 'I' for Inactive)
REMARK    1  A    between atoms: N_7  and  C_8 
REMARK    2  A    between atoms: C_8  and  C_9 
REMARK       I    between atoms: C_9  and  N_11 
REMARK    3  A    between atoms: N_11  and  C_12 
ROOT
HETATM    1  C   UNL     1     -42.805 -52.966  12.583  1.00  0.00     0.236 C 
HETATM    2  O   UNL     1     -41.928 -53.639  13.126  1.00  0.00    -0.272 OA
HETATM    3  N   UNL     1     -42.592 -51.668  12.149  1.00  0.00    -0.355 N 
HETATM    4  H   UNL     1     -43.322 -51.199  11.627  1.00  0.00     0.162 HD
ENDROOT
BRANCH   3   5
HETATM    5  C   UNL     1     -41.332 -50.974  12.402  1.00  0.00     0.089 C 
HETATM    6  C   UNL     1     -41.132 -50.594  13.874  1.00  0.00     0.066 C 
HETATM    7  C   UNL     1     -41.673 -49.214  14.296  1.00  0.00     0.153 C 
HETATM    8  C   UNL     1     -43.188 -49.228  14.567  1.00  0.00     0.048 C 
HETATM    9  C   UNL     1     -41.006 -48.832  15.643  1.00  0.00     0.048 C 
HETATM   10  N   UNL     1     -41.292 -48.170  13.337  1.00  0.00     0.101 N 
HETATM   11  C   UNL     1     -41.558 -48.421  11.910  1.00  0.00     0.153 C 
HETATM   12  H   UNL     1     -40.296 -47.970  13.449  1.00  0.00     0.317 HD
HETATM   13  C   UNL     1     -43.038 -48.226  11.546  1.00  0.00     0.048 C 
HETATM   14  C   UNL     1     -40.776 -47.328  11.138  1.00  0.00     0.048 C 
HETATM   15  C   UNL     1     -41.034 -49.799  11.457  1.00  0.00     0.066 C 
ENDBRANCH   3   5
BRANCH   1  16
HETATM   16  C   UNL     1     -44.239 -53.489  12.414  1.00  0.00     0.235 C 
BRANCH  16  17
HETATM   17  N   UNL     1     -45.118 -53.026  13.493  1.00  0.00    -0.301 N 
HETATM   18  C   UNL     1     -45.808 -51.844  13.357  1.00  0.00     0.102 C 
HETATM   19  C   UNL     1     -46.614 -51.389  14.311  1.00  0.00     0.092 C 
HETATM   20  C   UNL     1     -46.752 -52.144  15.564  1.00  0.00     0.252 C 
HETATM   21  N   UNL     1     -45.954 -53.266  15.686  1.00  0.00    -0.271 N 
HETATM   22  O   UNL     1     -47.545 -51.742  16.415  1.00  0.00    -0.268 OA
HETATM   23  C   UNL     1     -45.954 -53.987  16.942  1.00  0.00     0.164 C 
HETATM   24  C   UNL     1     -45.176 -53.790  14.655  1.00  0.00     0.331 C 
HETATM   25  O   UNL     1     -44.570 -54.860  14.758  1.00  0.00    -0.246 OA
ENDBRANCH  16  17
ENDBRANCH   1  16
TORSDOF 3
ENDMDL
MODEL 5
REMARK VINA RESULT:      -5.8      2.822      4.505
REMARK  3 active torsions:
REMARK  status: ('A' for Active; 'I' for Inactive)
REMARK    1  A    between atoms: N_7  and  C_8 
REMARK    2  A    between atoms: C_8  and  C_9 
REMARK       I    between atoms: C_9  and  N_11 
REMARK    3  A    between atoms: N_11  and  C_12 
ROOT
HETATM    1  C   UNL     1     -42.697 -49.712  13.324  1.00  0.00     0.236 C 
HETATM    2  O   UNL     1     -43.246 -49.108  12.402  1.00  0.00    -0.272 OA
HETATM    3  N   UNL     1     -43.208 -50.883  13.861  1.00  0.00    -0.355 N 
HETATM    4  H   UNL     1     -42.665 -51.384  14.553  1.00  0.00     0.162 HD
ENDROOT
BRANCH   3   5
HETATM    5  C   UNL     1     -44.496 -51.423  13.433  1.00  0.00     0.089 C 
HETATM    6  C   UNL     1     -45.661 -51.009  14.340  1.00  0.00     0.066 C 
HETATM    7  C   UNL     1     -45.959 -51.947  15.526  1.00  0.00     0.153 C 
HETATM    8  C   UNL     1     -45.021 -51.710  16.722  1.00  0.00     0.048 C 
HETATM    9  C   UNL     1     -47.387 -51.627  16.039  1.00  0.00     0.048 C 
HETATM   10  N   UNL     1     -45.978 -53.355  15.108  1.00  0.00     0.101 N 
HETATM   11  C   UNL     1     -44.834 -53.852  14.325  1.00  0.00     0.153 C 
HETATM   12  H   UNL     1     -46.833 -53.527  14.574  1.00  0.00     0.317 HD
HETATM   13  C   UNL     1     -43.597 -54.119  15.197  1.00  0.00     0.048 C 
HETATM   14  C   UNL     1     -45.273 -55.228  13.765  1.00  0.00     0.048 C 
HETATM   15  C   UNL     1     -44.505 -52.930  13.133  1.00  0.00     0.066 C 
ENDBRANCH   3   5
BRANCH   1  16
HETATM   16  C   UNL     1     -41.434 -49.171  14.009  1.00  0.00     0.235 C 
BRANCH  16  17
HETATM   17  N   UNL     1     -40.237 -49.923  13.617  1.00  0.00    -0.301 N 
HETATM   18  C   UNL     1     -39.829 -51.003  14.365  1.00  0.00     0.102 C 
HETATM   19  C   UNL     1     -38.751 -51.711  14.044  1.00  0.00     0.092 C 
HETATM   20  C   UNL     1     -37.944 -51.314  12.881  1.00  0.00     0.252 C 
HETATM   21  N   UNL     1     -38.341 -50.161  12.234  1.00  0.00    -0.271 N 
HETATM   22  O   UNL     1     -36.981 -52.011  12.562  1.00  0.00    -0.268 OA
HETATM   23  C   UNL     1     -37.521 -49.649  11.155  1.00  0.00     0.164 C 
HETATM   24  C   UNL     1     -39.518 -49.469  12.515  1.00  0.00     0.331 C 
HETATM   25  O   UNL     1     -39.904 -48.512  11.839  1.00  0.00    -0.246 OA
ENDBRANCH  16  17
ENDBRANCH   1  16
TORSDOF 3
ENDMDL
MODEL 6
REMARK VINA RESULT:      -5.8      2.925      7.103
REMARK  3 active torsions:
REMARK  status: ('A' for Active; 'I' for Inactive)
REMARK    1  A    between atoms: N_7  and  C_8 
REMARK    2  A    between atoms: C_8  and  C_9 
REMARK       I    between atoms: C_9  and  N_11 
REMARK    3  A    between atoms: N_11  and  C_12 
ROOT
HETATM    1  C   UNL     1     -39.921 -52.178  13.563  1.00  0.00     0.236 C 
HETATM    2  O   UNL     1     -39.237 -52.185  14.587  1.00  0.00    -0.272 OA
HETATM    3  N   UNL     1     -40.254 -51.012  12.893  1.00  0.00    -0.355 N 
HETATM    4  H   UNL     1     -40.739 -51.076  12.007  1.00  0.00     0.162 HD
ENDROOT
BRANCH   3   5
HETATM    5  C   UNL     1     -39.898 -49.698  13.422  1.00  0.00     0.089 C 
HETATM    6  C   UNL     1     -40.922 -49.148  14.423  1.00  0.00     0.066 C 
HETATM    7  C   UNL     1     -42.066 -48.306  13.825  1.00  0.00     0.153 C 
HETATM    8  C   UNL     1     -43.195 -49.171  13.237  1.00  0.00     0.048 C 
HETATM    9  C   UNL     1     -42.712 -47.494  14.978  1.00  0.00     0.048 C 
HETATM   10  N   UNL     1     -41.563 -47.321  12.860  1.00  0.00     0.101 N 
HETATM   11  C   UNL     1     -40.661 -47.801  11.800  1.00  0.00     0.153 C 
HETATM   12  H   UNL     1     -41.091 -46.572  13.371  1.00  0.00     0.317 HD
HETATM   13  C   UNL     1     -41.411 -48.532  10.675  1.00  0.00     0.048 C 
HETATM   14  C   UNL     1     -40.052 -46.529  11.157  1.00  0.00     0.048 C 
HETATM   15  C   UNL     1     -39.506 -48.654  12.365  1.00  0.00     0.066 C 
ENDBRANCH   3   5
BRANCH   1  16
HETATM   16  C   UNL     1     -40.529 -53.465  12.986  1.00  0.00     0.235 C 
BRANCH  16  17
HETATM   17  N   UNL     1     -41.794 -53.812  13.642  1.00  0.00    -0.301 N 
HETATM   18  C   UNL     1     -41.792 -54.628  14.749  1.00  0.00     0.102 C 
HETATM   19  C   UNL     1     -42.916 -54.966  15.373  1.00  0.00     0.092 C 
HETATM   20  C   UNL     1     -44.204 -54.490  14.851  1.00  0.00     0.252 C 
HETATM   21  N   UNL     1     -44.152 -53.763  13.677  1.00  0.00    -0.271 N 
HETATM   22  O   UNL     1     -45.232 -54.763  15.471  1.00  0.00    -0.268 OA
HETATM   23  C   UNL     1     -45.394 -53.366  13.047  1.00  0.00     0.164 C 
HETATM   24  C   UNL     1     -42.972 -53.336  13.072  1.00  0.00     0.331 C 
HETATM   25  O   UNL     1     -42.961 -52.587  12.092  1.00  0.00    -0.246 OA
ENDBRANCH  16  17
ENDBRANCH   1  16
TORSDOF 3
ENDMDL
MODEL 7
REMARK VINA RESULT:      -5.6      1.732      2.992
REMARK  3 active torsions:
REMARK  status: ('A' for Active; 'I' for Inactive)
REMARK    1  A    between atoms: N_7  and  C_8 
REMARK    2  A    between atoms: C_8  and  C_9 
REMARK       I    between atoms: C_9  and  N_11 
REMARK    3  A    between atoms: N_11  and  C_12 
ROOT
HETATM    1  C   UNL     1     -41.005 -50.263  12.751  1.00  0.00     0.236 C 
HETATM    2  O   UNL     1     -40.721 -50.873  11.721  1.00  0.00    -0.272 OA
HETATM    3  N   UNL     1     -42.146 -50.532  13.490  1.00  0.00    -0.355 N 
HETATM    4  H   UNL     1     -42.279 -50.062  14.377  1.00  0.00     0.162 HD
ENDROOT
BRANCH   3   5
HETATM    5  C   UNL     1     -43.144 -51.496  13.034  1.00  0.00     0.089 C 
HETATM    6  C   UNL     1     -44.585 -51.066  13.332  1.00  0.00     0.066 C 
HETATM    7  C   UNL     1     -45.157 -51.516  14.691  1.00  0.00     0.153 C 
HETATM    8  C   UNL     1     -44.710 -50.612  15.852  1.00  0.00     0.048 C 
HETATM    9  C   UNL     1     -46.701 -51.388  14.624  1.00  0.00     0.048 C 
HETATM   10  N   UNL     1     -44.873 -52.933  14.952  1.00  0.00     0.101 N 
HETATM   11  C   UNL     1     -43.483 -53.393  14.792  1.00  0.00     0.153 C 
HETATM   12  H   UNL     1     -45.473 -53.503  14.352  1.00  0.00     0.317 HD
HETATM   13  C   UNL     1     -42.591 -52.988  15.975  1.00  0.00     0.048 C 
HETATM   14  C   UNL     1     -43.548 -54.942  14.810  1.00  0.00     0.048 C 
HETATM   15  C   UNL     1     -42.879 -52.953  13.443  1.00  0.00     0.066 C 
ENDBRANCH   3   5
BRANCH   1  16
HETATM   16  C   UNL     1     -40.153 -49.092  13.261  1.00  0.00     0.235 C 
BRANCH  16  17
HETATM   17  N   UNL     1     -40.521 -47.828  12.615  1.00  0.00    -0.301 N 
HETATM   18  C   UNL     1     -39.858 -47.418  11.481  1.00  0.00     0.102 C 
HETATM   19  C   UNL     1     -40.161 -46.280  10.864  1.00  0.00     0.092 C 
HETATM   20  C   UNL     1     -41.206 -45.410  11.423  1.00  0.00     0.252 C 
HETATM   21  N   UNL     1     -41.761 -45.821  12.619  1.00  0.00    -0.271 N 
HETATM   22  O   UNL     1     -41.516 -44.388  10.811  1.00  0.00    -0.268 OA
HETATM   23  C   UNL     1     -42.710 -44.951  13.283  1.00  0.00     0.164 C 
HETATM   24  C   UNL     1     -41.507 -47.053  13.219  1.00  0.00     0.331 C 
HETATM   25  O   UNL     1     -42.110 -47.440  14.224  1.00  0.00    -0.246 OA
ENDBRANCH  16  17
ENDBRANCH   1  16
TORSDOF 3
ENDMDL
MODEL 8
REMARK VINA RESULT:      -5.6      3.239      7.246
REMARK  3 active torsions:
REMARK  status: ('A' for Active; 'I' for Inactive)
REMARK    1  A    between atoms: N_7  and  C_8 
REMARK    2  A    between atoms: C_8  and  C_9 
REMARK       I    between atoms: C_9  and  N_11 
REMARK    3  A    between atoms: N_11  and  C_12 
ROOT
HETATM    1  C   UNL     1     -38.286 -48.641  13.050  1.00  0.00     0.236 C 
HETATM    2  O   UNL     1     -37.562 -48.426  14.022  1.00  0.00    -0.272 OA
HETATM    3  N   UNL     1     -39.292 -47.772  12.658  1.00  0.00    -0.355 N 
HETATM    4  H   UNL     1     -39.792 -47.957  11.797  1.00  0.00     0.162 HD
ENDROOT
BRANCH   3   5
HETATM    5  C   UNL     1     -39.627 -46.587  13.442  1.00  0.00     0.089 C 
HETATM    6  C   UNL     1     -41.018 -46.656  14.084  1.00  0.00     0.066 C 
HETATM    7  C   UNL     1     -42.181 -46.102  13.238  1.00  0.00     0.153 C 
HETATM    8  C   UNL     1     -42.682 -47.107  12.187  1.00  0.00     0.048 C 
HETATM    9  C   UNL     1     -43.381 -45.848  14.187  1.00  0.00     0.048 C 
HETATM   10  N   UNL     1     -41.844 -44.802  12.645  1.00  0.00     0.101 N 
HETATM   11  C   UNL     1     -40.570 -44.692  11.915  1.00  0.00     0.153 C 
HETATM   12  H   UNL     1     -41.856 -44.092  13.381  1.00  0.00     0.317 HD
HETATM   13  C   UNL     1     -40.638 -45.322  10.515  1.00  0.00     0.048 C 
HETATM   14  C   UNL     1     -40.339 -43.176  11.695  1.00  0.00     0.048 C 
HETATM   15  C   UNL     1     -39.385 -45.245  12.733  1.00  0.00     0.066 C 
ENDBRANCH   3   5
BRANCH   1  16
HETATM   16  C   UNL     1     -38.182 -49.937  12.233  1.00  0.00     0.235 C 
BRANCH  16  17
HETATM   17  N   UNL     1     -39.004 -51.009  12.806  1.00  0.00    -0.301 N 
HETATM   18  C   UNL     1     -38.465 -51.860  13.744  1.00  0.00     0.102 C 
HETATM   19  C   UNL     1     -39.176 -52.843  14.287  1.00  0.00     0.092 C 
HETATM   20  C   UNL     1     -40.564 -53.059  13.854  1.00  0.00     0.252 C 
HETATM   21  N   UNL     1     -41.014 -52.243  12.834  1.00  0.00    -0.271 N 
HETATM   22  O   UNL     1     -41.227 -53.936  14.405  1.00  0.00    -0.268 OA
HETATM   23  C   UNL     1     -42.330 -52.482  12.279  1.00  0.00     0.164 C 
HETATM   24  C   UNL     1     -40.302 -51.158  12.326  1.00  0.00     0.331 C 
HETATM   25  O   UNL     1     -40.781 -50.376  11.500  1.00  0.00    -0.246 OA
ENDBRANCH  16  17
ENDBRANCH   1  16
TORSDOF 3
ENDMDL
MODEL 9
REMARK VINA RESULT:      -5.6      1.927      3.251
REMARK  3 active torsions:
REMARK  status: ('A' for Active; 'I' for Inactive)
REMARK    1  A    between atoms: N_7  and  C_8 
REMARK    2  A    between atoms: C_8  and  C_9 
REMARK       I    between atoms: C_9  and  N_11 
REMARK    3  A    between atoms: N_11  and  C_12 
ROOT
HETATM    1  C   UNL     1     -42.135 -50.156  12.142  1.00  0.00     0.236 C 
HETATM    2  O   UNL     1     -41.072 -50.420  11.581  1.00  0.00    -0.272 OA
HETATM    3  N   UNL     1     -42.968 -51.132  12.667  1.00  0.00    -0.355 N 
HETATM    4  H   UNL     1     -43.782 -50.849  13.198  1.00  0.00     0.162 HD
ENDROOT
BRANCH   3   5
HETATM    5  C   UNL     1     -42.684 -52.554  12.494  1.00  0.00     0.089 C 
HETATM    6  C   UNL     1     -43.939 -53.433  12.529  1.00  0.00     0.066 C 
HETATM    7  C   UNL     1     -44.359 -53.956  13.917  1.00  0.00     0.153 C 
HETATM    8  C   UNL     1     -45.140 -52.912  14.733  1.00  0.00     0.048 C 
HETATM    9  C   UNL     1     -45.334 -55.143  13.704  1.00  0.00     0.048 C 
HETATM   10  N   UNL     1     -43.212 -54.494  14.659  1.00  0.00     0.101 N 
HETATM   11  C   UNL     1     -42.007 -53.654  14.761  1.00  0.00     0.153 C 
HETATM   12  H   UNL     1     -42.947 -55.391  14.246  1.00  0.00     0.317 HD
HETATM   13  C   UNL     1     -42.161 -52.530  15.797  1.00  0.00     0.048 C 
HETATM   14  C   UNL     1     -40.889 -54.585  15.295  1.00  0.00     0.048 C 
HETATM   15  C   UNL     1     -41.564 -53.109  13.388  1.00  0.00     0.066 C 
ENDBRANCH   3   5
BRANCH   1  16
HETATM   16  C   UNL     1     -42.666 -48.718  12.238  1.00  0.00     0.235 C 
BRANCH  16  17
HETATM   17  N   UNL     1     -41.596 -47.762  12.547  1.00  0.00    -0.301 N 
HETATM   18  C   UNL     1     -41.120 -47.657  13.834  1.00  0.00     0.102 C 
HETATM   19  C   UNL     1     -40.153 -46.805  14.155  1.00  0.00     0.092 C 
HETATM   20  C   UNL     1     -39.595 -45.920  13.123  1.00  0.00     0.252 C 
HETATM   21  N   UNL     1     -40.185 -45.995  11.876  1.00  0.00    -0.271 N 
HETATM   22  O   UNL     1     -38.661 -45.175  13.421  1.00  0.00    -0.268 OA
HETATM   23  C   UNL     1     -39.763 -45.067  10.848  1.00  0.00     0.164 C 
HETATM   24  C   UNL     1     -41.138 -46.947  11.516  1.00  0.00     0.331 C 
HETATM   25  O   UNL     1     -41.556 -47.065  10.362  1.00  0.00    -0.246 OA
ENDBRANCH  16  17
ENDBRANCH   1  16
TORSDOF 3
ENDMDL
