MODEL 1
REMARK VINA RESULT:      -5.7      0.000      0.000
REMARK  4 active torsions:
REMARK  status: ('A' for Active; 'I' for Inactive)
REMARK    1  A    between atoms: S_2  and  N_5 
REMARK    2  A    between atoms: N_5  and  C_6 
REMARK    3  A    between atoms: C_6  and  C_7 
REMARK    4  A    between atoms: C_7  and  C_8 
ROOT
HETATM    1  C   UNL     1     -40.304 -48.804  11.610  1.00  0.00     0.019 A 
HETATM    2  C   UNL     1     -39.001 -49.060  11.979  1.00  0.00     0.078 A 
HETATM    3  S   UNL     1     -38.853 -50.667  12.528  1.00  0.00    -0.064 SA
HETATM    4  C   UNL     1     -40.548 -50.934  12.254  1.00  0.00     0.146 A 
HETATM    5  N   UNL     1     -41.169 -49.880  11.768  1.00  0.00    -0.340 N 
ATOM      6  HN  UNL     1     -42.163 -49.856  11.536  1.00  0.00     0.168 HD
HETATM    7  N   UNL     1     -41.151 -52.111  12.549  1.00  0.00    -0.361 N 
HETATM    8  C   UNL     1     -40.475 -53.290  13.056  1.00  0.00     0.125 C 
HETATM    9  C   UNL     1     -41.594 -54.288  13.357  1.00  0.00     0.021 C 
HETATM   10  C   UNL     1     -42.875 -53.467  13.316  1.00  0.00     0.021 C 
HETATM   11  C   UNL     1     -42.563 -52.350  12.324  1.00  0.00     0.125 C 
ENDROOT
BRANCH   1  12
HETATM   12  C   UNL     1     -40.836 -47.504  11.099  1.00  0.00     0.073 C 
BRANCH  12  13
HETATM   13  C   UNL     1     -42.317 -47.610  10.739  1.00  0.00     0.110 C 
BRANCH  13  14
HETATM   14  N   UNL     1     -42.484 -48.148   9.368  1.00  0.00    -0.220 NA
HETATM   15  H   UNL     1     -41.615 -48.251   8.837  1.00  0.00     0.139 HD
BRANCH  14  16
HETATM   16  S   UNL     1     -43.622 -47.376   8.392  1.00  0.00     0.205 S 
HETATM   17  C   UNL     1     -45.094 -47.425   9.399  1.00  0.00     0.179 C 
HETATM   18  O   UNL     1     -43.811 -48.236   7.245  1.00  0.00    -0.212 OA
HETATM   19  O   UNL     1     -43.199 -46.002   8.239  1.00  0.00    -0.212 OA
ENDBRANCH  14  16
ENDBRANCH  13  14
ENDBRANCH  12  13
ENDBRANCH   1  12
TORSDOF 4
ENDMDL
MODEL 2
REMARK VINA RESULT:      -5.6      1.796      2.280
REMARK  4 active torsions:
REMARK  status: ('A' for Active; 'I' for Inactive)
REMARK    1  A    between atoms: S_2  and  N_5 
REMARK    2  A    between atoms: N_5  and  C_6 
REMARK    3  A    between atoms: C_6  and  C_7 
REMARK    4  A    between atoms: C_7  and  C_8 
ROOT
HETATM    1  C   UNL     1     -41.841 -50.084  12.087  1.00  0.00     0.019 A 
HETATM    2  C   UNL     1     -40.782 -50.965  12.055  1.00  0.00     0.078 A 
HETATM    3  S   UNL     1     -41.323 -52.545  12.394  1.00  0.00    -0.064 SA
HETATM    4  C   UNL     1     -42.951 -51.965  12.577  1.00  0.00     0.146 A 
HETATM    5  N   UNL     1     -43.067 -50.668  12.380  1.00  0.00    -0.340 N 
ATOM      6  HN  UNL     1     -43.948 -50.156  12.436  1.00  0.00     0.168 HD
HETATM    7  N   UNL     1     -43.975 -52.783  12.921  1.00  0.00    -0.361 N 
HETATM    8  C   UNL     1     -43.869 -54.217  13.111  1.00  0.00     0.125 C 
HETATM    9  C   UNL     1     -45.244 -54.652  13.619  1.00  0.00     0.021 C 
HETATM   10  C   UNL     1     -45.946 -53.358  14.010  1.00  0.00     0.021 C 
HETATM   11  C   UNL     1     -45.339 -52.315  13.075  1.00  0.00     0.125 C 
ENDROOT
BRANCH   1  12
HETATM   12  C   UNL     1     -41.767 -48.608  11.863  1.00  0.00     0.073 C 
BRANCH  12  13
HETATM   13  C   UNL     1     -42.914 -48.118  10.980  1.00  0.00     0.110 C 
BRANCH  13  14
HETATM   14  N   UNL     1     -42.501 -48.091   9.557  1.00  0.00    -0.220 NA
HETATM   15  H   UNL     1     -41.554 -47.742   9.390  1.00  0.00     0.139 HD
BRANCH  14  16
HETATM   16  S   UNL     1     -43.554 -47.324   8.485  1.00  0.00     0.205 S 
HETATM   17  C   UNL     1     -45.108 -47.385   9.357  1.00  0.00     0.179 C 
HETATM   18  O   UNL     1     -43.635 -48.183   7.325  1.00  0.00    -0.212 OA
HETATM   19  O   UNL     1     -43.128 -45.947   8.373  1.00  0.00    -0.212 OA
ENDBRANCH  14  16
ENDBRANCH  13  14
ENDBRANCH  12  13
ENDBRANCH   1  12
TORSDOF 4
ENDMDL
MODEL 3
REMARK VINA RESULT:      -5.4      2.866      3.313
REMARK  4 active torsions:
REMARK  status: ('A' for Active; 'I' for Inactive)
REMARK    1  A    between atoms: S_2  and  N_5 
REMARK    2  A    between atoms: N_5  and  C_6 
REMARK    3  A    between atoms: C_6  and  C_7 
REMARK    4  A    between atoms: C_7  and  C_8 
ROOT
HETATM    1  C   UNL     1     -41.918 -49.173  12.321  1.00  0.00     0.019 A 
HETATM    2  C   UNL     1     -41.456 -48.663  13.514  1.00  0.00     0.078 A 
HETATM    3  S   UNL     1     -42.455 -49.174  14.797  1.00  0.00    -0.064 SA
HETATM    4  C   UNL     1     -43.466 -50.045  13.684  1.00  0.00     0.146 A 
HETATM    5  N   UNL     1     -43.058 -49.960  12.434  1.00  0.00    -0.340 N 
ATOM      6  HN  UNL     1     -43.522 -50.415  11.647  1.00  0.00     0.168 HD
HETATM    7  N   UNL     1     -44.575 -50.712  14.084  1.00  0.00    -0.361 N 
HETATM    8  C   UNL     1     -45.019 -50.841  15.459  1.00  0.00     0.125 C 
HETATM    9  C   UNL     1     -46.371 -51.551  15.373  1.00  0.00     0.021 C 
HETATM   10  C   UNL     1     -46.764 -51.473  13.903  1.00  0.00     0.021 C 
HETATM   11  C   UNL     1     -45.426 -51.446  13.168  1.00  0.00     0.125 C 
ENDROOT
BRANCH   1  12
HETATM   12  C   UNL     1     -41.326 -48.932  10.970  1.00  0.00     0.073 C 
BRANCH  12  13
HETATM   13  C   UNL     1     -41.914 -47.683  10.316  1.00  0.00     0.110 C 
BRANCH  13  14
HETATM   14  N   UNL     1     -43.378 -47.829  10.135  1.00  0.00    -0.220 NA
HETATM   15  H   UNL     1     -43.721 -48.792  10.163  1.00  0.00     0.139 HD
BRANCH  14  16
HETATM   16  S   UNL     1     -44.049 -47.058   8.793  1.00  0.00     0.205 S 
HETATM   17  C   UNL     1     -43.457 -48.055   7.437  1.00  0.00     0.179 C 
HETATM   18  O   UNL     1     -43.419 -45.758   8.726  1.00  0.00    -0.212 OA
HETATM   19  O   UNL     1     -45.485 -47.194   8.889  1.00  0.00    -0.212 OA
ENDBRANCH  14  16
ENDBRANCH  13  14
ENDBRANCH  12  13
ENDBRANCH   1  12
TORSDOF 4
ENDMDL
MODEL 4
REMARK VINA RESULT:      -5.4      3.450      5.854
REMARK  4 active torsions:
REMARK  status: ('A' for Active; 'I' for Inactive)
REMARK    1  A    between atoms: S_2  and  N_5 
REMARK    2  A    between atoms: N_5  and  C_6 
REMARK    3  A    between atoms: C_6  and  C_7 
REMARK    4  A    between atoms: C_7  and  C_8 
ROOT
HETATM    1  C   UNL     1     -40.797 -51.314  12.031  1.00  0.00     0.019 A 
HETATM    2  C   UNL     1     -39.503 -50.898  12.256  1.00  0.00     0.078 A 
HETATM    3  S   UNL     1     -39.353 -49.236  11.909  1.00  0.00    -0.064 SA
HETATM    4  C   UNL     1     -41.031 -49.162  11.463  1.00  0.00     0.146 A 
HETATM    5  N   UNL     1     -41.654 -50.316  11.585  1.00  0.00    -0.340 N 
ATOM      6  HN  UNL     1     -42.643 -50.458  11.378  1.00  0.00     0.168 HD
HETATM    7  N   UNL     1     -41.608 -48.023  11.007  1.00  0.00    -0.361 N 
HETATM    8  C   UNL     1     -40.943 -46.739  10.897  1.00  0.00     0.125 C 
HETATM    9  C   UNL     1     -41.960 -45.825  10.210  1.00  0.00     0.021 C 
HETATM   10  C   UNL     1     -43.028 -46.765   9.666  1.00  0.00     0.021 C 
HETATM   11  C   UNL     1     -43.006 -47.944  10.634  1.00  0.00     0.125 C 
ENDROOT
BRANCH   1  12
HETATM   12  C   UNL     1     -41.317 -52.706  12.199  1.00  0.00     0.073 C 
BRANCH  12  13
HETATM   13  C   UNL     1     -42.609 -52.724  13.015  1.00  0.00     0.110 C 
BRANCH  13  14
HETATM   14  N   UNL     1     -43.790 -52.606  12.127  1.00  0.00    -0.220 NA
HETATM   15  H   UNL     1     -43.944 -51.672  11.739  1.00  0.00     0.139 HD
BRANCH  14  16
HETATM   16  S   UNL     1     -45.251 -53.181  12.741  1.00  0.00     0.205 S 
HETATM   17  C   UNL     1     -45.304 -52.448  14.367  1.00  0.00     0.179 C 
HETATM   18  O   UNL     1     -45.089 -54.611  12.879  1.00  0.00    -0.212 OA
HETATM   19  O   UNL     1     -46.311 -52.619  11.935  1.00  0.00    -0.212 OA
ENDBRANCH  14  16
ENDBRANCH  13  14
ENDBRANCH  12  13
ENDBRANCH   1  12
TORSDOF 4
ENDMDL
MODEL 5
REMARK VINA RESULT:      -5.1      3.348      4.157
REMARK  4 active torsions:
REMARK  status: ('A' for Active; 'I' for Inactive)
REMARK    1  A    between atoms: S_2  and  N_5 
REMARK    2  A    between atoms: N_5  and  C_6 
REMARK    3  A    between atoms: C_6  and  C_7 
REMARK    4  A    between atoms: C_7  and  C_8 
ROOT
HETATM    1  C   UNL     1     -42.196 -48.287  10.777  1.00  0.00     0.019 A 
HETATM    2  C   UNL     1     -42.914 -48.590  11.914  1.00  0.00     0.078 A 
HETATM    3  S   UNL     1     -41.899 -49.320  13.071  1.00  0.00    -0.064 SA
HETATM    4  C   UNL     1     -40.549 -49.205  11.984  1.00  0.00     0.146 A 
HETATM    5  N   UNL     1     -40.853 -48.639  10.834  1.00  0.00    -0.340 N 
ATOM      6  HN  UNL     1     -40.185 -48.479  10.080  1.00  0.00     0.168 HD
HETATM    7  N   UNL     1     -39.322 -49.686  12.301  1.00  0.00    -0.361 N 
HETATM    8  C   UNL     1     -38.965 -50.283  13.574  1.00  0.00     0.125 C 
HETATM    9  C   UNL     1     -37.533 -50.786  13.386  1.00  0.00     0.021 C 
HETATM   10  C   UNL     1     -37.293 -50.737  11.883  1.00  0.00     0.021 C 
HETATM   11  C   UNL     1     -38.185 -49.595  11.407  1.00  0.00     0.125 C 
ENDROOT
BRANCH   1  12
HETATM   12  C   UNL     1     -42.737 -47.661   9.532  1.00  0.00     0.073 C 
BRANCH  12  13
HETATM   13  C   UNL     1     -42.759 -46.137   9.638  1.00  0.00     0.110 C 
BRANCH  13  14
HETATM   14  N   UNL     1     -41.392 -45.609   9.865  1.00  0.00    -0.220 NA
HETATM   15  H   UNL     1     -40.636 -46.244   9.597  1.00  0.00     0.139 HD
BRANCH  14  16
HETATM   16  S   UNL     1     -41.067 -45.006  11.406  1.00  0.00     0.205 S 
HETATM   17  C   UNL     1     -40.516 -43.344  11.064  1.00  0.00     0.179 C 
HETATM   18  O   UNL     1     -39.948 -45.774  11.905  1.00  0.00    -0.212 OA
HETATM   19  O   UNL     1     -42.321 -44.951  12.122  1.00  0.00    -0.212 OA
ENDBRANCH  14  16
ENDBRANCH  13  14
ENDBRANCH  12  13
ENDBRANCH   1  12
TORSDOF 4
ENDMDL
MODEL 6
REMARK VINA RESULT:      -5.0      4.738      6.233
REMARK  4 active torsions:
REMARK  status: ('A' for Active; 'I' for Inactive)
REMARK    1  A    between atoms: S_2  and  N_5 
REMARK    2  A    between atoms: N_5  and  C_6 
REMARK    3  A    between atoms: C_6  and  C_7 
REMARK    4  A    between atoms: C_7  and  C_8 
ROOT
HETATM    1  C   UNL     1     -41.889 -53.278  12.971  1.00  0.00     0.019 A 
HETATM    2  C   UNL     1     -41.672 -54.304  13.864  1.00  0.00     0.078 A 
HETATM    3  S   UNL     1     -43.057 -54.548  14.826  1.00  0.00    -0.064 SA
HETATM    4  C   UNL     1     -43.876 -53.255  14.003  1.00  0.00     0.146 A 
HETATM    5  N   UNL     1     -43.147 -52.694  13.059  1.00  0.00    -0.340 N 
ATOM      6  HN  UNL     1     -43.467 -51.928  12.467  1.00  0.00     0.168 HD
HETATM    7  N   UNL     1     -45.127 -52.861  14.340  1.00  0.00    -0.361 N 
HETATM    8  C   UNL     1     -45.952 -53.487  15.356  1.00  0.00     0.125 C 
HETATM    9  C   UNL     1     -47.197 -52.603  15.454  1.00  0.00     0.021 C 
HETATM   10  C   UNL     1     -46.831 -51.324  14.712  1.00  0.00     0.021 C 
HETATM   11  C   UNL     1     -45.824 -51.786  13.662  1.00  0.00     0.125 C 
ENDROOT
BRANCH   1  12
HETATM   12  C   UNL     1     -40.906 -52.752  11.975  1.00  0.00     0.073 C 
BRANCH  12  13
HETATM   13  C   UNL     1     -40.209 -51.493  12.489  1.00  0.00     0.110 C 
BRANCH  13  14
HETATM   14  N   UNL     1     -39.003 -51.848  13.274  1.00  0.00    -0.220 NA
HETATM   15  H   UNL     1     -39.141 -51.875  14.287  1.00  0.00     0.139 HD
BRANCH  14  16
HETATM   16  S   UNL     1     -37.607 -50.960  12.946  1.00  0.00     0.205 S 
HETATM   17  C   UNL     1     -38.223 -49.629  11.931  1.00  0.00     0.179 C 
HETATM   18  O   UNL     1     -36.771 -51.817  12.135  1.00  0.00    -0.212 OA
HETATM   19  O   UNL     1     -37.134 -50.418  14.200  1.00  0.00    -0.212 OA
ENDBRANCH  14  16
ENDBRANCH  13  14
ENDBRANCH  12  13
ENDBRANCH   1  12
TORSDOF 4
ENDMDL
MODEL 7
REMARK VINA RESULT:      -4.9      2.626      3.448
REMARK  4 active torsions:
REMARK  status: ('A' for Active; 'I' for Inactive)
REMARK    1  A    between atoms: S_2  and  N_5 
REMARK    2  A    between atoms: N_5  and  C_6 
REMARK    3  A    between atoms: C_6  and  C_7 
REMARK    4  A    between atoms: C_7  and  C_8 
ROOT
HETATM    1  C   UNL     1     -42.084 -50.062  12.186  1.00  0.00     0.019 A 
HETATM    2  C   UNL     1     -41.000 -50.907  12.097  1.00  0.00     0.078 A 
HETATM    3  S   UNL     1     -41.479 -52.511  12.416  1.00  0.00    -0.064 SA
HETATM    4  C   UNL     1     -43.117 -51.989  12.669  1.00  0.00     0.146 A 
HETATM    5  N   UNL     1     -43.281 -50.692  12.508  1.00  0.00    -0.340 N 
ATOM      6  HN  UNL     1     -44.175 -50.211  12.606  1.00  0.00     0.168 HD
HETATM    7  N   UNL     1     -44.102 -52.848  13.028  1.00  0.00    -0.361 N 
HETATM    8  C   UNL     1     -43.943 -54.281  13.181  1.00  0.00     0.125 C 
HETATM    9  C   UNL     1     -45.286 -54.772  13.725  1.00  0.00     0.021 C 
HETATM   10  C   UNL     1     -46.014 -53.510  14.170  1.00  0.00     0.021 C 
HETATM   11  C   UNL     1     -45.473 -52.428  13.241  1.00  0.00     0.125 C 
ENDROOT
BRANCH   1  12
HETATM   12  C   UNL     1     -42.065 -48.580  11.995  1.00  0.00     0.073 C 
BRANCH  12  13
HETATM   13  C   UNL     1     -41.604 -48.203  10.589  1.00  0.00     0.110 C 
BRANCH  13  14
HETATM   14  N   UNL     1     -40.484 -47.234  10.649  1.00  0.00    -0.220 NA
HETATM   15  H   UNL     1     -39.810 -47.401  11.400  1.00  0.00     0.139 HD
BRANCH  14  16
HETATM   16  S   UNL     1     -40.905 -45.601  10.659  1.00  0.00     0.205 S 
HETATM   17  C   UNL     1     -39.461 -44.823   9.958  1.00  0.00     0.179 C 
HETATM   18  O   UNL     1     -41.008 -45.225  12.052  1.00  0.00    -0.212 OA
HETATM   19  O   UNL     1     -42.019 -45.436   9.752  1.00  0.00    -0.212 OA
ENDBRANCH  14  16
ENDBRANCH  13  14
ENDBRANCH  12  13
ENDBRANCH   1  12
TORSDOF 4
ENDMDL
MODEL 8
REMARK VINA RESULT:      -4.9      3.734      5.894
REMARK  4 active torsions:
REMARK  status: ('A' for Active; 'I' for Inactive)
REMARK    1  A    between atoms: S_2  and  N_5 
REMARK    2  A    between atoms: N_5  and  C_6 
REMARK    3  A    between atoms: C_6  and  C_7 
REMARK    4  A    between atoms: C_7  and  C_8 
ROOT
HETATM    1  C   UNL     1     -41.731 -54.174  14.444  1.00  0.00     0.019 A 
HETATM    2  C   UNL     1     -41.748 -54.682  15.725  1.00  0.00     0.078 A 
HETATM    3  S   UNL     1     -43.258 -54.381  16.455  1.00  0.00    -0.064 SA
HETATM    4  C   UNL     1     -43.810 -53.573  15.019  1.00  0.00     0.146 A 
HETATM    5  N   UNL     1     -42.911 -53.551  14.056  1.00  0.00    -0.340 N 
ATOM      6  HN  UNL     1     -43.063 -53.128  13.140  1.00  0.00     0.168 HD
HETATM    7  N   UNL     1     -45.036 -53.003  14.936  1.00  0.00    -0.361 N 
HETATM    8  C   UNL     1     -46.047 -53.045  15.975  1.00  0.00     0.125 C 
HETATM    9  C   UNL     1     -47.178 -52.152  15.463  1.00  0.00     0.021 C 
HETATM   10  C   UNL     1     -46.573 -51.381  14.297  1.00  0.00     0.021 C 
HETATM   11  C   UNL     1     -45.512 -52.328  13.744  1.00  0.00     0.125 C 
ENDROOT
BRANCH   1  12
HETATM   12  C   UNL     1     -40.579 -54.219  13.493  1.00  0.00     0.073 C 
BRANCH  12  13
HETATM   13  C   UNL     1     -39.828 -52.890  13.462  1.00  0.00     0.110 C 
BRANCH  13  14
HETATM   14  N   UNL     1     -40.017 -52.213  12.157  1.00  0.00    -0.220 NA
HETATM   15  H   UNL     1     -39.158 -52.061  11.622  1.00  0.00     0.139 HD
BRANCH  14  16
HETATM   16  S   UNL     1     -40.898 -50.775  12.178  1.00  0.00     0.205 S 
HETATM   17  C   UNL     1     -40.329 -49.994  13.678  1.00  0.00     0.179 C 
HETATM   18  O   UNL     1     -42.281 -51.158  12.347  1.00  0.00    -0.212 OA
HETATM   19  O   UNL     1     -40.469 -49.988  11.044  1.00  0.00    -0.212 OA
ENDBRANCH  14  16
ENDBRANCH  13  14
ENDBRANCH  12  13
ENDBRANCH   1  12
TORSDOF 4
ENDMDL
MODEL 9
REMARK VINA RESULT:      -4.7      4.310      6.155
REMARK  4 active torsions:
REMARK  status: ('A' for Active; 'I' for Inactive)
REMARK    1  A    between atoms: S_2  and  N_5 
REMARK    2  A    between atoms: N_5  and  C_6 
REMARK    3  A    between atoms: C_6  and  C_7 
REMARK    4  A    between atoms: C_7  and  C_8 
ROOT
HETATM    1  C   UNL     1     -42.026 -53.147  12.911  1.00  0.00     0.019 A 
HETATM    2  C   UNL     1     -43.362 -53.464  13.017  1.00  0.00     0.078 A 
HETATM    3  S   UNL     1     -43.618 -54.477  14.364  1.00  0.00    -0.064 SA
HETATM    4  C   UNL     1     -41.920 -54.448  14.730  1.00  0.00     0.146 A 
HETATM    5  N   UNL     1     -41.220 -53.709  13.893  1.00  0.00    -0.340 N 
ATOM      6  HN  UNL     1     -40.211 -53.568  13.959  1.00  0.00     0.168 HD
HETATM    7  N   UNL     1     -41.390 -55.150  15.760  1.00  0.00    -0.361 N 
HETATM    8  C   UNL     1     -42.150 -55.942  16.707  1.00  0.00     0.125 C 
HETATM    9  C   UNL     1     -41.100 -56.638  17.575  1.00  0.00     0.021 C 
HETATM   10  C   UNL     1     -39.786 -56.450  16.828  1.00  0.00     0.021 C 
HETATM   11  C   UNL     1     -39.975 -55.133  16.079  1.00  0.00     0.125 C 
ENDROOT
BRANCH   1  12
HETATM   12  C   UNL     1     -41.403 -52.300  11.848  1.00  0.00     0.073 C 
BRANCH  12  13
HETATM   13  C   UNL     1     -40.501 -51.223  12.449  1.00  0.00     0.110 C 
BRANCH  13  14
HETATM   14  N   UNL     1     -39.201 -51.801  12.863  1.00  0.00    -0.220 NA
HETATM   15  H   UNL     1     -39.176 -52.163  13.819  1.00  0.00     0.139 HD
BRANCH  14  16
HETATM   16  S   UNL     1     -37.839 -50.837  12.617  1.00  0.00     0.205 S 
HETATM   17  C   UNL     1     -37.492 -50.230  14.258  1.00  0.00     0.179 C 
HETATM   18  O   UNL     1     -38.277 -49.733  11.793  1.00  0.00    -0.212 OA
HETATM   19  O   UNL     1     -36.763 -51.707  12.198  1.00  0.00    -0.212 OA
ENDBRANCH  14  16
ENDBRANCH  13  14
ENDBRANCH  12  13
ENDBRANCH   1  12
TORSDOF 4
ENDMDL
