MODEL 1
REMARK VINA RESULT:      -6.4      0.000      0.000
REMARK  5 active torsions:
REMARK  status: ('A' for Active; 'I' for Inactive)
REMARK    1  A    between atoms: O_1  and  C_2 
REMARK    2  A    between atoms: C_2  and  C_4 
REMARK    3  A    between atoms: C_4  and  C_5 
REMARK    4  A    between atoms: C_8  and  N_9 
REMARK       I    between atoms: N_9  and  C_10 
REMARK       I    between atoms: C_10  and  N_12 
REMARK    5  A    between atoms: N_12  and  C_13 
ROOT
HETATM    1  C   UNL     1     -41.220 -49.760  11.799  1.00  0.00     0.027 A 
HETATM    2  C   UNL     1     -41.965 -49.159  12.799  1.00  0.00     0.078 A 
HETATM    3  S   UNL     1     -42.708 -47.722  12.203  1.00  0.00    -0.064 SA
HETATM    4  C   UNL     1     -41.914 -47.957  10.721  1.00  0.00     0.152 A 
HETATM    5  N   UNL     1     -41.193 -49.048  10.611  1.00  0.00    -0.339 N 
ATOM      6  HN  UNL     1     -40.686 -49.331   9.772  1.00  0.00     0.168 HD
ENDROOT
BRANCH   4   7
HETATM    7  N   UNL     1     -42.075 -46.995   9.767  1.00  0.00    -0.289 N 
HETATM    8  C   UNL     1     -43.220 -46.818   9.033  1.00  0.00     0.322 C 
HETATM    9  O   UNL     1     -43.297 -45.882   8.240  1.00  0.00    -0.247 OA
HETATM   10  N   UNL     1     -44.206 -47.752   9.214  1.00  0.00    -0.338 N 
HETATM   11  H   UNL     1     -44.004 -48.501   9.864  1.00  0.00     0.164 HD
HETATM   12  H   UNL     1     -41.305 -46.380   9.551  1.00  0.00     0.172 HD
BRANCH  10  13
HETATM   13  C   UNL     1     -45.451 -47.806   8.528  1.00  0.00     0.086 A 
HETATM   14  C   UNL     1     -46.637 -47.061   9.075  1.00  0.00     0.027 A 
HETATM   15  C   UNL     1     -46.600 -48.557   9.151  1.00  0.00     0.027 A 
ENDBRANCH  10  13
ENDBRANCH   4   7
BRANCH   1  16
HETATM   16  C   UNL     1     -40.444 -51.037  11.880  1.00  0.00     0.167 C 
BRANCH  16  17
HETATM   17  C   UNL     1     -41.251 -52.319  11.794  1.00  0.00     0.145 C 
HETATM   18  O   UNL     1     -42.451 -52.340  12.053  1.00  0.00    -0.650 OA
BRANCH  17  19
HETATM   19  O   UNL     1     -40.604 -53.448  11.438  1.00  0.00    -0.776 OA
HETATM   20  H   UNL     1     -40.662 -53.639  10.474  1.00  0.00     0.167 HD
ENDBRANCH  17  19
ENDBRANCH  16  17
ENDBRANCH   1  16
TORSDOF 5
ENDMDL
MODEL 2
REMARK VINA RESULT:      -5.9      2.022      5.322
REMARK  5 active torsions:
REMARK  status: ('A' for Active; 'I' for Inactive)
REMARK    1  A    between atoms: O_1  and  C_2 
REMARK    2  A    between atoms: C_2  and  C_4 
REMARK    3  A    between atoms: C_4  and  C_5 
REMARK    4  A    between atoms: C_8  and  N_9 
REMARK       I    between atoms: N_9  and  C_10 
REMARK       I    between atoms: C_10  and  N_12 
REMARK    5  A    between atoms: N_12  and  C_13 
ROOT
HETATM    1  C   UNL     1     -42.107 -47.432  10.201  1.00  0.00     0.027 A 
HETATM    2  C   UNL     1     -41.498 -46.863  11.307  1.00  0.00     0.078 A 
HETATM    3  S   UNL     1     -40.458 -48.008  12.066  1.00  0.00    -0.064 SA
HETATM    4  C   UNL     1     -40.968 -49.177  10.946  1.00  0.00     0.152 A 
HETATM    5  N   UNL     1     -41.798 -48.769  10.015  1.00  0.00    -0.339 N 
ATOM      6  HN  UNL     1     -42.164 -49.354   9.262  1.00  0.00     0.168 HD
ENDROOT
BRANCH   4   7
HETATM    7  N   UNL     1     -40.488 -50.444  11.103  1.00  0.00    -0.289 N 
HETATM    8  C   UNL     1     -41.150 -51.445  11.767  1.00  0.00     0.322 C 
HETATM    9  O   UNL     1     -40.669 -52.576  11.803  1.00  0.00    -0.247 OA
HETATM   10  N   UNL     1     -42.313 -51.087  12.398  1.00  0.00    -0.338 N 
HETATM   11  H   UNL     1     -42.581 -50.113  12.332  1.00  0.00     0.164 HD
HETATM   12  H   UNL     1     -39.576 -50.675  10.740  1.00  0.00     0.172 HD
BRANCH  10  13
HETATM   13  C   UNL     1     -43.138 -51.934  13.188  1.00  0.00     0.086 A 
HETATM   14  C   UNL     1     -44.077 -52.899  12.518  1.00  0.00     0.027 A 
HETATM   15  C   UNL     1     -44.625 -51.692  13.217  1.00  0.00     0.027 A 
ENDBRANCH  10  13
ENDBRANCH   4   7
BRANCH   1  16
HETATM   16  C   UNL     1     -43.055 -46.780   9.243  1.00  0.00     0.167 C 
BRANCH  16  17
HETATM   17  C   UNL     1     -43.668 -47.682   8.189  1.00  0.00     0.145 C 
HETATM   18  O   UNL     1     -44.846 -48.022   8.242  1.00  0.00    -0.650 OA
BRANCH  17  19
HETATM   19  O   UNL     1     -42.871 -48.115   7.189  1.00  0.00    -0.776 OA
HETATM   20  H   UNL     1     -43.128 -49.001   6.847  1.00  0.00     0.167 HD
ENDBRANCH  17  19
ENDBRANCH  16  17
ENDBRANCH   1  16
TORSDOF 5
ENDMDL
MODEL 3
REMARK VINA RESULT:      -5.7      3.503      5.603
REMARK  5 active torsions:
REMARK  status: ('A' for Active; 'I' for Inactive)
REMARK    1  A    between atoms: O_1  and  C_2 
REMARK    2  A    between atoms: C_2  and  C_4 
REMARK    3  A    between atoms: C_4  and  C_5 
REMARK    4  A    between atoms: C_8  and  N_9 
REMARK       I    between atoms: N_9  and  C_10 
REMARK       I    between atoms: C_10  and  N_12 
REMARK    5  A    between atoms: N_12  and  C_13 
ROOT
HETATM    1  C   UNL     1     -41.158 -49.711  12.344  1.00  0.00     0.027 A 
HETATM    2  C   UNL     1     -40.228 -50.375  13.126  1.00  0.00     0.078 A 
HETATM    3  S   UNL     1     -40.574 -52.064  13.150  1.00  0.00    -0.064 SA
HETATM    4  C   UNL     1     -41.962 -51.768  12.220  1.00  0.00     0.152 A 
HETATM    5  N   UNL     1     -42.156 -50.527  11.839  1.00  0.00    -0.339 N 
ATOM      6  HN  UNL     1     -42.930 -50.209  11.255  1.00  0.00     0.168 HD
ENDROOT
BRANCH   4   7
HETATM    7  N   UNL     1     -42.772 -52.832  11.950  1.00  0.00    -0.289 N 
HETATM    8  C   UNL     1     -43.964 -53.078  12.583  1.00  0.00     0.322 C 
HETATM    9  O   UNL     1     -44.659 -54.027  12.228  1.00  0.00    -0.247 OA
HETATM   10  N   UNL     1     -44.278 -52.246  13.625  1.00  0.00    -0.338 N 
HETATM   11  H   UNL     1     -43.602 -51.527  13.849  1.00  0.00     0.164 HD
HETATM   12  H   UNL     1     -42.481 -53.512  11.263  1.00  0.00     0.172 HD
BRANCH  10  13
HETATM   13  C   UNL     1     -45.426 -52.338  14.460  1.00  0.00     0.086 A 
HETATM   14  C   UNL     1     -46.625 -51.474  14.179  1.00  0.00     0.027 A 
HETATM   15  C   UNL     1     -45.766 -51.187  15.372  1.00  0.00     0.027 A 
ENDBRANCH  10  13
ENDBRANCH   4   7
BRANCH   1  16
HETATM   16  C   UNL     1     -41.208 -48.248  12.030  1.00  0.00     0.167 C 
BRANCH  16  17
HETATM   17  C   UNL     1     -41.839 -47.868  10.704  1.00  0.00     0.145 C 
HETATM   18  O   UNL     1     -42.578 -46.893  10.602  1.00  0.00    -0.650 OA
BRANCH  17  19
HETATM   19  O   UNL     1     -41.575 -48.647   9.634  1.00  0.00    -0.776 OA
HETATM   20  H   UNL     1     -42.368 -49.124   9.299  1.00  0.00     0.167 HD
ENDBRANCH  17  19
ENDBRANCH  16  17
ENDBRANCH   1  16
TORSDOF 5
ENDMDL
MODEL 4
REMARK VINA RESULT:      -5.6      2.634      5.672
REMARK  5 active torsions:
REMARK  status: ('A' for Active; 'I' for Inactive)
REMARK    1  A    between atoms: O_1  and  C_2 
REMARK    2  A    between atoms: C_2  and  C_4 
REMARK    3  A    between atoms: C_4  and  C_5 
REMARK    4  A    between atoms: C_8  and  N_9 
REMARK       I    between atoms: N_9  and  C_10 
REMARK       I    between atoms: C_10  and  N_12 
REMARK    5  A    between atoms: N_12  and  C_13 
ROOT
HETATM    1  C   UNL     1     -42.995 -47.497  10.531  1.00  0.00     0.027 A 
HETATM    2  C   UNL     1     -43.210 -46.804  11.710  1.00  0.00     0.078 A 
HETATM    3  S   UNL     1     -42.706 -47.754  13.057  1.00  0.00    -0.064 SA
HETATM    4  C   UNL     1     -42.342 -49.025  11.992  1.00  0.00     0.152 A 
HETATM    5  N   UNL     1     -42.504 -48.779  10.713  1.00  0.00    -0.339 N 
ATOM      6  HN  UNL     1     -42.298 -49.438   9.962  1.00  0.00     0.168 HD
ENDROOT
BRANCH   4   7
HETATM    7  N   UNL     1     -41.922 -50.200  12.543  1.00  0.00    -0.289 N 
HETATM    8  C   UNL     1     -42.756 -51.227  12.905  1.00  0.00     0.322 C 
HETATM    9  O   UNL     1     -42.282 -52.276  13.335  1.00  0.00    -0.247 OA
HETATM   10  N   UNL     1     -44.100 -50.981  12.797  1.00  0.00    -0.338 N 
HETATM   11  H   UNL     1     -44.366 -50.060  12.471  1.00  0.00     0.164 HD
HETATM   12  H   UNL     1     -40.940 -50.333  12.733  1.00  0.00     0.172 HD
BRANCH  10  13
HETATM   13  C   UNL     1     -45.150 -51.869  13.161  1.00  0.00     0.086 A 
HETATM   14  C   UNL     1     -46.528 -51.668  12.593  1.00  0.00     0.027 A 
HETATM   15  C   UNL     1     -46.269 -51.364  14.036  1.00  0.00     0.027 A 
ENDBRANCH  10  13
ENDBRANCH   4   7
BRANCH   1  16
HETATM   16  C   UNL     1     -43.260 -47.029   9.134  1.00  0.00     0.167 C 
BRANCH  16  17
HETATM   17  C   UNL     1     -44.215 -45.860   8.989  1.00  0.00     0.145 C 
HETATM   18  O   UNL     1     -43.815 -44.700   8.999  1.00  0.00    -0.650 OA
BRANCH  17  19
HETATM   19  O   UNL     1     -45.531 -46.133   8.862  1.00  0.00    -0.776 OA
HETATM   20  H   UNL     1     -46.089 -45.325   8.800  1.00  0.00     0.167 HD
ENDBRANCH  17  19
ENDBRANCH  16  17
ENDBRANCH   1  16
TORSDOF 5
ENDMDL
MODEL 5
REMARK VINA RESULT:      -5.5      1.914      6.241
REMARK  5 active torsions:
REMARK  status: ('A' for Active; 'I' for Inactive)
REMARK    1  A    between atoms: O_1  and  C_2 
REMARK    2  A    between atoms: C_2  and  C_4 
REMARK    3  A    between atoms: C_4  and  C_5 
REMARK    4  A    between atoms: C_8  and  N_9 
REMARK       I    between atoms: N_9  and  C_10 
REMARK       I    between atoms: C_10  and  N_12 
REMARK    5  A    between atoms: N_12  and  C_13 
ROOT
HETATM    1  C   UNL     1     -42.845 -47.359  11.287  1.00  0.00     0.027 A 
HETATM    2  C   UNL     1     -42.948 -47.233  12.662  1.00  0.00     0.078 A 
HETATM    3  S   UNL     1     -42.508 -48.714  13.428  1.00  0.00    -0.064 SA
HETATM    4  C   UNL     1     -42.316 -49.420  11.896  1.00  0.00     0.152 A 
HETATM    5  N   UNL     1     -42.490 -48.629  10.863  1.00  0.00    -0.339 N 
ATOM      6  HN  UNL     1     -42.380 -48.909   9.888  1.00  0.00     0.168 HD
ENDROOT
BRANCH   4   7
HETATM    7  N   UNL     1     -42.009 -50.748  11.854  1.00  0.00    -0.289 N 
HETATM    8  C   UNL     1     -40.742 -51.254  11.997  1.00  0.00     0.322 C 
HETATM    9  O   UNL     1     -40.569 -52.471  12.010  1.00  0.00    -0.247 OA
HETATM   10  N   UNL     1     -39.728 -50.336  12.072  1.00  0.00    -0.338 N 
HETATM   11  H   UNL     1     -39.996 -49.362  12.006  1.00  0.00     0.164 HD
HETATM   12  H   UNL     1     -42.742 -51.419  11.679  1.00  0.00     0.172 HD
BRANCH  10  13
HETATM   13  C   UNL     1     -38.339 -50.621  12.168  1.00  0.00     0.086 A 
HETATM   14  C   UNL     1     -37.385 -49.551  12.623  1.00  0.00     0.027 A 
HETATM   15  C   UNL     1     -37.388 -49.982  11.189  1.00  0.00     0.027 A 
ENDBRANCH  10  13
ENDBRANCH   4   7
BRANCH   1  16
HETATM   16  C   UNL     1     -43.101 -46.308  10.252  1.00  0.00     0.167 C 
BRANCH  16  17
HETATM   17  C   UNL     1     -43.355 -46.805   8.842  1.00  0.00     0.145 C 
HETATM   18  O   UNL     1     -44.094 -47.759   8.621  1.00  0.00    -0.650 OA
BRANCH  17  19
HETATM   19  O   UNL     1     -42.729 -46.171   7.828  1.00  0.00    -0.776 OA
HETATM   20  H   UNL     1     -42.307 -45.325   8.103  1.00  0.00     0.167 HD
ENDBRANCH  17  19
ENDBRANCH  16  17
ENDBRANCH   1  16
TORSDOF 5
ENDMDL
MODEL 6
REMARK VINA RESULT:      -5.4      2.680      6.418
REMARK  5 active torsions:
REMARK  status: ('A' for Active; 'I' for Inactive)
REMARK    1  A    between atoms: O_1  and  C_2 
REMARK    2  A    between atoms: C_2  and  C_4 
REMARK    3  A    between atoms: C_4  and  C_5 
REMARK    4  A    between atoms: C_8  and  N_9 
REMARK       I    between atoms: N_9  and  C_10 
REMARK       I    between atoms: C_10  and  N_12 
REMARK    5  A    between atoms: N_12  and  C_13 
ROOT
HETATM    1  C   UNL     1     -42.417 -48.019  10.423  1.00  0.00     0.027 A 
HETATM    2  C   UNL     1     -42.954 -48.445  11.626  1.00  0.00     0.078 A 
HETATM    3  S   UNL     1     -41.881 -49.554  12.394  1.00  0.00    -0.064 SA
HETATM    4  C   UNL     1     -40.856 -49.458  11.045  1.00  0.00     0.152 A 
HETATM    5  N   UNL     1     -41.213 -48.620  10.099  1.00  0.00    -0.339 N 
ATOM      6  HN  UNL     1     -40.680 -48.439   9.248  1.00  0.00     0.168 HD
ENDROOT
BRANCH   4   7
HETATM    7  N   UNL     1     -39.752 -50.259  11.040  1.00  0.00    -0.289 N 
HETATM    8  C   UNL     1     -38.682 -50.107  11.884  1.00  0.00     0.322 C 
HETATM    9  O   UNL     1     -37.759 -50.918  11.851  1.00  0.00    -0.247 OA
HETATM   10  N   UNL     1     -38.704 -49.004  12.696  1.00  0.00    -0.338 N 
HETATM   11  H   UNL     1     -39.500 -48.387  12.598  1.00  0.00     0.164 HD
HETATM   12  H   UNL     1     -39.684 -51.002  10.360  1.00  0.00     0.172 HD
BRANCH  10  13
HETATM   13  C   UNL     1     -37.687 -48.611  13.610  1.00  0.00     0.086 A 
HETATM   14  C   UNL     1     -37.939 -48.697  15.090  1.00  0.00     0.027 A 
HETATM   15  C   UNL     1     -37.877 -47.356  14.425  1.00  0.00     0.027 A 
ENDBRANCH  10  13
ENDBRANCH   4   7
BRANCH   1  16
HETATM   16  C   UNL     1     -43.003 -47.034   9.460  1.00  0.00     0.167 C 
BRANCH  16  17
HETATM   17  C   UNL     1     -43.691 -47.617   8.241  1.00  0.00     0.145 C 
HETATM   18  O   UNL     1     -44.876 -47.937   8.265  1.00  0.00    -0.650 OA
BRANCH  17  19
HETATM   19  O   UNL     1     -42.955 -47.789   7.123  1.00  0.00    -0.776 OA
HETATM   20  H   UNL     1     -43.463 -48.195   6.384  1.00  0.00     0.167 HD
ENDBRANCH  17  19
ENDBRANCH  16  17
ENDBRANCH   1  16
TORSDOF 5
ENDMDL
MODEL 7
REMARK VINA RESULT:      -5.2      4.803      5.967
REMARK  5 active torsions:
REMARK  status: ('A' for Active; 'I' for Inactive)
REMARK    1  A    between atoms: O_1  and  C_2 
REMARK    2  A    between atoms: C_2  and  C_4 
REMARK    3  A    between atoms: C_4  and  C_5 
REMARK    4  A    between atoms: C_8  and  N_9 
REMARK       I    between atoms: N_9  and  C_10 
REMARK       I    between atoms: C_10  and  N_12 
REMARK    5  A    between atoms: N_12  and  C_13 
ROOT
HETATM    1  C   UNL     1     -39.865 -51.792  13.235  1.00  0.00     0.027 A 
HETATM    2  C   UNL     1     -39.540 -52.678  14.249  1.00  0.00     0.078 A 
HETATM    3  S   UNL     1     -40.590 -54.045  14.199  1.00  0.00    -0.064 SA
HETATM    4  C   UNL     1     -41.438 -53.316  12.923  1.00  0.00     0.152 A 
HETATM    5  N   UNL     1     -40.968 -52.170  12.488  1.00  0.00    -0.339 N 
ATOM      6  HN  UNL     1     -41.358 -51.635  11.712  1.00  0.00     0.168 HD
ENDROOT
BRANCH   4   7
HETATM    7  N   UNL     1     -42.544 -53.965  12.457  1.00  0.00    -0.289 N 
HETATM    8  C   UNL     1     -43.823 -53.721  12.887  1.00  0.00     0.322 C 
HETATM    9  O   UNL     1     -44.766 -54.310  12.362  1.00  0.00    -0.247 OA
HETATM   10  N   UNL     1     -43.954 -52.845  13.932  1.00  0.00    -0.338 N 
HETATM   11  H   UNL     1     -43.097 -52.458  14.307  1.00  0.00     0.164 HD
HETATM   12  H   UNL     1     -42.434 -54.696  11.770  1.00  0.00     0.172 HD
BRANCH  10  13
HETATM   13  C   UNL     1     -45.167 -52.480  14.579  1.00  0.00     0.086 A 
HETATM   14  C   UNL     1     -46.075 -51.463  13.945  1.00  0.00     0.027 A 
HETATM   15  C   UNL     1     -45.297 -51.100  15.172  1.00  0.00     0.027 A 
ENDBRANCH  10  13
ENDBRANCH   4   7
BRANCH   1  16
HETATM   16  C   UNL     1     -39.188 -50.500  12.901  1.00  0.00     0.167 C 
BRANCH  16  17
HETATM   17  C   UNL     1     -39.399 -49.977  11.493  1.00  0.00     0.145 C 
HETATM   18  O   UNL     1     -40.496 -49.576  11.116  1.00  0.00    -0.650 OA
BRANCH  17  19
HETATM   19  O   UNL     1     -38.341 -49.978  10.655  1.00  0.00    -0.776 OA
HETATM   20  H   UNL     1     -38.545 -50.367   9.775  1.00  0.00     0.167 HD
ENDBRANCH  17  19
ENDBRANCH  16  17
ENDBRANCH   1  16
TORSDOF 5
ENDMDL
MODEL 8
REMARK VINA RESULT:      -5.1      2.435      5.797
REMARK  5 active torsions:
REMARK  status: ('A' for Active; 'I' for Inactive)
REMARK    1  A    between atoms: O_1  and  C_2 
REMARK    2  A    between atoms: C_2  and  C_4 
REMARK    3  A    between atoms: C_4  and  C_5 
REMARK    4  A    between atoms: C_8  and  N_9 
REMARK       I    between atoms: N_9  and  C_10 
REMARK       I    between atoms: C_10  and  N_12 
REMARK    5  A    between atoms: N_12  and  C_13 
ROOT
HETATM    1  C   UNL     1     -43.991 -47.527   9.402  1.00  0.00     0.027 A 
HETATM    2  C   UNL     1     -42.824 -46.795   9.262  1.00  0.00     0.078 A 
HETATM    3  S   UNL     1     -41.938 -46.805  10.741  1.00  0.00    -0.064 SA
HETATM    4  C   UNL     1     -43.200 -47.681  11.462  1.00  0.00     0.152 A 
HETATM    5  N   UNL     1     -44.196 -48.022  10.678  1.00  0.00    -0.339 N 
ATOM      6  HN  UNL     1     -45.006 -48.571  10.968  1.00  0.00     0.168 HD
ENDROOT
BRANCH   4   7
HETATM    7  N   UNL     1     -43.090 -47.954  12.794  1.00  0.00    -0.289 N 
HETATM    8  C   UNL     1     -42.716 -49.170  13.306  1.00  0.00     0.322 C 
HETATM    9  O   UNL     1     -42.581 -49.305  14.521  1.00  0.00    -0.247 OA
HETATM   10  N   UNL     1     -42.560 -50.186  12.401  1.00  0.00    -0.338 N 
HETATM   11  H   UNL     1     -42.743 -49.959  11.431  1.00  0.00     0.164 HD
HETATM   12  H   UNL     1     -43.321 -47.237  13.466  1.00  0.00     0.172 HD
BRANCH  10  13
HETATM   13  C   UNL     1     -42.231 -51.537  12.699  1.00  0.00     0.086 A 
HETATM   14  C   UNL     1     -40.830 -51.891  13.115  1.00  0.00     0.027 A 
HETATM   15  C   UNL     1     -41.328 -52.298  11.762  1.00  0.00     0.027 A 
ENDBRANCH  10  13
ENDBRANCH   4   7
BRANCH   1  16
HETATM   16  C   UNL     1     -45.028 -47.800   8.357  1.00  0.00     0.167 C 
BRANCH  16  17
HETATM   17  C   UNL     1     -46.427 -48.096   8.863  1.00  0.00     0.145 C 
HETATM   18  O   UNL     1     -47.290 -47.225   8.907  1.00  0.00    -0.650 OA
BRANCH  17  19
HETATM   19  O   UNL     1     -46.694 -49.351   9.280  1.00  0.00    -0.776 OA
HETATM   20  H   UNL     1     -45.928 -49.961   9.184  1.00  0.00     0.167 HD
ENDBRANCH  17  19
ENDBRANCH  16  17
ENDBRANCH   1  16
TORSDOF 5
ENDMDL
MODEL 9
REMARK VINA RESULT:      -5.1      4.095      5.559
REMARK  5 active torsions:
REMARK  status: ('A' for Active; 'I' for Inactive)
REMARK    1  A    between atoms: O_1  and  C_2 
REMARK    2  A    between atoms: C_2  and  C_4 
REMARK    3  A    between atoms: C_4  and  C_5 
REMARK    4  A    between atoms: C_8  and  N_9 
REMARK       I    between atoms: N_9  and  C_10 
REMARK       I    between atoms: C_10  and  N_12 
REMARK    5  A    between atoms: N_12  and  C_13 
ROOT
HETATM    1  C   UNL     1     -44.127 -53.401  13.161  1.00  0.00     0.027 A 
HETATM    2  C   UNL     1     -43.191 -54.235  13.749  1.00  0.00     0.078 A 
HETATM    3  S   UNL     1     -41.600 -53.761  13.284  1.00  0.00    -0.064 SA
HETATM    4  C   UNL     1     -42.275 -52.572  12.279  1.00  0.00     0.152 A 
HETATM    5  N   UNL     1     -43.582 -52.456  12.309  1.00  0.00    -0.339 N 
ATOM      6  HN  UNL     1     -44.120 -51.768  11.780  1.00  0.00     0.168 HD
ENDROOT
BRANCH   4   7
HETATM    7  N   UNL     1     -41.416 -51.840  11.513  1.00  0.00    -0.289 N 
HETATM    8  C   UNL     1     -41.030 -50.555  11.797  1.00  0.00     0.322 C 
HETATM    9  O   UNL     1     -40.199 -49.995  11.084  1.00  0.00    -0.247 OA
HETATM   10  N   UNL     1     -41.651 -49.958  12.863  1.00  0.00    -0.338 N 
HETATM   11  H   UNL     1     -42.350 -50.509  13.345  1.00  0.00     0.164 HD
HETATM   12  H   UNL     1     -41.050 -52.239  10.662  1.00  0.00     0.172 HD
BRANCH  10  13
HETATM   13  C   UNL     1     -41.455 -48.623  13.312  1.00  0.00     0.086 A 
HETATM   14  C   UNL     1     -42.072 -48.172  14.607  1.00  0.00     0.027 A 
HETATM   15  C   UNL     1     -42.622 -47.668  13.309  1.00  0.00     0.027 A 
ENDBRANCH  10  13
ENDBRANCH   4   7
BRANCH   1  16
HETATM   16  C   UNL     1     -45.615 -53.440  13.323  1.00  0.00     0.167 C 
BRANCH  16  17
HETATM   17  C   UNL     1     -46.392 -52.328  12.646  1.00  0.00     0.145 C 
HETATM   18  O   UNL     1     -46.712 -51.309  13.251  1.00  0.00    -0.650 OA
BRANCH  17  19
HETATM   19  O   UNL     1     -46.738 -52.498  11.353  1.00  0.00    -0.776 OA
HETATM   20  H   UNL     1     -47.345 -53.259  11.212  1.00  0.00     0.167 HD
ENDBRANCH  17  19
ENDBRANCH  16  17
ENDBRANCH   1  16
TORSDOF 5
ENDMDL
