MODEL 1
REMARK VINA RESULT:      -5.7      0.000      0.000
REMARK  4 active torsions:
REMARK  status: ('A' for Active; 'I' for Inactive)
REMARK    1  A    between atoms: C_2  and  N_4 
REMARK    2  A    between atoms: C_9  and  C_10 
REMARK    3  A    between atoms: C_10  and  C_11 
REMARK    4  A    between atoms: C_11  and  N_12 
REMARK       I    between atoms: N_12  and  C_13 
REMARK       I    between atoms: C_13  and  N_15 
ROOT
HETATM    1  C   UNL     1     -40.561 -49.969  11.161  1.00  0.00     0.132 C 
ENDROOT
BRANCH   1   2
HETATM    2  C   UNL     1     -40.849 -48.570  11.710  1.00  0.00     0.096 C 
BRANCH   2   3
HETATM    3  C   UNL     1     -41.788 -47.793  10.839  1.00  0.00     0.088 A 
HETATM    4  N   UNL     1     -41.617 -46.479  10.459  1.00  0.00    -0.289 N 
HETATM    5  C   UNL     1     -42.636 -46.160   9.596  1.00  0.00     0.114 A 
HETATM    6  C   UNL     1     -43.400 -47.295   9.505  1.00  0.00     0.107 A 
HETATM    7  N   UNL     1     -42.880 -48.290  10.286  1.00  0.00    -0.354 N 
ATOM      8  HN  UNL     1     -43.260 -49.228  10.415  1.00  0.00     0.166 HD
BRANCH   4   9
HETATM    9  C   UNL     1     -40.556 -45.578  10.869  1.00  0.00     0.465 C 
HETATM   10  F   UNL     1     -39.427 -45.791  10.146  1.00  0.00    -0.191 F 
HETATM   11  F   UNL     1     -40.912 -44.282  10.679  1.00  0.00    -0.191 F 
ENDBRANCH   4   9
ENDBRANCH   2   3
ENDBRANCH   1   2
BRANCH   1  12
HETATM   12  N   UNL     1     -41.512 -50.992  11.576  1.00  0.00    -0.343 N 
HETATM   13  C   UNL     1     -41.031 -52.102  12.223  1.00  0.00     0.318 C 
HETATM   14  O   UNL     1     -39.821 -52.269  12.375  1.00  0.00    -0.247 OA
HETATM   15  N   UNL     1     -41.965 -53.018  12.670  1.00  0.00    -0.333 N 
HETATM   16  C   UNL     1     -43.412 -52.980  12.441  1.00  0.00     0.137 C 
HETATM   17  C   UNL     1     -41.476 -54.230  13.343  1.00  0.00     0.137 C 
HETATM   18  C   UNL     1     -44.204 -53.002  13.753  1.00  0.00     0.093 C 
HETATM   19  S   UNL     1     -43.872 -54.502  14.739  1.00  0.00    -0.166 SA
HETATM   20  C   UNL     1     -42.049 -54.397  14.750  1.00  0.00     0.093 C 
HETATM   21  H   UNL     1     -42.398 -50.625  11.901  1.00  0.00     0.164 HD
ENDBRANCH   1  12
TORSDOF 4
ENDMDL
MODEL 2
REMARK VINA RESULT:      -5.7      4.075      4.931
REMARK  4 active torsions:
REMARK  status: ('A' for Active; 'I' for Inactive)
REMARK    1  A    between atoms: C_2  and  N_4 
REMARK    2  A    between atoms: C_9  and  C_10 
REMARK    3  A    between atoms: C_10  and  C_11 
REMARK    4  A    between atoms: C_11  and  N_12 
REMARK       I    between atoms: N_12  and  C_13 
REMARK       I    between atoms: C_13  and  N_15 
ROOT
HETATM    1  C   UNL     1     -41.303 -52.113  11.650  1.00  0.00     0.132 C 
ENDROOT
BRANCH   1   2
HETATM    2  C   UNL     1     -40.827 -50.706  12.015  1.00  0.00     0.096 C 
BRANCH   2   3
HETATM    3  C   UNL     1     -39.334 -50.579  11.980  1.00  0.00     0.088 A 
HETATM    4  N   UNL     1     -38.470 -51.099  12.918  1.00  0.00    -0.289 N 
HETATM    5  C   UNL     1     -37.190 -50.849  12.489  1.00  0.00     0.114 A 
HETATM    6  C   UNL     1     -37.333 -50.163  11.310  1.00  0.00     0.107 A 
HETATM    7  N   UNL     1     -38.656 -49.987  11.012  1.00  0.00    -0.354 N 
ATOM      8  HN  UNL     1     -39.042 -49.497  10.205  1.00  0.00     0.166 HD
BRANCH   4   9
HETATM    9  C   UNL     1     -38.819 -51.800  14.140  1.00  0.00     0.465 C 
HETATM   10  F   UNL     1     -38.640 -53.139  14.003  1.00  0.00    -0.191 F 
HETATM   11  F   UNL     1     -38.040 -51.398  15.176  1.00  0.00    -0.191 F 
ENDBRANCH   4   9
ENDBRANCH   2   3
ENDBRANCH   1   2
BRANCH   1  12
HETATM   12  N   UNL     1     -42.706 -52.376  11.945  1.00  0.00    -0.343 N 
HETATM   13  C   UNL     1     -43.007 -53.380  12.830  1.00  0.00     0.318 C 
HETATM   14  O   UNL     1     -42.122 -54.094  13.299  1.00  0.00    -0.247 OA
HETATM   15  N   UNL     1     -44.342 -53.554  13.145  1.00  0.00    -0.333 N 
HETATM   16  C   UNL     1     -45.483 -52.844  12.560  1.00  0.00     0.137 C 
HETATM   17  C   UNL     1     -44.697 -54.640  14.070  1.00  0.00     0.137 C 
HETATM   18  C   UNL     1     -46.332 -52.141  13.624  1.00  0.00     0.093 C 
HETATM   19  S   UNL     1     -47.018 -53.309  14.848  1.00  0.00    -0.166 SA
HETATM   20  C   UNL     1     -45.457 -54.145  15.300  1.00  0.00     0.093 C 
HETATM   21  H   UNL     1     -43.281 -51.544  11.988  1.00  0.00     0.164 HD
ENDBRANCH   1  12
TORSDOF 4
ENDMDL
MODEL 3
REMARK VINA RESULT:      -5.5      4.588      6.886
REMARK  4 active torsions:
REMARK  status: ('A' for Active; 'I' for Inactive)
REMARK    1  A    between atoms: C_2  and  N_4 
REMARK    2  A    between atoms: C_9  and  C_10 
REMARK    3  A    between atoms: C_10  and  C_11 
REMARK    4  A    between atoms: C_11  and  N_12 
REMARK       I    between atoms: N_12  and  C_13 
REMARK       I    between atoms: C_13  and  N_15 
ROOT
HETATM    1  C   UNL     1     -42.673 -53.705  13.148  1.00  0.00     0.132 C 
ENDROOT
BRANCH   1   2
HETATM    2  C   UNL     1     -44.044 -53.420  12.530  1.00  0.00     0.096 C 
BRANCH   2   3
HETATM    3  C   UNL     1     -45.172 -53.777  13.448  1.00  0.00     0.088 A 
HETATM    4  N   UNL     1     -46.171 -52.917  13.852  1.00  0.00    -0.289 N 
HETATM    5  C   UNL     1     -47.059 -53.638  14.612  1.00  0.00     0.114 A 
HETATM    6  C   UNL     1     -46.546 -54.909  14.656  1.00  0.00     0.107 A 
HETATM    7  N   UNL     1     -45.376 -54.982  13.951  1.00  0.00    -0.354 N 
ATOM      8  HN  UNL     1     -44.781 -55.802  13.836  1.00  0.00     0.166 HD
BRANCH   4   9
HETATM    9  C   UNL     1     -46.296 -51.507  13.535  1.00  0.00     0.465 C 
HETATM   10  F   UNL     1     -46.734 -51.328  12.263  1.00  0.00    -0.191 F 
HETATM   11  F   UNL     1     -47.190 -50.897  14.354  1.00  0.00    -0.191 F 
ENDBRANCH   4   9
ENDBRANCH   2   3
ENDBRANCH   1   2
BRANCH   1  12
HETATM   12  N   UNL     1     -41.923 -52.517  13.536  1.00  0.00    -0.343 N 
HETATM   13  C   UNL     1     -40.787 -52.208  12.832  1.00  0.00     0.318 C 
HETATM   14  O   UNL     1     -40.366 -52.958  11.952  1.00  0.00    -0.247 OA
HETATM   15  N   UNL     1     -40.139 -51.035  13.175  1.00  0.00    -0.333 N 
HETATM   16  C   UNL     1     -40.482 -50.133  14.279  1.00  0.00     0.137 C 
HETATM   17  C   UNL     1     -38.904 -50.693  12.457  1.00  0.00     0.137 C 
HETATM   18  C   UNL     1     -40.738 -48.702  13.795  1.00  0.00     0.093 C 
HETATM   19  S   UNL     1     -39.282 -47.979  12.964  1.00  0.00    -0.166 SA
HETATM   20  C   UNL     1     -38.977 -49.329  11.771  1.00  0.00     0.093 C 
HETATM   21  H   UNL     1     -42.503 -51.740  13.828  1.00  0.00     0.164 HD
ENDBRANCH   1  12
TORSDOF 4
ENDMDL
MODEL 4
REMARK VINA RESULT:      -5.5      5.075      7.591
REMARK  4 active torsions:
REMARK  status: ('A' for Active; 'I' for Inactive)
REMARK    1  A    between atoms: C_2  and  N_4 
REMARK    2  A    between atoms: C_9  and  C_10 
REMARK    3  A    between atoms: C_10  and  C_11 
REMARK    4  A    between atoms: C_11  and  N_12 
REMARK       I    between atoms: N_12  and  C_13 
REMARK       I    between atoms: C_13  and  N_15 
ROOT
HETATM    1  C   UNL     1     -42.422 -51.728  12.808  1.00  0.00     0.132 C 
ENDROOT
BRANCH   1   2
HETATM    2  C   UNL     1     -43.455 -52.696  12.228  1.00  0.00     0.096 C 
BRANCH   2   3
HETATM    3  C   UNL     1     -44.802 -52.550  12.869  1.00  0.00     0.088 A 
HETATM    4  N   UNL     1     -45.464 -53.540  13.562  1.00  0.00    -0.289 N 
HETATM    5  C   UNL     1     -46.617 -52.994  14.068  1.00  0.00     0.114 A 
HETATM    6  C   UNL     1     -46.617 -51.691  13.639  1.00  0.00     0.107 A 
HETATM    7  N   UNL     1     -45.504 -51.430  12.888  1.00  0.00    -0.354 N 
ATOM      8  HN  UNL     1     -45.264 -50.550  12.434  1.00  0.00     0.166 HD
BRANCH   4   9
HETATM    9  C   UNL     1     -45.038 -54.914  13.751  1.00  0.00     0.465 C 
HETATM   10  F   UNL     1     -44.354 -55.058  14.915  1.00  0.00    -0.191 F 
HETATM   11  F   UNL     1     -46.102 -55.755  13.808  1.00  0.00    -0.191 F 
ENDBRANCH   4   9
ENDBRANCH   2   3
ENDBRANCH   1   2
BRANCH   1  12
HETATM   12  N   UNL     1     -42.319 -50.455  12.106  1.00  0.00    -0.343 N 
HETATM   13  C   UNL     1     -42.780 -49.327  12.734  1.00  0.00     0.318 C 
HETATM   14  O   UNL     1     -43.342 -49.397  13.826  1.00  0.00    -0.247 OA
HETATM   15  N   UNL     1     -42.600 -48.126  12.072  1.00  0.00    -0.333 N 
HETATM   16  C   UNL     1     -42.056 -47.939  10.724  1.00  0.00     0.137 C 
HETATM   17  C   UNL     1     -43.109 -46.903  12.709  1.00  0.00     0.137 C 
HETATM   18  C   UNL     1     -40.842 -47.004  10.717  1.00  0.00     0.093 C 
HETATM   19  S   UNL     1     -41.244 -45.340  11.351  1.00  0.00    -0.166 SA
HETATM   20  C   UNL     1     -42.021 -45.851  12.924  1.00  0.00     0.093 C 
HETATM   21  H   UNL     1     -41.476 -50.356  11.553  1.00  0.00     0.164 HD
ENDBRANCH   1  12
TORSDOF 4
ENDMDL
MODEL 5
REMARK VINA RESULT:      -5.4      1.879      2.353
REMARK  4 active torsions:
REMARK  status: ('A' for Active; 'I' for Inactive)
REMARK    1  A    between atoms: C_2  and  N_4 
REMARK    2  A    between atoms: C_9  and  C_10 
REMARK    3  A    between atoms: C_10  and  C_11 
REMARK    4  A    between atoms: C_11  and  N_12 
REMARK       I    between atoms: N_12  and  C_13 
REMARK       I    between atoms: C_13  and  N_15 
ROOT
HETATM    1  C   UNL     1     -41.768 -49.575  12.313  1.00  0.00     0.132 C 
ENDROOT
BRANCH   1   2
HETATM    2  C   UNL     1     -41.100 -49.215  10.985  1.00  0.00     0.096 C 
BRANCH   2   3
HETATM    3  C   UNL     1     -41.058 -47.736  10.746  1.00  0.00     0.088 A 
HETATM    4  N   UNL     1     -42.100 -46.982  10.251  1.00  0.00    -0.289 N 
HETATM    5  C   UNL     1     -41.703 -45.668  10.262  1.00  0.00     0.114 A 
HETATM    6  C   UNL     1     -40.420 -45.682  10.746  1.00  0.00     0.107 A 
HETATM    7  N   UNL     1     -40.025 -46.961  11.026  1.00  0.00    -0.354 N 
ATOM      8  HN  UNL     1     -39.116 -47.258  11.380  1.00  0.00     0.166 HD
BRANCH   4   9
HETATM    9  C   UNL     1     -43.396 -47.459   9.805  1.00  0.00     0.465 C 
HETATM   10  F   UNL     1     -44.198 -47.752  10.860  1.00  0.00    -0.191 F 
HETATM   11  F   UNL     1     -44.037 -46.520   9.066  1.00  0.00    -0.191 F 
ENDBRANCH   4   9
ENDBRANCH   2   3
ENDBRANCH   1   2
BRANCH   1  12
HETATM   12  N   UNL     1     -42.629 -50.750  12.261  1.00  0.00    -0.343 N 
HETATM   13  C   UNL     1     -42.214 -51.888  12.903  1.00  0.00     0.318 C 
HETATM   14  O   UNL     1     -41.107 -51.944  13.438  1.00  0.00    -0.247 OA
HETATM   15  N   UNL     1     -43.087 -52.961  12.900  1.00  0.00    -0.333 N 
HETATM   16  C   UNL     1     -44.371 -53.046  12.198  1.00  0.00     0.137 C 
HETATM   17  C   UNL     1     -42.657 -54.204  13.556  1.00  0.00     0.137 C 
HETATM   18  C   UNL     1     -45.528 -53.363  13.150  1.00  0.00     0.093 C 
HETATM   19  S   UNL     1     -45.301 -54.955  14.014  1.00  0.00    -0.166 SA
HETATM   20  C   UNL     1     -43.617 -54.654  14.657  1.00  0.00     0.093 C 
HETATM   21  H   UNL     1     -43.619 -50.538  12.304  1.00  0.00     0.164 HD
ENDBRANCH   1  12
TORSDOF 4
ENDMDL
MODEL 6
REMARK VINA RESULT:      -5.1      1.809      2.276
REMARK  4 active torsions:
REMARK  status: ('A' for Active; 'I' for Inactive)
REMARK    1  A    between atoms: C_2  and  N_4 
REMARK    2  A    between atoms: C_9  and  C_10 
REMARK    3  A    between atoms: C_10  and  C_11 
REMARK    4  A    between atoms: C_11  and  N_12 
REMARK       I    between atoms: N_12  and  C_13 
REMARK       I    between atoms: C_13  and  N_15 
ROOT
HETATM    1  C   UNL     1     -40.931 -49.279  13.147  1.00  0.00     0.132 C 
ENDROOT
BRANCH   1   2
HETATM    2  C   UNL     1     -40.678 -49.212  11.639  1.00  0.00     0.096 C 
BRANCH   2   3
HETATM    3  C   UNL     1     -41.553 -48.207  10.955  1.00  0.00     0.088 A 
HETATM    4  N   UNL     1     -41.193 -46.910  10.658  1.00  0.00    -0.289 N 
HETATM    5  C   UNL     1     -42.227 -46.341   9.957  1.00  0.00     0.114 A 
HETATM    6  C   UNL     1     -43.187 -47.317   9.876  1.00  0.00     0.107 A 
HETATM    7  N   UNL     1     -42.771 -48.457  10.507  1.00  0.00    -0.354 N 
ATOM      8  HN  UNL     1     -43.295 -49.325  10.611  1.00  0.00     0.166 HD
BRANCH   4   9
HETATM    9  C   UNL     1     -39.949 -46.244  10.999  1.00  0.00     0.465 C 
HETATM   10  F   UNL     1     -39.511 -45.472   9.973  1.00  0.00    -0.191 F 
HETATM   11  F   UNL     1     -40.107 -45.429  12.072  1.00  0.00    -0.191 F 
ENDBRANCH   4   9
ENDBRANCH   2   3
ENDBRANCH   1   2
BRANCH   1  12
HETATM   12  N   UNL     1     -41.590 -50.497  13.599  1.00  0.00    -0.343 N 
HETATM   13  C   UNL     1     -42.961 -50.526  13.617  1.00  0.00     0.318 C 
HETATM   14  O   UNL     1     -43.618 -49.523  13.338  1.00  0.00    -0.247 OA
HETATM   15  N   UNL     1     -43.556 -51.720  13.979  1.00  0.00    -0.333 N 
HETATM   16  C   UNL     1     -42.877 -52.934  14.443  1.00  0.00     0.137 C 
HETATM   17  C   UNL     1     -45.024 -51.773  14.034  1.00  0.00     0.137 C 
HETATM   18  C   UNL     1     -43.222 -54.152  13.579  1.00  0.00     0.093 C 
HETATM   19  S   UNL     1     -45.009 -54.522  13.581  1.00  0.00    -0.166 SA
HETATM   20  C   UNL     1     -45.611 -52.857  13.131  1.00  0.00     0.093 C 
HETATM   21  H   UNL     1     -41.121 -51.349  13.317  1.00  0.00     0.164 HD
ENDBRANCH   1  12
TORSDOF 4
ENDMDL
MODEL 7
REMARK VINA RESULT:      -5.1      2.334      3.266
REMARK  4 active torsions:
REMARK  status: ('A' for Active; 'I' for Inactive)
REMARK    1  A    between atoms: C_2  and  N_4 
REMARK    2  A    between atoms: C_9  and  C_10 
REMARK    3  A    between atoms: C_10  and  C_11 
REMARK    4  A    between atoms: C_11  and  N_12 
REMARK       I    between atoms: N_12  and  C_13 
REMARK       I    between atoms: C_13  and  N_15 
ROOT
HETATM    1  C   UNL     1     -40.547 -49.867  11.215  1.00  0.00     0.132 C 
ENDROOT
BRANCH   1   2
HETATM    2  C   UNL     1     -40.585 -48.623  12.105  1.00  0.00     0.096 C 
BRANCH   2   3
HETATM    3  C   UNL     1     -39.372 -48.504  12.976  1.00  0.00     0.088 A 
HETATM    4  N   UNL     1     -38.898 -47.331  13.522  1.00  0.00    -0.289 N 
HETATM    5  C   UNL     1     -37.829 -47.647  14.323  1.00  0.00     0.114 A 
HETATM    6  C   UNL     1     -37.685 -49.006  14.212  1.00  0.00     0.107 A 
HETATM    7  N   UNL     1     -38.628 -49.524  13.368  1.00  0.00    -0.354 N 
ATOM      8  HN  UNL     1     -38.737 -50.501  13.096  1.00  0.00     0.166 HD
BRANCH   4   9
HETATM    9  C   UNL     1     -39.420 -45.992  13.316  1.00  0.00     0.465 C 
HETATM   10  F   UNL     1     -40.474 -45.748  14.135  1.00  0.00    -0.191 F 
HETATM   11  F   UNL     1     -38.479 -45.052  13.585  1.00  0.00    -0.191 F 
ENDBRANCH   4   9
ENDBRANCH   2   3
ENDBRANCH   1   2
BRANCH   1  12
HETATM   12  N   UNL     1     -41.495 -50.910  11.587  1.00  0.00    -0.343 N 
HETATM   13  C   UNL     1     -41.014 -52.035  12.206  1.00  0.00     0.318 C 
HETATM   14  O   UNL     1     -39.805 -52.198  12.369  1.00  0.00    -0.247 OA
HETATM   15  N   UNL     1     -41.946 -52.971  12.613  1.00  0.00    -0.333 N 
HETATM   16  C   UNL     1     -43.391 -52.937  12.366  1.00  0.00     0.137 C 
HETATM   17  C   UNL     1     -41.458 -54.200  13.255  1.00  0.00     0.137 C 
HETATM   18  C   UNL     1     -44.200 -53.005  13.665  1.00  0.00     0.093 C 
HETATM   19  S   UNL     1     -43.870 -54.531  14.610  1.00  0.00    -0.166 SA
HETATM   20  C   UNL     1     -42.047 -54.413  14.649  1.00  0.00     0.093 C 
HETATM   21  H   UNL     1     -42.389 -50.559  11.910  1.00  0.00     0.164 HD
ENDBRANCH   1  12
TORSDOF 4
ENDMDL
MODEL 8
REMARK VINA RESULT:      -5.0      2.481      3.037
REMARK  4 active torsions:
REMARK  status: ('A' for Active; 'I' for Inactive)
REMARK    1  A    between atoms: C_2  and  N_4 
REMARK    2  A    between atoms: C_9  and  C_10 
REMARK    3  A    between atoms: C_10  and  C_11 
REMARK    4  A    between atoms: C_11  and  N_12 
REMARK       I    between atoms: N_12  and  C_13 
REMARK       I    between atoms: C_13  and  N_15 
ROOT
HETATM    1  C   UNL     1     -42.435 -48.919  11.628  1.00  0.00     0.132 C 
ENDROOT
BRANCH   1   2
HETATM    2  C   UNL     1     -41.886 -48.112  10.449  1.00  0.00     0.096 C 
BRANCH   2   3
HETATM    3  C   UNL     1     -41.873 -46.639  10.719  1.00  0.00     0.088 A 
HETATM    4  N   UNL     1     -42.758 -45.725  10.187  1.00  0.00    -0.289 N 
HETATM    5  C   UNL     1     -42.475 -44.501  10.740  1.00  0.00     0.114 A 
HETATM    6  C   UNL     1     -41.408 -44.721  11.574  1.00  0.00     0.107 A 
HETATM    7  N   UNL     1     -41.033 -46.036  11.542  1.00  0.00    -0.354 N 
ATOM      8  HN  UNL     1     -40.261 -46.465  12.052  1.00  0.00     0.166 HD
BRANCH   4   9
HETATM    9  C   UNL     1     -43.815 -45.984   9.227  1.00  0.00     0.465 C 
HETATM   10  F   UNL     1     -44.726 -46.856   9.727  1.00  0.00    -0.191 F 
HETATM   11  F   UNL     1     -44.483 -44.844   8.915  1.00  0.00    -0.191 F 
ENDBRANCH   4   9
ENDBRANCH   2   3
ENDBRANCH   1   2
BRANCH   1  12
HETATM   12  N   UNL     1     -41.843 -50.241  11.789  1.00  0.00    -0.343 N 
HETATM   13  C   UNL     1     -40.724 -50.361  12.572  1.00  0.00     0.318 C 
HETATM   14  O   UNL     1     -40.184 -49.368  13.058  1.00  0.00    -0.247 OA
HETATM   15  N   UNL     1     -40.231 -51.638  12.765  1.00  0.00    -0.333 N 
HETATM   16  C   UNL     1     -40.720 -52.872  12.141  1.00  0.00     0.137 C 
HETATM   17  C   UNL     1     -39.016 -51.795  13.578  1.00  0.00     0.137 C 
HETATM   18  C   UNL     1     -41.121 -53.923  13.181  1.00  0.00     0.093 C 
HETATM   19  S   UNL     1     -39.727 -54.402  14.259  1.00  0.00    -0.166 SA
HETATM   20  C   UNL     1     -39.220 -52.724  14.774  1.00  0.00     0.093 C 
HETATM   21  H   UNL     1     -42.520 -50.992  11.844  1.00  0.00     0.164 HD
ENDBRANCH   1  12
TORSDOF 4
ENDMDL
MODEL 9
REMARK VINA RESULT:      -5.0      3.147      3.870
REMARK  4 active torsions:
REMARK  status: ('A' for Active; 'I' for Inactive)
REMARK    1  A    between atoms: C_2  and  N_4 
REMARK    2  A    between atoms: C_9  and  C_10 
REMARK    3  A    between atoms: C_10  and  C_11 
REMARK    4  A    between atoms: C_11  and  N_12 
REMARK       I    between atoms: N_12  and  C_13 
REMARK       I    between atoms: C_13  and  N_15 
ROOT
HETATM    1  C   UNL     1     -40.956 -51.505  11.934  1.00  0.00     0.132 C 
ENDROOT
BRANCH   1   2
HETATM    2  C   UNL     1     -40.582 -50.115  11.417  1.00  0.00     0.096 C 
BRANCH   2   3
HETATM    3  C   UNL     1     -40.005 -49.241  12.488  1.00  0.00     0.088 A 
HETATM    4  N   UNL     1     -38.663 -49.121  12.779  1.00  0.00    -0.289 N 
HETATM    5  C   UNL     1     -38.533 -48.165  13.756  1.00  0.00     0.114 A 
HETATM    6  C   UNL     1     -39.813 -47.758  14.034  1.00  0.00     0.107 A 
HETATM    7  N   UNL     1     -40.714 -48.436  13.261  1.00  0.00    -0.354 N 
ATOM      8  HN  UNL     1     -41.729 -48.341  13.278  1.00  0.00     0.166 HD
BRANCH   4   9
HETATM    9  C   UNL     1     -37.565 -49.848  12.171  1.00  0.00     0.465 C 
HETATM   10  F   UNL     1     -37.676 -51.181  12.400  1.00  0.00    -0.191 F 
HETATM   11  F   UNL     1     -37.547 -49.675  10.825  1.00  0.00    -0.191 F 
ENDBRANCH   4   9
ENDBRANCH   2   3
ENDBRANCH   1   2
BRANCH   1  12
HETATM   12  N   UNL     1     -42.381 -51.706  12.164  1.00  0.00    -0.343 N 
HETATM   13  C   UNL     1     -42.794 -52.909  12.675  1.00  0.00     0.318 C 
HETATM   14  O   UNL     1     -41.993 -53.826  12.857  1.00  0.00    -0.247 OA
HETATM   15  N   UNL     1     -44.142 -53.041  12.953  1.00  0.00    -0.333 N 
HETATM   16  C   UNL     1     -45.197 -52.064  12.667  1.00  0.00     0.137 C 
HETATM   17  C   UNL     1     -44.617 -54.330  13.476  1.00  0.00     0.137 C 
HETATM   18  C   UNL     1     -45.975 -51.671  13.926  1.00  0.00     0.093 C 
HETATM   19  S   UNL     1     -46.790 -53.101  14.714  1.00  0.00    -0.166 SA
HETATM   20  C   UNL     1     -45.331 -54.195  14.821  1.00  0.00     0.093 C 
HETATM   21  H   UNL     1     -42.865 -50.880  12.495  1.00  0.00     0.164 HD
ENDBRANCH   1  12
TORSDOF 4
ENDMDL
