MODEL 1
REMARK VINA RESULT:      -5.7      0.000      0.000
REMARK  2 active torsions:
REMARK  status: ('A' for Active; 'I' for Inactive)
REMARK    1  A    between atoms: C_8  and  N_9 
REMARK    2  A    between atoms: N_9  and  C_10 
ROOT
HETATM    1  C   UNL     1     -44.372 -54.036  12.820  1.00  0.00     0.068 C 
HETATM    2  C   UNL     1     -42.922 -53.929  13.178  1.00  0.00     0.009 A 
HETATM    3  C   UNL     1     -42.428 -54.560  14.304  1.00  0.00     0.049 A 
HETATM    4  C   UNL     1     -41.089 -54.378  14.567  1.00  0.00     0.009 A 
HETATM    5  C   UNL     1     -40.448 -54.977  15.782  1.00  0.00     0.068 C 
HETATM    6  N   UNL     1     -40.305 -53.607  13.789  1.00  0.00    -0.337 N 
ATOM      7  HN  UNL     1     -39.314 -53.485  13.997  1.00  0.00     0.168 HD
HETATM    8  C   UNL     1     -40.869 -53.006  12.733  1.00  0.00     0.158 A 
HETATM    9  N   UNL     1     -42.149 -53.156  12.381  1.00  0.00    -0.337 N 
ATOM     10  HN  UNL     1     -42.526 -52.708  11.547  1.00  0.00     0.168 HD
ENDROOT
BRANCH   8  11
HETATM   11  N   UNL     1     -40.042 -52.109  12.087  1.00  0.00    -0.257 NA
HETATM   12  H   UNL     1     -40.366 -52.119  11.123  1.00  0.00     0.131 HD
BRANCH  11  13
HETATM   13  C   UNL     1     -39.853 -50.782  12.647  1.00  0.00     0.094 C 
HETATM   14  C   UNL     1     -39.820 -49.761  11.488  1.00  0.00     0.054 C 
HETATM   15  C   UNL     1     -38.438 -49.137  11.642  1.00  0.00     0.123 C 
HETATM   16  C   UNL     1     -37.338 -50.139  11.289  1.00  0.00     0.034 C 
HETATM   17  O   UNL     1     -38.336 -49.071  13.082  1.00  0.00    -0.379 OA
HETATM   18  C   UNL     1     -37.297 -51.023  12.534  1.00  0.00     0.036 C 
HETATM   19  C   UNL     1     -38.494 -50.503  13.327  1.00  0.00     0.140 C 
ENDBRANCH  11  13
ENDBRANCH   8  11
TORSDOF 2
ENDMDL
MODEL 2
REMARK VINA RESULT:      -5.6      3.567      5.786
REMARK  2 active torsions:
REMARK  status: ('A' for Active; 'I' for Inactive)
REMARK    1  A    between atoms: C_8  and  N_9 
REMARK    2  A    between atoms: N_9  and  C_10 
ROOT
HETATM    1  C   UNL     1     -44.582 -47.415   9.812  1.00  0.00     0.068 C 
HETATM    2  C   UNL     1     -43.123 -47.360  10.148  1.00  0.00     0.009 A 
HETATM    3  C   UNL     1     -42.459 -46.150  10.198  1.00  0.00     0.049 A 
HETATM    4  C   UNL     1     -41.113 -46.203  10.486  1.00  0.00     0.009 A 
HETATM    5  C   UNL     1     -40.278 -44.961  10.525  1.00  0.00     0.068 C 
HETATM    6  N   UNL     1     -40.470 -47.370  10.684  1.00  0.00    -0.337 N 
ATOM      7  HN  UNL     1     -39.473 -47.391  10.899  1.00  0.00     0.168 HD
HETATM    8  C   UNL     1     -41.182 -48.501  10.588  1.00  0.00     0.158 A 
HETATM    9  N   UNL     1     -42.495 -48.541  10.351  1.00  0.00    -0.337 N 
ATOM     10  HN  UNL     1     -43.003 -49.425  10.324  1.00  0.00     0.168 HD
ENDROOT
BRANCH   8  11
HETATM   11  N   UNL     1     -40.421 -49.652  10.641  1.00  0.00    -0.257 NA
HETATM   12  H   UNL     1     -39.525 -49.378  10.245  1.00  0.00     0.131 HD
BRANCH  11  13
HETATM   13  C   UNL     1     -40.329 -50.390  11.888  1.00  0.00     0.094 C 
HETATM   14  C   UNL     1     -40.671 -49.433  13.051  1.00  0.00     0.054 C 
HETATM   15  C   UNL     1     -39.394 -49.462  13.883  1.00  0.00     0.123 C 
HETATM   16  C   UNL     1     -38.244 -48.766  13.153  1.00  0.00     0.034 C 
HETATM   17  O   UNL     1     -39.030 -50.855  13.763  1.00  0.00    -0.379 OA
HETATM   18  C   UNL     1     -37.835 -49.819  12.124  1.00  0.00     0.036 C 
HETATM   19  C   UNL     1     -38.923 -50.875  12.306  1.00  0.00     0.140 C 
ENDBRANCH  11  13
ENDBRANCH   8  11
TORSDOF 2
ENDMDL
MODEL 3
REMARK VINA RESULT:      -5.5      3.144      4.930
REMARK  2 active torsions:
REMARK  status: ('A' for Active; 'I' for Inactive)
REMARK    1  A    between atoms: C_8  and  N_9 
REMARK    2  A    between atoms: N_9  and  C_10 
ROOT
HETATM    1  C   UNL     1     -46.558 -51.270  16.502  1.00  0.00     0.068 C 
HETATM    2  C   UNL     1     -46.028 -51.273  15.101  1.00  0.00     0.009 A 
HETATM    3  C   UNL     1     -46.876 -51.483  14.030  1.00  0.00     0.049 A 
HETATM    4  C   UNL     1     -46.291 -51.499  12.784  1.00  0.00     0.009 A 
HETATM    5  C   UNL     1     -47.101 -51.760  11.550  1.00  0.00     0.068 C 
HETATM    6  N   UNL     1     -44.964 -51.344  12.613  1.00  0.00    -0.337 N 
ATOM      7  HN  UNL     1     -44.548 -51.355  11.682  1.00  0.00     0.168 HD
HETATM    8  C   UNL     1     -44.208 -51.175  13.707  1.00  0.00     0.158 A 
HETATM    9  N   UNL     1     -44.694 -51.109  14.949  1.00  0.00    -0.337 N 
ATOM     10  HN  UNL     1     -44.084 -50.942  15.749  1.00  0.00     0.168 HD
ENDROOT
BRANCH   8  11
HETATM   11  N   UNL     1     -42.850 -51.189  13.461  1.00  0.00    -0.257 NA
HETATM   12  H   UNL     1     -42.428 -51.167  14.385  1.00  0.00     0.131 HD
BRANCH  11  13
HETATM   13  C   UNL     1     -42.298 -52.192  12.568  1.00  0.00     0.094 C 
HETATM   14  C   UNL     1     -42.332 -53.560  13.286  1.00  0.00     0.054 C 
HETATM   15  C   UNL     1     -40.859 -53.948  13.318  1.00  0.00     0.123 C 
HETATM   16  C   UNL     1     -40.070 -53.047  14.269  1.00  0.00     0.034 C 
HETATM   17  O   UNL     1     -40.430 -53.471  12.023  1.00  0.00    -0.379 OA
HETATM   18  C   UNL     1     -39.921 -51.768  13.448  1.00  0.00     0.036 C 
HETATM   19  C   UNL     1     -40.794 -52.072  12.232  1.00  0.00     0.140 C 
ENDBRANCH  11  13
ENDBRANCH   8  11
TORSDOF 2
ENDMDL
MODEL 4
REMARK VINA RESULT:      -5.4      3.468      6.406
REMARK  2 active torsions:
REMARK  status: ('A' for Active; 'I' for Inactive)
REMARK    1  A    between atoms: C_8  and  N_9 
REMARK    2  A    between atoms: N_9  and  C_10 
ROOT
HETATM    1  C   UNL     1     -40.289 -44.971  10.903  1.00  0.00     0.068 C 
HETATM    2  C   UNL     1     -41.104 -46.195  10.619  1.00  0.00     0.009 A 
HETATM    3  C   UNL     1     -42.412 -46.083  10.186  1.00  0.00     0.049 A 
HETATM    4  C   UNL     1     -43.089 -47.264   9.980  1.00  0.00     0.009 A 
HETATM    5  C   UNL     1     -44.525 -47.270   9.552  1.00  0.00     0.068 C 
HETATM    6  N   UNL     1     -42.523 -48.463  10.211  1.00  0.00    -0.337 N 
ATOM      7  HN  UNL     1     -43.039 -49.329  10.051  1.00  0.00     0.168 HD
HETATM    8  C   UNL     1     -41.260 -48.484  10.659  1.00  0.00     0.158 A 
HETATM    9  N   UNL     1     -40.516 -47.391  10.850  1.00  0.00    -0.337 N 
ATOM     10  HN  UNL     1     -39.546 -47.456  11.157  1.00  0.00     0.168 HD
ENDROOT
BRANCH   8  11
HETATM   11  N   UNL     1     -40.812 -49.737  11.025  1.00  0.00    -0.257 NA
HETATM   12  H   UNL     1     -40.001 -49.896  10.434  1.00  0.00     0.131 HD
BRANCH  11  13
HETATM   13  C   UNL     1     -40.604 -50.038  12.430  1.00  0.00     0.094 C 
HETATM   14  C   UNL     1     -39.399 -50.996  12.554  1.00  0.00     0.054 C 
HETATM   15  C   UNL     1     -40.022 -52.217  13.221  1.00  0.00     0.123 C 
HETATM   16  C   UNL     1     -40.978 -52.939  12.271  1.00  0.00     0.034 C 
HETATM   17  O   UNL     1     -40.934 -51.580  14.143  1.00  0.00    -0.379 OA
HETATM   18  C   UNL     1     -42.211 -52.039  12.313  1.00  0.00     0.036 C 
HETATM   19  C   UNL     1     -41.708 -50.856  13.137  1.00  0.00     0.140 C 
ENDBRANCH  11  13
ENDBRANCH   8  11
TORSDOF 2
ENDMDL
MODEL 5
REMARK VINA RESULT:      -5.4      2.484      6.063
REMARK  2 active torsions:
REMARK  status: ('A' for Active; 'I' for Inactive)
REMARK    1  A    between atoms: C_8  and  N_9 
REMARK    2  A    between atoms: N_9  and  C_10 
ROOT
HETATM    1  C   UNL     1     -37.729 -50.851  12.659  1.00  0.00     0.068 C 
HETATM    2  C   UNL     1     -39.099 -50.531  12.147  1.00  0.00     0.009 A 
HETATM    3  C   UNL     1     -39.431 -49.239  11.787  1.00  0.00     0.049 A 
HETATM    4  C   UNL     1     -40.723 -49.038  11.357  1.00  0.00     0.009 A 
HETATM    5  C   UNL     1     -41.213 -47.673  10.980  1.00  0.00     0.068 C 
HETATM    6  N   UNL     1     -41.626 -50.037  11.311  1.00  0.00    -0.337 N 
ATOM      7  HN  UNL     1     -42.579 -49.871  10.987  1.00  0.00     0.168 HD
HETATM    8  C   UNL     1     -41.232 -51.255  11.706  1.00  0.00     0.158 A 
HETATM    9  N   UNL     1     -39.990 -51.548  12.102  1.00  0.00    -0.337 N 
ATOM     10  HN  UNL     1     -39.725 -52.499  12.358  1.00  0.00     0.168 HD
ENDROOT
BRANCH   8  11
HETATM   11  N   UNL     1     -42.253 -52.180  11.785  1.00  0.00    -0.257 NA
HETATM   12  H   UNL     1     -42.019 -52.873  11.079  1.00  0.00     0.131 HD
BRANCH  11  13
HETATM   13  C   UNL     1     -42.616 -52.733  13.078  1.00  0.00     0.094 C 
HETATM   14  C   UNL     1     -43.667 -53.844  12.858  1.00  0.00     0.054 C 
HETATM   15  C   UNL     1     -44.859 -53.326  13.654  1.00  0.00     0.123 C 
HETATM   16  C   UNL     1     -45.474 -52.093  12.990  1.00  0.00     0.034 C 
HETATM   17  O   UNL     1     -44.187 -52.751  14.796  1.00  0.00    -0.379 OA
HETATM   18  C   UNL     1     -44.485 -50.995  13.376  1.00  0.00     0.036 C 
HETATM   19  C   UNL     1     -43.372 -51.797  14.047  1.00  0.00     0.140 C 
ENDBRANCH  11  13
ENDBRANCH   8  11
TORSDOF 2
ENDMDL
MODEL 6
REMARK VINA RESULT:      -5.4      3.479      6.005
REMARK  2 active torsions:
REMARK  status: ('A' for Active; 'I' for Inactive)
REMARK    1  A    between atoms: C_8  and  N_9 
REMARK    2  A    between atoms: N_9  and  C_10 
ROOT
HETATM    1  C   UNL     1     -40.375 -44.917  10.912  1.00  0.00     0.068 C 
HETATM    2  C   UNL     1     -41.131 -46.179  10.635  1.00  0.00     0.009 A 
HETATM    3  C   UNL     1     -42.494 -46.147  10.408  1.00  0.00     0.049 A 
HETATM    4  C   UNL     1     -43.106 -47.361  10.192  1.00  0.00     0.009 A 
HETATM    5  C   UNL     1     -44.586 -47.457   9.977  1.00  0.00     0.068 C 
HETATM    6  N   UNL     1     -42.424 -48.522  10.225  1.00  0.00    -0.337 N 
ATOM      7  HN  UNL     1     -42.893 -49.413  10.061  1.00  0.00     0.168 HD
HETATM    8  C   UNL     1     -41.110 -48.469  10.482  1.00  0.00     0.158 A 
HETATM    9  N   UNL     1     -40.428 -47.335  10.665  1.00  0.00    -0.337 N 
ATOM     10  HN  UNL     1     -39.421 -47.340  10.821  1.00  0.00     0.168 HD
ENDROOT
BRANCH   8  11
HETATM   11  N   UNL     1     -40.520 -49.704  10.660  1.00  0.00    -0.257 NA
HETATM   12  H   UNL     1     -39.603 -49.608  10.232  1.00  0.00     0.131 HD
BRANCH  11  13
HETATM   13  C   UNL     1     -40.510 -50.305  11.982  1.00  0.00     0.094 C 
HETATM   14  C   UNL     1     -40.604 -49.177  13.034  1.00  0.00     0.054 C 
HETATM   15  C   UNL     1     -39.317 -49.364  13.829  1.00  0.00     0.123 C 
HETATM   16  C   UNL     1     -38.092 -48.992  12.991  1.00  0.00     0.034 C 
HETATM   17  O   UNL     1     -39.233 -50.806  13.863  1.00  0.00    -0.379 OA
HETATM   18  C   UNL     1     -37.944 -50.211  12.082  1.00  0.00     0.036 C 
HETATM   19  C   UNL     1     -39.204 -51.007  12.416  1.00  0.00     0.140 C 
ENDBRANCH  11  13
ENDBRANCH   8  11
TORSDOF 2
ENDMDL
MODEL 7
REMARK VINA RESULT:      -5.4      2.548      5.839
REMARK  2 active torsions:
REMARK  status: ('A' for Active; 'I' for Inactive)
REMARK    1  A    between atoms: C_8  and  N_9 
REMARK    2  A    between atoms: N_9  and  C_10 
ROOT
HETATM    1  C   UNL     1     -41.369 -47.609  10.886  1.00  0.00     0.068 C 
HETATM    2  C   UNL     1     -40.920 -48.950  11.379  1.00  0.00     0.009 A 
HETATM    3  C   UNL     1     -39.589 -49.183  11.667  1.00  0.00     0.049 A 
HETATM    4  C   UNL     1     -39.268 -50.455  12.085  1.00  0.00     0.009 A 
HETATM    5  C   UNL     1     -37.852 -50.840  12.385  1.00  0.00     0.068 C 
HETATM    6  N   UNL     1     -40.193 -51.430  12.185  1.00  0.00    -0.337 N 
ATOM      7  HN  UNL     1     -39.938 -52.366  12.499  1.00  0.00     0.168 HD
HETATM    8  C   UNL     1     -41.457 -51.129  11.858  1.00  0.00     0.158 A 
HETATM    9  N   UNL     1     -41.864 -49.914  11.480  1.00  0.00    -0.337 N 
ATOM     10  HN  UNL     1     -42.844 -49.722  11.277  1.00  0.00     0.168 HD
ENDROOT
BRANCH   8  11
HETATM   11  N   UNL     1     -42.306 -52.217  11.830  1.00  0.00    -0.257 NA
HETATM   12  H   UNL     1     -41.862 -52.864  11.182  1.00  0.00     0.131 HD
BRANCH  11  13
HETATM   13  C   UNL     1     -42.739 -52.817  13.079  1.00  0.00     0.094 C 
HETATM   14  C   UNL     1     -43.721 -53.966  12.757  1.00  0.00     0.054 C 
HETATM   15  C   UNL     1     -44.991 -53.519  13.472  1.00  0.00     0.123 C 
HETATM   16  C   UNL     1     -45.608 -52.297  12.789  1.00  0.00     0.034 C 
HETATM   17  O   UNL     1     -44.431 -52.943  14.673  1.00  0.00    -0.379 OA
HETATM   18  C   UNL     1     -44.700 -51.168  13.272  1.00  0.00     0.036 C 
HETATM   19  C   UNL     1     -43.606 -51.937  14.008  1.00  0.00     0.140 C 
ENDBRANCH  11  13
ENDBRANCH   8  11
TORSDOF 2
ENDMDL
MODEL 8
REMARK VINA RESULT:      -5.4      3.217      4.698
REMARK  2 active torsions:
REMARK  status: ('A' for Active; 'I' for Inactive)
REMARK    1  A    between atoms: C_8  and  N_9 
REMARK    2  A    between atoms: N_9  and  C_10 
ROOT
HETATM    1  C   UNL     1     -41.963 -52.293  13.489  1.00  0.00     0.068 C 
HETATM    2  C   UNL     1     -41.054 -51.449  12.649  1.00  0.00     0.009 A 
HETATM    3  C   UNL     1     -39.684 -51.509  12.819  1.00  0.00     0.049 A 
HETATM    4  C   UNL     1     -38.933 -50.674  12.023  1.00  0.00     0.009 A 
HETATM    5  C   UNL     1     -37.441 -50.618  12.146  1.00  0.00     0.068 C 
HETATM    6  N   UNL     1     -39.499 -49.824  11.144  1.00  0.00    -0.337 N 
ATOM      7  HN  UNL     1     -38.927 -49.214  10.560  1.00  0.00     0.168 HD
HETATM    8  C   UNL     1     -40.836 -49.807  11.062  1.00  0.00     0.158 A 
HETATM    9  N   UNL     1     -41.639 -50.607  11.767  1.00  0.00    -0.337 N 
ATOM     10  HN  UNL     1     -42.651 -50.585  11.644  1.00  0.00     0.168 HD
ENDROOT
BRANCH   8  11
HETATM   11  N   UNL     1     -41.338 -48.800  10.263  1.00  0.00    -0.257 NA
HETATM   12  H   UNL     1     -41.650 -49.279   9.422  1.00  0.00     0.131 HD
BRANCH  11  13
HETATM   13  C   UNL     1     -42.300 -47.863  10.815  1.00  0.00     0.094 C 
HETATM   14  C   UNL     1     -42.668 -46.836   9.722  1.00  0.00     0.054 C 
HETATM   15  C   UNL     1     -42.241 -45.517  10.357  1.00  0.00     0.123 C 
HETATM   16  C   UNL     1     -40.718 -45.422  10.462  1.00  0.00     0.034 C 
HETATM   17  O   UNL     1     -42.625 -45.747  11.731  1.00  0.00    -0.379 OA
HETATM   18  C   UNL     1     -40.423 -46.324  11.658  1.00  0.00     0.036 C 
HETATM   19  C   UNL     1     -41.795 -46.931  11.940  1.00  0.00     0.140 C 
ENDBRANCH  11  13
ENDBRANCH   8  11
TORSDOF 2
ENDMDL
MODEL 9
REMARK VINA RESULT:      -5.3      0.261      2.134
REMARK  2 active torsions:
REMARK  status: ('A' for Active; 'I' for Inactive)
REMARK    1  A    between atoms: C_8  and  N_9 
REMARK    2  A    between atoms: N_9  and  C_10 
ROOT
HETATM    1  C   UNL     1     -40.773 -55.109  15.972  1.00  0.00     0.068 C 
HETATM    2  C   UNL     1     -41.299 -54.351  14.792  1.00  0.00     0.009 A 
HETATM    3  C   UNL     1     -42.577 -54.585  14.321  1.00  0.00     0.049 A 
HETATM    4  C   UNL     1     -42.961 -53.862  13.214  1.00  0.00     0.009 A 
HETATM    5  C   UNL     1     -44.306 -54.060  12.586  1.00  0.00     0.068 C 
HETATM    6  N   UNL     1     -42.131 -52.993  12.604  1.00  0.00    -0.337 N 
ATOM      7  HN  UNL     1     -42.433 -52.464  11.786  1.00  0.00     0.168 HD
HETATM    8  C   UNL     1     -40.898 -52.847  13.107  1.00  0.00     0.158 A 
HETATM    9  N   UNL     1     -40.455 -53.478  14.197  1.00  0.00    -0.337 N 
ATOM     10  HN  UNL     1     -39.519 -53.308  14.566  1.00  0.00     0.168 HD
ENDROOT
BRANCH   8  11
HETATM   11  N   UNL     1     -40.063 -52.068  12.332  1.00  0.00    -0.257 NA
HETATM   12  H   UNL     1     -40.435 -52.161  11.391  1.00  0.00     0.131 HD
BRANCH  11  13
HETATM   13  C   UNL     1     -39.781 -50.703  12.738  1.00  0.00     0.094 C 
HETATM   14  C   UNL     1     -39.704 -49.821  11.472  1.00  0.00     0.054 C 
HETATM   15  C   UNL     1     -38.283 -49.274  11.543  1.00  0.00     0.123 C 
HETATM   16  C   UNL     1     -37.253 -50.377  11.293  1.00  0.00     0.034 C 
HETATM   17  O   UNL     1     -38.153 -49.054  12.965  1.00  0.00    -0.379 OA
HETATM   18  C   UNL     1     -37.248 -51.118  12.629  1.00  0.00     0.036 C 
HETATM   19  C   UNL     1     -38.397 -50.437  13.370  1.00  0.00     0.140 C 
ENDBRANCH  11  13
ENDBRANCH   8  11
TORSDOF 2
ENDMDL
