MODEL 1
REMARK VINA RESULT:      -6.2      0.000      0.000
REMARK  2 active torsions:
REMARK  status: ('A' for Active; 'I' for Inactive)
REMARK    1  A    between atoms: C_7  and  N_8 
REMARK       I    between atoms: N_8  and  C_9 
REMARK       I    between atoms: C_9  and  N_11 
REMARK    2  A    between atoms: N_11  and  C_12 
ROOT
HETATM    1  N   UNL     1     -42.317 -51.775  11.959  1.00  0.00    -0.338 N 
HETATM    2  C   UNL     1     -42.057 -50.444  12.217  1.00  0.00     0.321 C 
HETATM    3  O   UNL     1     -42.334 -49.920  13.291  1.00  0.00    -0.247 OA
HETATM    4  N   UNL     1     -41.515 -49.791  11.136  1.00  0.00    -0.304 N 
HETATM    5  H   UNL     1     -41.717 -52.227  11.288  1.00  0.00     0.164 HD
HETATM    6  H   UNL     1     -41.710 -50.187  10.222  1.00  0.00     0.171 HD
ENDROOT
BRANCH   1   7
HETATM    7  C   UNL     1     -42.930 -52.589  13.004  1.00  0.00     0.089 C 
HETATM    8  C   UNL     1     -41.896 -53.361  13.861  1.00  0.00     0.004 C 
HETATM    9  C   UNL     1     -41.029 -54.332  13.051  1.00  0.00     0.012 C 
HETATM   10  C   UNL     1     -42.628 -54.097  14.997  1.00  0.00     0.006 C 
HETATM   11  C   UNL     1     -43.755 -54.999  14.493  1.00  0.00     0.001 C 
HETATM   12  C   UNL     1     -44.727 -54.256  13.579  1.00  0.00     0.002 C 
HETATM   13  C   UNL     1     -44.017 -53.514  12.445  1.00  0.00     0.026 C 
ENDBRANCH   1   7
BRANCH   4  14
HETATM   14  C   UNL     1     -41.164 -48.451  11.114  1.00  0.00     0.105 A 
HETATM   15  C   UNL     1     -40.042 -47.937  11.644  1.00  0.00     0.037 A 
HETATM   16  C   UNL     1     -39.792 -46.519  11.652  1.00  0.00     0.020 A 
HETATM   17  C   UNL     1     -40.704 -45.673  11.163  1.00  0.00     0.094 A 
HETATM   18  N   UNL     1     -41.876 -46.137  10.597  1.00  0.00    -0.327 N 
HETATM   19  C   UNL     1     -42.875 -45.192  10.138  1.00  0.00     0.159 C 
HETATM   20  C   UNL     1     -42.154 -47.502  10.473  1.00  0.00     0.274 A 
HETATM   21  O   UNL     1     -43.157 -47.958   9.919  1.00  0.00    -0.266 OA
ENDBRANCH   4  14
TORSDOF 2
ENDMDL
MODEL 2
REMARK VINA RESULT:      -6.0      1.663      2.083
REMARK  2 active torsions:
REMARK  status: ('A' for Active; 'I' for Inactive)
REMARK    1  A    between atoms: C_7  and  N_8 
REMARK       I    between atoms: N_8  and  C_9 
REMARK       I    between atoms: C_9  and  N_11 
REMARK    2  A    between atoms: N_11  and  C_12 
ROOT
HETATM    1  N   UNL     1     -43.687 -51.502  12.804  1.00  0.00    -0.338 N 
HETATM    2  C   UNL     1     -42.993 -50.310  12.854  1.00  0.00     0.321 C 
HETATM    3  O   UNL     1     -43.123 -49.516  13.779  1.00  0.00    -0.247 OA
HETATM    4  N   UNL     1     -42.203 -50.112  11.747  1.00  0.00    -0.304 N 
HETATM    5  H   UNL     1     -43.248 -52.256  12.299  1.00  0.00     0.164 HD
HETATM    6  H   UNL     1     -42.476 -50.599  10.900  1.00  0.00     0.171 HD
ENDROOT
BRANCH   1   7
HETATM    7  C   UNL     1     -44.597 -51.834  13.896  1.00  0.00     0.089 C 
HETATM    8  C   UNL     1     -44.487 -53.309  14.356  1.00  0.00     0.004 C 
HETATM    9  C   UNL     1     -44.799 -54.323  13.250  1.00  0.00     0.012 C 
HETATM   10  C   UNL     1     -45.400 -53.529  15.575  1.00  0.00     0.006 C 
HETATM   11  C   UNL     1     -46.847 -53.107  15.320  1.00  0.00     0.001 C 
HETATM   12  C   UNL     1     -46.947 -51.680  14.784  1.00  0.00     0.002 C 
HETATM   13  C   UNL     1     -46.043 -51.440  13.574  1.00  0.00     0.026 C 
ENDBRANCH   1   7
BRANCH   4  14
HETATM   14  C   UNL     1     -41.406 -48.998  11.532  1.00  0.00     0.105 A 
HETATM   15  C   UNL     1     -40.127 -48.876  11.924  1.00  0.00     0.037 A 
HETATM   16  C   UNL     1     -39.393 -47.652  11.734  1.00  0.00     0.020 A 
HETATM   17  C   UNL     1     -39.993 -46.586  11.195  1.00  0.00     0.094 A 
HETATM   18  N   UNL     1     -41.304 -46.648  10.764  1.00  0.00    -0.327 N 
HETATM   19  C   UNL     1     -41.947 -45.455  10.247  1.00  0.00     0.159 C 
HETATM   20  C   UNL     1     -42.057 -47.825  10.833  1.00  0.00     0.274 A 
HETATM   21  O   UNL     1     -43.207 -47.939  10.403  1.00  0.00    -0.266 OA
ENDBRANCH   4  14
TORSDOF 2
ENDMDL
MODEL 3
REMARK VINA RESULT:      -6.0      1.071      1.757
REMARK  2 active torsions:
REMARK  status: ('A' for Active; 'I' for Inactive)
REMARK    1  A    between atoms: C_7  and  N_8 
REMARK       I    between atoms: N_8  and  C_9 
REMARK       I    between atoms: C_9  and  N_11 
REMARK    2  A    between atoms: N_11  and  C_12 
ROOT
HETATM    1  N   UNL     1     -42.124 -51.597  12.134  1.00  0.00    -0.338 N 
HETATM    2  C   UNL     1     -42.435 -50.252  12.138  1.00  0.00     0.321 C 
HETATM    3  O   UNL     1     -43.210 -49.763  12.952  1.00  0.00    -0.247 OA
HETATM    4  N   UNL     1     -41.825 -49.566  11.115  1.00  0.00    -0.304 N 
HETATM    5  H   UNL     1     -41.220 -51.847  11.766  1.00  0.00     0.164 HD
HETATM    6  H   UNL     1     -41.561 -50.107  10.298  1.00  0.00     0.171 HD
ENDROOT
BRANCH   1   7
HETATM    7  C   UNL     1     -42.728 -52.463  13.141  1.00  0.00     0.089 C 
HETATM    8  C   UNL     1     -41.688 -53.279  13.949  1.00  0.00     0.004 C 
HETATM    9  C   UNL     1     -40.829 -54.208  13.082  1.00  0.00     0.012 C 
HETATM   10  C   UNL     1     -42.410 -54.072  15.052  1.00  0.00     0.006 C 
HETATM   11  C   UNL     1     -43.543 -54.946  14.513  1.00  0.00     0.001 C 
HETATM   12  C   UNL     1     -44.521 -54.156  13.647  1.00  0.00     0.002 C 
HETATM   13  C   UNL     1     -43.821 -53.357  12.546  1.00  0.00     0.026 C 
ENDBRANCH   1   7
BRANCH   4  14
HETATM   14  C   UNL     1     -41.968 -48.207  10.878  1.00  0.00     0.105 A 
HETATM   15  C   UNL     1     -43.045 -47.629  10.322  1.00  0.00     0.037 A 
HETATM   16  C   UNL     1     -43.079 -46.219  10.032  1.00  0.00     0.020 A 
HETATM   17  C   UNL     1     -42.010 -45.457  10.278  1.00  0.00     0.094 A 
HETATM   18  N   UNL     1     -40.872 -45.988  10.856  1.00  0.00    -0.327 N 
HETATM   19  C   UNL     1     -39.704 -45.150  11.045  1.00  0.00     0.159 C 
HETATM   20  C   UNL     1     -40.791 -47.329  11.245  1.00  0.00     0.274 A 
HETATM   21  O   UNL     1     -39.821 -47.827  11.820  1.00  0.00    -0.266 OA
ENDBRANCH   4  14
TORSDOF 2
ENDMDL
MODEL 4
REMARK VINA RESULT:      -6.0      1.483      7.256
REMARK  2 active torsions:
REMARK  status: ('A' for Active; 'I' for Inactive)
REMARK    1  A    between atoms: C_7  and  N_8 
REMARK       I    between atoms: N_8  and  C_9 
REMARK       I    between atoms: C_9  and  N_11 
REMARK    2  A    between atoms: N_11  and  C_12 
ROOT
HETATM    1  N   UNL     1     -41.995 -49.744  11.368  1.00  0.00    -0.338 N 
HETATM    2  C   UNL     1     -42.257 -50.535  12.468  1.00  0.00     0.321 C 
HETATM    3  O   UNL     1     -42.313 -50.076  13.604  1.00  0.00    -0.247 OA
HETATM    4  N   UNL     1     -42.392 -51.864  12.144  1.00  0.00    -0.304 N 
HETATM    5  H   UNL     1     -42.372 -50.060  10.488  1.00  0.00     0.164 HD
HETATM    6  H   UNL     1     -41.935 -52.172  11.292  1.00  0.00     0.171 HD
ENDROOT
BRANCH   1   7
HETATM    7  C   UNL     1     -41.790 -48.312  11.561  1.00  0.00     0.089 C 
HETATM    8  C   UNL     1     -42.874 -47.441  10.877  1.00  0.00     0.004 C 
HETATM    9  C   UNL     1     -42.948 -47.636   9.358  1.00  0.00     0.012 C 
HETATM   10  C   UNL     1     -42.635 -45.963  11.229  1.00  0.00     0.006 C 
HETATM   11  C   UNL     1     -41.218 -45.494  10.898  1.00  0.00     0.001 C 
HETATM   12  C   UNL     1     -40.151 -46.403  11.505  1.00  0.00     0.002 C 
HETATM   13  C   UNL     1     -40.374 -47.878  11.168  1.00  0.00     0.026 C 
ENDBRANCH   1   7
BRANCH   4  14
HETATM   14  C   UNL     1     -42.650 -52.878  13.053  1.00  0.00     0.105 A 
HETATM   15  C   UNL     1     -41.739 -53.434  13.869  1.00  0.00     0.037 A 
HETATM   16  C   UNL     1     -42.071 -54.543  14.726  1.00  0.00     0.020 A 
HETATM   17  C   UNL     1     -43.298 -55.072  14.695  1.00  0.00     0.094 A 
HETATM   18  N   UNL     1     -44.283 -54.542  13.883  1.00  0.00    -0.327 N 
HETATM   19  C   UNL     1     -45.583 -55.182  13.820  1.00  0.00     0.159 C 
HETATM   20  C   UNL     1     -44.065 -53.413  13.086  1.00  0.00     0.274 A 
HETATM   21  O   UNL     1     -44.932 -52.873  12.397  1.00  0.00    -0.266 OA
ENDBRANCH   4  14
TORSDOF 2
ENDMDL
MODEL 5
REMARK VINA RESULT:      -5.8      1.567      7.336
REMARK  2 active torsions:
REMARK  status: ('A' for Active; 'I' for Inactive)
REMARK    1  A    between atoms: C_7  and  N_8 
REMARK       I    between atoms: N_8  and  C_9 
REMARK       I    between atoms: C_9  and  N_11 
REMARK    2  A    between atoms: N_11  and  C_12 
ROOT
HETATM    1  N   UNL     1     -42.017 -49.563  11.269  1.00  0.00    -0.338 N 
HETATM    2  C   UNL     1     -42.008 -50.411  12.358  1.00  0.00     0.321 C 
HETATM    3  O   UNL     1     -41.839 -50.004  13.502  1.00  0.00    -0.247 OA
HETATM    4  N   UNL     1     -42.156 -51.731  12.002  1.00  0.00    -0.304 N 
HETATM    5  H   UNL     1     -42.559 -49.860  10.473  1.00  0.00     0.164 HD
HETATM    6  H   UNL     1     -41.879 -51.981  11.058  1.00  0.00     0.171 HD
ENDROOT
BRANCH   1   7
HETATM    7  C   UNL     1     -41.831 -48.132  11.489  1.00  0.00     0.089 C 
HETATM    8  C   UNL     1     -42.928 -47.265  10.821  1.00  0.00     0.004 C 
HETATM    9  C   UNL     1     -43.002 -47.433   9.299  1.00  0.00     0.012 C 
HETATM   10  C   UNL     1     -42.709 -45.790  11.201  1.00  0.00     0.006 C 
HETATM   11  C   UNL     1     -41.300 -45.295  10.876  1.00  0.00     0.001 C 
HETATM   12  C   UNL     1     -40.219 -46.200  11.464  1.00  0.00     0.002 C 
HETATM   13  C   UNL     1     -40.422 -47.672  11.101  1.00  0.00     0.026 C 
ENDBRANCH   1   7
BRANCH   4  14
HETATM   14  C   UNL     1     -42.175 -52.794  12.891  1.00  0.00     0.105 A 
HETATM   15  C   UNL     1     -43.283 -53.344  13.415  1.00  0.00     0.037 A 
HETATM   16  C   UNL     1     -43.213 -54.393  14.398  1.00  0.00     0.020 A 
HETATM   17  C   UNL     1     -42.027 -54.816  14.844  1.00  0.00     0.094 A 
HETATM   18  N   UNL     1     -40.849 -54.297  14.342  1.00  0.00    -0.327 N 
HETATM   19  C   UNL     1     -39.580 -54.729  14.896  1.00  0.00     0.159 C 
HETATM   20  C   UNL     1     -40.831 -53.338  13.324  1.00  0.00     0.274 A 
HETATM   21  O   UNL     1     -39.804 -52.896  12.805  1.00  0.00    -0.266 OA
ENDBRANCH   4  14
TORSDOF 2
ENDMDL
MODEL 6
REMARK VINA RESULT:      -5.6      2.685      6.888
REMARK  2 active torsions:
REMARK  status: ('A' for Active; 'I' for Inactive)
REMARK    1  A    between atoms: C_7  and  N_8 
REMARK       I    between atoms: N_8  and  C_9 
REMARK       I    between atoms: C_9  and  N_11 
REMARK    2  A    between atoms: N_11  and  C_12 
ROOT
HETATM    1  N   UNL     1     -41.752 -50.090  12.609  1.00  0.00    -0.338 N 
HETATM    2  C   UNL     1     -42.584 -50.876  13.380  1.00  0.00     0.321 C 
HETATM    3  O   UNL     1     -42.192 -51.447  14.391  1.00  0.00    -0.247 OA
HETATM    4  N   UNL     1     -43.852 -50.974  12.857  1.00  0.00    -0.304 N 
HETATM    5  H   UNL     1     -42.190 -49.347  12.089  1.00  0.00     0.164 HD
HETATM    6  H   UNL     1     -43.945 -50.820  11.858  1.00  0.00     0.171 HD
ENDROOT
BRANCH   1   7
HETATM    7  C   UNL     1     -40.361 -49.923  13.019  1.00  0.00     0.089 C 
HETATM    8  C   UNL     1     -39.898 -48.444  13.023  1.00  0.00     0.004 C 
HETATM    9  C   UNL     1     -39.997 -47.767  11.651  1.00  0.00     0.012 C 
HETATM   10  C   UNL     1     -38.464 -48.363  13.572  1.00  0.00     0.006 C 
HETATM   11  C   UNL     1     -37.488 -49.275  12.828  1.00  0.00     0.001 C 
HETATM   12  C   UNL     1     -37.987 -50.717  12.751  1.00  0.00     0.002 C 
HETATM   13  C   UNL     1     -39.415 -50.818  12.211  1.00  0.00     0.026 C 
ENDBRANCH   1   7
BRANCH   4  14
HETATM   14  C   UNL     1     -44.886 -51.704  13.420  1.00  0.00     0.105 A 
HETATM   15  C   UNL     1     -45.875 -51.191  14.171  1.00  0.00     0.037 A 
HETATM   16  C   UNL     1     -46.867 -52.032  14.790  1.00  0.00     0.020 A 
HETATM   17  C   UNL     1     -46.797 -53.360  14.660  1.00  0.00     0.094 A 
HETATM   18  N   UNL     1     -45.809 -53.951  13.895  1.00  0.00    -0.327 N 
HETATM   19  C   UNL     1     -45.720 -55.397  13.830  1.00  0.00     0.159 C 
HETATM   20  C   UNL     1     -44.861 -53.200  13.193  1.00  0.00     0.274 A 
HETATM   21  O   UNL     1     -44.004 -53.684  12.450  1.00  0.00    -0.266 OA
ENDBRANCH   4  14
TORSDOF 2
ENDMDL
MODEL 7
REMARK VINA RESULT:      -5.2      2.964      3.850
REMARK  2 active torsions:
REMARK  status: ('A' for Active; 'I' for Inactive)
REMARK    1  A    between atoms: C_7  and  N_8 
REMARK       I    between atoms: N_8  and  C_9 
REMARK       I    between atoms: C_9  and  N_11 
REMARK    2  A    between atoms: N_11  and  C_12 
ROOT
HETATM    1  N   UNL     1     -43.798 -50.987  12.934  1.00  0.00    -0.338 N 
HETATM    2  C   UNL     1     -42.468 -50.845  13.276  1.00  0.00     0.321 C 
HETATM    3  O   UNL     1     -42.008 -51.304  14.316  1.00  0.00    -0.247 OA
HETATM    4  N   UNL     1     -41.762 -50.104  12.358  1.00  0.00    -0.304 N 
HETATM    5  H   UNL     1     -44.010 -50.985  11.949  1.00  0.00     0.164 HD
HETATM    6  H   UNL     1     -42.297 -49.455  11.790  1.00  0.00     0.171 HD
ENDROOT
BRANCH   1   7
HETATM    7  C   UNL     1     -44.683 -51.719  13.834  1.00  0.00     0.089 C 
HETATM    8  C   UNL     1     -45.773 -52.531  13.091  1.00  0.00     0.004 C 
HETATM    9  C   UNL     1     -46.701 -51.668  12.229  1.00  0.00     0.012 C 
HETATM   10  C   UNL     1     -46.580 -53.351  14.114  1.00  0.00     0.006 C 
HETATM   11  C   UNL     1     -47.159 -52.494  15.240  1.00  0.00     0.001 C 
HETATM   12  C   UNL     1     -46.096 -51.630  15.915  1.00  0.00     0.002 C 
HETATM   13  C   UNL     1     -45.280 -50.810  14.914  1.00  0.00     0.026 C 
ENDBRANCH   1   7
BRANCH   4  14
HETATM   14  C   UNL     1     -40.413 -49.800  12.455  1.00  0.00     0.105 A 
HETATM   15  C   UNL     1     -39.412 -50.579  12.016  1.00  0.00     0.037 A 
HETATM   16  C   UNL     1     -38.032 -50.228  12.230  1.00  0.00     0.020 A 
HETATM   17  C   UNL     1     -37.719 -49.125  12.916  1.00  0.00     0.094 A 
HETATM   18  N   UNL     1     -38.701 -48.276  13.390  1.00  0.00    -0.327 N 
HETATM   19  C   UNL     1     -38.331 -47.125  14.189  1.00  0.00     0.159 C 
HETATM   20  C   UNL     1     -40.061 -48.502  13.148  1.00  0.00     0.274 A 
HETATM   21  O   UNL     1     -40.963 -47.738  13.497  1.00  0.00    -0.266 OA
ENDBRANCH   4  14
TORSDOF 2
ENDMDL
MODEL 8
REMARK VINA RESULT:      -5.1      1.875      2.850
REMARK  2 active torsions:
REMARK  status: ('A' for Active; 'I' for Inactive)
REMARK    1  A    between atoms: C_7  and  N_8 
REMARK       I    between atoms: N_8  and  C_9 
REMARK       I    between atoms: C_9  and  N_11 
REMARK    2  A    between atoms: N_11  and  C_12 
ROOT
HETATM    1  N   UNL     1     -42.259 -51.203  12.822  1.00  0.00    -0.338 N 
HETATM    2  C   UNL     1     -41.933 -50.019  12.192  1.00  0.00     0.321 C 
HETATM    3  O   UNL     1     -40.779 -49.736  11.889  1.00  0.00    -0.247 OA
HETATM    4  N   UNL     1     -43.024 -49.205  12.000  1.00  0.00    -0.304 N 
HETATM    5  H   UNL     1     -43.188 -51.558  12.659  1.00  0.00     0.164 HD
HETATM    6  H   UNL     1     -43.809 -49.341  12.629  1.00  0.00     0.171 HD
ENDROOT
BRANCH   1   7
HETATM    7  C   UNL     1     -41.195 -52.155  13.126  1.00  0.00     0.089 C 
HETATM    8  C   UNL     1     -41.629 -53.633  12.952  1.00  0.00     0.004 C 
HETATM    9  C   UNL     1     -42.802 -54.038  13.851  1.00  0.00     0.012 C 
HETATM   10  C   UNL     1     -40.416 -54.548  13.186  1.00  0.00     0.006 C 
HETATM   11  C   UNL     1     -39.732 -54.299  14.531  1.00  0.00     0.001 C 
HETATM   12  C   UNL     1     -39.382 -52.827  14.737  1.00  0.00     0.002 C 
HETATM   13  C   UNL     1     -40.575 -51.899  14.504  1.00  0.00     0.026 C 
ENDBRANCH   1   7
BRANCH   4  14
HETATM   14  C   UNL     1     -42.984 -47.956  11.400  1.00  0.00     0.105 A 
HETATM   15  C   UNL     1     -43.022 -47.734  10.076  1.00  0.00     0.037 A 
HETATM   16  C   UNL     1     -42.892 -46.408   9.529  1.00  0.00     0.020 A 
HETATM   17  C   UNL     1     -42.687 -45.365  10.339  1.00  0.00     0.094 A 
HETATM   18  N   UNL     1     -42.646 -45.525  11.711  1.00  0.00    -0.327 N 
HETATM   19  C   UNL     1     -42.353 -44.384  12.558  1.00  0.00     0.159 C 
HETATM   20  C   UNL     1     -42.850 -46.765  12.324  1.00  0.00     0.274 A 
HETATM   21  O   UNL     1     -42.883 -46.939  13.544  1.00  0.00    -0.266 OA
ENDBRANCH   4  14
TORSDOF 2
ENDMDL
MODEL 9
REMARK VINA RESULT:      -5.0      5.285      8.289
REMARK  2 active torsions:
REMARK  status: ('A' for Active; 'I' for Inactive)
REMARK    1  A    between atoms: C_7  and  N_8 
REMARK       I    between atoms: N_8  and  C_9 
REMARK       I    between atoms: C_9  and  N_11 
REMARK    2  A    between atoms: N_11  and  C_12 
ROOT
HETATM    1  N   UNL     1     -42.766 -53.926  14.552  1.00  0.00    -0.338 N 
HETATM    2  C   UNL     1     -41.938 -54.165  15.630  1.00  0.00     0.321 C 
HETATM    3  O   UNL     1     -42.178 -53.724  16.749  1.00  0.00    -0.247 OA
HETATM    4  N   UNL     1     -40.822 -54.890  15.289  1.00  0.00    -0.304 N 
HETATM    5  H   UNL     1     -42.764 -54.621  13.822  1.00  0.00     0.164 HD
HETATM    6  H   UNL     1     -40.527 -54.842  14.319  1.00  0.00     0.171 HD
ENDROOT
BRANCH   1   7
HETATM    7  C   UNL     1     -43.975 -53.133  14.754  1.00  0.00     0.089 C 
HETATM    8  C   UNL     1     -45.243 -53.997  14.971  1.00  0.00     0.004 C 
HETATM    9  C   UNL     1     -45.562 -54.926  13.793  1.00  0.00     0.012 C 
HETATM   10  C   UNL     1     -46.436 -53.078  15.283  1.00  0.00     0.006 C 
HETATM   11  C   UNL     1     -46.645 -51.994  14.225  1.00  0.00     0.001 C 
HETATM   12  C   UNL     1     -45.371 -51.199  13.951  1.00  0.00     0.002 C 
HETATM   13  C   UNL     1     -44.171 -52.096  13.642  1.00  0.00     0.026 C 
ENDBRANCH   1   7
BRANCH   4  14
HETATM   14  C   UNL     1     -39.821 -55.265  16.171  1.00  0.00     0.105 A 
HETATM   15  C   UNL     1     -38.696 -54.569  16.405  1.00  0.00     0.037 A 
HETATM   16  C   UNL     1     -37.665 -55.070  17.277  1.00  0.00     0.020 A 
HETATM   17  C   UNL     1     -37.793 -56.273  17.844  1.00  0.00     0.094 A 
HETATM   18  N   UNL     1     -38.928 -57.037  17.651  1.00  0.00    -0.327 N 
HETATM   19  C   UNL     1     -39.005 -58.367  18.225  1.00  0.00     0.159 C 
HETATM   20  C   UNL     1     -40.010 -56.584  16.889  1.00  0.00     0.274 A 
HETATM   21  O   UNL     1     -41.065 -57.206  16.743  1.00  0.00    -0.266 OA
ENDBRANCH   4  14
TORSDOF 2
ENDMDL
