MODEL 1
REMARK VINA RESULT:      -5.8      0.000      0.000
REMARK  3 active torsions:
REMARK  status: ('A' for Active; 'I' for Inactive)
REMARK    1  A    between atoms: O_1  and  C_2 
REMARK    2  A    between atoms: C_5  and  N_8 
REMARK       I    between atoms: N_8  and  C_9 
REMARK       I    between atoms: C_9  and  N_11 
REMARK    3  A    between atoms: N_11  and  C_12 
ROOT
HETATM    1  N   UNL     1     -42.283 -48.575   9.790  1.00  0.00    -0.338 N 
HETATM    2  C   UNL     1     -41.146 -48.596  10.583  1.00  0.00     0.322 C 
HETATM    3  O   UNL     1     -40.675 -47.571  11.056  1.00  0.00    -0.247 OA
HETATM    4  N   UNL     1     -40.636 -49.867  10.684  1.00  0.00    -0.289 N 
HETATM    5  H   UNL     1     -42.867 -49.396   9.835  1.00  0.00     0.164 HD
HETATM    6  H   UNL     1     -40.940 -50.573  10.037  1.00  0.00     0.172 HD
ENDROOT
BRANCH   1   7
HETATM    7  C   UNL     1     -42.923 -47.296   9.481  1.00  0.00     0.086 C 
HETATM    8  C   UNL     1     -44.109 -47.013  10.412  1.00  0.00     0.028 C 
HETATM    9  C   UNL     1     -45.314 -47.906  10.107  1.00  0.00     0.034 C 
HETATM   10  C   UNL     1     -45.722 -47.834   8.636  1.00  0.00     0.118 C 
HETATM   11  C   UNL     1     -44.546 -48.126   7.703  1.00  0.00     0.034 C 
HETATM   12  C   UNL     1     -43.337 -47.243   8.009  1.00  0.00     0.028 C 
BRANCH  10  13
HETATM   13  O   UNL     1     -46.218 -46.533   8.339  1.00  0.00    -0.396 OA
HETATM   14  H   UNL     1     -46.197 -46.421   7.373  1.00  0.00     0.210 HD
ENDBRANCH  10  13
ENDBRANCH   1   7
BRANCH   4  15
HETATM   15  C   UNL     1     -39.451 -50.086  11.331  1.00  0.00     0.152 A 
HETATM   16  N   UNL     1     -38.239 -49.772  10.958  1.00  0.00    -0.346 N 
HETATM   17  C   UNL     1     -37.331 -50.282  11.859  1.00  0.00     0.097 A 
ATOM     18  HN  UNL     1     -38.001 -49.232  10.125  1.00  0.00     0.167 HD
HETATM   19  C   UNL     1     -37.879 -50.944  12.937  1.00  0.00     0.070 A 
HETATM   20  S   UNL     1     -39.593 -50.903  12.825  1.00  0.00    -0.064 SA
ENDBRANCH   4  15
TORSDOF 3
ENDMDL
MODEL 2
REMARK VINA RESULT:      -5.4      1.608      2.178
REMARK  3 active torsions:
REMARK  status: ('A' for Active; 'I' for Inactive)
REMARK    1  A    between atoms: O_1  and  C_2 
REMARK    2  A    between atoms: C_5  and  N_8 
REMARK       I    between atoms: N_8  and  C_9 
REMARK       I    between atoms: C_9  and  N_11 
REMARK    3  A    between atoms: N_11  and  C_12 
ROOT
HETATM    1  N   UNL     1     -42.324 -48.718  10.671  1.00  0.00    -0.338 N 
HETATM    2  C   UNL     1     -41.531 -49.269  11.665  1.00  0.00     0.322 C 
HETATM    3  O   UNL     1     -41.703 -49.001  12.846  1.00  0.00    -0.247 OA
HETATM    4  N   UNL     1     -40.543 -50.059  11.130  1.00  0.00    -0.289 N 
HETATM    5  H   UNL     1     -42.466 -49.290   9.853  1.00  0.00     0.164 HD
HETATM    6  H   UNL     1     -40.329 -49.984  10.150  1.00  0.00     0.172 HD
ENDROOT
BRANCH   1   7
HETATM    7  C   UNL     1     -43.376 -47.768  11.033  1.00  0.00     0.086 C 
HETATM    8  C   UNL     1     -44.564 -47.837  10.064  1.00  0.00     0.028 C 
HETATM    9  C   UNL     1     -44.234 -47.241   8.694  1.00  0.00     0.034 C 
HETATM   10  C   UNL     1     -43.680 -45.822   8.805  1.00  0.00     0.118 C 
HETATM   11  C   UNL     1     -42.489 -45.748   9.761  1.00  0.00     0.034 C 
HETATM   12  C   UNL     1     -42.811 -46.349  11.129  1.00  0.00     0.028 C 
BRANCH  10  13
HETATM   13  O   UNL     1     -44.696 -44.947   9.286  1.00  0.00    -0.396 OA
HETATM   14  H   UNL     1     -44.585 -44.865  10.249  1.00  0.00     0.210 HD
ENDBRANCH  10  13
ENDBRANCH   1   7
BRANCH   4  15
HETATM   15  C   UNL     1     -39.583 -50.606  11.936  1.00  0.00     0.152 A 
HETATM   16  N   UNL     1     -39.715 -51.480  12.897  1.00  0.00    -0.346 N 
HETATM   17  C   UNL     1     -38.503 -51.667  13.522  1.00  0.00     0.097 A 
ATOM     18  HN  UNL     1     -40.584 -51.953  13.147  1.00  0.00     0.167 HD
HETATM   19  C   UNL     1     -37.449 -50.954  12.991  1.00  0.00     0.070 A 
HETATM   20  S   UNL     1     -37.997 -50.038  11.644  1.00  0.00    -0.064 SA
ENDBRANCH   4  15
TORSDOF 3
ENDMDL
MODEL 3
REMARK VINA RESULT:      -5.4      4.434      5.524
REMARK  3 active torsions:
REMARK  status: ('A' for Active; 'I' for Inactive)
REMARK    1  A    between atoms: O_1  and  C_2 
REMARK    2  A    between atoms: C_5  and  N_8 
REMARK       I    between atoms: N_8  and  C_9 
REMARK       I    between atoms: C_9  and  N_11 
REMARK    3  A    between atoms: N_11  and  C_12 
ROOT
HETATM    1  N   UNL     1     -42.835 -50.757  12.169  1.00  0.00    -0.338 N 
HETATM    2  C   UNL     1     -42.104 -49.580  12.209  1.00  0.00     0.322 C 
HETATM    3  O   UNL     1     -41.713 -49.103  13.266  1.00  0.00    -0.247 OA
HETATM    4  N   UNL     1     -41.962 -49.041  10.954  1.00  0.00    -0.289 N 
HETATM    5  H   UNL     1     -42.715 -51.322  11.343  1.00  0.00     0.164 HD
HETATM    6  H   UNL     1     -42.554 -49.366  10.209  1.00  0.00     0.172 HD
ENDROOT
BRANCH   1   7
HETATM    7  C   UNL     1     -43.178 -51.435  13.419  1.00  0.00     0.086 C 
HETATM    8  C   UNL     1     -43.130 -52.961  13.270  1.00  0.00     0.028 C 
HETATM    9  C   UNL     1     -44.294 -53.502  12.436  1.00  0.00     0.034 C 
HETATM   10  C   UNL     1     -45.646 -53.029  12.967  1.00  0.00     0.118 C 
HETATM   11  C   UNL     1     -45.704 -51.508  13.107  1.00  0.00     0.034 C 
HETATM   12  C   UNL     1     -44.540 -50.962  13.933  1.00  0.00     0.028 C 
BRANCH  10  13
HETATM   13  O   UNL     1     -45.888 -53.608  14.246  1.00  0.00    -0.396 OA
HETATM   14  H   UNL     1     -45.480 -53.031  14.914  1.00  0.00     0.210 HD
ENDBRANCH  10  13
ENDBRANCH   1   7
BRANCH   4  15
HETATM   15  C   UNL     1     -41.369 -47.820  10.789  1.00  0.00     0.152 A 
HETATM   16  N   UNL     1     -40.131 -47.468  11.017  1.00  0.00    -0.346 N 
HETATM   17  C   UNL     1     -39.993 -46.112  10.823  1.00  0.00     0.097 A 
ATOM     18  HN  UNL     1     -39.382 -48.102  11.295  1.00  0.00     0.167 HD
HETATM   19  C   UNL     1     -41.132 -45.457  10.405  1.00  0.00     0.070 A 
HETATM   20  S   UNL     1     -42.412 -46.589  10.226  1.00  0.00    -0.064 SA
ENDBRANCH   4  15
TORSDOF 3
ENDMDL
MODEL 4
REMARK VINA RESULT:      -5.1      5.088      5.767
REMARK  3 active torsions:
REMARK  status: ('A' for Active; 'I' for Inactive)
REMARK    1  A    between atoms: O_1  and  C_2 
REMARK    2  A    between atoms: C_5  and  N_8 
REMARK       I    between atoms: N_8  and  C_9 
REMARK       I    between atoms: C_9  and  N_11 
REMARK    3  A    between atoms: N_11  and  C_12 
ROOT
HETATM    1  N   UNL     1     -43.478 -51.814  12.850  1.00  0.00    -0.338 N 
HETATM    2  C   UNL     1     -42.184 -51.692  12.370  1.00  0.00     0.322 C 
HETATM    3  O   UNL     1     -41.682 -52.547  11.653  1.00  0.00    -0.247 OA
HETATM    4  N   UNL     1     -41.579 -50.558  12.856  1.00  0.00    -0.289 N 
HETATM    5  H   UNL     1     -43.977 -50.950  12.999  1.00  0.00     0.164 HD
HETATM    6  H   UNL     1     -41.984 -50.084  13.645  1.00  0.00     0.172 HD
ENDROOT
BRANCH   1   7
HETATM    7  C   UNL     1     -44.259 -53.007  12.523  1.00  0.00     0.086 C 
HETATM    8  C   UNL     1     -45.759 -52.699  12.430  1.00  0.00     0.028 C 
HETATM    9  C   UNL     1     -46.385 -52.433  13.801  1.00  0.00     0.034 C 
HETATM   10  C   UNL     1     -46.103 -53.564  14.788  1.00  0.00     0.118 C 
HETATM   11  C   UNL     1     -44.608 -53.869  14.894  1.00  0.00     0.034 C 
HETATM   12  C   UNL     1     -43.976 -54.128  13.527  1.00  0.00     0.028 C 
BRANCH  10  13
HETATM   13  O   UNL     1     -46.774 -54.747  14.366  1.00  0.00    -0.396 OA
HETATM   14  H   UNL     1     -46.107 -55.350  13.996  1.00  0.00     0.210 HD
ENDBRANCH  10  13
ENDBRANCH   1   7
BRANCH   4  15
HETATM   15  C   UNL     1     -40.261 -50.311  12.591  1.00  0.00     0.152 A 
HETATM   16  N   UNL     1     -39.651 -50.246  11.437  1.00  0.00    -0.346 N 
HETATM   17  C   UNL     1     -38.297 -50.088  11.638  1.00  0.00     0.097 A 
ATOM     18  HN  UNL     1     -40.107 -50.304  10.526  1.00  0.00     0.167 HD
HETATM   19  C   UNL     1     -37.904 -49.991  12.956  1.00  0.00     0.070 A 
HETATM   20  S   UNL     1     -39.286 -50.077  13.975  1.00  0.00    -0.064 SA
ENDBRANCH   4  15
TORSDOF 3
ENDMDL
MODEL 5
REMARK VINA RESULT:      -4.8      3.290      4.368
REMARK  3 active torsions:
REMARK  status: ('A' for Active; 'I' for Inactive)
REMARK    1  A    between atoms: O_1  and  C_2 
REMARK    2  A    between atoms: C_5  and  N_8 
REMARK       I    between atoms: N_8  and  C_9 
REMARK       I    between atoms: C_9  and  N_11 
REMARK    3  A    between atoms: N_11  and  C_12 
ROOT
HETATM    1  N   UNL     1     -40.919 -46.879  11.482  1.00  0.00    -0.338 N 
HETATM    2  C   UNL     1     -41.157 -48.219  11.218  1.00  0.00     0.322 C 
HETATM    3  O   UNL     1     -41.527 -48.600  10.116  1.00  0.00    -0.247 OA
HETATM    4  N   UNL     1     -40.984 -48.985  12.345  1.00  0.00    -0.289 N 
HETATM    5  H   UNL     1     -40.208 -46.685  12.170  1.00  0.00     0.164 HD
HETATM    6  H   UNL     1     -40.952 -48.537  13.245  1.00  0.00     0.172 HD
ENDROOT
BRANCH   1   7
HETATM    7  C   UNL     1     -41.144 -45.886  10.431  1.00  0.00     0.086 C 
HETATM    8  C   UNL     1     -39.945 -44.943  10.273  1.00  0.00     0.028 C 
HETATM    9  C   UNL     1     -39.819 -43.959  11.439  1.00  0.00     0.034 C 
HETATM   10  C   UNL     1     -41.116 -43.187  11.678  1.00  0.00     0.118 C 
HETATM   11  C   UNL     1     -42.314 -44.123  11.848  1.00  0.00     0.034 C 
HETATM   12  C   UNL     1     -42.438 -45.112  10.690  1.00  0.00     0.028 C 
BRANCH  10  13
HETATM   13  O   UNL     1     -41.372 -42.326  10.573  1.00  0.00    -0.396 OA
HETATM   14  H   UNL     1     -42.333 -42.185  10.523  1.00  0.00     0.210 HD
ENDBRANCH  10  13
ENDBRANCH   1   7
BRANCH   4  15
HETATM   15  C   UNL     1     -41.279 -50.320  12.325  1.00  0.00     0.152 A 
HETATM   16  N   UNL     1     -42.419 -50.907  12.075  1.00  0.00    -0.346 N 
HETATM   17  C   UNL     1     -42.293 -52.264  12.275  1.00  0.00     0.097 A 
ATOM     18  HN  UNL     1     -43.272 -50.433  11.777  1.00  0.00     0.167 HD
HETATM   19  C   UNL     1     -41.034 -52.693  12.637  1.00  0.00     0.070 A 
HETATM   20  S   UNL     1     -39.966 -51.348  12.702  1.00  0.00    -0.064 SA
ENDBRANCH   4  15
TORSDOF 3
ENDMDL
MODEL 6
REMARK VINA RESULT:      -4.7      3.386      4.490
REMARK  3 active torsions:
REMARK  status: ('A' for Active; 'I' for Inactive)
REMARK    1  A    between atoms: O_1  and  C_2 
REMARK    2  A    between atoms: C_5  and  N_8 
REMARK       I    between atoms: N_8  and  C_9 
REMARK       I    between atoms: C_9  and  N_11 
REMARK    3  A    between atoms: N_11  and  C_12 
ROOT
HETATM    1  N   UNL     1     -41.623 -48.756  11.788  1.00  0.00    -0.338 N 
HETATM    2  C   UNL     1     -42.307 -49.846  12.302  1.00  0.00     0.322 C 
HETATM    3  O   UNL     1     -43.201 -49.711  13.127  1.00  0.00    -0.247 OA
HETATM    4  N   UNL     1     -41.800 -51.025  11.813  1.00  0.00    -0.289 N 
HETATM    5  H   UNL     1     -41.284 -48.854  10.843  1.00  0.00     0.164 HD
HETATM    6  H   UNL     1     -40.900 -51.026  11.365  1.00  0.00     0.172 HD
ENDROOT
BRANCH   1   7
HETATM    7  C   UNL     1     -41.950 -47.410  12.261  1.00  0.00     0.086 C 
HETATM    8  C   UNL     1     -42.943 -46.704  11.328  1.00  0.00     0.028 C 
HETATM    9  C   UNL     1     -42.302 -46.288  10.003  1.00  0.00     0.034 C 
HETATM   10  C   UNL     1     -41.039 -45.455  10.215  1.00  0.00     0.118 C 
HETATM   11  C   UNL     1     -40.040 -46.158  11.135  1.00  0.00     0.034 C 
HETATM   12  C   UNL     1     -40.678 -46.584  12.457  1.00  0.00     0.028 C 
BRANCH  10  13
HETATM   13  O   UNL     1     -41.383 -44.203  10.800  1.00  0.00    -0.396 OA
HETATM   14  H   UNL     1     -40.557 -43.757  11.054  1.00  0.00     0.210 HD
ENDBRANCH  10  13
ENDBRANCH   1   7
BRANCH   4  15
HETATM   15  C   UNL     1     -42.262 -52.223  12.283  1.00  0.00     0.152 A 
HETATM   16  N   UNL     1     -43.433 -52.778  12.113  1.00  0.00    -0.346 N 
HETATM   17  C   UNL     1     -43.508 -53.935  12.858  1.00  0.00     0.097 A 
ATOM     18  HN  UNL     1     -44.177 -52.412  11.519  1.00  0.00     0.167 HD
HETATM   19  C   UNL     1     -42.365 -54.263  13.555  1.00  0.00     0.070 A 
HETATM   20  S   UNL     1     -41.147 -53.092  13.244  1.00  0.00    -0.064 SA
ENDBRANCH   4  15
TORSDOF 3
ENDMDL
MODEL 7
REMARK VINA RESULT:      -4.7      6.797      8.715
REMARK  3 active torsions:
REMARK  status: ('A' for Active; 'I' for Inactive)
REMARK    1  A    between atoms: O_1  and  C_2 
REMARK    2  A    between atoms: C_5  and  N_8 
REMARK       I    between atoms: N_8  and  C_9 
REMARK       I    between atoms: C_9  and  N_11 
REMARK    3  A    between atoms: N_11  and  C_12 
ROOT
HETATM    1  N   UNL     1     -43.527 -52.757  14.877  1.00  0.00    -0.338 N 
HETATM    2  C   UNL     1     -44.816 -52.726  15.385  1.00  0.00     0.322 C 
HETATM    3  O   UNL     1     -45.701 -53.441  14.933  1.00  0.00    -0.247 OA
HETATM    4  N   UNL     1     -44.940 -51.775  16.368  1.00  0.00    -0.289 N 
HETATM    5  H   UNL     1     -42.790 -52.551  15.533  1.00  0.00     0.164 HD
HETATM    6  H   UNL     1     -44.232 -51.067  16.460  1.00  0.00     0.172 HD
ENDROOT
BRANCH   1   7
HETATM    7  C   UNL     1     -43.216 -53.639  13.752  1.00  0.00     0.086 C 
HETATM    8  C   UNL     1     -41.865 -54.341  13.936  1.00  0.00     0.028 C 
HETATM    9  C   UNL     1     -40.683 -53.385  13.759  1.00  0.00     0.034 C 
HETATM   10  C   UNL     1     -40.750 -52.632  12.432  1.00  0.00     0.118 C 
HETATM   11  C   UNL     1     -42.091 -51.921  12.247  1.00  0.00     0.034 C 
HETATM   12  C   UNL     1     -43.275 -52.869  12.431  1.00  0.00     0.028 C 
BRANCH  10  13
HETATM   13  O   UNL     1     -40.574 -53.545  11.353  1.00  0.00    -0.396 OA
HETATM   14  H   UNL     1     -40.174 -53.056  10.613  1.00  0.00     0.210 HD
ENDBRANCH  10  13
ENDBRANCH   1   7
BRANCH   4  15
HETATM   15  C   UNL     1     -46.162 -51.508  16.921  1.00  0.00     0.152 A 
HETATM   16  N   UNL     1     -47.313 -51.333  16.328  1.00  0.00    -0.346 N 
HETATM   17  C   UNL     1     -48.262 -50.973  17.260  1.00  0.00     0.097 A 
ATOM     18  HN  UNL     1     -47.484 -51.448  15.329  1.00  0.00     0.167 HD
HETATM   19  C   UNL     1     -47.818 -50.921  18.564  1.00  0.00     0.070 A 
HETATM   20  S   UNL     1     -46.159 -51.364  18.624  1.00  0.00    -0.064 SA
ENDBRANCH   4  15
TORSDOF 3
ENDMDL
MODEL 8
REMARK VINA RESULT:      -4.6      4.782      5.815
REMARK  3 active torsions:
REMARK  status: ('A' for Active; 'I' for Inactive)
REMARK    1  A    between atoms: O_1  and  C_2 
REMARK    2  A    between atoms: C_5  and  N_8 
REMARK       I    between atoms: N_8  and  C_9 
REMARK       I    between atoms: C_9  and  N_11 
REMARK    3  A    between atoms: N_11  and  C_12 
ROOT
HETATM    1  N   UNL     1     -43.407 -49.880  12.493  1.00  0.00    -0.338 N 
HETATM    2  C   UNL     1     -43.587 -51.067  13.185  1.00  0.00     0.322 C 
HETATM    3  O   UNL     1     -42.711 -51.530  13.903  1.00  0.00    -0.247 OA
HETATM    4  N   UNL     1     -44.805 -51.631  12.894  1.00  0.00    -0.289 N 
HETATM    5  H   UNL     1     -44.238 -49.332  12.334  1.00  0.00     0.164 HD
HETATM    6  H   UNL     1     -45.317 -51.311  12.090  1.00  0.00     0.172 HD
ENDROOT
BRANCH   1   7
HETATM    7  C   UNL     1     -42.130 -49.174  12.593  1.00  0.00     0.086 C 
HETATM    8  C   UNL     1     -42.292 -47.795  13.247  1.00  0.00     0.028 C 
HETATM    9  C   UNL     1     -42.991 -46.792  12.327  1.00  0.00     0.034 C 
HETATM   10  C   UNL     1     -42.307 -46.693  10.964  1.00  0.00     0.118 C 
HETATM   11  C   UNL     1     -42.152 -48.062  10.302  1.00  0.00     0.034 C 
HETATM   12  C   UNL     1     -41.462 -49.070  11.221  1.00  0.00     0.028 C 
BRANCH  10  13
HETATM   13  O   UNL     1     -41.012 -46.120  11.119  1.00  0.00    -0.396 OA
HETATM   14  H   UNL     1     -40.360 -46.837  11.044  1.00  0.00     0.210 HD
ENDBRANCH  10  13
ENDBRANCH   1   7
BRANCH   4  15
HETATM   15  C   UNL     1     -45.131 -52.864  13.388  1.00  0.00     0.152 A 
HETATM   16  N   UNL     1     -44.608 -54.028  13.108  1.00  0.00    -0.346 N 
HETATM   17  C   UNL     1     -45.316 -55.019  13.750  1.00  0.00     0.097 A 
ATOM     18  HN  UNL     1     -43.798 -54.179  12.507  1.00  0.00     0.167 HD
HETATM   19  C   UNL     1     -46.351 -54.582  14.548  1.00  0.00     0.070 A 
HETATM   20  S   UNL     1     -46.419 -52.866  14.511  1.00  0.00    -0.064 SA
ENDBRANCH   4  15
TORSDOF 3
ENDMDL
MODEL 9
REMARK VINA RESULT:      -4.6      2.884      7.035
REMARK  3 active torsions:
REMARK  status: ('A' for Active; 'I' for Inactive)
REMARK    1  A    between atoms: O_1  and  C_2 
REMARK    2  A    between atoms: C_5  and  N_8 
REMARK       I    between atoms: N_8  and  C_9 
REMARK       I    between atoms: C_9  and  N_11 
REMARK    3  A    between atoms: N_11  and  C_12 
ROOT
HETATM    1  N   UNL     1     -40.065 -49.144  12.233  1.00  0.00    -0.338 N 
HETATM    2  C   UNL     1     -41.265 -48.846  11.607  1.00  0.00     0.322 C 
HETATM    3  O   UNL     1     -42.288 -49.472  11.850  1.00  0.00    -0.247 OA
HETATM    4  N   UNL     1     -41.106 -47.844  10.682  1.00  0.00    -0.289 N 
HETATM    5  H   UNL     1     -39.435 -48.368  12.371  1.00  0.00     0.164 HD
HETATM    6  H   UNL     1     -40.181 -47.600  10.373  1.00  0.00     0.172 HD
ENDROOT
BRANCH   1   7
HETATM    7  C   UNL     1     -40.005 -50.253  13.186  1.00  0.00     0.086 C 
HETATM    8  C   UNL     1     -40.152 -49.768  14.634  1.00  0.00     0.028 C 
HETATM    9  C   UNL     1     -38.909 -49.025  15.129  1.00  0.00     0.034 C 
HETATM   10  C   UNL     1     -37.637 -49.848  14.938  1.00  0.00     0.118 C 
HETATM   11  C   UNL     1     -37.478 -50.325  13.494  1.00  0.00     0.034 C 
HETATM   12  C   UNL     1     -38.720 -51.061  12.992  1.00  0.00     0.028 C 
BRANCH  10  13
HETATM   13  O   UNL     1     -37.673 -50.991  15.787  1.00  0.00    -0.396 OA
HETATM   14  H   UNL     1     -38.604 -51.247  15.900  1.00  0.00     0.210 HD
ENDBRANCH  10  13
ENDBRANCH   1   7
BRANCH   4  15
HETATM   15  C   UNL     1     -42.147 -47.478   9.874  1.00  0.00     0.152 A 
HETATM   16  N   UNL     1     -42.741 -48.164   8.935  1.00  0.00    -0.346 N 
HETATM   17  C   UNL     1     -43.667 -47.369   8.296  1.00  0.00     0.097 A 
ATOM     18  HN  UNL     1     -42.549 -49.140   8.709  1.00  0.00     0.167 HD
HETATM   19  C   UNL     1     -43.791 -46.090   8.796  1.00  0.00     0.070 A 
HETATM   20  S   UNL     1     -42.726 -45.890  10.130  1.00  0.00    -0.064 SA
ENDBRANCH   4  15
TORSDOF 3
ENDMDL
