MODEL 1
REMARK VINA RESULT:      -5.5      0.000      0.000
REMARK  5 active torsions:
REMARK  status: ('A' for Active; 'I' for Inactive)
REMARK    1  A    between atoms: N_6  and  C_7 
REMARK    2  A    between atoms: C_7  and  C_8 
REMARK    3  A    between atoms: C_8  and  N_9 
REMARK    4  A    between atoms: N_9  and  C_10 
REMARK    5  A    between atoms: C_10  and  C_11 
REMARK       I    between atoms: C_11  and  N_13 
ROOT
HETATM    1  N   UNL     1     -41.941 -50.155  11.670  1.00  0.00     0.093 N 
HETATM    2  H   UNL     1     -42.781 -50.370  11.120  1.00  0.00     0.316 HD
ENDROOT
BRANCH   1   3
HETATM    3  C   UNL     1     -41.101 -49.183  10.956  1.00  0.00     0.291 C 
BRANCH   3   4
HETATM    4  C   UNL     1     -41.640 -47.751  10.819  1.00  0.00     0.178 C 
BRANCH   4   5
HETATM    5  N   UNL     1     -42.798 -47.671   9.953  1.00  0.00    -0.302 N 
HETATM    6  N   UNL     1     -42.671 -47.908   8.636  1.00  0.00    -0.310 N 
HETATM    7  C   UNL     1     -43.921 -47.813   8.178  1.00  0.00     0.115 A 
ATOM      8  HN  UNL     1     -41.820 -48.112   8.110  1.00  0.00     0.186 HD
HETATM    9  C   UNL     1     -44.844 -47.473   9.191  1.00  0.00    -0.028 A 
HETATM   10  C   UNL     1     -46.302 -47.263   9.069  1.00  0.00     0.051 C 
HETATM   11  C   UNL     1     -44.075 -47.382  10.332  1.00  0.00     0.118 A 
ENDBRANCH   4   5
ENDBRANCH   3   4
ENDBRANCH   1   3
BRANCH   1  12
HETATM   12  C   UNL     1     -41.229 -51.427  11.868  1.00  0.00     0.372 C 
BRANCH  12  13
HETATM   13  C   UNL     1     -42.095 -52.478  12.580  1.00  0.00     0.247 C 
HETATM   14  O   UNL     1     -43.302 -52.608  12.363  1.00  0.00    -0.271 OA
HETATM   15  N   UNL     1     -41.402 -53.318  13.430  1.00  0.00    -0.351 N 
HETATM   16  C   UNL     1     -39.984 -53.251  13.745  1.00  0.00     0.126 C 
HETATM   17  C   UNL     1     -42.040 -54.421  14.118  1.00  0.00     0.126 C 
HETATM   18  C   UNL     1     -39.747 -54.311  14.809  1.00  0.00     0.021 C 
HETATM   19  C   UNL     1     -41.142 -54.651  15.322  1.00  0.00     0.021 C 
ENDBRANCH  12  13
ENDBRANCH   1  12
TORSDOF 5
ENDMDL
MODEL 2
REMARK VINA RESULT:      -5.4      1.767      2.083
REMARK  5 active torsions:
REMARK  status: ('A' for Active; 'I' for Inactive)
REMARK    1  A    between atoms: N_6  and  C_7 
REMARK    2  A    between atoms: C_7  and  C_8 
REMARK    3  A    between atoms: C_8  and  N_9 
REMARK    4  A    between atoms: N_9  and  C_10 
REMARK    5  A    between atoms: C_10  and  C_11 
REMARK       I    between atoms: C_11  and  N_13 
ROOT
HETATM    1  N   UNL     1     -42.922 -50.022  12.097  1.00  0.00     0.093 N 
HETATM    2  H   UNL     1     -42.278 -50.805  11.938  1.00  0.00     0.316 HD
ENDROOT
BRANCH   1   3
HETATM    3  C   UNL     1     -42.181 -48.752  12.127  1.00  0.00     0.291 C 
BRANCH   3   4
HETATM    4  C   UNL     1     -41.765 -48.145  10.779  1.00  0.00     0.178 C 
BRANCH   4   5
HETATM    5  N   UNL     1     -42.897 -47.867   9.919  1.00  0.00    -0.302 N 
HETATM    6  N   UNL     1     -42.807 -48.092   8.596  1.00  0.00    -0.310 N 
HETATM    7  C   UNL     1     -44.027 -47.794   8.145  1.00  0.00     0.115 A 
ATOM      8  HN  UNL     1     -41.998 -48.413   8.064  1.00  0.00     0.186 HD
HETATM    9  C   UNL     1     -44.886 -47.338   9.167  1.00  0.00    -0.028 A 
HETATM   10  C   UNL     1     -46.295 -46.902   9.054  1.00  0.00     0.051 C 
HETATM   11  C   UNL     1     -44.113 -47.392  10.307  1.00  0.00     0.118 A 
ENDBRANCH   4   5
ENDBRANCH   3   4
ENDBRANCH   1   3
BRANCH   1  12
HETATM   12  C   UNL     1     -43.590 -50.278  13.382  1.00  0.00     0.372 C 
BRANCH  12  13
HETATM   13  C   UNL     1     -44.612 -51.422  13.293  1.00  0.00     0.247 C 
HETATM   14  O   UNL     1     -45.776 -51.250  12.925  1.00  0.00    -0.271 OA
HETATM   15  N   UNL     1     -44.106 -52.673  13.588  1.00  0.00    -0.351 N 
HETATM   16  C   UNL     1     -42.752 -52.977  14.022  1.00  0.00     0.126 C 
HETATM   17  C   UNL     1     -44.903 -53.877  13.472  1.00  0.00     0.126 C 
HETATM   18  C   UNL     1     -42.742 -54.468  14.324  1.00  0.00     0.021 C 
HETATM   19  C   UNL     1     -44.216 -54.846  14.420  1.00  0.00     0.021 C 
ENDBRANCH  12  13
ENDBRANCH   1  12
TORSDOF 5
ENDMDL
MODEL 3
REMARK VINA RESULT:      -5.4      3.023      6.908
REMARK  5 active torsions:
REMARK  status: ('A' for Active; 'I' for Inactive)
REMARK    1  A    between atoms: N_6  and  C_7 
REMARK    2  A    between atoms: C_7  and  C_8 
REMARK    3  A    between atoms: C_8  and  N_9 
REMARK    4  A    between atoms: N_9  and  C_10 
REMARK    5  A    between atoms: C_10  and  C_11 
REMARK       I    between atoms: C_11  and  N_13 
ROOT
HETATM    1  N   UNL     1     -41.911 -50.114  11.633  1.00  0.00     0.093 N 
HETATM    2  H   UNL     1     -42.391 -50.488  10.806  1.00  0.00     0.316 HD
ENDROOT
BRANCH   1   3
HETATM    3  C   UNL     1     -42.043 -51.046  12.761  1.00  0.00     0.291 C 
BRANCH   3   4
HETATM    4  C   UNL     1     -42.880 -52.314  12.536  1.00  0.00     0.178 C 
BRANCH   4   5
HETATM    5  N   UNL     1     -44.256 -52.157  12.960  1.00  0.00    -0.302 N 
HETATM    6  N   UNL     1     -45.258 -52.512  12.136  1.00  0.00    -0.310 N 
HETATM    7  C   UNL     1     -46.354 -52.297  12.866  1.00  0.00     0.115 A 
ATOM      8  HN  UNL     1     -45.196 -52.861  11.180  1.00  0.00     0.186 HD
HETATM    9  C   UNL     1     -46.060 -51.765  14.141  1.00  0.00    -0.028 A 
HETATM   10  C   UNL     1     -47.003 -51.384  15.214  1.00  0.00     0.051 C 
HETATM   11  C   UNL     1     -44.685 -51.681  14.163  1.00  0.00     0.118 A 
ENDBRANCH   4   5
ENDBRANCH   3   4
ENDBRANCH   1   3
BRANCH   1  12
HETATM   12  C   UNL     1     -42.540 -48.820  11.937  1.00  0.00     0.372 C 
BRANCH  12  13
HETATM   13  C   UNL     1     -42.152 -47.728  10.927  1.00  0.00     0.247 C 
HETATM   14  O   UNL     1     -40.998 -47.309  10.806  1.00  0.00    -0.271 OA
HETATM   15  N   UNL     1     -43.182 -47.304  10.110  1.00  0.00    -0.351 N 
HETATM   16  C   UNL     1     -44.568 -47.742  10.169  1.00  0.00     0.126 C 
HETATM   17  C   UNL     1     -42.980 -46.345   9.044  1.00  0.00     0.126 C 
HETATM   18  C   UNL     1     -45.311 -46.895   9.147  1.00  0.00     0.021 C 
HETATM   19  C   UNL     1     -44.361 -45.741   8.848  1.00  0.00     0.021 C 
ENDBRANCH  12  13
ENDBRANCH   1  12
TORSDOF 5
ENDMDL
MODEL 4
REMARK VINA RESULT:      -5.2      2.073      2.741
REMARK  5 active torsions:
REMARK  status: ('A' for Active; 'I' for Inactive)
REMARK    1  A    between atoms: N_6  and  C_7 
REMARK    2  A    between atoms: C_7  and  C_8 
REMARK    3  A    between atoms: C_8  and  N_9 
REMARK    4  A    between atoms: N_9  and  C_10 
REMARK    5  A    between atoms: C_10  and  C_11 
REMARK       I    between atoms: C_11  and  N_13 
ROOT
HETATM    1  N   UNL     1     -42.554 -49.261  12.748  1.00  0.00     0.093 N 
HETATM    2  H   UNL     1     -43.555 -49.397  12.566  1.00  0.00     0.316 HD
ENDROOT
BRANCH   1   3
HETATM    3  C   UNL     1     -42.094 -48.003  12.144  1.00  0.00     0.291 C 
BRANCH   3   4
HETATM    4  C   UNL     1     -41.768 -48.018  10.643  1.00  0.00     0.178 C 
BRANCH   4   5
HETATM    5  N   UNL     1     -42.936 -47.797   9.815  1.00  0.00    -0.302 N 
HETATM    6  N   UNL     1     -42.863 -47.982   8.485  1.00  0.00    -0.310 N 
HETATM    7  C   UNL     1     -44.111 -47.757   8.069  1.00  0.00     0.115 A 
ATOM      8  HN  UNL     1     -42.047 -48.233   7.926  1.00  0.00     0.186 HD
HETATM    9  C   UNL     1     -44.974 -47.387   9.122  1.00  0.00    -0.028 A 
HETATM   10  C   UNL     1     -46.412 -47.046   9.052  1.00  0.00     0.051 C 
HETATM   11  C   UNL     1     -44.172 -47.417  10.243  1.00  0.00     0.118 A 
ENDBRANCH   4   5
ENDBRANCH   3   4
ENDBRANCH   1   3
BRANCH   1  12
HETATM   12  C   UNL     1     -41.858 -50.417  12.162  1.00  0.00     0.372 C 
BRANCH  12  13
HETATM   13  C   UNL     1     -40.898 -51.088  13.157  1.00  0.00     0.247 C 
HETATM   14  O   UNL     1     -41.290 -51.752  14.119  1.00  0.00    -0.271 OA
HETATM   15  N   UNL     1     -39.559 -50.954  12.848  1.00  0.00    -0.351 N 
HETATM   16  C   UNL     1     -39.000 -50.202  11.736  1.00  0.00     0.126 C 
HETATM   17  C   UNL     1     -38.517 -51.593  13.625  1.00  0.00     0.126 C 
HETATM   18  C   UNL     1     -37.490 -50.271  11.909  1.00  0.00     0.021 C 
HETATM   19  C   UNL     1     -37.294 -50.734  13.349  1.00  0.00     0.021 C 
ENDBRANCH  12  13
ENDBRANCH   1  12
TORSDOF 5
ENDMDL
MODEL 5
REMARK VINA RESULT:      -5.2      4.841      8.198
REMARK  5 active torsions:
REMARK  status: ('A' for Active; 'I' for Inactive)
REMARK    1  A    between atoms: N_6  and  C_7 
REMARK    2  A    between atoms: C_7  and  C_8 
REMARK    3  A    between atoms: C_8  and  N_9 
REMARK    4  A    between atoms: N_9  and  C_10 
REMARK    5  A    between atoms: C_10  and  C_11 
REMARK       I    between atoms: C_11  and  N_13 
ROOT
HETATM    1  N   UNL     1     -41.356 -45.582  10.401  1.00  0.00     0.093 N 
HETATM    2  H   UNL     1     -42.296 -45.697  10.005  1.00  0.00     0.316 HD
ENDROOT
BRANCH   1   3
HETATM    3  C   UNL     1     -40.884 -46.854  10.966  1.00  0.00     0.291 C 
BRANCH   3   4
HETATM    4  C   UNL     1     -41.659 -48.125  10.588  1.00  0.00     0.178 C 
BRANCH   4   5
HETATM    5  N   UNL     1     -42.840 -47.845   9.799  1.00  0.00    -0.302 N 
HETATM    6  N   UNL     1     -42.791 -47.941   8.458  1.00  0.00    -0.310 N 
HETATM    7  C   UNL     1     -44.046 -47.685   8.081  1.00  0.00     0.115 A 
ATOM      8  HN  UNL     1     -41.987 -48.158   7.869  1.00  0.00     0.186 HD
HETATM    9  C   UNL     1     -44.889 -47.383   9.171  1.00  0.00    -0.028 A 
HETATM   10  C   UNL     1     -46.325 -47.032   9.150  1.00  0.00     0.051 C 
HETATM   11  C   UNL     1     -44.067 -47.490  10.273  1.00  0.00     0.118 A 
ENDBRANCH   4   5
ENDBRANCH   3   4
ENDBRANCH   1   3
BRANCH   1  12
HETATM   12  C   UNL     1     -41.458 -44.545  11.439  1.00  0.00     0.372 C 
BRANCH  12  13
HETATM   13  C   UNL     1     -42.234 -43.309  10.958  1.00  0.00     0.247 C 
HETATM   14  O   UNL     1     -43.248 -43.387  10.259  1.00  0.00    -0.271 OA
HETATM   15  N   UNL     1     -41.753 -42.104  11.432  1.00  0.00    -0.351 N 
HETATM   16  C   UNL     1     -40.577 -41.911  12.264  1.00  0.00     0.126 C 
HETATM   17  C   UNL     1     -42.411 -40.845  11.152  1.00  0.00     0.126 C 
HETATM   18  C   UNL     1     -40.416 -40.405  12.406  1.00  0.00     0.021 C 
HETATM   19  C   UNL     1     -41.295 -39.824  11.304  1.00  0.00     0.021 C 
ENDBRANCH  12  13
ENDBRANCH   1  12
TORSDOF 5
ENDMDL
MODEL 6
REMARK VINA RESULT:      -5.2      2.825      4.337
REMARK  5 active torsions:
REMARK  status: ('A' for Active; 'I' for Inactive)
REMARK    1  A    between atoms: N_6  and  C_7 
REMARK    2  A    between atoms: C_7  and  C_8 
REMARK    3  A    between atoms: C_8  and  N_9 
REMARK    4  A    between atoms: N_9  and  C_10 
REMARK    5  A    between atoms: C_10  and  C_11 
REMARK       I    between atoms: C_11  and  N_13 
ROOT
HETATM    1  N   UNL     1     -42.246 -52.744  11.990  1.00  0.00     0.093 N 
HETATM    2  H   UNL     1     -41.404 -53.263  11.716  1.00  0.00     0.316 HD
ENDROOT
BRANCH   1   3
HETATM    3  C   UNL     1     -41.909 -51.342  12.272  1.00  0.00     0.291 C 
BRANCH   3   4
HETATM    4  C   UNL     1     -40.605 -50.794  11.673  1.00  0.00     0.178 C 
BRANCH   4   5
HETATM    5  N   UNL     1     -40.655 -49.365  11.440  1.00  0.00    -0.302 N 
HETATM    6  N   UNL     1     -41.450 -48.869  10.474  1.00  0.00    -0.310 N 
HETATM    7  C   UNL     1     -41.295 -47.549  10.590  1.00  0.00     0.115 A 
ATOM      8  HN  UNL     1     -42.033 -49.380   9.811  1.00  0.00     0.186 HD
HETATM    9  C   UNL     1     -40.370 -47.198  11.597  1.00  0.00    -0.028 A 
HETATM   10  C   UNL     1     -39.927 -45.847  12.004  1.00  0.00     0.051 C 
HETATM   11  C   UNL     1     -39.970 -48.407  12.124  1.00  0.00     0.118 A 
ENDBRANCH   4   5
ENDBRANCH   3   4
ENDBRANCH   1   3
BRANCH   1  12
HETATM   12  C   UNL     1     -42.784 -53.412  13.184  1.00  0.00     0.372 C 
BRANCH  12  13
HETATM   13  C   UNL     1     -44.311 -53.578  13.124  1.00  0.00     0.247 C 
HETATM   14  O   UNL     1     -44.864 -54.417  12.409  1.00  0.00    -0.271 OA
HETATM   15  N   UNL     1     -45.015 -52.764  13.989  1.00  0.00    -0.351 N 
HETATM   16  C   UNL     1     -44.456 -51.753  14.873  1.00  0.00     0.126 C 
HETATM   17  C   UNL     1     -46.454 -52.845  14.130  1.00  0.00     0.126 C 
HETATM   18  C   UNL     1     -45.649 -51.064  15.518  1.00  0.00     0.021 C 
HETATM   19  C   UNL     1     -46.835 -51.469  14.650  1.00  0.00     0.021 C 
ENDBRANCH  12  13
ENDBRANCH   1  12
TORSDOF 5
ENDMDL
MODEL 7
REMARK VINA RESULT:      -5.1      3.380      3.882
REMARK  5 active torsions:
REMARK  status: ('A' for Active; 'I' for Inactive)
REMARK    1  A    between atoms: N_6  and  C_7 
REMARK    2  A    between atoms: C_7  and  C_8 
REMARK    3  A    between atoms: C_8  and  N_9 
REMARK    4  A    between atoms: N_9  and  C_10 
REMARK    5  A    between atoms: C_10  and  C_11 
REMARK       I    between atoms: C_11  and  N_13 
ROOT
HETATM    1  N   UNL     1     -39.981 -46.726  10.596  1.00  0.00     0.093 N 
HETATM    2  H   UNL     1     -39.216 -46.205  11.038  1.00  0.00     0.316 HD
ENDROOT
BRANCH   1   3
HETATM    3  C   UNL     1     -41.158 -45.860  10.433  1.00  0.00     0.291 C 
BRANCH   3   4
HETATM    4  C   UNL     1     -42.506 -46.399  10.936  1.00  0.00     0.178 C 
BRANCH   4   5
HETATM    5  N   UNL     1     -43.325 -46.936   9.871  1.00  0.00    -0.302 N 
HETATM    6  N   UNL     1     -42.820 -47.059   8.630  1.00  0.00    -0.310 N 
HETATM    7  C   UNL     1     -43.809 -47.636   7.945  1.00  0.00     0.115 A 
ATOM      8  HN  UNL     1     -41.900 -46.776   8.292  1.00  0.00     0.186 HD
HETATM    9  C   UNL     1     -44.962 -47.846   8.732  1.00  0.00    -0.028 A 
HETATM   10  C   UNL     1     -46.254 -48.439   8.325  1.00  0.00     0.051 C 
HETATM   11  C   UNL     1     -44.612 -47.371   9.978  1.00  0.00     0.118 A 
ENDBRANCH   4   5
ENDBRANCH   3   4
ENDBRANCH   1   3
BRANCH   1  12
HETATM   12  C   UNL     1     -40.279 -47.867  11.474  1.00  0.00     0.372 C 
BRANCH  12  13
HETATM   13  C   UNL     1     -39.518 -47.794  12.808  1.00  0.00     0.247 C 
HETATM   14  O   UNL     1     -39.479 -46.773  13.499  1.00  0.00    -0.271 OA
HETATM   15  N   UNL     1     -38.942 -48.982  13.211  1.00  0.00    -0.351 N 
HETATM   16  C   UNL     1     -38.940 -50.235  12.473  1.00  0.00     0.126 C 
HETATM   17  C   UNL     1     -38.260 -49.121  14.481  1.00  0.00     0.126 C 
HETATM   18  C   UNL     1     -38.080 -51.191  13.286  1.00  0.00     0.021 C 
HETATM   19  C   UNL     1     -37.316 -50.288  14.248  1.00  0.00     0.021 C 
ENDBRANCH  12  13
ENDBRANCH   1  12
TORSDOF 5
ENDMDL
MODEL 8
REMARK VINA RESULT:      -5.0      2.761      3.589
REMARK  5 active torsions:
REMARK  status: ('A' for Active; 'I' for Inactive)
REMARK    1  A    between atoms: N_6  and  C_7 
REMARK    2  A    between atoms: C_7  and  C_8 
REMARK    3  A    between atoms: C_8  and  N_9 
REMARK    4  A    between atoms: N_9  and  C_10 
REMARK    5  A    between atoms: C_10  and  C_11 
REMARK       I    between atoms: C_11  and  N_13 
ROOT
HETATM    1  N   UNL     1     -40.393 -49.856  10.746  1.00  0.00     0.093 N 
HETATM    2  H   UNL     1     -39.442 -49.597  11.032  1.00  0.00     0.316 HD
ENDROOT
BRANCH   1   3
HETATM    3  C   UNL     1     -41.266 -48.673  10.754  1.00  0.00     0.291 C 
BRANCH   3   4
HETATM    4  C   UNL     1     -41.107 -47.686  11.920  1.00  0.00     0.178 C 
BRANCH   4   5
HETATM    5  N   UNL     1     -40.700 -46.366  11.484  1.00  0.00    -0.302 N 
HETATM    6  N   UNL     1     -39.937 -46.227  10.385  1.00  0.00    -0.310 N 
HETATM    7  C   UNL     1     -39.819 -44.905  10.252  1.00  0.00     0.115 A 
ATOM      8  HN  UNL     1     -39.542 -46.959   9.794  1.00  0.00     0.186 HD
HETATM    9  C   UNL     1     -40.468 -44.196  11.286  1.00  0.00    -0.028 A 
HETATM   10  C   UNL     1     -40.543 -42.733  11.488  1.00  0.00     0.051 C 
HETATM   11  C   UNL     1     -41.025 -45.182  12.073  1.00  0.00     0.118 A 
ENDBRANCH   4   5
ENDBRANCH   3   4
ENDBRANCH   1   3
BRANCH   1  12
HETATM   12  C   UNL     1     -40.862 -50.868  11.704  1.00  0.00     0.372 C 
BRANCH  12  13
HETATM   13  C   UNL     1     -39.707 -51.523  12.477  1.00  0.00     0.247 C 
HETATM   14  O   UNL     1     -38.537 -51.142  12.379  1.00  0.00    -0.271 OA
HETATM   15  N   UNL     1     -40.088 -52.524  13.348  1.00  0.00    -0.351 N 
HETATM   16  C   UNL     1     -41.436 -53.036  13.540  1.00  0.00     0.126 C 
HETATM   17  C   UNL     1     -39.145 -53.192  14.220  1.00  0.00     0.126 C 
HETATM   18  C   UNL     1     -41.301 -54.199  14.510  1.00  0.00     0.021 C 
HETATM   19  C   UNL     1     -39.812 -54.528  14.503  1.00  0.00     0.021 C 
ENDBRANCH  12  13
ENDBRANCH   1  12
TORSDOF 5
ENDMDL
MODEL 9
REMARK VINA RESULT:      -5.0      3.166      6.623
REMARK  5 active torsions:
REMARK  status: ('A' for Active; 'I' for Inactive)
REMARK    1  A    between atoms: N_6  and  C_7 
REMARK    2  A    between atoms: C_7  and  C_8 
REMARK    3  A    between atoms: C_8  and  N_9 
REMARK    4  A    between atoms: N_9  and  C_10 
REMARK    5  A    between atoms: C_10  and  C_11 
REMARK       I    between atoms: C_11  and  N_13 
ROOT
HETATM    1  N   UNL     1     -40.748 -50.379  11.117  1.00  0.00     0.093 N 
HETATM    2  H   UNL     1     -41.396 -50.284  10.326  1.00  0.00     0.316 HD
ENDROOT
BRANCH   1   3
HETATM    3  C   UNL     1     -41.445 -50.949  12.279  1.00  0.00     0.291 C 
BRANCH   3   4
HETATM    4  C   UNL     1     -41.991 -52.378  12.144  1.00  0.00     0.178 C 
BRANCH   4   5
HETATM    5  N   UNL     1     -43.374 -52.489  12.559  1.00  0.00    -0.302 N 
HETATM    6  N   UNL     1     -44.063 -53.617  12.308  1.00  0.00    -0.310 N 
HETATM    7  C   UNL     1     -45.249 -53.392  12.877  1.00  0.00     0.115 A 
ATOM      8  HN  UNL     1     -43.753 -54.447  11.803  1.00  0.00     0.186 HD
HETATM    9  C   UNL     1     -45.338 -52.107  13.454  1.00  0.00    -0.028 A 
HETATM   10  C   UNL     1     -46.488 -51.493  14.152  1.00  0.00     0.051 C 
HETATM   11  C   UNL     1     -44.101 -51.546  13.221  1.00  0.00     0.118 A 
ENDBRANCH   4   5
ENDBRANCH   3   4
ENDBRANCH   1   3
BRANCH   1  12
HETATM   12  C   UNL     1     -40.240 -49.031  11.412  1.00  0.00     0.372 C 
BRANCH  12  13
HETATM   13  C   UNL     1     -41.115 -47.928  10.795  1.00  0.00     0.247 C 
HETATM   14  O   UNL     1     -42.039 -48.167  10.014  1.00  0.00    -0.271 OA
HETATM   15  N   UNL     1     -40.835 -46.651  11.241  1.00  0.00    -0.351 N 
HETATM   16  C   UNL     1     -39.776 -46.271  12.163  1.00  0.00     0.126 C 
HETATM   17  C   UNL     1     -41.613 -45.500  10.834  1.00  0.00     0.126 C 
HETATM   18  C   UNL     1     -39.817 -44.752  12.233  1.00  0.00     0.021 C 
HETATM   19  C   UNL     1     -40.653 -44.339  11.026  1.00  0.00     0.021 C 
ENDBRANCH  12  13
ENDBRANCH   1  12
TORSDOF 5
ENDMDL
