MODEL 1
REMARK VINA RESULT:      -5.9      0.000      0.000
REMARK  4 active torsions:
REMARK  status: ('A' for Active; 'I' for Inactive)
REMARK    1  A    between atoms: O_2  and  C_3 
REMARK    2  A    between atoms: C_6  and  N_7 
REMARK       I    between atoms: N_7  and  C_8 
REMARK       I    between atoms: C_8  and  N_10 
REMARK    3  A    between atoms: N_10  and  C_11 
REMARK    4  A    between atoms: C_11  and  C_13 
ROOT
HETATM    1  N   UNL     1     -41.161 -49.914  10.994  1.00  0.00    -0.308 N 
HETATM    2  C   UNL     1     -41.768 -50.579  12.036  1.00  0.00     0.321 C 
HETATM    3  O   UNL     1     -42.266 -50.058  13.026  1.00  0.00    -0.247 OA
HETATM    4  N   UNL     1     -41.695 -51.947  11.904  1.00  0.00    -0.336 N 
HETATM    5  H   UNL     1     -40.569 -50.469  10.394  1.00  0.00     0.170 HD
HETATM    6  H   UNL     1     -41.648 -52.343  10.974  1.00  0.00     0.164 HD
ENDROOT
BRANCH   1   7
HETATM    7  C   UNL     1     -41.073 -48.505  10.883  1.00  0.00     0.051 A 
HETATM    8  C   UNL     1     -40.078 -47.749  11.502  1.00  0.00     0.035 A 
HETATM    9  C   UNL     1     -40.020 -46.373  11.306  1.00  0.00     0.058 A 
HETATM   10  C   UNL     1     -40.991 -45.779  10.522  1.00  0.00     0.141 A 
HETATM   11  N   UNL     1     -41.993 -46.459   9.924  1.00  0.00    -0.345 N 
HETATM   12  C   UNL     1     -42.007 -47.802  10.120  1.00  0.00     0.119 A 
ATOM     13  HN  UNL     1     -42.700 -45.991   9.358  1.00  0.00     0.167 HD
BRANCH  10  14
HETATM   14  O   UNL     1     -40.873 -44.416  10.346  1.00  0.00    -0.341 OA
HETATM   15  C   UNL     1     -40.325 -43.768  11.487  1.00  0.00     0.211 C 
ENDBRANCH  10  14
ENDBRANCH   1   7
BRANCH   4  16
HETATM   16  C   UNL     1     -42.306 -52.792  12.933  1.00  0.00     0.111 C 
HETATM   17  C   UNL     1     -43.648 -53.334  12.440  1.00  0.00     0.035 C 
BRANCH  16  18
HETATM   18  C   UNL     1     -41.375 -53.928  13.381  1.00  0.00     0.143 C 
HETATM   19  C   UNL     1     -41.475 -54.289  14.857  1.00  0.00     0.036 C 
HETATM   20  C   UNL     1     -40.072 -54.727  15.230  1.00  0.00     0.029 C 
HETATM   21  C   UNL     1     -39.259 -54.541  13.965  1.00  0.00     0.168 C 
HETATM   22  O   UNL     1     -39.990 -53.603  13.168  1.00  0.00    -0.384 OA
ENDBRANCH  16  18
ENDBRANCH   4  16
TORSDOF 4
ENDMDL
MODEL 2
REMARK VINA RESULT:      -5.9      2.222      7.688
REMARK  4 active torsions:
REMARK  status: ('A' for Active; 'I' for Inactive)
REMARK    1  A    between atoms: O_2  and  C_3 
REMARK    2  A    between atoms: C_6  and  N_7 
REMARK       I    between atoms: N_7  and  C_8 
REMARK       I    between atoms: C_8  and  N_10 
REMARK    3  A    between atoms: N_10  and  C_11 
REMARK    4  A    between atoms: C_11  and  C_13 
ROOT
HETATM    1  N   UNL     1     -40.698 -50.482  11.141  1.00  0.00    -0.308 N 
HETATM    2  C   UNL     1     -41.480 -49.372  11.374  1.00  0.00     0.321 C 
HETATM    3  O   UNL     1     -42.177 -49.180  12.362  1.00  0.00    -0.247 OA
HETATM    4  N   UNL     1     -41.475 -48.491  10.316  1.00  0.00    -0.336 N 
HETATM    5  H   UNL     1     -40.400 -50.627  10.188  1.00  0.00     0.170 HD
HETATM    6  H   UNL     1     -40.658 -48.453   9.720  1.00  0.00     0.164 HD
ENDROOT
BRANCH   1   7
HETATM    7  C   UNL     1     -40.536 -51.554  12.051  1.00  0.00     0.051 A 
HETATM    8  C   UNL     1     -39.675 -51.505  13.147  1.00  0.00     0.035 A 
HETATM    9  C   UNL     1     -39.606 -52.576  14.033  1.00  0.00     0.058 A 
HETATM   10  C   UNL     1     -40.377 -53.693  13.774  1.00  0.00     0.141 A 
HETATM   11  N   UNL     1     -41.205 -53.805  12.713  1.00  0.00    -0.345 N 
HETATM   12  C   UNL     1     -41.263 -52.734  11.882  1.00  0.00     0.119 A 
ATOM     13  HN  UNL     1     -41.755 -54.647  12.545  1.00  0.00     0.167 HD
BRANCH  10  14
HETATM   14  O   UNL     1     -40.284 -54.716  14.695  1.00  0.00    -0.341 OA
HETATM   15  C   UNL     1     -38.935 -55.054  14.994  1.00  0.00     0.211 C 
ENDBRANCH  10  14
ENDBRANCH   1   7
BRANCH   4  16
HETATM   16  C   UNL     1     -42.256 -47.255  10.419  1.00  0.00     0.111 C 
HETATM   17  C   UNL     1     -41.359 -46.044  10.162  1.00  0.00     0.035 C 
BRANCH  16  18
HETATM   18  C   UNL     1     -43.474 -47.257   9.484  1.00  0.00     0.143 C 
HETATM   19  C   UNL     1     -43.912 -45.879   9.006  1.00  0.00     0.036 C 
HETATM   20  C   UNL     1     -45.416 -45.996   8.858  1.00  0.00     0.029 C 
HETATM   21  C   UNL     1     -45.741 -47.408   9.305  1.00  0.00     0.168 C 
HETATM   22  O   UNL     1     -44.636 -47.822  10.116  1.00  0.00    -0.384 OA
ENDBRANCH  16  18
ENDBRANCH   4  16
TORSDOF 4
ENDMDL
MODEL 3
REMARK VINA RESULT:      -5.7      2.212      8.119
REMARK  4 active torsions:
REMARK  status: ('A' for Active; 'I' for Inactive)
REMARK    1  A    between atoms: O_2  and  C_3 
REMARK    2  A    between atoms: C_6  and  N_7 
REMARK       I    between atoms: N_7  and  C_8 
REMARK       I    between atoms: C_8  and  N_10 
REMARK    3  A    between atoms: N_10  and  C_11 
REMARK    4  A    between atoms: C_11  and  C_13 
ROOT
HETATM    1  N   UNL     1     -41.932 -51.466  11.927  1.00  0.00    -0.308 N 
HETATM    2  C   UNL     1     -42.326 -50.152  12.053  1.00  0.00     0.321 C 
HETATM    3  O   UNL     1     -43.102 -49.714  12.892  1.00  0.00    -0.247 OA
HETATM    4  N   UNL     1     -41.812 -49.349  11.060  1.00  0.00    -0.336 N 
HETATM    5  H   UNL     1     -41.513 -51.725  11.045  1.00  0.00     0.170 HD
HETATM    6  H   UNL     1     -40.926 -49.603  10.640  1.00  0.00     0.164 HD
ENDROOT
BRANCH   1   7
HETATM    7  C   UNL     1     -42.326 -52.509  12.799  1.00  0.00     0.051 A 
HETATM    8  C   UNL     1     -43.535 -53.194  12.675  1.00  0.00     0.035 A 
HETATM    9  C   UNL     1     -43.834 -54.247  13.535  1.00  0.00     0.058 A 
HETATM   10  C   UNL     1     -42.927 -54.562  14.528  1.00  0.00     0.141 A 
HETATM   11  N   UNL     1     -41.757 -53.913  14.711  1.00  0.00    -0.345 N 
HETATM   12  C   UNL     1     -41.488 -52.906  13.842  1.00  0.00     0.119 A 
ATOM     13  HN  UNL     1     -41.112 -54.164  15.460  1.00  0.00     0.167 HD
BRANCH  10  14
HETATM   14  O   UNL     1     -43.267 -55.626  15.339  1.00  0.00    -0.341 OA
HETATM   15  C   UNL     1     -42.279 -55.892  16.326  1.00  0.00     0.211 C 
ENDBRANCH  10  14
ENDBRANCH   1   7
BRANCH   4  16
HETATM   16  C   UNL     1     -42.136 -47.920  11.065  1.00  0.00     0.111 C 
HETATM   17  C   UNL     1     -40.852 -47.090  11.108  1.00  0.00     0.035 C 
BRANCH  16  18
HETATM   18  C   UNL     1     -43.020 -47.520   9.875  1.00  0.00     0.143 C 
HETATM   19  C   UNL     1     -42.899 -46.062   9.454  1.00  0.00     0.036 C 
HETATM   20  C   UNL     1     -44.282 -45.704   8.946  1.00  0.00     0.029 C 
HETATM   21  C   UNL     1     -45.108 -46.957   9.155  1.00  0.00     0.168 C 
HETATM   22  O   UNL     1     -44.417 -47.714  10.155  1.00  0.00    -0.384 OA
ENDBRANCH  16  18
ENDBRANCH   4  16
TORSDOF 4
ENDMDL
MODEL 4
REMARK VINA RESULT:      -5.7      2.038      2.527
REMARK  4 active torsions:
REMARK  status: ('A' for Active; 'I' for Inactive)
REMARK    1  A    between atoms: O_2  and  C_3 
REMARK    2  A    between atoms: C_6  and  N_7 
REMARK       I    between atoms: N_7  and  C_8 
REMARK       I    between atoms: C_8  and  N_10 
REMARK    3  A    between atoms: N_10  and  C_11 
REMARK    4  A    between atoms: C_11  and  C_13 
ROOT
HETATM    1  N   UNL     1     -42.826 -49.232  11.492  1.00  0.00    -0.308 N 
HETATM    2  C   UNL     1     -43.286 -49.500  12.762  1.00  0.00     0.321 C 
HETATM    3  O   UNL     1     -43.211 -48.747  13.725  1.00  0.00    -0.247 OA
HETATM    4  N   UNL     1     -43.788 -50.776  12.885  1.00  0.00    -0.336 N 
HETATM    5  H   UNL     1     -42.710 -50.028  10.882  1.00  0.00     0.170 HD
HETATM    6  H   UNL     1     -44.187 -51.220  12.068  1.00  0.00     0.164 HD
ENDROOT
BRANCH   1   7
HETATM    7  C   UNL     1     -42.243 -48.005  11.091  1.00  0.00     0.051 A 
HETATM    8  C   UNL     1     -42.987 -46.859  10.813  1.00  0.00     0.035 A 
HETATM    9  C   UNL     1     -42.345 -45.671  10.477  1.00  0.00     0.058 A 
HETATM   10  C   UNL     1     -40.966 -45.672  10.390  1.00  0.00     0.141 A 
HETATM   11  N   UNL     1     -40.200 -46.760  10.620  1.00  0.00    -0.345 N 
HETATM   12  C   UNL     1     -40.857 -47.895  10.965  1.00  0.00     0.119 A 
ATOM     13  HN  UNL     1     -39.184 -46.730  10.539  1.00  0.00     0.167 HD
BRANCH  10  14
HETATM   14  O   UNL     1     -40.382 -44.463  10.072  1.00  0.00    -0.341 OA
HETATM   15  C   UNL     1     -40.464 -43.526  11.138  1.00  0.00     0.211 C 
ENDBRANCH  10  14
ENDBRANCH   1   7
BRANCH   4  16
HETATM   16  C   UNL     1     -44.324 -51.206  14.179  1.00  0.00     0.111 C 
HETATM   17  C   UNL     1     -45.843 -51.359  14.094  1.00  0.00     0.035 C 
BRANCH  16  18
HETATM   18  C   UNL     1     -43.660 -52.495  14.684  1.00  0.00     0.143 C 
HETATM   19  C   UNL     1     -42.318 -52.815  14.037  1.00  0.00     0.036 C 
HETATM   20  C   UNL     1     -42.270 -54.330  14.009  1.00  0.00     0.029 C 
HETATM   21  C   UNL     1     -43.598 -54.771  14.591  1.00  0.00     0.168 C 
HETATM   22  O   UNL     1     -44.478 -53.652  14.441  1.00  0.00    -0.384 OA
ENDBRANCH  16  18
ENDBRANCH   4  16
TORSDOF 4
ENDMDL
MODEL 5
REMARK VINA RESULT:      -5.6      2.518      7.494
REMARK  4 active torsions:
REMARK  status: ('A' for Active; 'I' for Inactive)
REMARK    1  A    between atoms: O_2  and  C_3 
REMARK    2  A    between atoms: C_6  and  N_7 
REMARK       I    between atoms: N_7  and  C_8 
REMARK       I    between atoms: C_8  and  N_10 
REMARK    3  A    between atoms: N_10  and  C_11 
REMARK    4  A    between atoms: C_11  and  C_13 
ROOT
HETATM    1  N   UNL     1     -42.145 -52.296  11.787  1.00  0.00    -0.308 N 
HETATM    2  C   UNL     1     -41.410 -51.248  12.297  1.00  0.00     0.321 C 
HETATM    3  O   UNL     1     -41.509 -50.786  13.426  1.00  0.00    -0.247 OA
HETATM    4  N   UNL     1     -40.571 -50.686  11.362  1.00  0.00    -0.336 N 
HETATM    5  H   UNL     1     -42.151 -52.390  10.782  1.00  0.00     0.170 HD
HETATM    6  H   UNL     1     -40.221 -51.269  10.612  1.00  0.00     0.164 HD
ENDROOT
BRANCH   1   7
HETATM    7  C   UNL     1     -43.097 -53.042  12.523  1.00  0.00     0.051 A 
HETATM    8  C   UNL     1     -42.750 -54.034  13.439  1.00  0.00     0.035 A 
HETATM    9  C   UNL     1     -43.736 -54.690  14.169  1.00  0.00     0.058 A 
HETATM   10  C   UNL     1     -45.057 -54.361  13.931  1.00  0.00     0.141 A 
HETATM   11  N   UNL     1     -45.450 -53.430  13.035  1.00  0.00    -0.345 N 
HETATM   12  C   UNL     1     -44.461 -52.796  12.357  1.00  0.00     0.119 A 
ATOM     13  HN  UNL     1     -46.434 -53.217  12.877  1.00  0.00     0.167 HD
BRANCH  10  14
HETATM   14  O   UNL     1     -45.991 -55.030  14.696  1.00  0.00    -0.341 OA
HETATM   15  C   UNL     1     -46.370 -54.295  15.853  1.00  0.00     0.211 C 
ENDBRANCH  10  14
ENDBRANCH   1   7
BRANCH   4  16
HETATM   16  C   UNL     1     -39.716 -49.564  11.759  1.00  0.00     0.111 C 
HETATM   17  C   UNL     1     -38.278 -49.814  11.306  1.00  0.00     0.035 C 
BRANCH  16  18
HETATM   18  C   UNL     1     -40.242 -48.220  11.237  1.00  0.00     0.143 C 
HETATM   19  C   UNL     1     -40.617 -47.218  12.321  1.00  0.00     0.036 C 
HETATM   20  C   UNL     1     -41.770 -46.436  11.723  1.00  0.00     0.029 C 
HETATM   21  C   UNL     1     -42.007 -47.070  10.367  1.00  0.00     0.168 C 
HETATM   22  O   UNL     1     -41.432 -48.379  10.445  1.00  0.00    -0.384 OA
ENDBRANCH  16  18
ENDBRANCH   4  16
TORSDOF 4
ENDMDL
MODEL 6
REMARK VINA RESULT:      -5.3      1.788      7.409
REMARK  4 active torsions:
REMARK  status: ('A' for Active; 'I' for Inactive)
REMARK    1  A    between atoms: O_2  and  C_3 
REMARK    2  A    between atoms: C_6  and  N_7 
REMARK       I    between atoms: N_7  and  C_8 
REMARK       I    between atoms: C_8  and  N_10 
REMARK    3  A    between atoms: N_10  and  C_11 
REMARK    4  A    between atoms: C_11  and  C_13 
ROOT
HETATM    1  N   UNL     1     -41.735 -50.822  12.475  1.00  0.00    -0.308 N 
HETATM    2  C   UNL     1     -41.290 -49.919  11.535  1.00  0.00     0.321 C 
HETATM    3  O   UNL     1     -40.175 -49.903  11.028  1.00  0.00    -0.247 OA
HETATM    4  N   UNL     1     -42.220 -48.943  11.257  1.00  0.00    -0.336 N 
HETATM    5  H   UNL     1     -42.561 -50.558  12.992  1.00  0.00     0.170 HD
HETATM    6  H   UNL     1     -43.202 -49.165  11.361  1.00  0.00     0.164 HD
ENDROOT
BRANCH   1   7
HETATM    7  C   UNL     1     -40.977 -51.916  12.959  1.00  0.00     0.051 A 
HETATM    8  C   UNL     1     -40.085 -51.817  14.026  1.00  0.00     0.035 A 
HETATM    9  C   UNL     1     -39.414 -52.946  14.485  1.00  0.00     0.058 A 
HETATM   10  C   UNL     1     -39.625 -54.146  13.834  1.00  0.00     0.141 A 
HETATM   11  N   UNL     1     -40.455 -54.291  12.778  1.00  0.00    -0.345 N 
HETATM   12  C   UNL     1     -41.108 -53.175  12.370  1.00  0.00     0.119 A 
ATOM     13  HN  UNL     1     -40.582 -55.190  12.313  1.00  0.00     0.167 HD
BRANCH  10  14
HETATM   14  O   UNL     1     -38.948 -55.235  14.343  1.00  0.00    -0.341 OA
HETATM   15  C   UNL     1     -38.933 -55.247  15.764  1.00  0.00     0.211 C 
ENDBRANCH  10  14
ENDBRANCH   1   7
BRANCH   4  16
HETATM   16  C   UNL     1     -41.893 -47.914  10.267  1.00  0.00     0.111 C 
HETATM   17  C   UNL     1     -43.055 -47.738   9.289  1.00  0.00     0.035 C 
BRANCH  16  18
HETATM   18  C   UNL     1     -41.508 -46.579  10.921  1.00  0.00     0.143 C 
HETATM   19  C   UNL     1     -40.010 -46.368  11.101  1.00  0.00     0.036 C 
HETATM   20  C   UNL     1     -39.899 -45.545  12.370  1.00  0.00     0.029 C 
HETATM   21  C   UNL     1     -41.326 -45.385  12.854  1.00  0.00     0.168 C 
HETATM   22  O   UNL     1     -42.066 -46.446  12.240  1.00  0.00    -0.384 OA
ENDBRANCH  16  18
ENDBRANCH   4  16
TORSDOF 4
ENDMDL
MODEL 7
REMARK VINA RESULT:      -5.3      1.373      2.292
REMARK  4 active torsions:
REMARK  status: ('A' for Active; 'I' for Inactive)
REMARK    1  A    between atoms: O_2  and  C_3 
REMARK    2  A    between atoms: C_6  and  N_7 
REMARK       I    between atoms: N_7  and  C_8 
REMARK       I    between atoms: C_8  and  N_10 
REMARK    3  A    between atoms: N_10  and  C_11 
REMARK    4  A    between atoms: C_11  and  C_13 
ROOT
HETATM    1  N   UNL     1     -40.796 -50.362  10.837  1.00  0.00    -0.308 N 
HETATM    2  C   UNL     1     -41.111 -51.210  11.875  1.00  0.00     0.321 C 
HETATM    3  O   UNL     1     -41.402 -50.871  13.015  1.00  0.00    -0.247 OA
HETATM    4  N   UNL     1     -40.990 -52.537  11.529  1.00  0.00    -0.336 N 
HETATM    5  H   UNL     1     -40.323 -50.777  10.048  1.00  0.00     0.170 HD
HETATM    6  H   UNL     1     -41.132 -52.801  10.562  1.00  0.00     0.164 HD
ENDROOT
BRANCH   1   7
HETATM    7  C   UNL     1     -40.818 -48.948  10.920  1.00  0.00     0.051 A 
HETATM    8  C   UNL     1     -39.891 -48.211  11.656  1.00  0.00     0.035 A 
HETATM    9  C   UNL     1     -39.939 -46.820  11.650  1.00  0.00     0.058 A 
HETATM   10  C   UNL     1     -40.945 -46.201  10.933  1.00  0.00     0.141 A 
HETATM   11  N   UNL     1     -41.884 -46.867  10.228  1.00  0.00    -0.345 N 
HETATM   12  C   UNL     1     -41.795 -48.221  10.239  1.00  0.00     0.119 A 
ATOM     13  HN  UNL     1     -42.620 -46.380   9.716  1.00  0.00     0.167 HD
BRANCH  10  14
HETATM   14  O   UNL     1     -40.933 -44.821  10.947  1.00  0.00    -0.341 OA
HETATM   15  C   UNL     1     -41.997 -44.278  11.717  1.00  0.00     0.211 C 
ENDBRANCH  10  14
ENDBRANCH   1   7
BRANCH   4  16
HETATM   16  C   UNL     1     -41.302 -53.562  12.528  1.00  0.00     0.111 C 
HETATM   17  C   UNL     1     -40.201 -53.614  13.588  1.00  0.00     0.035 C 
BRANCH  16  18
HETATM   18  C   UNL     1     -42.682 -53.351  13.166  1.00  0.00     0.143 C 
HETATM   19  C   UNL     1     -43.061 -54.383  14.220  1.00  0.00     0.036 C 
HETATM   20  C   UNL     1     -44.567 -54.510  14.093  1.00  0.00     0.029 C 
HETATM   21  C   UNL     1     -44.939 -53.587  12.950  1.00  0.00     0.168 C 
HETATM   22  O   UNL     1     -43.739 -53.405  12.191  1.00  0.00    -0.384 OA
ENDBRANCH  16  18
ENDBRANCH   4  16
TORSDOF 4
ENDMDL
MODEL 8
REMARK VINA RESULT:      -5.3      1.855      2.844
REMARK  4 active torsions:
REMARK  status: ('A' for Active; 'I' for Inactive)
REMARK    1  A    between atoms: O_2  and  C_3 
REMARK    2  A    between atoms: C_6  and  N_7 
REMARK       I    between atoms: N_7  and  C_8 
REMARK       I    between atoms: C_8  and  N_10 
REMARK    3  A    between atoms: N_10  and  C_11 
REMARK    4  A    between atoms: C_11  and  C_13 
ROOT
HETATM    1  N   UNL     1     -41.219 -49.819  13.036  1.00  0.00    -0.308 N 
HETATM    2  C   UNL     1     -41.045 -51.151  12.730  1.00  0.00     0.321 C 
HETATM    3  O   UNL     1     -41.241 -51.667  11.637  1.00  0.00    -0.247 OA
HETATM    4  N   UNL     1     -40.693 -51.904  13.827  1.00  0.00    -0.336 N 
HETATM    5  H   UNL     1     -41.282 -49.591  14.017  1.00  0.00     0.170 HD
HETATM    6  H   UNL     1     -40.181 -51.458  14.578  1.00  0.00     0.164 HD
ENDROOT
BRANCH   1   7
HETATM    7  C   UNL     1     -41.599 -48.824  12.103  1.00  0.00     0.051 A 
HETATM    8  C   UNL     1     -42.923 -48.455  11.875  1.00  0.00     0.035 A 
HETATM    9  C   UNL     1     -43.221 -47.430  10.982  1.00  0.00     0.058 A 
HETATM   10  C   UNL     1     -42.179 -46.825  10.306  1.00  0.00     0.141 A 
HETATM   11  N   UNL     1     -40.882 -47.163  10.467  1.00  0.00    -0.345 N 
HETATM   12  C   UNL     1     -40.626 -48.152  11.360  1.00  0.00     0.119 A 
ATOM     13  HN  UNL     1     -40.136 -46.703   9.946  1.00  0.00     0.167 HD
BRANCH  10  14
HETATM   14  O   UNL     1     -42.531 -45.803   9.448  1.00  0.00    -0.341 OA
HETATM   15  C   UNL     1     -43.796 -46.020   8.836  1.00  0.00     0.211 C 
ENDBRANCH  10  14
ENDBRANCH   1   7
BRANCH   4  16
HETATM   16  C   UNL     1     -40.464 -53.341  13.657  1.00  0.00     0.111 C 
HETATM   17  C   UNL     1     -39.092 -53.724  14.211  1.00  0.00     0.035 C 
BRANCH  16  18
HETATM   18  C   UNL     1     -41.579 -54.186  14.292  1.00  0.00     0.143 C 
HETATM   19  C   UNL     1     -42.860 -54.267  13.473  1.00  0.00     0.036 C 
HETATM   20  C   UNL     1     -43.960 -54.369  14.511  1.00  0.00     0.029 C 
HETATM   21  C   UNL     1     -43.244 -54.290  15.844  1.00  0.00     0.168 C 
HETATM   22  O   UNL     1     -41.983 -53.669  15.571  1.00  0.00    -0.384 OA
ENDBRANCH  16  18
ENDBRANCH   4  16
TORSDOF 4
ENDMDL
MODEL 9
REMARK VINA RESULT:      -5.1      2.911      7.917
REMARK  4 active torsions:
REMARK  status: ('A' for Active; 'I' for Inactive)
REMARK    1  A    between atoms: O_2  and  C_3 
REMARK    2  A    between atoms: C_6  and  N_7 
REMARK       I    between atoms: N_7  and  C_8 
REMARK       I    between atoms: C_8  and  N_10 
REMARK    3  A    between atoms: N_10  and  C_11 
REMARK    4  A    between atoms: C_11  and  C_13 
ROOT
HETATM    1  N   UNL     1     -43.354 -51.866  12.511  1.00  0.00    -0.308 N 
HETATM    2  C   UNL     1     -42.446 -50.859  12.753  1.00  0.00     0.321 C 
HETATM    3  O   UNL     1     -42.106 -50.451  13.856  1.00  0.00    -0.247 OA
HETATM    4  N   UNL     1     -41.990 -50.269  11.596  1.00  0.00    -0.336 N 
HETATM    5  H   UNL     1     -43.733 -51.911  11.576  1.00  0.00     0.170 HD
HETATM    6  H   UNL     1     -41.961 -50.821  10.749  1.00  0.00     0.164 HD
ENDROOT
BRANCH   1   7
HETATM    7  C   UNL     1     -43.995 -52.628  13.518  1.00  0.00     0.051 A 
HETATM    8  C   UNL     1     -43.574 -53.902  13.898  1.00  0.00     0.035 A 
HETATM    9  C   UNL     1     -44.217 -54.572  14.934  1.00  0.00     0.058 A 
HETATM   10  C   UNL     1     -45.299 -53.961  15.540  1.00  0.00     0.141 A 
HETATM   11  N   UNL     1     -45.767 -52.743  15.191  1.00  0.00    -0.345 N 
HETATM   12  C   UNL     1     -45.103 -52.110  14.192  1.00  0.00     0.119 A 
ATOM     13  HN  UNL     1     -46.573 -52.323  15.652  1.00  0.00     0.167 HD
BRANCH  10  14
HETATM   14  O   UNL     1     -45.887 -54.663  16.572  1.00  0.00    -0.341 OA
HETATM   15  C   UNL     1     -45.918 -53.919  17.783  1.00  0.00     0.211 C 
ENDBRANCH  10  14
ENDBRANCH   1   7
BRANCH   4  16
HETATM   16  C   UNL     1     -41.009 -49.185  11.692  1.00  0.00     0.111 C 
HETATM   17  C   UNL     1     -39.594 -49.740  11.524  1.00  0.00     0.035 C 
BRANCH  16  18
HETATM   18  C   UNL     1     -41.290 -48.056  10.690  1.00  0.00     0.143 C 
HETATM   19  C   UNL     1     -40.583 -46.743  10.996  1.00  0.00     0.036 C 
HETATM   20  C   UNL     1     -41.540 -45.678  10.497  1.00  0.00     0.029 C 
HETATM   21  C   UNL     1     -42.743 -46.447   9.988  1.00  0.00     0.168 C 
HETATM   22  O   UNL     1     -42.688 -47.724  10.632  1.00  0.00    -0.384 OA
ENDBRANCH  16  18
ENDBRANCH   4  16
TORSDOF 4
ENDMDL
