MODEL 1
REMARK VINA RESULT:      -6.3      0.000      0.000
REMARK  6 active torsions:
REMARK  status: ('A' for Active; 'I' for Inactive)
REMARK    1  A    between atoms: C_8  and  C_9 
REMARK    2  A    between atoms: C_9  and  C_10 
REMARK    3  A    between atoms: C_10  and  N_11 
REMARK       I    between atoms: N_11  and  C_12 
REMARK    4  A    between atoms: C_12  and  C_14 
REMARK    5  A    between atoms: C_14  and  C_15 
REMARK    6  A    between atoms: C_15  and  C_16 
ROOT
HETATM    1  N   UNL     1     -43.408 -53.604  13.746  1.00  0.00    -0.361 N 
HETATM    2  C   UNL     1     -44.612 -54.244  13.931  1.00  0.00     0.217 C 
HETATM    3  O   UNL     1     -44.715 -55.371  14.404  1.00  0.00    -0.274 OA
HETATM    4  H   UNL     1     -43.376 -52.712  13.266  1.00  0.00     0.162 HD
ENDROOT
BRANCH   1   5
HETATM    5  C   UNL     1     -42.142 -54.201  14.125  1.00  0.00     0.130 C 
BRANCH   5   6
HETATM    6  C   UNL     1     -41.160 -54.270  12.955  1.00  0.00     0.098 C 
BRANCH   6   7
HETATM    7  C   UNL     1     -40.846 -52.915  12.420  1.00  0.00     0.100 A 
HETATM    8  N   UNL     1     -40.021 -51.989  13.004  1.00  0.00    -0.335 N 
HETATM    9  C   UNL     1     -39.273 -52.120  14.225  1.00  0.00     0.158 C 
HETATM   10  C   UNL     1     -40.041 -50.896  12.196  1.00  0.00     0.200 A 
HETATM   11  N   UNL     1     -40.812 -51.129  11.162  1.00  0.00    -0.295 N 
HETATM   12  N   UNL     1     -41.321 -52.397  11.303  1.00  0.00    -0.288 N 
ATOM     13  HN  UNL     1     -40.999 -50.487  10.393  1.00  0.00     0.187 HD
ATOM     14  HN  UNL     1     -41.959 -52.859  10.655  1.00  0.00     0.188 HD
ENDBRANCH   6   7
ENDBRANCH   5   6
ENDBRANCH   1   5
BRANCH   2  15
HETATM   15  C   UNL     1     -45.784 -53.438  13.416  1.00  0.00     0.103 C 
BRANCH  15  16
HETATM   16  C   UNL     1     -45.525 -51.937  13.490  1.00  0.00     0.014 C 
BRANCH  16  17
HETATM   17  C   UNL     1     -46.042 -51.268  14.772  1.00  0.00    -0.014 C 
HETATM   18  C   UNL     1     -47.160 -52.065  15.462  1.00  0.00     0.004 C 
HETATM   19  C   UNL     1     -47.750 -51.265  16.619  1.00  0.00     0.000 C 
HETATM   20  C   UNL     1     -46.679 -50.834  17.622  1.00  0.00     0.000 C 
HETATM   21  C   UNL     1     -45.472 -50.172  16.960  1.00  0.00     0.000 C 
HETATM   22  C   UNL     1     -44.927 -50.994  15.791  1.00  0.00     0.004 C 
ENDBRANCH  16  17
ENDBRANCH  15  16
ENDBRANCH   2  15
TORSDOF 6
ENDMDL
MODEL 2
REMARK VINA RESULT:      -6.1      2.238      3.990
REMARK  6 active torsions:
REMARK  status: ('A' for Active; 'I' for Inactive)
REMARK    1  A    between atoms: C_8  and  C_9 
REMARK    2  A    between atoms: C_9  and  C_10 
REMARK    3  A    between atoms: C_10  and  N_11 
REMARK       I    between atoms: N_11  and  C_12 
REMARK    4  A    between atoms: C_12  and  C_14 
REMARK    5  A    between atoms: C_14  and  C_15 
REMARK    6  A    between atoms: C_15  and  C_16 
ROOT
HETATM    1  N   UNL     1     -40.241 -52.023  13.115  1.00  0.00    -0.361 N 
HETATM    2  C   UNL     1     -40.283 -53.389  13.278  1.00  0.00     0.217 C 
HETATM    3  O   UNL     1     -39.314 -54.061  13.612  1.00  0.00    -0.274 OA
HETATM    4  H   UNL     1     -41.047 -51.531  12.748  1.00  0.00     0.162 HD
ENDROOT
BRANCH   1   5
HETATM    5  C   UNL     1     -39.039 -51.247  13.354  1.00  0.00     0.130 C 
BRANCH   5   6
HETATM    6  C   UNL     1     -38.555 -50.525  12.095  1.00  0.00     0.098 C 
BRANCH   6   7
HETATM    7  C   UNL     1     -39.630 -49.684  11.497  1.00  0.00     0.100 A 
HETATM    8  N   UNL     1     -40.026 -48.447  11.937  1.00  0.00    -0.335 N 
HETATM    9  C   UNL     1     -39.493 -47.691  13.038  1.00  0.00     0.158 C 
HETATM   10  C   UNL     1     -41.042 -48.059  11.122  1.00  0.00     0.200 A 
HETATM   11  N   UNL     1     -41.255 -48.982  10.216  1.00  0.00    -0.295 N 
HETATM   12  N   UNL     1     -40.370 -50.006  10.452  1.00  0.00    -0.288 N 
ATOM     13  HN  UNL     1     -41.950 -48.947   9.471  1.00  0.00     0.187 HD
ATOM     14  HN  UNL     1     -40.298 -50.868   9.913  1.00  0.00     0.188 HD
ENDBRANCH   6   7
ENDBRANCH   5   6
ENDBRANCH   1   5
BRANCH   2  15
HETATM   15  C   UNL     1     -41.632 -53.974  12.926  1.00  0.00     0.103 C 
BRANCH  15  16
HETATM   16  C   UNL     1     -42.545 -54.088  14.142  1.00  0.00     0.014 C 
BRANCH  16  17
HETATM   17  C   UNL     1     -43.904 -53.391  13.981  1.00  0.00    -0.014 C 
HETATM   18  C   UNL     1     -43.942 -51.988  14.608  1.00  0.00     0.004 C 
HETATM   19  C   UNL     1     -45.360 -51.427  14.573  1.00  0.00     0.000 C 
HETATM   20  C   UNL     1     -45.937 -51.415  13.158  1.00  0.00     0.000 C 
HETATM   21  C   UNL     1     -45.781 -52.754  12.437  1.00  0.00     0.000 C 
HETATM   22  C   UNL     1     -44.352 -53.291  12.516  1.00  0.00     0.004 C 
ENDBRANCH  16  17
ENDBRANCH  15  16
ENDBRANCH   2  15
TORSDOF 6
ENDMDL
MODEL 3
REMARK VINA RESULT:      -6.0      2.132      3.524
REMARK  6 active torsions:
REMARK  status: ('A' for Active; 'I' for Inactive)
REMARK    1  A    between atoms: C_8  and  C_9 
REMARK    2  A    between atoms: C_9  and  C_10 
REMARK    3  A    between atoms: C_10  and  N_11 
REMARK       I    between atoms: N_11  and  C_12 
REMARK    4  A    between atoms: C_12  and  C_14 
REMARK    5  A    between atoms: C_14  and  C_15 
REMARK    6  A    between atoms: C_15  and  C_16 
ROOT
HETATM    1  N   UNL     1     -40.416 -51.693  13.526  1.00  0.00    -0.361 N 
HETATM    2  C   UNL     1     -40.603 -53.050  13.396  1.00  0.00     0.217 C 
HETATM    3  O   UNL     1     -39.683 -53.853  13.286  1.00  0.00    -0.274 OA
HETATM    4  H   UNL     1     -41.213 -51.068  13.520  1.00  0.00     0.162 HD
ENDROOT
BRANCH   1   5
HETATM    5  C   UNL     1     -39.098 -51.090  13.573  1.00  0.00     0.130 C 
BRANCH   5   6
HETATM    6  C   UNL     1     -38.634 -50.601  12.199  1.00  0.00     0.098 C 
BRANCH   6   7
HETATM    7  C   UNL     1     -39.658 -49.735  11.550  1.00  0.00     0.100 A 
HETATM    8  N   UNL     1     -39.991 -48.459  11.926  1.00  0.00    -0.335 N 
HETATM    9  C   UNL     1     -39.427 -47.679  12.994  1.00  0.00     0.158 C 
HETATM   10  C   UNL     1     -40.980 -48.058  11.083  1.00  0.00     0.200 A 
HETATM   11  N   UNL     1     -41.234 -49.012  10.220  1.00  0.00    -0.295 N 
HETATM   12  N   UNL     1     -40.407 -50.068  10.515  1.00  0.00    -0.288 N 
ATOM     13  HN  UNL     1     -41.921 -48.976   9.468  1.00  0.00     0.187 HD
ATOM     14  HN  UNL     1     -40.377 -50.958  10.019  1.00  0.00     0.188 HD
ENDBRANCH   6   7
ENDBRANCH   5   6
ENDBRANCH   1   5
BRANCH   2  15
HETATM   15  C   UNL     1     -42.065 -53.430  13.326  1.00  0.00     0.103 C 
BRANCH  15  16
HETATM   16  C   UNL     1     -42.862 -52.487  12.432  1.00  0.00     0.014 C 
BRANCH  16  17
HETATM   17  C   UNL     1     -44.058 -51.816  13.126  1.00  0.00    -0.014 C 
HETATM   18  C   UNL     1     -45.409 -52.438  12.737  1.00  0.00     0.004 C 
HETATM   19  C   UNL     1     -46.558 -51.618  13.314  1.00  0.00     0.000 C 
HETATM   20  C   UNL     1     -46.440 -51.453  14.830  1.00  0.00     0.000 C 
HETATM   21  C   UNL     1     -45.057 -50.982  15.274  1.00  0.00     0.000 C 
HETATM   22  C   UNL     1     -43.934 -51.815  14.656  1.00  0.00     0.004 C 
ENDBRANCH  16  17
ENDBRANCH  15  16
ENDBRANCH   2  15
TORSDOF 6
ENDMDL
MODEL 4
REMARK VINA RESULT:      -5.9      3.473      4.826
REMARK  6 active torsions:
REMARK  status: ('A' for Active; 'I' for Inactive)
REMARK    1  A    between atoms: C_8  and  C_9 
REMARK    2  A    between atoms: C_9  and  C_10 
REMARK    3  A    between atoms: C_10  and  N_11 
REMARK       I    between atoms: N_11  and  C_12 
REMARK    4  A    between atoms: C_12  and  C_14 
REMARK    5  A    between atoms: C_14  and  C_15 
REMARK    6  A    between atoms: C_15  and  C_16 
ROOT
HETATM    1  N   UNL     1     -41.843 -50.737  11.819  1.00  0.00    -0.361 N 
HETATM    2  C   UNL     1     -41.323 -51.861  12.418  1.00  0.00     0.217 C 
HETATM    3  O   UNL     1     -40.145 -52.191  12.332  1.00  0.00    -0.274 OA
HETATM    4  H   UNL     1     -42.841 -50.563  11.846  1.00  0.00     0.162 HD
ENDROOT
BRANCH   1   5
HETATM    5  C   UNL     1     -41.028 -49.818  11.047  1.00  0.00     0.130 C 
BRANCH   5   6
HETATM    6  C   UNL     1     -41.333 -48.355  11.375  1.00  0.00     0.098 C 
BRANCH   6   7
HETATM    7  C   UNL     1     -42.091 -47.692  10.277  1.00  0.00     0.100 A 
HETATM    8  N   UNL     1     -42.550 -46.401  10.280  1.00  0.00    -0.335 N 
HETATM    9  C   UNL     1     -42.391 -45.410  11.310  1.00  0.00     0.158 C 
HETATM   10  C   UNL     1     -43.203 -46.224   9.100  1.00  0.00     0.200 A 
HETATM   11  N   UNL     1     -43.137 -47.327   8.394  1.00  0.00    -0.295 N 
HETATM   12  N   UNL     1     -42.442 -48.252   9.134  1.00  0.00    -0.288 N 
ATOM     13  HN  UNL     1     -43.531 -47.472   7.465  1.00  0.00     0.187 HD
ATOM     14  HN  UNL     1     -42.233 -49.209   8.849  1.00  0.00     0.188 HD
ENDBRANCH   6   7
ENDBRANCH   5   6
ENDBRANCH   1   5
BRANCH   2  15
HETATM   15  C   UNL     1     -42.378 -52.682  13.126  1.00  0.00     0.103 C 
BRANCH  15  16
HETATM   16  C   UNL     1     -43.590 -52.946  12.242  1.00  0.00     0.014 C 
BRANCH  16  17
HETATM   17  C   UNL     1     -44.938 -52.866  12.975  1.00  0.00    -0.014 C 
HETATM   18  C   UNL     1     -45.062 -53.878  14.125  1.00  0.00     0.004 C 
HETATM   19  C   UNL     1     -46.478 -53.871  14.691  1.00  0.00     0.000 C 
HETATM   20  C   UNL     1     -46.911 -52.474  15.135  1.00  0.00     0.000 C 
HETATM   21  C   UNL     1     -46.662 -51.405  14.072  1.00  0.00     0.000 C 
HETATM   22  C   UNL     1     -45.239 -51.461  13.516  1.00  0.00     0.004 C 
ENDBRANCH  16  17
ENDBRANCH  15  16
ENDBRANCH   2  15
TORSDOF 6
ENDMDL
MODEL 5
REMARK VINA RESULT:      -5.6      1.883      2.773
REMARK  6 active torsions:
REMARK  status: ('A' for Active; 'I' for Inactive)
REMARK    1  A    between atoms: C_8  and  C_9 
REMARK    2  A    between atoms: C_9  and  C_10 
REMARK    3  A    between atoms: C_10  and  N_11 
REMARK       I    between atoms: N_11  and  C_12 
REMARK    4  A    between atoms: C_12  and  C_14 
REMARK    5  A    between atoms: C_14  and  C_15 
REMARK    6  A    between atoms: C_15  and  C_16 
ROOT
HETATM    1  N   UNL     1     -41.497 -53.920  15.320  1.00  0.00    -0.361 N 
HETATM    2  C   UNL     1     -42.068 -55.083  15.782  1.00  0.00     0.217 C 
HETATM    3  O   UNL     1     -41.435 -55.979  16.329  1.00  0.00    -0.274 OA
HETATM    4  H   UNL     1     -42.051 -53.256  14.793  1.00  0.00     0.162 HD
ENDROOT
BRANCH   1   5
HETATM    5  C   UNL     1     -40.082 -53.636  15.467  1.00  0.00     0.130 C 
BRANCH   5   6
HETATM    6  C   UNL     1     -39.346 -53.644  14.125  1.00  0.00     0.098 C 
BRANCH   6   7
HETATM    7  C   UNL     1     -40.146 -52.982  13.056  1.00  0.00     0.100 A 
HETATM    8  N   UNL     1     -40.325 -51.632  12.902  1.00  0.00    -0.335 N 
HETATM    9  C   UNL     1     -39.778 -50.572  13.706  1.00  0.00     0.158 C 
HETATM   10  C   UNL     1     -41.137 -51.475  11.823  1.00  0.00     0.200 A 
HETATM   11  N   UNL     1     -41.430 -52.649  11.320  1.00  0.00    -0.295 N 
HETATM   12  N   UNL     1     -40.811 -53.598  12.096  1.00  0.00    -0.288 N 
ATOM     13  HN  UNL     1     -42.012 -52.826  10.502  1.00  0.00     0.187 HD
ATOM     14  HN  UNL     1     -40.857 -54.607  11.955  1.00  0.00     0.188 HD
ENDBRANCH   6   7
ENDBRANCH   5   6
ENDBRANCH   1   5
BRANCH   2  15
HETATM   15  C   UNL     1     -43.547 -55.166  15.471  1.00  0.00     0.103 C 
BRANCH  15  16
HETATM   16  C   UNL     1     -43.858 -54.738  14.041  1.00  0.00     0.014 C 
BRANCH  16  17
HETATM   17  C   UNL     1     -45.091 -53.830  13.906  1.00  0.00    -0.014 C 
HETATM   18  C   UNL     1     -45.383 -53.015  15.176  1.00  0.00     0.004 C 
HETATM   19  C   UNL     1     -46.711 -52.277  15.041  1.00  0.00     0.000 C 
HETATM   20  C   UNL     1     -46.751 -51.393  13.794  1.00  0.00     0.000 C 
HETATM   21  C   UNL     1     -46.317 -52.127  12.526  1.00  0.00     0.000 C 
HETATM   22  C   UNL     1     -44.994 -52.871  12.712  1.00  0.00     0.004 C 
ENDBRANCH  16  17
ENDBRANCH  15  16
ENDBRANCH   2  15
TORSDOF 6
ENDMDL
MODEL 6
REMARK VINA RESULT:      -5.5      3.286      5.459
REMARK  6 active torsions:
REMARK  status: ('A' for Active; 'I' for Inactive)
REMARK    1  A    between atoms: C_8  and  C_9 
REMARK    2  A    between atoms: C_9  and  C_10 
REMARK    3  A    between atoms: C_10  and  N_11 
REMARK       I    between atoms: N_11  and  C_12 
REMARK    4  A    between atoms: C_12  and  C_14 
REMARK    5  A    between atoms: C_14  and  C_15 
REMARK    6  A    between atoms: C_15  and  C_16 
ROOT
HETATM    1  N   UNL     1     -41.190 -50.212  12.518  1.00  0.00    -0.361 N 
HETATM    2  C   UNL     1     -40.390 -51.315  12.328  1.00  0.00     0.217 C 
HETATM    3  O   UNL     1     -39.178 -51.313  12.509  1.00  0.00    -0.274 OA
HETATM    4  H   UNL     1     -42.170 -50.245  12.264  1.00  0.00     0.162 HD
ENDROOT
BRANCH   1   5
HETATM    5  C   UNL     1     -40.666 -48.941  12.983  1.00  0.00     0.130 C 
BRANCH   5   6
HETATM    6  C   UNL     1     -40.241 -48.031  11.828  1.00  0.00     0.098 C 
BRANCH   6   7
HETATM    7  C   UNL     1     -41.343 -47.845  10.843  1.00  0.00     0.100 A 
HETATM    8  N   UNL     1     -42.354 -46.922  10.928  1.00  0.00    -0.335 N 
HETATM    9  C   UNL     1     -42.564 -45.937  11.954  1.00  0.00     0.158 C 
HETATM   10  C   UNL     1     -43.142 -47.118   9.837  1.00  0.00     0.200 A 
HETATM   11  N   UNL     1     -42.645 -48.084   9.104  1.00  0.00    -0.295 N 
HETATM   12  N   UNL     1     -41.516 -48.545   9.737  1.00  0.00    -0.288 N 
ATOM     13  HN  UNL     1     -43.027 -48.431   8.225  1.00  0.00     0.187 HD
ATOM     14  HN  UNL     1     -40.914 -49.300   9.408  1.00  0.00     0.188 HD
ENDBRANCH   6   7
ENDBRANCH   5   6
ENDBRANCH   1   5
BRANCH   2  15
HETATM   15  C   UNL     1     -41.160 -52.504  11.797  1.00  0.00     0.103 C 
BRANCH  15  16
HETATM   16  C   UNL     1     -40.918 -53.761  12.625  1.00  0.00     0.014 C 
BRANCH  16  17
HETATM   17  C   UNL     1     -42.173 -54.315  13.317  1.00  0.00    -0.014 C 
HETATM   18  C   UNL     1     -42.132 -54.174  14.847  1.00  0.00     0.004 C 
HETATM   19  C   UNL     1     -43.316 -54.899  15.480  1.00  0.00     0.000 C 
HETATM   20  C   UNL     1     -44.652 -54.416  14.916  1.00  0.00     0.000 C 
HETATM   21  C   UNL     1     -44.683 -54.393  13.389  1.00  0.00     0.000 C 
HETATM   22  C   UNL     1     -43.469 -53.678  12.795  1.00  0.00     0.004 C 
ENDBRANCH  16  17
ENDBRANCH  15  16
ENDBRANCH   2  15
TORSDOF 6
ENDMDL
MODEL 7
REMARK VINA RESULT:      -5.5      1.844      2.990
REMARK  6 active torsions:
REMARK  status: ('A' for Active; 'I' for Inactive)
REMARK    1  A    between atoms: C_8  and  C_9 
REMARK    2  A    between atoms: C_9  and  C_10 
REMARK    3  A    between atoms: C_10  and  N_11 
REMARK       I    between atoms: N_11  and  C_12 
REMARK    4  A    between atoms: C_12  and  C_14 
REMARK    5  A    between atoms: C_14  and  C_15 
REMARK    6  A    between atoms: C_15  and  C_16 
ROOT
HETATM    1  N   UNL     1     -41.202 -53.310  14.873  1.00  0.00    -0.361 N 
HETATM    2  C   UNL     1     -42.000 -54.159  14.141  1.00  0.00     0.217 C 
HETATM    3  O   UNL     1     -41.833 -54.385  12.948  1.00  0.00    -0.274 OA
HETATM    4  H   UNL     1     -41.443 -53.088  15.832  1.00  0.00     0.162 HD
ENDROOT
BRANCH   1   5
HETATM    5  C   UNL     1     -40.064 -52.621  14.297  1.00  0.00     0.130 C 
BRANCH   5   6
HETATM    6  C   UNL     1     -40.323 -51.124  14.113  1.00  0.00     0.098 C 
BRANCH   6   7
HETATM    7  C   UNL     1     -39.577 -50.578  12.944  1.00  0.00     0.100 A 
HETATM    8  N   UNL     1     -38.498 -49.734  12.999  1.00  0.00    -0.335 N 
HETATM    9  C   UNL     1     -37.845 -49.212  14.169  1.00  0.00     0.158 C 
HETATM   10  C   UNL     1     -38.152 -49.472  11.710  1.00  0.00     0.200 A 
HETATM   11  N   UNL     1     -38.948 -50.127  10.901  1.00  0.00    -0.295 N 
HETATM   12  N   UNL     1     -39.847 -50.820  11.675  1.00  0.00    -0.288 N 
ATOM     13  HN  UNL     1     -38.908 -50.123   9.882  1.00  0.00     0.187 HD
ATOM     14  HN  UNL     1     -40.595 -51.419  11.327  1.00  0.00     0.188 HD
ENDBRANCH   6   7
ENDBRANCH   5   6
ENDBRANCH   1   5
BRANCH   2  15
HETATM   15  C   UNL     1     -43.148 -54.720  14.952  1.00  0.00     0.103 C 
BRANCH  15  16
HETATM   16  C   UNL     1     -44.346 -55.077  14.080  1.00  0.00     0.014 C 
BRANCH  16  17
HETATM   17  C   UNL     1     -45.438 -53.998  14.030  1.00  0.00    -0.014 C 
HETATM   18  C   UNL     1     -45.564 -53.205  15.341  1.00  0.00     0.004 C 
HETATM   19  C   UNL     1     -46.775 -52.279  15.289  1.00  0.00     0.000 C 
HETATM   20  C   UNL     1     -46.730 -51.344  14.079  1.00  0.00     0.000 C 
HETATM   21  C   UNL     1     -46.452 -52.077  12.768  1.00  0.00     0.000 C 
HETATM   22  C   UNL     1     -45.245 -53.011  12.870  1.00  0.00     0.004 C 
ENDBRANCH  16  17
ENDBRANCH  15  16
ENDBRANCH   2  15
TORSDOF 6
ENDMDL
MODEL 8
REMARK VINA RESULT:      -5.3      3.458      6.228
REMARK  6 active torsions:
REMARK  status: ('A' for Active; 'I' for Inactive)
REMARK    1  A    between atoms: C_8  and  C_9 
REMARK    2  A    between atoms: C_9  and  C_10 
REMARK    3  A    between atoms: C_10  and  N_11 
REMARK       I    between atoms: N_11  and  C_12 
REMARK    4  A    between atoms: C_12  and  C_14 
REMARK    5  A    between atoms: C_14  and  C_15 
REMARK    6  A    between atoms: C_15  and  C_16 
ROOT
HETATM    1  N   UNL     1     -40.337 -51.675  12.847  1.00  0.00    -0.361 N 
HETATM    2  C   UNL     1     -39.183 -51.041  12.447  1.00  0.00     0.217 C 
HETATM    3  O   UNL     1     -38.059 -51.427  12.745  1.00  0.00    -0.274 OA
HETATM    4  H   UNL     1     -41.240 -51.259  12.649  1.00  0.00     0.162 HD
ENDROOT
BRANCH   1   5
HETATM    5  C   UNL     1     -40.323 -52.887  13.643  1.00  0.00     0.130 C 
BRANCH   5   6
HETATM    6  C   UNL     1     -41.083 -54.032  12.971  1.00  0.00     0.098 C 
BRANCH   6   7
HETATM    7  C   UNL     1     -42.543 -53.745  12.884  1.00  0.00     0.100 A 
HETATM    8  N   UNL     1     -43.507 -54.197  13.748  1.00  0.00    -0.335 N 
HETATM    9  C   UNL     1     -43.329 -55.015  14.916  1.00  0.00     0.158 C 
HETATM   10  C   UNL     1     -44.692 -53.719  13.282  1.00  0.00     0.200 A 
HETATM   11  N   UNL     1     -44.482 -52.996  12.209  1.00  0.00    -0.295 N 
HETATM   12  N   UNL     1     -43.132 -53.014  11.955  1.00  0.00    -0.288 N 
ATOM     13  HN  UNL     1     -45.191 -52.509  11.663  1.00  0.00     0.187 HD
ATOM     14  HN  UNL     1     -42.665 -52.543  11.181  1.00  0.00     0.188 HD
ENDBRANCH   6   7
ENDBRANCH   5   6
ENDBRANCH   1   5
BRANCH   2  15
HETATM   15  C   UNL     1     -39.458 -49.774  11.666  1.00  0.00     0.103 C 
BRANCH  15  16
HETATM   16  C   UNL     1     -40.945 -49.579  11.392  1.00  0.00     0.014 C 
BRANCH  16  17
HETATM   17  C   UNL     1     -41.304 -48.213  10.789  1.00  0.00    -0.014 C 
HETATM   18  C   UNL     1     -42.789 -47.851  10.953  1.00  0.00     0.004 C 
HETATM   19  C   UNL     1     -43.115 -46.576  10.181  1.00  0.00     0.000 C 
HETATM   20  C   UNL     1     -42.214 -45.411  10.592  1.00  0.00     0.000 C 
HETATM   21  C   UNL     1     -40.729 -45.775  10.592  1.00  0.00     0.000 C 
HETATM   22  C   UNL     1     -40.450 -47.070  11.356  1.00  0.00     0.004 C 
ENDBRANCH  16  17
ENDBRANCH  15  16
ENDBRANCH   2  15
TORSDOF 6
ENDMDL
MODEL 9
REMARK VINA RESULT:      -5.2      2.556      3.799
REMARK  6 active torsions:
REMARK  status: ('A' for Active; 'I' for Inactive)
REMARK    1  A    between atoms: C_8  and  C_9 
REMARK    2  A    between atoms: C_9  and  C_10 
REMARK    3  A    between atoms: C_10  and  N_11 
REMARK       I    between atoms: N_11  and  C_12 
REMARK    4  A    between atoms: C_12  and  C_14 
REMARK    5  A    between atoms: C_14  and  C_15 
REMARK    6  A    between atoms: C_15  and  C_16 
ROOT
HETATM    1  N   UNL     1     -40.832 -49.541  14.077  1.00  0.00    -0.361 N 
HETATM    2  C   UNL     1     -41.752 -48.594  13.690  1.00  0.00     0.217 C 
HETATM    3  O   UNL     1     -41.448 -47.523  13.179  1.00  0.00    -0.274 OA
HETATM    4  H   UNL     1     -41.135 -50.368  14.579  1.00  0.00     0.162 HD
ENDROOT
BRANCH   1   5
HETATM    5  C   UNL     1     -39.405 -49.364  13.886  1.00  0.00     0.130 C 
BRANCH   5   6
HETATM    6  C   UNL     1     -38.850 -50.272  12.787  1.00  0.00     0.098 C 
BRANCH   6   7
HETATM    7  C   UNL     1     -39.828 -51.327  12.400  1.00  0.00     0.100 A 
HETATM    8  N   UNL     1     -40.048 -52.506  13.064  1.00  0.00    -0.335 N 
HETATM    9  C   UNL     1     -39.413 -52.972  14.267  1.00  0.00     0.158 C 
HETATM   10  C   UNL     1     -41.000 -53.172  12.357  1.00  0.00     0.200 A 
HETATM   11  N   UNL     1     -41.368 -52.447  11.328  1.00  0.00    -0.295 N 
HETATM   12  N   UNL     1     -40.630 -51.289  11.352  1.00  0.00    -0.288 N 
ATOM     13  HN  UNL     1     -42.074 -52.698  10.637  1.00  0.00     0.187 HD
ATOM     14  HN  UNL     1     -40.692 -50.529  10.674  1.00  0.00     0.188 HD
ENDBRANCH   6   7
ENDBRANCH   5   6
ENDBRANCH   1   5
BRANCH   2  15
HETATM   15  C   UNL     1     -43.171 -48.989  14.036  1.00  0.00     0.103 C 
BRANCH  15  16
HETATM   16  C   UNL     1     -43.520 -50.382  13.527  1.00  0.00     0.014 C 
BRANCH  16  17
HETATM   17  C   UNL     1     -44.601 -51.104  14.347  1.00  0.00    -0.014 C 
HETATM   18  C   UNL     1     -44.954 -50.376  15.654  1.00  0.00     0.004 C 
HETATM   19  C   UNL     1     -45.894 -51.228  16.502  1.00  0.00     0.000 C 
HETATM   20  C   UNL     1     -47.154 -51.629  15.734  1.00  0.00     0.000 C 
HETATM   21  C   UNL     1     -46.853 -52.218  14.356  1.00  0.00     0.000 C 
HETATM   22  C   UNL     1     -45.890 -51.345  13.550  1.00  0.00     0.004 C 
ENDBRANCH  16  17
ENDBRANCH  15  16
ENDBRANCH   2  15
TORSDOF 6
ENDMDL
