MODEL 1
REMARK VINA RESULT:      -6.0      0.000      0.000
REMARK  6 active torsions:
REMARK  status: ('A' for Active; 'I' for Inactive)
REMARK    1  A    between atoms: C_2  and  C_3 
REMARK    2  A    between atoms: C_2  and  N_5 
REMARK    3  A    between atoms: C_2  and  C_20 
REMARK    4  A    between atoms: C_3  and  O_4 
REMARK       I    between atoms: N_5  and  C_6 
REMARK       I    between atoms: C_6  and  N_8 
REMARK    5  A    between atoms: N_8  and  C_9 
REMARK    6  A    between atoms: C_13  and  C_17 
ROOT
HETATM    1  N   UNL     1     -43.405 -52.031  12.620  1.00  0.00    -0.332 N 
HETATM    2  C   UNL     1     -43.029 -50.710  12.570  1.00  0.00     0.321 C 
HETATM    3  O   UNL     1     -43.612 -49.853  13.227  1.00  0.00    -0.247 OA
HETATM    4  N   UNL     1     -41.950 -50.460  11.754  1.00  0.00    -0.306 N 
HETATM    5  H   UNL     1     -43.163 -52.633  11.844  1.00  0.00     0.165 HD
HETATM    6  H   UNL     1     -41.486 -51.248  11.329  1.00  0.00     0.171 HD
ENDROOT
BRANCH   4   7
HETATM    7  C   UNL     1     -41.393 -49.166  11.556  1.00  0.00     0.067 A 
HETATM    8  C   UNL     1     -40.461 -48.566  12.380  1.00  0.00     0.120 A 
HETATM    9  N   UNL     1     -39.937 -47.335  12.185  1.00  0.00    -0.353 N 
HETATM   10  C   UNL     1     -40.354 -46.644  11.114  1.00  0.00     0.085 A 
ATOM     11  HN  UNL     1     -39.249 -46.946  12.830  1.00  0.00     0.166 HD
HETATM   12  N   UNL     1     -41.265 -47.132  10.243  1.00  0.00    -0.353 N 
HETATM   13  C   UNL     1     -41.756 -48.376  10.483  1.00  0.00     0.120 A 
ATOM     14  HN  UNL     1     -41.572 -46.588   9.437  1.00  0.00     0.166 HD
BRANCH  10  15
HETATM   15  C   UNL     1     -39.775 -45.264  10.940  1.00  0.00     0.053 A 
HETATM   16  C   UNL     1     -39.453 -44.365  12.107  1.00  0.00     0.013 A 
HETATM   17  C   UNL     1     -40.642 -44.060  11.245  1.00  0.00     0.013 A 
ENDBRANCH  10  15
ENDBRANCH   4   7
BRANCH   1  18
HETATM   18  C   UNL     1     -44.589 -52.458  13.409  1.00  0.00     0.055 C 
HETATM   19  C   UNL     1     -44.465 -51.956  14.865  1.00  0.00     0.041 C 
BRANCH  18  20
HETATM   20  C   UNL     1     -45.864 -51.823  12.777  1.00  0.00     0.195 C 
BRANCH  20  21
HETATM   21  O   UNL     1     -46.326 -52.566  11.646  1.00  0.00    -0.398 OA
HETATM   22  H   UNL     1     -45.685 -53.283  11.495  1.00  0.00     0.209 HD
ENDBRANCH  20  21
ENDBRANCH  18  20
BRANCH  18  23
HETATM   23  C   UNL     1     -44.718 -53.977  13.276  1.00  0.00     0.015 A 
HETATM   24  C   UNL     1     -45.668 -54.794  14.124  1.00  0.00     0.007 A 
HETATM   25  C   UNL     1     -44.187 -54.958  14.302  1.00  0.00     0.007 A 
ENDBRANCH  18  23
ENDBRANCH   1  18
TORSDOF 6
ENDMDL
MODEL 2
REMARK VINA RESULT:      -5.9      1.212      1.972
REMARK  6 active torsions:
REMARK  status: ('A' for Active; 'I' for Inactive)
REMARK    1  A    between atoms: C_2  and  C_3 
REMARK    2  A    between atoms: C_2  and  N_5 
REMARK    3  A    between atoms: C_2  and  C_20 
REMARK    4  A    between atoms: C_3  and  O_4 
REMARK       I    between atoms: N_5  and  C_6 
REMARK       I    between atoms: C_6  and  N_8 
REMARK    5  A    between atoms: N_8  and  C_9 
REMARK    6  A    between atoms: C_13  and  C_17 
ROOT
HETATM    1  N   UNL     1     -43.066 -51.924  12.510  1.00  0.00    -0.332 N 
HETATM    2  C   UNL     1     -42.719 -50.595  12.488  1.00  0.00     0.321 C 
HETATM    3  O   UNL     1     -43.251 -49.781  13.236  1.00  0.00    -0.247 OA
HETATM    4  N   UNL     1     -41.726 -50.285  11.588  1.00  0.00    -0.306 N 
HETATM    5  H   UNL     1     -42.889 -52.485  11.688  1.00  0.00     0.165 HD
HETATM    6  H   UNL     1     -41.292 -51.044  11.084  1.00  0.00     0.171 HD
ENDROOT
BRANCH   4   7
HETATM    7  C   UNL     1     -41.212 -48.972  11.399  1.00  0.00     0.067 A 
HETATM    8  C   UNL     1     -40.222 -48.388  12.164  1.00  0.00     0.120 A 
HETATM    9  N   UNL     1     -39.739 -47.139  11.980  1.00  0.00    -0.353 N 
HETATM   10  C   UNL     1     -40.261 -46.412  10.981  1.00  0.00     0.085 A 
ATOM     11  HN  UNL     1     -39.004 -46.763  12.579  1.00  0.00     0.166 HD
HETATM   12  N   UNL     1     -41.236 -46.882  10.172  1.00  0.00    -0.353 N 
HETATM   13  C   UNL     1     -41.682 -48.145  10.398  1.00  0.00     0.120 A 
ATOM     14  HN  UNL     1     -41.623 -46.310   9.421  1.00  0.00     0.166 HD
BRANCH  10  15
HETATM   15  C   UNL     1     -39.724 -45.013  10.819  1.00  0.00     0.053 A 
HETATM   16  C   UNL     1     -39.399 -44.126  11.994  1.00  0.00     0.013 A 
HETATM   17  C   UNL     1     -40.616 -43.839  11.166  1.00  0.00     0.013 A 
ENDBRANCH  10  15
ENDBRANCH   4   7
BRANCH   1  18
HETATM   18  C   UNL     1     -44.163 -52.412  13.386  1.00  0.00     0.055 C 
HETATM   19  C   UNL     1     -44.564 -53.848  12.984  1.00  0.00     0.041 C 
BRANCH  18  20
HETATM   20  C   UNL     1     -43.651 -52.438  14.858  1.00  0.00     0.195 C 
BRANCH  20  21
HETATM   21  O   UNL     1     -44.045 -53.632  15.539  1.00  0.00    -0.398 OA
HETATM   22  H   UNL     1     -43.545 -53.662  16.374  1.00  0.00     0.209 HD
ENDBRANCH  20  21
ENDBRANCH  18  20
BRANCH  18  23
HETATM   23  C   UNL     1     -45.306 -51.397  13.316  1.00  0.00     0.015 A 
HETATM   24  C   UNL     1     -46.607 -51.578  14.066  1.00  0.00     0.007 A 
HETATM   25  C   UNL     1     -46.600 -51.641  12.567  1.00  0.00     0.007 A 
ENDBRANCH  18  23
ENDBRANCH   1  18
TORSDOF 6
ENDMDL
MODEL 3
REMARK VINA RESULT:      -5.8      3.440      7.238
REMARK  6 active torsions:
REMARK  status: ('A' for Active; 'I' for Inactive)
REMARK    1  A    between atoms: C_2  and  C_3 
REMARK    2  A    between atoms: C_2  and  N_5 
REMARK    3  A    between atoms: C_2  and  C_20 
REMARK    4  A    between atoms: C_3  and  O_4 
REMARK       I    between atoms: N_5  and  C_6 
REMARK       I    between atoms: C_6  and  N_8 
REMARK    5  A    between atoms: N_8  and  C_9 
REMARK    6  A    between atoms: C_13  and  C_17 
ROOT
HETATM    1  N   UNL     1     -41.661 -48.542  10.222  1.00  0.00    -0.332 N 
HETATM    2  C   UNL     1     -41.308 -49.269  11.334  1.00  0.00     0.321 C 
HETATM    3  O   UNL     1     -41.517 -48.848  12.467  1.00  0.00    -0.247 OA
HETATM    4  N   UNL     1     -40.739 -50.490  11.054  1.00  0.00    -0.306 N 
HETATM    5  H   UNL     1     -41.184 -48.728   9.351  1.00  0.00     0.165 HD
HETATM    6  H   UNL     1     -40.695 -50.780  10.088  1.00  0.00     0.171 HD
ENDROOT
BRANCH   4   7
HETATM    7  C   UNL     1     -40.300 -51.404  12.051  1.00  0.00     0.067 A 
HETATM    8  C   UNL     1     -39.200 -51.224  12.866  1.00  0.00     0.120 A 
HETATM    9  N   UNL     1     -38.788 -52.098  13.811  1.00  0.00    -0.353 N 
HETATM   10  C   UNL     1     -39.498 -53.225  13.968  1.00  0.00     0.085 A 
ATOM     11  HN  UNL     1     -37.966 -51.908  14.385  1.00  0.00     0.166 HD
HETATM   12  N   UNL     1     -40.590 -53.506  13.222  1.00  0.00    -0.353 N 
HETATM   13  C   UNL     1     -40.963 -52.591  12.291  1.00  0.00     0.120 A 
ATOM     14  HN  UNL     1     -41.114 -54.372  13.354  1.00  0.00     0.166 HD
BRANCH  10  15
HETATM   15  C   UNL     1     -38.997 -54.194  15.008  1.00  0.00     0.053 A 
HETATM   16  C   UNL     1     -39.907 -55.157  15.728  1.00  0.00     0.013 A 
HETATM   17  C   UNL     1     -39.364 -53.966  16.460  1.00  0.00     0.013 A 
ENDBRANCH  10  15
ENDBRANCH   4   7
BRANCH   1  18
HETATM   18  C   UNL     1     -42.234 -47.178  10.353  1.00  0.00     0.055 C 
HETATM   19  C   UNL     1     -43.278 -47.147  11.492  1.00  0.00     0.041 C 
BRANCH  18  20
HETATM   20  C   UNL     1     -41.085 -46.187  10.713  1.00  0.00     0.195 C 
BRANCH  20  21
HETATM   21  O   UNL     1     -40.756 -45.330   9.618  1.00  0.00    -0.398 OA
HETATM   22  H   UNL     1     -41.432 -45.473   8.931  1.00  0.00     0.209 HD
ENDBRANCH  20  21
ENDBRANCH  18  20
BRANCH  18  23
HETATM   23  C   UNL     1     -42.783 -46.766   8.986  1.00  0.00     0.015 A 
HETATM   24  C   UNL     1     -44.222 -46.350   8.774  1.00  0.00     0.007 A 
HETATM   25  C   UNL     1     -43.721 -47.626   8.164  1.00  0.00     0.007 A 
ENDBRANCH  18  23
ENDBRANCH   1  18
TORSDOF 6
ENDMDL
MODEL 4
REMARK VINA RESULT:      -5.3      5.768      9.196
REMARK  6 active torsions:
REMARK  status: ('A' for Active; 'I' for Inactive)
REMARK    1  A    between atoms: C_2  and  C_3 
REMARK    2  A    between atoms: C_2  and  N_5 
REMARK    3  A    between atoms: C_2  and  C_20 
REMARK    4  A    between atoms: C_3  and  O_4 
REMARK       I    between atoms: N_5  and  C_6 
REMARK       I    between atoms: C_6  and  N_8 
REMARK    5  A    between atoms: N_8  and  C_9 
REMARK    6  A    between atoms: C_13  and  C_17 
ROOT
HETATM    1  N   UNL     1     -43.749 -53.321  15.152  1.00  0.00    -0.332 N 
HETATM    2  C   UNL     1     -43.194 -54.477  15.645  1.00  0.00     0.321 C 
HETATM    3  O   UNL     1     -43.550 -55.581  15.246  1.00  0.00    -0.247 OA
HETATM    4  N   UNL     1     -42.208 -54.274  16.584  1.00  0.00    -0.306 N 
HETATM    5  H   UNL     1     -43.706 -52.483  15.716  1.00  0.00     0.165 HD
HETATM    6  H   UNL     1     -41.927 -53.324  16.776  1.00  0.00     0.171 HD
ENDROOT
BRANCH   4   7
HETATM    7  C   UNL     1     -41.499 -55.327  17.225  1.00  0.00     0.067 A 
HETATM    8  C   UNL     1     -41.865 -55.924  18.415  1.00  0.00     0.120 A 
HETATM    9  N   UNL     1     -41.185 -56.924  19.019  1.00  0.00    -0.353 N 
HETATM   10  C   UNL     1     -40.071 -57.369  18.420  1.00  0.00     0.085 A 
ATOM     11  HN  UNL     1     -41.508 -57.326  19.899  1.00  0.00     0.166 HD
HETATM   12  N   UNL     1     -39.617 -56.855  17.254  1.00  0.00    -0.353 N 
HETATM   13  C   UNL     1     -40.341 -55.855  16.688  1.00  0.00     0.120 A 
ATOM     14  HN  UNL     1     -38.764 -57.204  16.817  1.00  0.00     0.166 HD
BRANCH  10  15
HETATM   15  C   UNL     1     -39.318 -58.463  19.132  1.00  0.00     0.053 A 
HETATM   16  C   UNL     1     -37.949 -58.922  18.699  1.00  0.00     0.013 A 
HETATM   17  C   UNL     1     -39.138 -59.799  18.441  1.00  0.00     0.013 A 
ENDBRANCH  10  15
ENDBRANCH   4   7
BRANCH   1  18
HETATM   18  C   UNL     1     -44.867 -53.369  14.174  1.00  0.00     0.055 C 
HETATM   19  C   UNL     1     -44.409 -54.076  12.879  1.00  0.00     0.041 C 
BRANCH  18  20
HETATM   20  C   UNL     1     -46.037 -54.191  14.794  1.00  0.00     0.195 C 
BRANCH  20  21
HETATM   21  O   UNL     1     -46.270 -55.409  14.082  1.00  0.00    -0.398 OA
HETATM   22  H   UNL     1     -47.002 -55.242  13.463  1.00  0.00     0.209 HD
ENDBRANCH  20  21
ENDBRANCH  18  20
BRANCH  18  23
HETATM   23  C   UNL     1     -45.370 -51.939  13.965  1.00  0.00     0.015 A 
HETATM   24  C   UNL     1     -46.723 -51.469  14.453  1.00  0.00     0.007 A 
HETATM   25  C   UNL     1     -46.459 -51.568  12.980  1.00  0.00     0.007 A 
ENDBRANCH  18  23
ENDBRANCH   1  18
TORSDOF 6
ENDMDL
MODEL 5
REMARK VINA RESULT:      -5.2      4.594      7.188
REMARK  6 active torsions:
REMARK  status: ('A' for Active; 'I' for Inactive)
REMARK    1  A    between atoms: C_2  and  C_3 
REMARK    2  A    between atoms: C_2  and  N_5 
REMARK    3  A    between atoms: C_2  and  C_20 
REMARK    4  A    between atoms: C_3  and  O_4 
REMARK       I    between atoms: N_5  and  C_6 
REMARK       I    between atoms: C_6  and  N_8 
REMARK    5  A    between atoms: N_8  and  C_9 
REMARK    6  A    between atoms: C_13  and  C_17 
ROOT
HETATM    1  N   UNL     1     -44.153 -52.921  13.495  1.00  0.00    -0.332 N 
HETATM    2  C   UNL     1     -43.046 -53.123  14.283  1.00  0.00     0.321 C 
HETATM    3  O   UNL     1     -42.807 -52.405  15.248  1.00  0.00    -0.247 OA
HETATM    4  N   UNL     1     -42.273 -54.198  13.907  1.00  0.00    -0.306 N 
HETATM    5  H   UNL     1     -44.145 -53.274  12.548  1.00  0.00     0.165 HD
HETATM    6  H   UNL     1     -42.607 -54.779  13.154  1.00  0.00     0.171 HD
ENDROOT
BRANCH   4   7
HETATM    7  C   UNL     1     -41.084 -54.590  14.582  1.00  0.00     0.067 A 
HETATM    8  C   UNL     1     -39.802 -54.416  14.099  1.00  0.00     0.120 A 
HETATM    9  N   UNL     1     -38.675 -54.792  14.745  1.00  0.00    -0.353 N 
HETATM   10  C   UNL     1     -38.813 -55.380  15.943  1.00  0.00     0.085 A 
ATOM     11  HN  UNL     1     -37.754 -54.635  14.336  1.00  0.00     0.166 HD
HETATM   12  N   UNL     1     -40.020 -55.603  16.509  1.00  0.00    -0.353 N 
HETATM   13  C   UNL     1     -41.118 -55.201  15.820  1.00  0.00     0.120 A 
ATOM     14  HN  UNL     1     -40.102 -56.056  17.419  1.00  0.00     0.166 HD
BRANCH  10  15
HETATM   15  C   UNL     1     -37.541 -55.815  16.625  1.00  0.00     0.053 A 
HETATM   16  C   UNL     1     -37.532 -56.489  17.973  1.00  0.00     0.013 A 
HETATM   17  C   UNL     1     -37.075 -55.065  17.856  1.00  0.00     0.013 A 
ENDBRANCH  10  15
ENDBRANCH   4   7
BRANCH   1  18
HETATM   18  C   UNL     1     -45.059 -51.768  13.733  1.00  0.00     0.055 C 
HETATM   19  C   UNL     1     -44.262 -50.446  13.671  1.00  0.00     0.041 C 
BRANCH  18  20
HETATM   20  C   UNL     1     -46.140 -51.742  12.609  1.00  0.00     0.195 C 
BRANCH  20  21
HETATM   21  O   UNL     1     -46.481 -53.059  12.167  1.00  0.00    -0.398 OA
HETATM   22  H   UNL     1     -46.472 -53.634  12.953  1.00  0.00     0.209 HD
ENDBRANCH  20  21
ENDBRANCH  18  20
BRANCH  18  23
HETATM   23  C   UNL     1     -45.783 -52.004  15.060  1.00  0.00     0.015 A 
HETATM   24  C   UNL     1     -47.147 -51.424  15.363  1.00  0.00     0.007 A 
HETATM   25  C   UNL     1     -45.949 -50.942  16.127  1.00  0.00     0.007 A 
ENDBRANCH  18  23
ENDBRANCH   1  18
TORSDOF 6
ENDMDL
MODEL 6
REMARK VINA RESULT:      -5.1      2.978      7.919
REMARK  6 active torsions:
REMARK  status: ('A' for Active; 'I' for Inactive)
REMARK    1  A    between atoms: C_2  and  C_3 
REMARK    2  A    between atoms: C_2  and  N_5 
REMARK    3  A    between atoms: C_2  and  C_20 
REMARK    4  A    between atoms: C_3  and  O_4 
REMARK       I    between atoms: N_5  and  C_6 
REMARK       I    between atoms: C_6  and  N_8 
REMARK    5  A    between atoms: N_8  and  C_9 
REMARK    6  A    between atoms: C_13  and  C_17 
ROOT
HETATM    1  N   UNL     1     -40.740 -45.355  11.588  1.00  0.00    -0.332 N 
HETATM    2  C   UNL     1     -40.689 -46.636  12.083  1.00  0.00     0.321 C 
HETATM    3  O   UNL     1     -40.448 -46.856  13.266  1.00  0.00    -0.247 OA
HETATM    4  N   UNL     1     -40.956 -47.613  11.152  1.00  0.00    -0.306 N 
HETATM    5  H   UNL     1     -40.591 -45.213  10.598  1.00  0.00     0.165 HD
HETATM    6  H   UNL     1     -41.232 -47.321  10.227  1.00  0.00     0.171 HD
ENDROOT
BRANCH   4   7
HETATM    7  C   UNL     1     -40.958 -49.005  11.447  1.00  0.00     0.067 A 
HETATM    8  C   UNL     1     -39.856 -49.835  11.376  1.00  0.00     0.120 A 
HETATM    9  N   UNL     1     -39.866 -51.157  11.656  1.00  0.00    -0.353 N 
HETATM   10  C   UNL     1     -41.033 -51.705  12.028  1.00  0.00     0.085 A 
ATOM     11  HN  UNL     1     -39.017 -51.718  11.587  1.00  0.00     0.166 HD
HETATM   12  N   UNL     1     -42.174 -50.988  12.127  1.00  0.00    -0.353 N 
HETATM   13  C   UNL     1     -42.107 -49.663  11.839  1.00  0.00     0.120 A 
ATOM     14  HN  UNL     1     -43.052 -51.426  12.407  1.00  0.00     0.166 HD
BRANCH  10  15
HETATM   15  C   UNL     1     -41.019 -53.187  12.305  1.00  0.00     0.053 A 
HETATM   16  C   UNL     1     -42.054 -53.862  13.166  1.00  0.00     0.013 A 
HETATM   17  C   UNL     1     -40.664 -53.670  13.696  1.00  0.00     0.013 A 
ENDBRANCH  10  15
ENDBRANCH   4   7
BRANCH   1  18
HETATM   18  C   UNL     1     -40.420 -44.190  12.451  1.00  0.00     0.055 C 
HETATM   19  C   UNL     1     -38.970 -44.300  12.975  1.00  0.00     0.041 C 
BRANCH  18  20
HETATM   20  C   UNL     1     -40.535 -42.890  11.597  1.00  0.00     0.195 C 
BRANCH  20  21
HETATM   21  O   UNL     1     -40.360 -43.151  10.202  1.00  0.00    -0.398 OA
HETATM   22  H   UNL     1     -41.025 -43.816   9.951  1.00  0.00     0.209 HD
ENDBRANCH  20  21
ENDBRANCH  18  20
BRANCH  18  23
HETATM   23  C   UNL     1     -41.481 -44.113  13.550  1.00  0.00     0.015 A 
HETATM   24  C   UNL     1     -42.509 -43.005  13.618  1.00  0.00     0.007 A 
HETATM   25  C   UNL     1     -41.451 -43.102  14.677  1.00  0.00     0.007 A 
ENDBRANCH  18  23
ENDBRANCH   1  18
TORSDOF 6
ENDMDL
MODEL 7
REMARK VINA RESULT:      -5.1      5.355      7.727
REMARK  6 active torsions:
REMARK  status: ('A' for Active; 'I' for Inactive)
REMARK    1  A    between atoms: C_2  and  C_3 
REMARK    2  A    between atoms: C_2  and  N_5 
REMARK    3  A    between atoms: C_2  and  C_20 
REMARK    4  A    between atoms: C_3  and  O_4 
REMARK       I    between atoms: N_5  and  C_6 
REMARK       I    between atoms: C_6  and  N_8 
REMARK    5  A    between atoms: N_8  and  C_9 
REMARK    6  A    between atoms: C_13  and  C_17 
ROOT
HETATM    1  N   UNL     1     -43.114 -52.656  14.305  1.00  0.00    -0.332 N 
HETATM    2  C   UNL     1     -42.264 -53.600  14.827  1.00  0.00     0.321 C 
HETATM    3  O   UNL     1     -42.590 -54.780  14.910  1.00  0.00    -0.247 OA
HETATM    4  N   UNL     1     -41.037 -53.107  15.209  1.00  0.00    -0.306 N 
HETATM    5  H   UNL     1     -42.977 -51.687  14.560  1.00  0.00     0.165 HD
HETATM    6  H   UNL     1     -40.836 -52.138  15.013  1.00  0.00     0.171 HD
ENDROOT
BRANCH   4   7
HETATM    7  C   UNL     1     -40.005 -53.908  15.772  1.00  0.00     0.067 A 
HETATM    8  C   UNL     1     -39.132 -54.702  15.054  1.00  0.00     0.120 A 
HETATM    9  N   UNL     1     -38.154 -55.461  15.596  1.00  0.00    -0.353 N 
HETATM   10  C   UNL     1     -38.022 -55.444  16.931  1.00  0.00     0.085 A 
ATOM     11  HN  UNL     1     -37.538 -56.026  15.012  1.00  0.00     0.166 HD
HETATM   12  N   UNL     1     -38.823 -54.706  17.732  1.00  0.00    -0.353 N 
HETATM   13  C   UNL     1     -39.786 -53.958  17.134  1.00  0.00     0.120 A 
ATOM     14  HN  UNL     1     -38.708 -54.711  18.745  1.00  0.00     0.166 HD
BRANCH  10  15
HETATM   15  C   UNL     1     -36.942 -56.323  17.508  1.00  0.00     0.053 A 
HETATM   16  C   UNL     1     -36.408 -56.141  18.906  1.00  0.00     0.013 A 
HETATM   17  C   UNL     1     -35.563 -55.739  17.733  1.00  0.00     0.013 A 
ENDBRANCH  10  15
ENDBRANCH   4   7
BRANCH   1  18
HETATM   18  C   UNL     1     -44.497 -53.015  13.899  1.00  0.00     0.055 C 
HETATM   19  C   UNL     1     -44.463 -54.005  12.714  1.00  0.00     0.041 C 
BRANCH  18  20
HETATM   20  C   UNL     1     -45.204 -53.712  15.101  1.00  0.00     0.195 C 
BRANCH  20  21
HETATM   21  O   UNL     1     -45.611 -55.045  14.781  1.00  0.00    -0.398 OA
HETATM   22  H   UNL     1     -45.034 -55.648  15.282  1.00  0.00     0.209 HD
ENDBRANCH  20  21
ENDBRANCH  18  20
BRANCH  18  23
HETATM   23  C   UNL     1     -45.255 -51.717  13.612  1.00  0.00     0.015 A 
HETATM   24  C   UNL     1     -46.617 -51.418  14.199  1.00  0.00     0.007 A 
HETATM   25  C   UNL     1     -46.477 -51.637  12.721  1.00  0.00     0.007 A 
ENDBRANCH  18  23
ENDBRANCH   1  18
TORSDOF 6
ENDMDL
MODEL 8
REMARK VINA RESULT:      -5.1      2.137      7.723
REMARK  6 active torsions:
REMARK  status: ('A' for Active; 'I' for Inactive)
REMARK    1  A    between atoms: C_2  and  C_3 
REMARK    2  A    between atoms: C_2  and  N_5 
REMARK    3  A    between atoms: C_2  and  C_20 
REMARK    4  A    between atoms: C_3  and  O_4 
REMARK       I    between atoms: N_5  and  C_6 
REMARK       I    between atoms: C_6  and  N_8 
REMARK    5  A    between atoms: N_8  and  C_9 
REMARK    6  A    between atoms: C_13  and  C_17 
ROOT
HETATM    1  N   UNL     1     -40.414 -46.797  12.563  1.00  0.00    -0.332 N 
HETATM    2  C   UNL     1     -41.302 -47.811  12.298  1.00  0.00     0.321 C 
HETATM    3  O   UNL     1     -42.195 -47.680  11.467  1.00  0.00    -0.247 OA
HETATM    4  N   UNL     1     -41.077 -48.962  13.018  1.00  0.00    -0.306 N 
HETATM    5  H   UNL     1     -39.938 -46.791  13.455  1.00  0.00     0.165 HD
HETATM    6  H   UNL     1     -40.261 -48.997  13.610  1.00  0.00     0.171 HD
ENDROOT
BRANCH   4   7
HETATM    7  C   UNL     1     -41.873 -50.135  12.902  1.00  0.00     0.067 A 
HETATM    8  C   UNL     1     -43.029 -50.386  13.616  1.00  0.00     0.120 A 
HETATM    9  N   UNL     1     -43.780 -51.504  13.501  1.00  0.00    -0.353 N 
HETATM   10  C   UNL     1     -43.372 -52.440  12.631  1.00  0.00     0.085 A 
ATOM     11  HN  UNL     1     -44.627 -51.631  14.056  1.00  0.00     0.166 HD
HETATM   12  N   UNL     1     -42.255 -52.301  11.883  1.00  0.00    -0.353 N 
HETATM   13  C   UNL     1     -41.540 -51.156  12.034  1.00  0.00     0.120 A 
ATOM     14  HN  UNL     1     -41.960 -53.028  11.231  1.00  0.00     0.166 HD
BRANCH  10  15
HETATM   15  C   UNL     1     -44.213 -53.688  12.547  1.00  0.00     0.053 A 
HETATM   16  C   UNL     1     -45.445 -53.896  13.390  1.00  0.00     0.013 A 
HETATM   17  C   UNL     1     -44.196 -54.664  13.706  1.00  0.00     0.013 A 
ENDBRANCH  10  15
ENDBRANCH   4   7
BRANCH   1  18
HETATM   18  C   UNL     1     -40.556 -45.469  11.911  1.00  0.00     0.055 C 
HETATM   19  C   UNL     1     -39.533 -44.475  12.505  1.00  0.00     0.041 C 
BRANCH  18  20
HETATM   20  C   UNL     1     -40.259 -45.627  10.389  1.00  0.00     0.195 C 
BRANCH  20  21
HETATM   21  O   UNL     1     -41.449 -45.536   9.601  1.00  0.00    -0.398 OA
HETATM   22  H   UNL     1     -42.125 -46.080  10.043  1.00  0.00     0.209 HD
ENDBRANCH  20  21
ENDBRANCH  18  20
BRANCH  18  23
HETATM   23  C   UNL     1     -42.014 -45.030  12.052  1.00  0.00     0.015 A 
HETATM   24  C   UNL     1     -42.414 -43.596  12.321  1.00  0.00     0.007 A 
HETATM   25  C   UNL     1     -42.651 -44.641  13.370  1.00  0.00     0.007 A 
ENDBRANCH  18  23
ENDBRANCH   1  18
TORSDOF 6
ENDMDL
MODEL 9
REMARK VINA RESULT:      -5.1      3.070      7.562
REMARK  6 active torsions:
REMARK  status: ('A' for Active; 'I' for Inactive)
REMARK    1  A    between atoms: C_2  and  C_3 
REMARK    2  A    between atoms: C_2  and  N_5 
REMARK    3  A    between atoms: C_2  and  C_20 
REMARK    4  A    between atoms: C_3  and  O_4 
REMARK       I    between atoms: N_5  and  C_6 
REMARK       I    between atoms: C_6  and  N_8 
REMARK    5  A    between atoms: N_8  and  C_9 
REMARK    6  A    between atoms: C_13  and  C_17 
ROOT
HETATM    1  N   UNL     1     -39.451 -50.577  11.601  1.00  0.00    -0.332 N 
HETATM    2  C   UNL     1     -40.462 -50.948  12.453  1.00  0.00     0.321 C 
HETATM    3  O   UNL     1     -40.270 -51.077  13.658  1.00  0.00    -0.247 OA
HETATM    4  N   UNL     1     -41.681 -51.127  11.840  1.00  0.00    -0.306 N 
HETATM    5  H   UNL     1     -39.532 -50.813  10.621  1.00  0.00     0.165 HD
HETATM    6  H   UNL     1     -41.752 -50.908  10.857  1.00  0.00     0.171 HD
ENDROOT
BRANCH   4   7
HETATM    7  C   UNL     1     -42.864 -51.510  12.530  1.00  0.00     0.067 A 
HETATM    8  C   UNL     1     -43.360 -52.797  12.606  1.00  0.00     0.120 A 
HETATM    9  N   UNL     1     -44.486 -53.154  13.262  1.00  0.00    -0.353 N 
HETATM   10  C   UNL     1     -45.175 -52.186  13.886  1.00  0.00     0.085 A 
ATOM     11  HN  UNL     1     -44.801 -54.124  13.284  1.00  0.00     0.166 HD
HETATM   12  N   UNL     1     -44.784 -50.892  13.874  1.00  0.00    -0.353 N 
HETATM   13  C   UNL     1     -43.642 -50.590  13.204  1.00  0.00     0.120 A 
ATOM     14  HN  UNL     1     -45.325 -50.171  14.351  1.00  0.00     0.166 HD
BRANCH  10  15
HETATM   15  C   UNL     1     -46.442 -52.609  14.584  1.00  0.00     0.053 A 
HETATM   16  C   UNL     1     -47.192 -51.703  15.526  1.00  0.00     0.013 A 
HETATM   17  C   UNL     1     -46.408 -52.856  16.079  1.00  0.00     0.013 A 
ENDBRANCH  10  15
ENDBRANCH   4   7
BRANCH   1  18
HETATM   18  C   UNL     1     -38.061 -50.401  12.096  1.00  0.00     0.055 C 
HETATM   19  C   UNL     1     -37.781 -51.388  13.251  1.00  0.00     0.041 C 
BRANCH  18  20
HETATM   20  C   UNL     1     -37.073 -50.714  10.932  1.00  0.00     0.195 C 
BRANCH  20  21
HETATM   21  O   UNL     1     -36.579 -52.055  10.997  1.00  0.00    -0.398 OA
HETATM   22  H   UNL     1     -36.869 -52.504  10.182  1.00  0.00     0.209 HD
ENDBRANCH  20  21
ENDBRANCH  18  20
BRANCH  18  23
HETATM   23  C   UNL     1     -37.879 -48.928  12.470  1.00  0.00     0.015 A 
HETATM   24  C   UNL     1     -37.735 -48.460  13.901  1.00  0.00     0.007 A 
HETATM   25  C   UNL     1     -38.959 -48.087  13.117  1.00  0.00     0.007 A 
ENDBRANCH  18  23
ENDBRANCH   1  18
TORSDOF 6
ENDMDL
