MODEL 1
REMARK VINA RESULT:      -6.3      0.000      0.000
REMARK  4 active torsions:
REMARK  status: ('A' for Active; 'I' for Inactive)
REMARK       I    between atoms: N_2  and  C_4 
REMARK    1  A    between atoms: C_4  and  C_6 
REMARK    2  A    between atoms: C_6  and  N_7 
REMARK       I    between atoms: N_7  and  C_8 
REMARK       I    between atoms: C_8  and  N_10 
REMARK    3  A    between atoms: N_10  and  C_11 
REMARK    4  A    between atoms: C_14  and  N_18 
ROOT
HETATM    1  C   UNL     1     -41.326 -49.738  12.377  1.00  0.00     0.051 C 
HETATM    2  C   UNL     1     -42.488 -49.737  13.129  1.00  0.00     0.035 C 
HETATM    3  C   UNL     1     -43.171 -50.946  13.317  1.00  0.00     0.051 C 
HETATM    4  C   UNL     1     -42.719 -52.126  12.720  1.00  0.00     0.103 C 
HETATM    5  N   UNL     1     -41.714 -52.057  11.815  1.00  0.00    -0.350 N 
ATOM      6  HN  UNL     1     -41.452 -52.879  11.272  1.00  0.00     0.166 HD
HETATM    7  C   UNL     1     -41.058 -50.879  11.640  1.00  0.00     0.119 C 
ENDROOT
BRANCH   1   8
HETATM    8  N   UNL     1     -40.391 -48.706  12.564  1.00  0.00    -0.308 N 
HETATM    9  C   UNL     1     -40.264 -47.525  11.887  1.00  0.00     0.321 C 
HETATM   10  N   UNL     1     -40.960 -47.241  10.764  1.00  0.00    -0.334 N 
HETATM   11  O   UNL     1     -39.389 -46.734  12.249  1.00  0.00    -0.247 OA
HETATM   12  H   UNL     1     -40.780 -46.303  10.423  1.00  0.00     0.164 HD
HETATM   13  H   UNL     1     -39.512 -48.953  13.002  1.00  0.00     0.170 HD
BRANCH  10  14
HETATM   14  C   UNL     1     -41.964 -48.003  10.035  1.00  0.00     0.227 C 
BRANCH  14  15
HETATM   15  C   UNL     1     -43.441 -47.619   9.989  1.00  0.00     0.236 C 
HETATM   16  N   UNL     1     -44.081 -47.615   8.751  1.00  0.00    -0.359 N 
HETATM   17  C   UNL     1     -45.530 -47.718   8.799  1.00  0.00     0.152 C 
HETATM   18  C   UNL     1     -43.416 -47.979   7.510  1.00  0.00     0.152 C 
HETATM   19  O   UNL     1     -44.077 -47.533  11.045  1.00  0.00    -0.272 OA
ENDBRANCH  14  15
ENDBRANCH  10  14
ENDBRANCH   1   8
BRANCH   4  20
HETATM   20  N   UNL     1     -43.166 -53.367  13.113  1.00  0.00    -0.363 N 
HETATM   21  C   UNL     1     -44.395 -54.019  12.653  1.00  0.00     0.150 C 
HETATM   22  C   UNL     1     -45.139 -54.623  13.856  1.00  0.00     0.187 C 
HETATM   23  O   UNL     1     -44.307 -55.543  14.580  1.00  0.00    -0.388 OA
HETATM   24  C   UNL     1     -43.131 -54.871  15.067  1.00  0.00     0.187 C 
HETATM   25  C   UNL     1     -42.304 -54.251  13.921  1.00  0.00     0.150 C 
ENDBRANCH   4  20
TORSDOF 4
ENDMDL
MODEL 2
REMARK VINA RESULT:      -5.8      2.818      7.178
REMARK  4 active torsions:
REMARK  status: ('A' for Active; 'I' for Inactive)
REMARK       I    between atoms: N_2  and  C_4 
REMARK    1  A    between atoms: C_4  and  C_6 
REMARK    2  A    between atoms: C_6  and  N_7 
REMARK       I    between atoms: N_7  and  C_8 
REMARK       I    between atoms: C_8  and  N_10 
REMARK    3  A    between atoms: N_10  and  C_11 
REMARK    4  A    between atoms: C_14  and  N_18 
ROOT
HETATM    1  C   UNL     1     -40.893 -50.564  11.934  1.00  0.00     0.051 C 
HETATM    2  C   UNL     1     -42.124 -50.062  12.321  1.00  0.00     0.035 C 
HETATM    3  C   UNL     1     -42.550 -48.837  11.791  1.00  0.00     0.051 C 
HETATM    4  C   UNL     1     -41.732 -48.106  10.924  1.00  0.00     0.103 C 
HETATM    5  N   UNL     1     -40.453 -48.509  10.739  1.00  0.00    -0.350 N 
ATOM      6  HN  UNL     1     -39.799 -47.926  10.217  1.00  0.00     0.166 HD
HETATM    7  C   UNL     1     -40.049 -49.699  11.258  1.00  0.00     0.119 C 
ENDROOT
BRANCH   1   8
HETATM    8  N   UNL     1     -40.653 -51.944  12.044  1.00  0.00    -0.308 N 
HETATM    9  C   UNL     1     -40.187 -52.655  13.115  1.00  0.00     0.321 C 
HETATM   10  N   UNL     1     -39.705 -52.071  14.234  1.00  0.00    -0.334 N 
HETATM   11  O   UNL     1     -40.093 -53.881  13.007  1.00  0.00    -0.247 OA
HETATM   12  H   UNL     1     -39.451 -52.747  14.946  1.00  0.00     0.164 HD
HETATM   13  H   UNL     1     -40.479 -52.452  11.186  1.00  0.00     0.170 HD
BRANCH  10  14
HETATM   14  C   UNL     1     -39.579 -50.670  14.612  1.00  0.00     0.227 C 
BRANCH  14  15
HETATM   15  C   UNL     1     -38.280 -49.878  14.483  1.00  0.00     0.236 C 
HETATM   16  N   UNL     1     -38.364 -48.492  14.364  1.00  0.00    -0.359 N 
HETATM   17  C   UNL     1     -37.159 -47.762  14.719  1.00  0.00     0.152 C 
HETATM   18  C   UNL     1     -39.625 -47.767  14.378  1.00  0.00     0.152 C 
HETATM   19  O   UNL     1     -37.203 -50.444  14.700  1.00  0.00    -0.272 OA
ENDBRANCH  14  15
ENDBRANCH  10  14
ENDBRANCH   1   8
BRANCH   4  20
HETATM   20  N   UNL     1     -42.214 -47.075  10.153  1.00  0.00    -0.363 N 
HETATM   21  C   UNL     1     -41.777 -45.677  10.222  1.00  0.00     0.150 C 
HETATM   22  C   UNL     1     -43.006 -44.752  10.214  1.00  0.00     0.187 C 
HETATM   23  O   UNL     1     -43.826 -44.979   9.058  1.00  0.00    -0.388 OA
HETATM   24  C   UNL     1     -44.288 -46.342   9.036  1.00  0.00     0.187 C 
HETATM   25  C   UNL     1     -43.118 -47.348   9.018  1.00  0.00     0.150 C 
ENDBRANCH   4  20
TORSDOF 4
ENDMDL
MODEL 3
REMARK VINA RESULT:      -5.8      1.871      2.655
REMARK  4 active torsions:
REMARK  status: ('A' for Active; 'I' for Inactive)
REMARK       I    between atoms: N_2  and  C_4 
REMARK    1  A    between atoms: C_4  and  C_6 
REMARK    2  A    between atoms: C_6  and  N_7 
REMARK       I    between atoms: N_7  and  C_8 
REMARK       I    between atoms: C_8  and  N_10 
REMARK    3  A    between atoms: N_10  and  C_11 
REMARK    4  A    between atoms: C_14  and  N_18 
ROOT
HETATM    1  C   UNL     1     -40.639 -51.268  12.587  1.00  0.00     0.051 C 
HETATM    2  C   UNL     1     -41.094 -50.815  13.813  1.00  0.00     0.035 C 
HETATM    3  C   UNL     1     -42.347 -51.246  14.270  1.00  0.00     0.051 C 
HETATM    4  C   UNL     1     -43.148 -52.081  13.486  1.00  0.00     0.103 C 
HETATM    5  N   UNL     1     -42.779 -52.327  12.206  1.00  0.00    -0.350 N 
ATOM      6  HN  UNL     1     -43.406 -52.825  11.575  1.00  0.00     0.166 HD
HETATM    7  C   UNL     1     -41.561 -51.904  11.773  1.00  0.00     0.119 C 
ENDROOT
BRANCH   1   8
HETATM    8  N   UNL     1     -39.258 -51.262  12.327  1.00  0.00    -0.308 N 
HETATM    9  C   UNL     1     -38.474 -50.243  11.859  1.00  0.00     0.321 C 
HETATM   10  N   UNL     1     -38.978 -49.078  11.397  1.00  0.00    -0.334 N 
HETATM   11  O   UNL     1     -37.262 -50.444  11.744  1.00  0.00    -0.247 OA
HETATM   12  H   UNL     1     -38.253 -48.417  11.138  1.00  0.00     0.164 HD
HETATM   13  H   UNL     1     -38.820 -52.155  12.136  1.00  0.00     0.170 HD
BRANCH  10  14
HETATM   14  C   UNL     1     -40.348 -48.593  11.297  1.00  0.00     0.227 C 
BRANCH  14  15
HETATM   15  C   UNL     1     -40.709 -47.117  11.159  1.00  0.00     0.236 C 
HETATM   16  N   UNL     1     -41.821 -46.781  10.388  1.00  0.00    -0.359 N 
HETATM   17  C   UNL     1     -42.398 -45.476  10.662  1.00  0.00     0.152 C 
HETATM   18  C   UNL     1     -42.662 -47.770   9.730  1.00  0.00     0.152 C 
HETATM   19  O   UNL     1     -40.155 -46.288  11.888  1.00  0.00    -0.272 OA
ENDBRANCH  14  15
ENDBRANCH  10  14
ENDBRANCH   1   8
BRANCH   4  20
HETATM   20  N   UNL     1     -44.224 -52.765  14.002  1.00  0.00    -0.363 N 
HETATM   21  C   UNL     1     -44.767 -52.610  15.355  1.00  0.00     0.150 C 
HETATM   22  C   UNL     1     -45.037 -53.997  15.963  1.00  0.00     0.187 C 
HETATM   23  O   UNL     1     -45.922 -54.770  15.137  1.00  0.00    -0.388 OA
HETATM   24  C   UNL     1     -45.347 -54.954  13.831  1.00  0.00     0.187 C 
HETATM   25  C   UNL     1     -45.063 -53.610  13.129  1.00  0.00     0.150 C 
ENDBRANCH   4  20
TORSDOF 4
ENDMDL
MODEL 4
REMARK VINA RESULT:      -5.7      3.347      5.540
REMARK  4 active torsions:
REMARK  status: ('A' for Active; 'I' for Inactive)
REMARK       I    between atoms: N_2  and  C_4 
REMARK    1  A    between atoms: C_4  and  C_6 
REMARK    2  A    between atoms: C_6  and  N_7 
REMARK       I    between atoms: N_7  and  C_8 
REMARK       I    between atoms: C_8  and  N_10 
REMARK    3  A    between atoms: N_10  and  C_11 
REMARK    4  A    between atoms: C_14  and  N_18 
ROOT
HETATM    1  C   UNL     1     -40.940 -51.108  11.909  1.00  0.00     0.051 C 
HETATM    2  C   UNL     1     -41.851 -50.506  12.761  1.00  0.00     0.035 C 
HETATM    3  C   UNL     1     -42.799 -51.309  13.410  1.00  0.00     0.051 C 
HETATM    4  C   UNL     1     -42.860 -52.684  13.170  1.00  0.00     0.103 C 
HETATM    5  N   UNL     1     -42.109 -53.207  12.172  1.00  0.00    -0.350 N 
ATOM      6  HN  UNL     1     -42.229 -54.180  11.891  1.00  0.00     0.166 HD
HETATM    7  C   UNL     1     -41.193 -52.420  11.548  1.00  0.00     0.119 C 
ENDROOT
BRANCH   1   8
HETATM    8  N   UNL     1     -39.726 -50.455  11.637  1.00  0.00    -0.308 N 
HETATM    9  C   UNL     1     -38.511 -50.606  12.247  1.00  0.00     0.321 C 
HETATM   10  N   UNL     1     -38.338 -51.329  13.375  1.00  0.00    -0.334 N 
HETATM   11  O   UNL     1     -37.555 -49.956  11.815  1.00  0.00    -0.247 OA
HETATM   12  H   UNL     1     -37.365 -51.376  13.660  1.00  0.00     0.164 HD
HETATM   13  H   UNL     1     -39.779 -49.550  11.185  1.00  0.00     0.170 HD
BRANCH  10  14
HETATM   14  C   UNL     1     -39.275 -52.105  14.176  1.00  0.00     0.227 C 
BRANCH  14  15
HETATM   15  C   UNL     1     -39.134 -53.605  14.416  1.00  0.00     0.236 C 
HETATM   16  N   UNL     1     -38.913 -54.045  15.720  1.00  0.00    -0.359 N 
HETATM   17  C   UNL     1     -39.255 -55.434  15.976  1.00  0.00     0.152 C 
HETATM   18  C   UNL     1     -38.832 -53.145  16.860  1.00  0.00     0.152 C 
HETATM   19  O   UNL     1     -39.426 -54.393  13.510  1.00  0.00    -0.272 OA
ENDBRANCH  14  15
ENDBRANCH  10  14
ENDBRANCH   1   8
BRANCH   4  20
HETATM   20  N   UNL     1     -43.552 -53.544  13.991  1.00  0.00    -0.363 N 
HETATM   21  C   UNL     1     -44.734 -54.324  13.613  1.00  0.00     0.150 C 
HETATM   22  C   UNL     1     -45.797 -54.219  14.720  1.00  0.00     0.187 C 
HETATM   23  O   UNL     1     -45.278 -54.649  15.988  1.00  0.00    -0.388 OA
HETATM   24  C   UNL     1     -44.151 -53.837  16.366  1.00  0.00     0.187 C 
HETATM   25  C   UNL     1     -43.018 -53.901  15.321  1.00  0.00     0.150 C 
ENDBRANCH   4  20
TORSDOF 4
ENDMDL
MODEL 5
REMARK VINA RESULT:      -5.6      1.955      7.899
REMARK  4 active torsions:
REMARK  status: ('A' for Active; 'I' for Inactive)
REMARK       I    between atoms: N_2  and  C_4 
REMARK    1  A    between atoms: C_4  and  C_6 
REMARK    2  A    between atoms: C_6  and  N_7 
REMARK       I    between atoms: N_7  and  C_8 
REMARK       I    between atoms: C_8  and  N_10 
REMARK    3  A    between atoms: N_10  and  C_11 
REMARK    4  A    between atoms: C_14  and  N_18 
ROOT
HETATM    1  C   UNL     1     -43.186 -52.202  12.627  1.00  0.00     0.051 C 
HETATM    2  C   UNL     1     -43.583 -50.991  13.169  1.00  0.00     0.035 C 
HETATM    3  C   UNL     1     -42.859 -49.837  12.843  1.00  0.00     0.051 C 
HETATM    4  C   UNL     1     -41.728 -49.906  12.023  1.00  0.00     0.103 C 
HETATM    5  N   UNL     1     -41.236 -51.122  11.691  1.00  0.00    -0.350 N 
ATOM      6  HN  UNL     1     -40.344 -51.203  11.204  1.00  0.00     0.166 HD
HETATM    7  C   UNL     1     -41.946 -52.236  12.013  1.00  0.00     0.119 C 
ENDROOT
BRANCH   1   8
HETATM    8  N   UNL     1     -44.122 -53.246  12.531  1.00  0.00    -0.308 N 
HETATM    9  C   UNL     1     -44.455 -54.193  13.460  1.00  0.00     0.321 C 
HETATM   10  N   UNL     1     -43.768 -54.369  14.611  1.00  0.00    -0.334 N 
HETATM   11  O   UNL     1     -45.346 -54.999  13.181  1.00  0.00    -0.247 OA
HETATM   12  H   UNL     1     -44.182 -55.080  15.204  1.00  0.00     0.164 HD
HETATM   13  H   UNL     1     -44.357 -53.571  11.602  1.00  0.00     0.170 HD
BRANCH  10  14
HETATM   14  C   UNL     1     -42.619 -53.667  15.164  1.00  0.00     0.227 C 
BRANCH  14  15
HETATM   15  C   UNL     1     -41.216 -54.265  15.225  1.00  0.00     0.236 C 
HETATM   16  N   UNL     1     -40.787 -54.815  16.432  1.00  0.00    -0.359 N 
HETATM   17  C   UNL     1     -39.693 -55.766  16.329  1.00  0.00     0.152 C 
HETATM   18  C   UNL     1     -41.619 -54.864  17.624  1.00  0.00     0.152 C 
HETATM   19  O   UNL     1     -40.588 -54.441  14.175  1.00  0.00    -0.272 OA
ENDBRANCH  14  15
ENDBRANCH  10  14
ENDBRANCH   1   8
BRANCH   4  20
HETATM   20  N   UNL     1     -41.176 -48.791  11.437  1.00  0.00    -0.363 N 
HETATM   21  C   UNL     1     -39.847 -48.243  11.722  1.00  0.00     0.150 C 
HETATM   22  C   UNL     1     -39.943 -46.716  11.885  1.00  0.00     0.187 C 
HETATM   23  O   UNL     1     -40.516 -46.100  10.721  1.00  0.00    -0.388 OA
HETATM   24  C   UNL     1     -41.841 -46.613  10.489  1.00  0.00     0.187 C 
HETATM   25  C   UNL     1     -41.840 -48.143  10.288  1.00  0.00     0.150 C 
ENDBRANCH   4  20
TORSDOF 4
ENDMDL
MODEL 6
REMARK VINA RESULT:      -5.5      1.832      2.638
REMARK  4 active torsions:
REMARK  status: ('A' for Active; 'I' for Inactive)
REMARK       I    between atoms: N_2  and  C_4 
REMARK    1  A    between atoms: C_4  and  C_6 
REMARK    2  A    between atoms: C_6  and  N_7 
REMARK       I    between atoms: N_7  and  C_8 
REMARK       I    between atoms: C_8  and  N_10 
REMARK    3  A    between atoms: N_10  and  C_11 
REMARK    4  A    between atoms: C_14  and  N_18 
ROOT
HETATM    1  C   UNL     1     -40.557 -47.861  11.430  1.00  0.00     0.051 C 
HETATM    2  C   UNL     1     -40.835 -47.903  12.785  1.00  0.00     0.035 C 
HETATM    3  C   UNL     1     -41.275 -49.110  13.346  1.00  0.00     0.051 C 
HETATM    4  C   UNL     1     -41.478 -50.240  12.549  1.00  0.00     0.103 C 
HETATM    5  N   UNL     1     -41.413 -50.110  11.203  1.00  0.00    -0.350 N 
ATOM      6  HN  UNL     1     -41.682 -50.884  10.596  1.00  0.00     0.166 HD
HETATM    7  C   UNL     1     -40.985 -48.935  10.669  1.00  0.00     0.119 C 
ENDROOT
BRANCH   1   8
HETATM    8  N   UNL     1     -39.689 -46.870  10.942  1.00  0.00    -0.308 N 
HETATM    9  C   UNL     1     -39.972 -45.588  10.557  1.00  0.00     0.321 C 
HETATM   10  N   UNL     1     -41.233 -45.120  10.428  1.00  0.00    -0.334 N 
HETATM   11  O   UNL     1     -39.039 -44.865  10.198  1.00  0.00    -0.247 OA
HETATM   12  H   UNL     1     -41.258 -44.136  10.184  1.00  0.00     0.164 HD
HETATM   13  H   UNL     1     -38.829 -47.182  10.507  1.00  0.00     0.170 HD
BRANCH  10  14
HETATM   14  C   UNL     1     -42.524 -45.752  10.662  1.00  0.00     0.227 C 
BRANCH  14  15
HETATM   15  C   UNL     1     -43.424 -46.267   9.541  1.00  0.00     0.236 C 
HETATM   16  N   UNL     1     -44.247 -47.359   9.809  1.00  0.00    -0.359 N 
HETATM   17  C   UNL     1     -45.389 -47.510   8.923  1.00  0.00     0.152 C 
HETATM   18  C   UNL     1     -44.304 -48.014  11.107  1.00  0.00     0.152 C 
HETATM   19  O   UNL     1     -43.560 -45.591   8.516  1.00  0.00    -0.272 OA
ENDBRANCH  14  15
ENDBRANCH  10  14
ENDBRANCH   1   8
BRANCH   4  20
HETATM   20  N   UNL     1     -41.610 -51.502  13.082  1.00  0.00    -0.363 N 
HETATM   21  C   UNL     1     -40.513 -52.436  13.351  1.00  0.00     0.150 C 
HETATM   22  C   UNL     1     -40.897 -53.839  12.850  1.00  0.00     0.187 C 
HETATM   23  O   UNL     1     -42.121 -54.293  13.449  1.00  0.00    -0.388 OA
HETATM   24  C   UNL     1     -43.195 -53.390  13.129  1.00  0.00     0.187 C 
HETATM   25  C   UNL     1     -42.908 -51.955  13.618  1.00  0.00     0.150 C 
ENDBRANCH   4  20
TORSDOF 4
ENDMDL
MODEL 7
REMARK VINA RESULT:      -5.5      2.166      4.212
REMARK  4 active torsions:
REMARK  status: ('A' for Active; 'I' for Inactive)
REMARK       I    between atoms: N_2  and  C_4 
REMARK    1  A    between atoms: C_4  and  C_6 
REMARK    2  A    between atoms: C_6  and  N_7 
REMARK       I    between atoms: N_7  and  C_8 
REMARK       I    between atoms: C_8  and  N_10 
REMARK    3  A    between atoms: N_10  and  C_11 
REMARK    4  A    between atoms: C_14  and  N_18 
ROOT
HETATM    1  C   UNL     1     -42.577 -47.997  10.817  1.00  0.00     0.051 C 
HETATM    2  C   UNL     1     -41.264 -48.426  10.716  1.00  0.00     0.035 C 
HETATM    3  C   UNL     1     -40.891 -49.612  11.363  1.00  0.00     0.051 C 
HETATM    4  C   UNL     1     -41.809 -50.328  12.136  1.00  0.00     0.103 C 
HETATM    5  N   UNL     1     -43.016 -49.773  12.398  1.00  0.00    -0.350 N 
ATOM      6  HN  UNL     1     -43.654 -50.212  13.061  1.00  0.00     0.166 HD
HETATM    7  C   UNL     1     -43.369 -48.622  11.765  1.00  0.00     0.119 C 
ENDROOT
BRANCH   1   8
HETATM    8  N   UNL     1     -43.089 -47.134   9.834  1.00  0.00    -0.308 N 
HETATM    9  C   UNL     1     -43.118 -45.766   9.819  1.00  0.00     0.321 C 
HETATM   10  N   UNL     1     -42.786 -45.010  10.889  1.00  0.00    -0.334 N 
HETATM   11  O   UNL     1     -43.581 -45.202   8.824  1.00  0.00    -0.247 OA
HETATM   12  H   UNL     1     -42.814 -44.017  10.686  1.00  0.00     0.164 HD
HETATM   13  H   UNL     1     -43.805 -47.504   9.222  1.00  0.00     0.170 HD
BRANCH  10  14
HETATM   14  C   UNL     1     -42.319 -45.376  12.219  1.00  0.00     0.227 C 
BRANCH  14  15
HETATM   15  C   UNL     1     -40.846 -45.384  12.621  1.00  0.00     0.236 C 
HETATM   16  N   UNL     1     -40.458 -46.207  13.677  1.00  0.00    -0.359 N 
HETATM   17  C   UNL     1     -39.045 -46.546  13.714  1.00  0.00     0.152 C 
HETATM   18  C   UNL     1     -41.382 -47.069  14.396  1.00  0.00     0.152 C 
HETATM   19  O   UNL     1     -40.016 -44.843  11.884  1.00  0.00    -0.272 OA
ENDBRANCH  14  15
ENDBRANCH  10  14
ENDBRANCH   1   8
BRANCH   4  20
HETATM   20  N   UNL     1     -41.585 -51.627  12.530  1.00  0.00    -0.363 N 
HETATM   21  C   UNL     1     -42.565 -52.716  12.488  1.00  0.00     0.150 C 
HETATM   22  C   UNL     1     -42.517 -53.504  13.809  1.00  0.00     0.187 C 
HETATM   23  O   UNL     1     -41.198 -54.006  14.073  1.00  0.00    -0.388 OA
HETATM   24  C   UNL     1     -40.260 -52.918  14.162  1.00  0.00     0.187 C 
HETATM   25  C   UNL     1     -40.221 -52.082  12.866  1.00  0.00     0.150 C 
ENDBRANCH   4  20
TORSDOF 4
ENDMDL
MODEL 8
REMARK VINA RESULT:      -5.4      1.831      2.324
REMARK  4 active torsions:
REMARK  status: ('A' for Active; 'I' for Inactive)
REMARK       I    between atoms: N_2  and  C_4 
REMARK    1  A    between atoms: C_4  and  C_6 
REMARK    2  A    between atoms: C_6  and  N_7 
REMARK       I    between atoms: N_7  and  C_8 
REMARK       I    between atoms: C_8  and  N_10 
REMARK    3  A    between atoms: N_10  and  C_11 
REMARK    4  A    between atoms: C_14  and  N_18 
ROOT
HETATM    1  C   UNL     1     -41.102 -48.582  13.258  1.00  0.00     0.051 C 
HETATM    2  C   UNL     1     -42.360 -48.339  13.783  1.00  0.00     0.035 C 
HETATM    3  C   UNL     1     -43.322 -49.357  13.729  1.00  0.00     0.051 C 
HETATM    4  C   UNL     1     -43.038 -50.581  13.116  1.00  0.00     0.103 C 
HETATM    5  N   UNL     1     -41.885 -50.711  12.419  1.00  0.00    -0.350 N 
ATOM      6  HN  UNL     1     -41.712 -51.544  11.858  1.00  0.00     0.166 HD
HETATM    7  C   UNL     1     -40.959 -49.717  12.477  1.00  0.00     0.119 C 
ENDROOT
BRANCH   1   8
HETATM    8  N   UNL     1     -40.015 -47.815  13.708  1.00  0.00    -0.308 N 
HETATM    9  C   UNL     1     -39.496 -46.664  13.182  1.00  0.00     0.321 C 
HETATM   10  N   UNL     1     -39.877 -46.163  11.986  1.00  0.00    -0.334 N 
HETATM   11  O   UNL     1     -38.555 -46.124  13.769  1.00  0.00    -0.247 OA
HETATM   12  H   UNL     1     -39.429 -45.278  11.775  1.00  0.00     0.164 HD
HETATM   13  H   UNL     1     -39.317 -48.287  14.268  1.00  0.00     0.170 HD
BRANCH  10  14
HETATM   14  C   UNL     1     -40.864 -46.624  11.019  1.00  0.00     0.227 C 
BRANCH  14  15
HETATM   15  C   UNL     1     -41.804 -45.687  10.265  1.00  0.00     0.236 C 
HETATM   16  N   UNL     1     -42.792 -46.253   9.461  1.00  0.00    -0.359 N 
HETATM   17  C   UNL     1     -43.921 -45.388   9.160  1.00  0.00     0.152 C 
HETATM   18  C   UNL     1     -42.981 -47.689   9.325  1.00  0.00     0.152 C 
HETATM   19  O   UNL     1     -41.810 -44.483  10.545  1.00  0.00    -0.272 OA
ENDBRANCH  14  15
ENDBRANCH  10  14
ENDBRANCH   1   8
BRANCH   4  20
HETATM   20  N   UNL     1     -43.822 -51.696  13.303  1.00  0.00    -0.363 N 
HETATM   21  C   UNL     1     -43.334 -53.044  13.609  1.00  0.00     0.150 C 
HETATM   22  C   UNL     1     -44.067 -54.070  12.727  1.00  0.00     0.187 C 
HETATM   23  O   UNL     1     -45.490 -53.986  12.897  1.00  0.00    -0.388 OA
HETATM   24  C   UNL     1     -45.956 -52.671  12.542  1.00  0.00     0.187 C 
HETATM   25  C   UNL     1     -45.290 -51.572  13.396  1.00  0.00     0.150 C 
ENDBRANCH   4  20
TORSDOF 4
ENDMDL
MODEL 9
REMARK VINA RESULT:      -5.2      2.211      4.520
REMARK  4 active torsions:
REMARK  status: ('A' for Active; 'I' for Inactive)
REMARK       I    between atoms: N_2  and  C_4 
REMARK    1  A    between atoms: C_4  and  C_6 
REMARK    2  A    between atoms: C_6  and  N_7 
REMARK       I    between atoms: N_7  and  C_8 
REMARK       I    between atoms: C_8  and  N_10 
REMARK    3  A    between atoms: N_10  and  C_11 
REMARK    4  A    between atoms: C_14  and  N_18 
ROOT
HETATM    1  C   UNL     1     -41.646 -49.589  11.998  1.00  0.00     0.051 C 
HETATM    2  C   UNL     1     -40.881 -50.702  11.692  1.00  0.00     0.035 C 
HETATM    3  C   UNL     1     -41.296 -51.955  12.163  1.00  0.00     0.051 C 
HETATM    4  C   UNL     1     -42.433 -52.081  12.965  1.00  0.00     0.103 C 
HETATM    5  N   UNL     1     -43.031 -50.958  13.430  1.00  0.00    -0.350 N 
ATOM      6  HN  UNL     1     -43.781 -51.020  14.118  1.00  0.00     0.166 HD
HETATM    7  C   UNL     1     -42.621 -49.747  12.967  1.00  0.00     0.119 C 
ENDROOT
BRANCH   1   8
HETATM    8  N   UNL     1     -41.551 -48.451  11.180  1.00  0.00    -0.308 N 
HETATM    9  C   UNL     1     -40.677 -47.401  11.262  1.00  0.00     0.321 C 
HETATM   10  N   UNL     1     -39.839 -47.221  12.306  1.00  0.00    -0.334 N 
HETATM   11  O   UNL     1     -40.742 -46.517  10.404  1.00  0.00    -0.247 OA
HETATM   12  H   UNL     1     -39.227 -46.421  12.179  1.00  0.00     0.164 HD
HETATM   13  H   UNL     1     -42.384 -48.172  10.678  1.00  0.00     0.170 HD
BRANCH  10  14
HETATM   14  C   UNL     1     -39.612 -48.012  13.507  1.00  0.00     0.227 C 
BRANCH  14  15
HETATM   15  C   UNL     1     -38.278 -48.680  13.835  1.00  0.00     0.236 C 
HETATM   16  N   UNL     1     -37.766 -48.528  15.122  1.00  0.00    -0.359 N 
HETATM   17  C   UNL     1     -36.792 -49.529  15.526  1.00  0.00     0.152 C 
HETATM   18  C   UNL     1     -38.449 -47.785  16.169  1.00  0.00     0.152 C 
HETATM   19  O   UNL     1     -37.801 -49.498  13.041  1.00  0.00    -0.272 OA
ENDBRANCH  14  15
ENDBRANCH  10  14
ENDBRANCH   1   8
BRANCH   4  20
HETATM   20  N   UNL     1     -43.043 -53.293  13.193  1.00  0.00    -0.363 N 
HETATM   21  C   UNL     1     -44.295 -53.749  12.582  1.00  0.00     0.150 C 
HETATM   22  C   UNL     1     -45.196 -54.375  13.661  1.00  0.00     0.187 C 
HETATM   23  O   UNL     1     -44.530 -55.451  14.340  1.00  0.00    -0.388 OA
HETATM   24  C   UNL     1     -43.332 -54.972  14.976  1.00  0.00     0.187 C 
HETATM   25  C   UNL     1     -42.351 -54.345  13.963  1.00  0.00     0.150 C 
ENDBRANCH   4  20
TORSDOF 4
ENDMDL
