MODEL 1
REMARK VINA RESULT:      -5.9      0.000      0.000
REMARK  5 active torsions:
REMARK  status: ('A' for Active; 'I' for Inactive)
REMARK    1  A    between atoms: C_2  and  C_4 
REMARK    2  A    between atoms: C_4  and  C_5 
REMARK    3  A    between atoms: C_4  and  N_16 
REMARK    4  A    between atoms: C_5  and  N_6 
REMARK       I    between atoms: N_6  and  C_7 
REMARK       I    between atoms: C_7  and  N_9 
REMARK    5  A    between atoms: N_9  and  C_10 
ROOT
HETATM    1  N   UNL     1     -41.184 -51.915  11.522  1.00  0.00    -0.341 N 
HETATM    2  C   UNL     1     -42.094 -52.341  12.468  1.00  0.00     0.322 C 
HETATM    3  O   UNL     1     -41.811 -52.317  13.656  1.00  0.00    -0.247 OA
HETATM    4  N   UNL     1     -43.286 -52.752  11.923  1.00  0.00    -0.289 N 
HETATM    5  H   UNL     1     -41.465 -51.876  10.558  1.00  0.00     0.164 HD
HETATM    6  H   UNL     1     -43.581 -52.358  11.048  1.00  0.00     0.172 HD
ENDROOT
BRANCH   1   7
HETATM    7  C   UNL     1     -40.000 -51.223  12.006  1.00  0.00     0.160 C 
BRANCH   7   8
HETATM    8  C   UNL     1     -39.755 -49.722  11.616  1.00  0.00     0.244 C 
BRANCH   8   9
HETATM    9  C   UNL     1     -38.239 -49.380  11.943  1.00  0.00     0.012 C 
HETATM   10  C   UNL     1     -37.803 -49.793  13.358  1.00  0.00     0.012 C 
HETATM   11  C   UNL     1     -37.242 -49.955  10.922  1.00  0.00     0.012 C 
ENDBRANCH   8   9
BRANCH   8  12
HETATM   12  N   UNL     1     -40.683 -48.753  12.292  1.00  0.00     0.099 N 
HETATM   13  C   UNL     1     -42.043 -48.658  11.711  1.00  0.00     0.299 C 
HETATM   14  C   UNL     1     -42.045 -48.026  10.308  1.00  0.00     0.198 C 
HETATM   15  O   UNL     1     -41.568 -46.678  10.374  1.00  0.00    -0.388 OA
HETATM   16  C   UNL     1     -40.260 -46.617  10.961  1.00  0.00     0.198 C 
HETATM   17  C   UNL     1     -40.186 -47.349  12.317  1.00  0.00     0.299 C 
ENDBRANCH   8  12
ENDBRANCH   7   8
ENDBRANCH   1   7
BRANCH   4  18
HETATM   18  C   UNL     1     -44.320 -53.275  12.671  1.00  0.00     0.152 A 
HETATM   19  N   UNL     1     -44.246 -54.459  13.235  1.00  0.00    -0.346 N 
HETATM   20  C   UNL     1     -45.435 -54.724  13.902  1.00  0.00     0.097 A 
ATOM     21  HN  UNL     1     -43.442 -55.085  13.190  1.00  0.00     0.167 HD
HETATM   22  C   UNL     1     -46.371 -53.712  13.870  1.00  0.00     0.070 A 
HETATM   23  S   UNL     1     -45.738 -52.379  13.013  1.00  0.00    -0.064 SA
ENDBRANCH   4  18
TORSDOF 5
ENDMDL
MODEL 2
REMARK VINA RESULT:      -5.6      2.888      6.915
REMARK  5 active torsions:
REMARK  status: ('A' for Active; 'I' for Inactive)
REMARK    1  A    between atoms: C_2  and  C_4 
REMARK    2  A    between atoms: C_4  and  C_5 
REMARK    3  A    between atoms: C_4  and  N_16 
REMARK    4  A    between atoms: C_5  and  N_6 
REMARK       I    between atoms: N_6  and  C_7 
REMARK       I    between atoms: C_7  and  N_9 
REMARK    5  A    between atoms: N_9  and  C_10 
ROOT
HETATM    1  N   UNL     1     -42.339 -50.927  12.083  1.00  0.00    -0.341 N 
HETATM    2  C   UNL     1     -41.941 -49.607  12.123  1.00  0.00     0.322 C 
HETATM    3  O   UNL     1     -41.640 -49.081  13.184  1.00  0.00    -0.247 OA
HETATM    4  N   UNL     1     -41.916 -49.013  10.885  1.00  0.00    -0.289 N 
HETATM    5  H   UNL     1     -42.512 -51.358  11.191  1.00  0.00     0.164 HD
HETATM    6  H   UNL     1     -41.761 -49.586  10.075  1.00  0.00     0.172 HD
ENDROOT
BRANCH   1   7
HETATM    7  C   UNL     1     -42.152 -51.713  13.292  1.00  0.00     0.160 C 
BRANCH   7   8
HETATM    8  C   UNL     1     -43.274 -52.703  13.766  1.00  0.00     0.244 C 
BRANCH   8   9
HETATM    9  C   UNL     1     -42.678 -54.174  13.702  1.00  0.00     0.012 C 
HETATM   10  C   UNL     1     -41.289 -54.251  13.048  1.00  0.00     0.012 C 
HETATM   11  C   UNL     1     -42.631 -54.880  15.067  1.00  0.00     0.012 C 
ENDBRANCH   8   9
BRANCH   8  12
HETATM   12  N   UNL     1     -44.550 -52.605  12.979  1.00  0.00     0.099 N 
HETATM   13  C   UNL     1     -45.387 -51.415  13.260  1.00  0.00     0.299 C 
HETATM   14  C   UNL     1     -45.998 -51.441  14.672  1.00  0.00     0.198 C 
HETATM   15  O   UNL     1     -46.879 -52.561  14.807  1.00  0.00    -0.388 OA
HETATM   16  C   UNL     1     -46.202 -53.792  14.519  1.00  0.00     0.198 C 
HETATM   17  C   UNL     1     -45.471 -53.761  13.161  1.00  0.00     0.299 C 
ENDBRANCH   8  12
ENDBRANCH   7   8
ENDBRANCH   1   7
BRANCH   4  18
HETATM   18  C   UNL     1     -41.609 -47.684  10.688  1.00  0.00     0.152 A 
HETATM   19  N   UNL     1     -40.374 -47.237  10.735  1.00  0.00    -0.346 N 
HETATM   20  C   UNL     1     -40.374 -45.865  10.519  1.00  0.00     0.097 A 
ATOM     21  HN  UNL     1     -39.546 -47.808  10.903  1.00  0.00     0.167 HD
HETATM   22  C   UNL     1     -41.608 -45.305  10.265  1.00  0.00     0.070 A 
HETATM   23  S   UNL     1     -42.798 -46.529  10.261  1.00  0.00    -0.064 SA
ENDBRANCH   4  18
TORSDOF 5
ENDMDL
MODEL 3
REMARK VINA RESULT:      -5.5      2.686      6.484
REMARK  5 active torsions:
REMARK  status: ('A' for Active; 'I' for Inactive)
REMARK    1  A    between atoms: C_2  and  C_4 
REMARK    2  A    between atoms: C_4  and  C_5 
REMARK    3  A    between atoms: C_4  and  N_16 
REMARK    4  A    between atoms: C_5  and  N_6 
REMARK       I    between atoms: N_6  and  C_7 
REMARK       I    between atoms: C_7  and  N_9 
REMARK    5  A    between atoms: N_9  and  C_10 
ROOT
HETATM    1  N   UNL     1     -41.364 -51.506  11.410  1.00  0.00    -0.341 N 
HETATM    2  C   UNL     1     -40.967 -50.210  11.666  1.00  0.00     0.322 C 
HETATM    3  O   UNL     1     -40.319 -49.946  12.667  1.00  0.00    -0.247 OA
HETATM    4  N   UNL     1     -41.362 -49.323  10.695  1.00  0.00    -0.289 N 
HETATM    5  H   UNL     1     -41.833 -51.711  10.545  1.00  0.00     0.164 HD
HETATM    6  H   UNL     1     -41.497 -49.658   9.758  1.00  0.00     0.172 HD
ENDROOT
BRANCH   1   7
HETATM    7  C   UNL     1     -40.780 -52.553  12.235  1.00  0.00     0.160 C 
BRANCH   7   8
HETATM    8  C   UNL     1     -41.500 -53.004  13.555  1.00  0.00     0.244 C 
BRANCH   8   9
HETATM    9  C   UNL     1     -40.382 -53.495  14.571  1.00  0.00     0.012 C 
HETATM   10  C   UNL     1     -39.351 -54.447  13.943  1.00  0.00     0.012 C 
HETATM   11  C   UNL     1     -39.641 -52.346  15.275  1.00  0.00     0.012 C 
ENDBRANCH   8   9
BRANCH   8  12
HETATM   12  N   UNL     1     -42.545 -54.064  13.352  1.00  0.00     0.099 N 
HETATM   13  C   UNL     1     -43.781 -53.622  12.664  1.00  0.00     0.299 C 
HETATM   14  C   UNL     1     -44.615 -52.646  13.512  1.00  0.00     0.198 C 
HETATM   15  O   UNL     1     -45.061 -53.292  14.709  1.00  0.00    -0.388 OA
HETATM   16  C   UNL     1     -43.957 -53.811  15.463  1.00  0.00     0.198 C 
HETATM   17  C   UNL     1     -43.025 -54.698  14.612  1.00  0.00     0.299 C 
ENDBRANCH   8  12
ENDBRANCH   7   8
ENDBRANCH   1   7
BRANCH   4  18
HETATM   18  C   UNL     1     -41.131 -47.966  10.769  1.00  0.00     0.152 A 
HETATM   19  N   UNL     1     -39.937 -47.472  11.009  1.00  0.00    -0.346 N 
HETATM   20  C   UNL     1     -40.014 -46.086  11.043  1.00  0.00     0.097 A 
ATOM     21  HN  UNL     1     -39.089 -48.020  11.149  1.00  0.00     0.167 HD
HETATM   22  C   UNL     1     -41.258 -45.553  10.780  1.00  0.00     0.070 A 
HETATM   23  S   UNL     1     -42.357 -46.816  10.447  1.00  0.00    -0.064 SA
ENDBRANCH   4  18
TORSDOF 5
ENDMDL
MODEL 4
REMARK VINA RESULT:      -5.3      1.728      2.012
REMARK  5 active torsions:
REMARK  status: ('A' for Active; 'I' for Inactive)
REMARK    1  A    between atoms: C_2  and  C_4 
REMARK    2  A    between atoms: C_4  and  C_5 
REMARK    3  A    between atoms: C_4  and  N_16 
REMARK    4  A    between atoms: C_5  and  N_6 
REMARK       I    between atoms: N_6  and  C_7 
REMARK       I    between atoms: C_7  and  N_9 
REMARK    5  A    between atoms: N_9  and  C_10 
ROOT
HETATM    1  N   UNL     1     -40.761 -50.874  11.362  1.00  0.00    -0.341 N 
HETATM    2  C   UNL     1     -41.825 -51.395  12.070  1.00  0.00     0.322 C 
HETATM    3  O   UNL     1     -42.664 -50.656  12.562  1.00  0.00    -0.247 OA
HETATM    4  N   UNL     1     -41.816 -52.767  12.125  1.00  0.00    -0.289 N 
HETATM    5  H   UNL     1     -40.124 -51.504  10.905  1.00  0.00     0.164 HD
HETATM    6  H   UNL     1     -41.376 -53.280  11.382  1.00  0.00     0.172 HD
ENDROOT
BRANCH   1   7
HETATM    7  C   UNL     1     -40.817 -49.460  11.026  1.00  0.00     0.160 C 
BRANCH   7   8
HETATM    8  C   UNL     1     -39.938 -48.431  11.821  1.00  0.00     0.244 C 
BRANCH   8   9
HETATM    9  C   UNL     1     -39.254 -49.209  13.026  1.00  0.00     0.012 C 
HETATM   10  C   UNL     1     -37.751 -48.922  13.173  1.00  0.00     0.012 C 
HETATM   11  C   UNL     1     -39.945 -48.979  14.380  1.00  0.00     0.012 C 
ENDBRANCH   8   9
BRANCH   8  12
HETATM   12  N   UNL     1     -40.696 -47.232  12.317  1.00  0.00     0.099 N 
HETATM   13  C   UNL     1     -42.014 -46.999  11.681  1.00  0.00     0.299 C 
HETATM   14  C   UNL     1     -41.894 -46.591  10.203  1.00  0.00     0.198 C 
HETATM   15  O   UNL     1     -41.197 -45.346  10.090  1.00  0.00    -0.388 OA
HETATM   16  C   UNL     1     -39.904 -45.416  10.709  1.00  0.00     0.198 C 
HETATM   17  C   UNL     1     -39.970 -45.941  12.157  1.00  0.00     0.299 C 
ENDBRANCH   8  12
ENDBRANCH   7   8
ENDBRANCH   1   7
BRANCH   4  18
HETATM   18  C   UNL     1     -42.746 -53.503  12.828  1.00  0.00     0.152 A 
HETATM   19  N   UNL     1     -43.962 -53.710  12.376  1.00  0.00    -0.346 N 
HETATM   20  C   UNL     1     -44.673 -54.463  13.301  1.00  0.00     0.097 A 
ATOM     21  HN  UNL     1     -44.326 -53.370  11.486  1.00  0.00     0.167 HD
HETATM   22  C   UNL     1     -43.965 -54.854  14.417  1.00  0.00     0.070 A 
HETATM   23  S   UNL     1     -42.357 -54.295  14.295  1.00  0.00    -0.064 SA
ENDBRANCH   4  18
TORSDOF 5
ENDMDL
MODEL 5
REMARK VINA RESULT:      -5.2      1.837      3.557
REMARK  5 active torsions:
REMARK  status: ('A' for Active; 'I' for Inactive)
REMARK    1  A    between atoms: C_2  and  C_4 
REMARK    2  A    between atoms: C_4  and  C_5 
REMARK    3  A    between atoms: C_4  and  N_16 
REMARK    4  A    between atoms: C_5  and  N_6 
REMARK       I    between atoms: N_6  and  C_7 
REMARK       I    between atoms: C_7  and  N_9 
REMARK    5  A    between atoms: N_9  and  C_10 
ROOT
HETATM    1  N   UNL     1     -40.763 -51.118  11.341  1.00  0.00    -0.341 N 
HETATM    2  C   UNL     1     -41.947 -51.298  12.027  1.00  0.00     0.322 C 
HETATM    3  O   UNL     1     -42.440 -50.381  12.666  1.00  0.00    -0.247 OA
HETATM    4  N   UNL     1     -42.465 -52.562  11.886  1.00  0.00    -0.289 N 
HETATM    5  H   UNL     1     -40.416 -51.864  10.764  1.00  0.00     0.164 HD
HETATM    6  H   UNL     1     -42.253 -53.083  11.055  1.00  0.00     0.172 HD
ENDROOT
BRANCH   1   7
HETATM    7  C   UNL     1     -40.273 -49.755  11.213  1.00  0.00     0.160 C 
BRANCH   7   8
HETATM    8  C   UNL     1     -39.709 -49.003  12.471  1.00  0.00     0.244 C 
BRANCH   8   9
HETATM    9  C   UNL     1     -40.185 -47.491  12.384  1.00  0.00     0.012 C 
HETATM   10  C   UNL     1     -40.825 -47.120  11.036  1.00  0.00     0.012 C 
HETATM   11  C   UNL     1     -41.134 -47.076  13.521  1.00  0.00     0.012 C 
ENDBRANCH   8   9
BRANCH   8  12
HETATM   12  N   UNL     1     -38.216 -49.090  12.619  1.00  0.00     0.099 N 
HETATM   13  C   UNL     1     -37.652 -50.459  12.633  1.00  0.00     0.299 C 
HETATM   14  C   UNL     1     -38.046 -51.249  13.893  1.00  0.00     0.198 C 
HETATM   15  O   UNL     1     -37.516 -50.612  15.060  1.00  0.00    -0.388 OA
HETATM   16  C   UNL     1     -37.954 -49.249  15.153  1.00  0.00     0.198 C 
HETATM   17  C   UNL     1     -37.688 -48.454  13.858  1.00  0.00     0.299 C 
ENDBRANCH   8  12
ENDBRANCH   7   8
ENDBRANCH   1   7
BRANCH   4  18
HETATM   18  C   UNL     1     -43.607 -52.989  12.530  1.00  0.00     0.152 A 
HETATM   19  N   UNL     1     -44.796 -52.516  12.231  1.00  0.00    -0.346 N 
HETATM   20  C   UNL     1     -45.745 -53.114  13.050  1.00  0.00     0.097 A 
ATOM     21  HN  UNL     1     -44.991 -51.821  11.511  1.00  0.00     0.167 HD
HETATM   22  C   UNL     1     -45.261 -54.066  13.922  1.00  0.00     0.070 A 
HETATM   23  S   UNL     1     -43.580 -54.245  13.693  1.00  0.00    -0.064 SA
ENDBRANCH   4  18
TORSDOF 5
ENDMDL
MODEL 6
REMARK VINA RESULT:      -5.2      3.533      7.769
REMARK  5 active torsions:
REMARK  status: ('A' for Active; 'I' for Inactive)
REMARK    1  A    between atoms: C_2  and  C_4 
REMARK    2  A    between atoms: C_4  and  C_5 
REMARK    3  A    between atoms: C_4  and  N_16 
REMARK    4  A    between atoms: C_5  and  N_6 
REMARK       I    between atoms: N_6  and  C_7 
REMARK       I    between atoms: C_7  and  N_9 
REMARK    5  A    between atoms: N_9  and  C_10 
ROOT
HETATM    1  N   UNL     1     -43.333 -50.317  12.365  1.00  0.00    -0.341 N 
HETATM    2  C   UNL     1     -42.961 -48.992  12.474  1.00  0.00     0.322 C 
HETATM    3  O   UNL     1     -42.974 -48.432  13.560  1.00  0.00    -0.247 OA
HETATM    4  N   UNL     1     -42.585 -48.437  11.276  1.00  0.00    -0.289 N 
HETATM    5  H   UNL     1     -43.245 -50.775  11.475  1.00  0.00     0.164 HD
HETATM    6  H   UNL     1     -42.207 -49.033  10.562  1.00  0.00     0.172 HD
ENDROOT
BRANCH   1   7
HETATM    7  C   UNL     1     -43.498 -51.063  13.602  1.00  0.00     0.160 C 
BRANCH   7   8
HETATM    8  C   UNL     1     -44.667 -52.103  13.740  1.00  0.00     0.244 C 
BRANCH   8   9
HETATM    9  C   UNL     1     -46.030 -51.335  13.469  1.00  0.00     0.012 C 
HETATM   10  C   UNL     1     -46.794 -51.846  12.237  1.00  0.00     0.012 C 
HETATM   11  C   UNL     1     -46.980 -51.320  14.678  1.00  0.00     0.012 C 
ENDBRANCH   8   9
BRANCH   8  12
HETATM   12  N   UNL     1     -44.703 -52.812  15.064  1.00  0.00     0.099 N 
HETATM   13  C   UNL     1     -43.389 -53.239  15.598  1.00  0.00     0.299 C 
HETATM   14  C   UNL     1     -42.746 -54.360  14.763  1.00  0.00     0.198 C 
HETATM   15  O   UNL     1     -43.566 -55.533  14.799  1.00  0.00    -0.388 OA
HETATM   16  C   UNL     1     -44.896 -55.251  14.341  1.00  0.00     0.198 C 
HETATM   17  C   UNL     1     -45.531 -54.050  15.071  1.00  0.00     0.299 C 
ENDBRANCH   8  12
ENDBRANCH   7   8
ENDBRANCH   1   7
BRANCH   4  18
HETATM   18  C   UNL     1     -42.232 -47.112  11.133  1.00  0.00     0.152 A 
HETATM   19  N   UNL     1     -43.118 -46.142  11.190  1.00  0.00    -0.346 N 
HETATM   20  C   UNL     1     -42.477 -44.926  10.996  1.00  0.00     0.097 A 
ATOM     21  HN  UNL     1     -44.117 -46.265  11.352  1.00  0.00     0.167 HD
HETATM   22  C   UNL     1     -41.109 -44.993  10.843  1.00  0.00     0.070 A 
HETATM   23  S   UNL     1     -40.601 -46.616  10.979  1.00  0.00    -0.064 SA
ENDBRANCH   4  18
TORSDOF 5
ENDMDL
MODEL 7
REMARK VINA RESULT:      -5.2      2.931      5.978
REMARK  5 active torsions:
REMARK  status: ('A' for Active; 'I' for Inactive)
REMARK    1  A    between atoms: C_2  and  C_4 
REMARK    2  A    between atoms: C_4  and  C_5 
REMARK    3  A    between atoms: C_4  and  N_16 
REMARK    4  A    between atoms: C_5  and  N_6 
REMARK       I    between atoms: N_6  and  C_7 
REMARK       I    between atoms: C_7  and  N_9 
REMARK    5  A    between atoms: N_9  and  C_10 
ROOT
HETATM    1  N   UNL     1     -41.038 -49.862  11.500  1.00  0.00    -0.341 N 
HETATM    2  C   UNL     1     -41.959 -48.845  11.346  1.00  0.00     0.322 C 
HETATM    3  O   UNL     1     -42.485 -48.333  12.321  1.00  0.00    -0.247 OA
HETATM    4  N   UNL     1     -42.171 -48.505  10.032  1.00  0.00    -0.289 N 
HETATM    5  H   UNL     1     -40.565 -50.218  10.688  1.00  0.00     0.164 HD
HETATM    6  H   UNL     1     -41.434 -48.654   9.367  1.00  0.00     0.172 HD
ENDROOT
BRANCH   1   7
HETATM    7  C   UNL     1     -40.553 -50.118  12.847  1.00  0.00     0.160 C 
BRANCH   7   8
HETATM    8  C   UNL     1     -40.593 -51.574  13.431  1.00  0.00     0.244 C 
BRANCH   8   9
HETATM    9  C   UNL     1     -39.102 -51.996  13.780  1.00  0.00     0.012 C 
HETATM   10  C   UNL     1     -38.039 -51.063  13.180  1.00  0.00     0.012 C 
HETATM   11  C   UNL     1     -38.842 -52.152  15.287  1.00  0.00     0.012 C 
ENDBRANCH   8   9
BRANCH   8  12
HETATM   12  N   UNL     1     -41.239 -52.582  12.522  1.00  0.00     0.099 N 
HETATM   13  C   UNL     1     -42.711 -52.477  12.392  1.00  0.00     0.299 C 
HETATM   14  C   UNL     1     -43.448 -52.846  13.691  1.00  0.00     0.198 C 
HETATM   15  O   UNL     1     -43.196 -54.214  14.030  1.00  0.00    -0.388 OA
HETATM   16  C   UNL     1     -41.789 -54.470  14.148  1.00  0.00     0.198 C 
HETATM   17  C   UNL     1     -40.997 -53.999  12.911  1.00  0.00     0.299 C 
ENDBRANCH   8  12
ENDBRANCH   7   8
ENDBRANCH   1   7
BRANCH   4  18
HETATM   18  C   UNL     1     -43.092 -47.559   9.635  1.00  0.00     0.152 A 
HETATM   19  N   UNL     1     -44.326 -47.875   9.314  1.00  0.00    -0.346 N 
HETATM   20  C   UNL     1     -45.011 -46.727   8.940  1.00  0.00     0.097 A 
ATOM     21  HN  UNL     1     -44.719 -48.816   9.337  1.00  0.00     0.167 HD
HETATM   22  C   UNL     1     -44.294 -45.552   9.031  1.00  0.00     0.070 A 
HETATM   23  S   UNL     1     -42.732 -45.885   9.632  1.00  0.00    -0.064 SA
ENDBRANCH   4  18
TORSDOF 5
ENDMDL
MODEL 8
REMARK VINA RESULT:      -5.2      2.927      6.784
REMARK  5 active torsions:
REMARK  status: ('A' for Active; 'I' for Inactive)
REMARK    1  A    between atoms: C_2  and  C_4 
REMARK    2  A    between atoms: C_4  and  C_5 
REMARK    3  A    between atoms: C_4  and  N_16 
REMARK    4  A    between atoms: C_5  and  N_6 
REMARK       I    between atoms: N_6  and  C_7 
REMARK       I    between atoms: C_7  and  N_9 
REMARK    5  A    between atoms: N_9  and  C_10 
ROOT
HETATM    1  N   UNL     1     -42.635 -51.149  12.151  1.00  0.00    -0.341 N 
HETATM    2  C   UNL     1     -42.340 -49.803  12.229  1.00  0.00     0.322 C 
HETATM    3  O   UNL     1     -42.564 -49.177  13.253  1.00  0.00    -0.247 OA
HETATM    4  N   UNL     1     -41.781 -49.307  11.077  1.00  0.00    -0.289 N 
HETATM    5  H   UNL     1     -42.375 -51.659  11.325  1.00  0.00     0.164 HD
HETATM    6  H   UNL     1     -41.260 -49.927  10.483  1.00  0.00     0.172 HD
ENDROOT
BRANCH   1   7
HETATM    7  C   UNL     1     -42.985 -51.823  13.392  1.00  0.00     0.160 C 
BRANCH   7   8
HETATM    8  C   UNL     1     -42.332 -53.207  13.743  1.00  0.00     0.244 C 
BRANCH   8   9
HETATM    9  C   UNL     1     -43.506 -54.223  14.079  1.00  0.00     0.012 C 
HETATM   10  C   UNL     1     -44.126 -54.015  15.470  1.00  0.00     0.012 C 
HETATM   11  C   UNL     1     -44.627 -54.240  13.026  1.00  0.00     0.012 C 
ENDBRANCH   8   9
BRANCH   8  12
HETATM   12  N   UNL     1     -41.336 -53.146  14.867  1.00  0.00     0.099 N 
HETATM   13  C   UNL     1     -40.384 -52.012  14.818  1.00  0.00     0.299 C 
HETATM   14  C   UNL     1     -39.392 -52.121  13.647  1.00  0.00     0.198 C 
HETATM   15  O   UNL     1     -38.579 -53.289  13.796  1.00  0.00    -0.388 OA
HETATM   16  C   UNL     1     -39.383 -54.473  13.899  1.00  0.00     0.198 C 
HETATM   17  C   UNL     1     -40.473 -54.355  14.983  1.00  0.00     0.299 C 
ENDBRANCH   8  12
ENDBRANCH   7   8
ENDBRANCH   1   7
BRANCH   4  18
HETATM   18  C   UNL     1     -41.460 -47.977  10.903  1.00  0.00     0.152 A 
HETATM   19  N   UNL     1     -42.283 -47.129  10.328  1.00  0.00    -0.346 N 
HETATM   20  C   UNL     1     -41.687 -45.876  10.277  1.00  0.00     0.097 A 
ATOM     21  HN  UNL     1     -43.213 -47.355   9.976  1.00  0.00     0.167 HD
HETATM   22  C   UNL     1     -40.439 -45.788  10.858  1.00  0.00     0.070 A 
HETATM   23  S   UNL     1     -40.012 -47.303  11.517  1.00  0.00    -0.064 SA
ENDBRANCH   4  18
TORSDOF 5
ENDMDL
MODEL 9
REMARK VINA RESULT:      -5.0      3.376      6.692
REMARK  5 active torsions:
REMARK  status: ('A' for Active; 'I' for Inactive)
REMARK    1  A    between atoms: C_2  and  C_4 
REMARK    2  A    between atoms: C_4  and  C_5 
REMARK    3  A    between atoms: C_4  and  N_16 
REMARK    4  A    between atoms: C_5  and  N_6 
REMARK       I    between atoms: N_6  and  C_7 
REMARK       I    between atoms: C_7  and  N_9 
REMARK    5  A    between atoms: N_9  and  C_10 
ROOT
HETATM    1  N   UNL     1     -40.727 -48.408  10.654  1.00  0.00    -0.341 N 
HETATM    2  C   UNL     1     -41.341 -47.268  11.131  1.00  0.00     0.322 C 
HETATM    3  O   UNL     1     -42.162 -47.336  12.033  1.00  0.00    -0.247 OA
HETATM    4  N   UNL     1     -40.916 -46.123  10.502  1.00  0.00    -0.289 N 
HETATM    5  H   UNL     1     -40.003 -48.319   9.963  1.00  0.00     0.164 HD
HETATM    6  H   UNL     1     -39.992 -46.099  10.110  1.00  0.00     0.172 HD
ENDROOT
BRANCH   1   7
HETATM    7  C   UNL     1     -40.912 -49.630  11.421  1.00  0.00     0.160 C 
BRANCH   7   8
HETATM    8  C   UNL     1     -39.864 -50.032  12.519  1.00  0.00     0.244 C 
BRANCH   8   9
HETATM    9  C   UNL     1     -38.510 -49.266  12.198  1.00  0.00     0.012 C 
HETATM   10  C   UNL     1     -37.817 -48.687  13.442  1.00  0.00     0.012 C 
HETATM   11  C   UNL     1     -37.498 -50.109  11.405  1.00  0.00     0.012 C 
ENDBRANCH   8   9
BRANCH   8  12
HETATM   12  N   UNL     1     -39.631 -51.512  12.631  1.00  0.00     0.099 N 
HETATM   13  C   UNL     1     -40.791 -52.371  12.296  1.00  0.00     0.299 C 
HETATM   14  C   UNL     1     -41.933 -52.248  13.319  1.00  0.00     0.198 C 
HETATM   15  O   UNL     1     -41.493 -52.695  14.606  1.00  0.00    -0.388 OA
HETATM   16  C   UNL     1     -40.335 -51.968  15.041  1.00  0.00     0.198 C 
HETATM   17  C   UNL     1     -39.209 -51.963  13.986  1.00  0.00     0.299 C 
ENDBRANCH   8  12
ENDBRANCH   7   8
ENDBRANCH   1   7
BRANCH   4  18
HETATM   18  C   UNL     1     -41.435 -44.874  10.771  1.00  0.00     0.152 A 
HETATM   19  N   UNL     1     -42.728 -44.645  10.796  1.00  0.00    -0.346 N 
HETATM   20  C   UNL     1     -42.950 -43.302  11.073  1.00  0.00     0.097 A 
ATOM     21  HN  UNL     1     -43.455 -45.343  10.637  1.00  0.00     0.167 HD
HETATM   22  C   UNL     1     -41.818 -42.549  11.301  1.00  0.00     0.070 A 
HETATM   23  S   UNL     1     -40.440 -43.549  11.200  1.00  0.00    -0.064 SA
ENDBRANCH   4  18
TORSDOF 5
ENDMDL
