MODEL 1
REMARK VINA RESULT:      -6.0      0.000      0.000
REMARK  3 active torsions:
REMARK  status: ('A' for Active; 'I' for Inactive)
REMARK    1  A    between atoms: C_5  and  N_8 
REMARK       I    between atoms: N_8  and  C_9 
REMARK    2  A    between atoms: C_9  and  C_11 
REMARK    3  A    between atoms: C_11  and  N_12 
ROOT
HETATM    1  N   UNL     1     -42.958 -47.812  10.576  1.00  0.00    -0.277 N 
HETATM    2  C   UNL     1     -42.657 -46.679   9.884  1.00  0.00     0.203 A 
HETATM    3  N   UNL     1     -43.727 -46.251   9.252  1.00  0.00    -0.327 N 
ATOM      4  HN  UNL     1     -43.825 -45.432   8.653  1.00  0.00     0.169 HD
HETATM    5  C   UNL     1     -44.678 -47.177   9.596  1.00  0.00     0.204 A 
HETATM    6  C   UNL     1     -46.038 -47.092   9.148  1.00  0.00     0.138 C 
HETATM    7  N   UNL     1     -47.144 -47.025   8.791  1.00  0.00    -0.188 NA
HETATM    8  N   UNL     1     -44.248 -48.165  10.396  1.00  0.00    -0.273 N 
ATOM      9  HN  UNL     1     -44.758 -48.966  10.767  1.00  0.00     0.189 HD
ENDROOT
BRANCH   1  10
HETATM   10  C   UNL     1     -42.080 -48.616  11.392  1.00  0.00     0.252 C 
BRANCH  10  11
HETATM   11  C   UNL     1     -42.804 -49.135  12.611  1.00  0.00     0.237 C 
HETATM   12  N   UNL     1     -43.024 -50.498  12.627  1.00  0.00    -0.355 N 
HETATM   13  H   UNL     1     -42.901 -51.022  11.768  1.00  0.00     0.162 HD
HETATM   14  O   UNL     1     -43.147 -48.389  13.526  1.00  0.00    -0.272 OA
BRANCH  12  15
HETATM   15  C   UNL     1     -43.752 -51.145  13.717  1.00  0.00     0.084 C 
HETATM   16  C   UNL     1     -42.960 -52.343  14.250  1.00  0.00     0.025 C 
HETATM   17  C   UNL     1     -42.977 -53.538  13.296  1.00  0.00     0.006 C 
HETATM   18  C   UNL     1     -44.396 -53.956  12.889  1.00  0.00    -0.019 C 
HETATM   19  C   UNL     1     -45.131 -54.644  14.044  1.00  0.00     0.010 C 
HETATM   20  C   UNL     1     -45.183 -52.756  12.345  1.00  0.00     0.006 C 
HETATM   21  C   UNL     1     -45.169 -51.548  13.284  1.00  0.00     0.025 C 
ENDBRANCH  12  15
ENDBRANCH  10  11
ENDBRANCH   1  10
TORSDOF 3
ENDMDL
MODEL 2
REMARK VINA RESULT:      -5.8      2.098      2.848
REMARK  3 active torsions:
REMARK  status: ('A' for Active; 'I' for Inactive)
REMARK    1  A    between atoms: C_5  and  N_8 
REMARK       I    between atoms: N_8  and  C_9 
REMARK    2  A    between atoms: C_9  and  C_11 
REMARK    3  A    between atoms: C_11  and  N_12 
ROOT
HETATM    1  N   UNL     1     -41.140 -48.998  11.942  1.00  0.00    -0.277 N 
HETATM    2  C   UNL     1     -40.331 -47.972  11.559  1.00  0.00     0.203 A 
HETATM    3  N   UNL     1     -40.861 -47.353  10.529  1.00  0.00    -0.327 N 
ATOM      4  HN  UNL     1     -40.500 -46.549  10.016  1.00  0.00     0.169 HD
HETATM    5  C   UNL     1     -42.020 -48.053  10.312  1.00  0.00     0.204 A 
HETATM    6  C   UNL     1     -42.954 -47.704   9.281  1.00  0.00     0.138 C 
HETATM    7  N   UNL     1     -43.718 -47.422   8.449  1.00  0.00    -0.188 NA
HETATM    8  N   UNL     1     -42.227 -49.084  11.146  1.00  0.00    -0.273 N 
ATOM      9  HN  UNL     1     -42.997 -49.752  11.172  1.00  0.00     0.189 HD
ENDROOT
BRANCH   1  10
HETATM   10  C   UNL     1     -40.934 -49.941  13.015  1.00  0.00     0.252 C 
BRANCH  10  11
HETATM   11  C   UNL     1     -41.291 -51.342  12.575  1.00  0.00     0.237 C 
HETATM   12  N   UNL     1     -42.199 -51.996  13.382  1.00  0.00    -0.355 N 
HETATM   13  H   UNL     1     -42.398 -51.616  14.301  1.00  0.00     0.162 HD
HETATM   14  O   UNL     1     -40.815 -51.841  11.558  1.00  0.00    -0.272 OA
BRANCH  12  15
HETATM   15  C   UNL     1     -42.611 -53.373  13.115  1.00  0.00     0.084 C 
HETATM   16  C   UNL     1     -43.868 -53.393  12.239  1.00  0.00     0.025 C 
HETATM   17  C   UNL     1     -45.128 -52.980  13.000  1.00  0.00     0.006 C 
HETATM   18  C   UNL     1     -45.342 -53.790  14.285  1.00  0.00    -0.019 C 
HETATM   19  C   UNL     1     -45.786 -55.224  13.976  1.00  0.00     0.010 C 
HETATM   20  C   UNL     1     -44.085 -53.758  15.165  1.00  0.00     0.006 C 
HETATM   21  C   UNL     1     -42.812 -54.161  14.416  1.00  0.00     0.025 C 
ENDBRANCH  12  15
ENDBRANCH  10  11
ENDBRANCH   1  10
TORSDOF 3
ENDMDL
MODEL 3
REMARK VINA RESULT:      -5.7      1.679      2.103
REMARK  3 active torsions:
REMARK  status: ('A' for Active; 'I' for Inactive)
REMARK    1  A    between atoms: C_5  and  N_8 
REMARK       I    between atoms: N_8  and  C_9 
REMARK    2  A    between atoms: C_9  and  C_11 
REMARK    3  A    between atoms: C_11  and  N_12 
ROOT
HETATM    1  N   UNL     1     -41.260 -48.935  11.167  1.00  0.00    -0.277 N 
HETATM    2  C   UNL     1     -40.301 -47.969  11.198  1.00  0.00     0.203 A 
HETATM    3  N   UNL     1     -40.739 -46.893  10.585  1.00  0.00    -0.327 N 
ATOM      4  HN  UNL     1     -40.260 -46.005  10.440  1.00  0.00     0.169 HD
HETATM    5  C   UNL     1     -42.000 -47.258  10.187  1.00  0.00     0.204 A 
HETATM    6  C   UNL     1     -42.881 -46.366   9.490  1.00  0.00     0.138 C 
HETATM    7  N   UNL     1     -43.601 -45.643   8.930  1.00  0.00    -0.188 NA
HETATM    8  N   UNL     1     -42.358 -48.511  10.508  1.00  0.00    -0.273 N 
ATOM      9  HN  UNL     1     -43.226 -49.008  10.309  1.00  0.00     0.189 HD
ENDROOT
BRANCH   1  10
HETATM   10  C   UNL     1     -41.193 -50.273  11.707  1.00  0.00     0.252 C 
BRANCH  10  11
HETATM   11  C   UNL     1     -42.040 -50.393  12.952  1.00  0.00     0.237 C 
HETATM   12  N   UNL     1     -43.152 -51.201  12.828  1.00  0.00    -0.355 N 
HETATM   13  H   UNL     1     -43.454 -51.476  11.901  1.00  0.00     0.162 HD
HETATM   14  O   UNL     1     -41.737 -49.823  13.997  1.00  0.00    -0.272 OA
BRANCH  12  15
HETATM   15  C   UNL     1     -44.095 -51.382  13.930  1.00  0.00     0.084 C 
HETATM   16  C   UNL     1     -43.736 -52.633  14.739  1.00  0.00     0.025 C 
HETATM   17  C   UNL     1     -44.075 -53.931  14.006  1.00  0.00     0.006 C 
HETATM   18  C   UNL     1     -45.532 -53.985  13.529  1.00  0.00    -0.019 C 
HETATM   19  C   UNL     1     -46.498 -54.189  14.701  1.00  0.00     0.010 C 
HETATM   20  C   UNL     1     -45.885 -52.736  12.710  1.00  0.00     0.006 C 
HETATM   21  C   UNL     1     -45.544 -51.427  13.426  1.00  0.00     0.025 C 
ENDBRANCH  12  15
ENDBRANCH  10  11
ENDBRANCH   1  10
TORSDOF 3
ENDMDL
MODEL 4
REMARK VINA RESULT:      -5.5      3.149      4.685
REMARK  3 active torsions:
REMARK  status: ('A' for Active; 'I' for Inactive)
REMARK    1  A    between atoms: C_5  and  N_8 
REMARK       I    between atoms: N_8  and  C_9 
REMARK    2  A    between atoms: C_9  and  C_11 
REMARK    3  A    between atoms: C_11  and  N_12 
ROOT
HETATM    1  N   UNL     1     -40.655 -52.071  12.429  1.00  0.00    -0.277 N 
HETATM    2  C   UNL     1     -39.918 -51.292  13.268  1.00  0.00     0.203 A 
HETATM    3  N   UNL     1     -39.984 -50.039  12.877  1.00  0.00    -0.327 N 
ATOM      4  HN  UNL     1     -39.543 -49.219  13.294  1.00  0.00     0.169 HD
HETATM    5  C   UNL     1     -40.791 -50.104  11.770  1.00  0.00     0.204 A 
HETATM    6  C   UNL     1     -41.169 -48.943  11.018  1.00  0.00     0.138 C 
HETATM    7  N   UNL     1     -41.483 -48.002  10.408  1.00  0.00    -0.188 NA
HETATM    8  N   UNL     1     -41.215 -51.336  11.446  1.00  0.00    -0.273 N 
ATOM      9  HN  UNL     1     -41.802 -51.635  10.668  1.00  0.00     0.189 HD
ENDROOT
BRANCH   1  10
HETATM   10  C   UNL     1     -40.845 -53.501  12.481  1.00  0.00     0.252 C 
BRANCH  10  11
HETATM   11  C   UNL     1     -41.826 -53.874  13.567  1.00  0.00     0.237 C 
HETATM   12  N   UNL     1     -43.107 -53.392  13.390  1.00  0.00    -0.355 N 
HETATM   13  H   UNL     1     -43.264 -52.665  12.701  1.00  0.00     0.162 HD
HETATM   14  O   UNL     1     -41.498 -54.574  14.523  1.00  0.00    -0.272 OA
BRANCH  12  15
HETATM   15  C   UNL     1     -44.159 -53.628  14.377  1.00  0.00     0.084 C 
HETATM   16  C   UNL     1     -45.523 -53.734  13.687  1.00  0.00     0.025 C 
HETATM   17  C   UNL     1     -46.047 -52.384  13.196  1.00  0.00     0.006 C 
HETATM   18  C   UNL     1     -46.070 -51.317  14.297  1.00  0.00    -0.019 C 
HETATM   19  C   UNL     1     -47.190 -51.580  15.310  1.00  0.00     0.010 C 
HETATM   20  C   UNL     1     -44.699 -51.206  14.979  1.00  0.00     0.006 C 
HETATM   21  C   UNL     1     -44.157 -52.550  15.469  1.00  0.00     0.025 C 
ENDBRANCH  12  15
ENDBRANCH  10  11
ENDBRANCH   1  10
TORSDOF 3
ENDMDL
MODEL 5
REMARK VINA RESULT:      -5.5      2.508      4.073
REMARK  3 active torsions:
REMARK  status: ('A' for Active; 'I' for Inactive)
REMARK    1  A    between atoms: C_5  and  N_8 
REMARK       I    between atoms: N_8  and  C_9 
REMARK    2  A    between atoms: C_9  and  C_11 
REMARK    3  A    between atoms: C_11  and  N_12 
ROOT
HETATM    1  N   UNL     1     -41.336 -48.572  11.701  1.00  0.00    -0.277 N 
HETATM    2  C   UNL     1     -40.470 -47.614  11.270  1.00  0.00     0.203 A 
HETATM    3  N   UNL     1     -39.245 -48.089  11.282  1.00  0.00    -0.327 N 
ATOM      4  HN  UNL     1     -38.379 -47.620  11.017  1.00  0.00     0.169 HD
HETATM    5  C   UNL     1     -39.417 -49.371  11.738  1.00  0.00     0.204 A 
HETATM    6  C   UNL     1     -38.327 -50.292  11.886  1.00  0.00     0.138 C 
HETATM    7  N   UNL     1     -37.447 -51.045  12.003  1.00  0.00    -0.188 NA
HETATM    8  N   UNL     1     -40.684 -49.708  12.025  1.00  0.00    -0.273 N 
ATOM      9  HN  UNL     1     -41.053 -50.587  12.389  1.00  0.00     0.189 HD
ENDROOT
BRANCH   1  10
HETATM   10  C   UNL     1     -42.768 -48.473  11.858  1.00  0.00     0.252 C 
BRANCH  10  11
HETATM   11  C   UNL     1     -43.226 -49.218  13.089  1.00  0.00     0.237 C 
HETATM   12  N   UNL     1     -43.997 -50.337  12.843  1.00  0.00    -0.355 N 
HETATM   13  H   UNL     1     -44.386 -50.467  11.917  1.00  0.00     0.162 HD
HETATM   14  O   UNL     1     -42.909 -48.856  14.220  1.00  0.00    -0.272 OA
BRANCH  12  15
HETATM   15  C   UNL     1     -44.554 -51.138  13.932  1.00  0.00     0.084 C 
HETATM   16  C   UNL     1     -43.612 -52.296  14.278  1.00  0.00     0.025 C 
HETATM   17  C   UNL     1     -43.621 -53.404  13.224  1.00  0.00     0.006 C 
HETATM   18  C   UNL     1     -45.032 -53.919  12.912  1.00  0.00    -0.019 C 
HETATM   19  C   UNL     1     -45.586 -54.767  14.061  1.00  0.00     0.010 C 
HETATM   20  C   UNL     1     -45.970 -52.758  12.555  1.00  0.00     0.006 C 
HETATM   21  C   UNL     1     -45.966 -51.636  13.596  1.00  0.00     0.025 C 
ENDBRANCH  12  15
ENDBRANCH  10  11
ENDBRANCH   1  10
TORSDOF 3
ENDMDL
MODEL 6
REMARK VINA RESULT:      -5.5      3.767      5.158
REMARK  3 active torsions:
REMARK  status: ('A' for Active; 'I' for Inactive)
REMARK    1  A    between atoms: C_5  and  N_8 
REMARK       I    between atoms: N_8  and  C_9 
REMARK    2  A    between atoms: C_9  and  C_11 
REMARK    3  A    between atoms: C_11  and  N_12 
ROOT
HETATM    1  N   UNL     1     -42.816 -47.316   9.979  1.00  0.00    -0.277 N 
HETATM    2  C   UNL     1     -42.965 -45.994   9.690  1.00  0.00     0.203 A 
HETATM    3  N   UNL     1     -44.205 -45.760   9.324  1.00  0.00    -0.327 N 
ATOM      4  HN  UNL     1     -44.629 -44.875   9.047  1.00  0.00     0.169 HD
HETATM    5  C   UNL     1     -44.789 -46.998   9.407  1.00  0.00     0.204 A 
HETATM    6  C   UNL     1     -46.177 -47.220   9.120  1.00  0.00     0.138 C 
HETATM    7  N   UNL     1     -47.303 -47.405   8.893  1.00  0.00    -0.188 NA
HETATM    8  N   UNL     1     -43.969 -47.990   9.789  1.00  0.00    -0.273 N 
ATOM      9  HN  UNL     1     -44.166 -48.984   9.906  1.00  0.00     0.189 HD
ENDROOT
BRANCH   1  10
HETATM   10  C   UNL     1     -41.620 -48.005  10.404  1.00  0.00     0.252 C 
BRANCH  10  11
HETATM   11  C   UNL     1     -41.594 -48.160  11.906  1.00  0.00     0.237 C 
HETATM   12  N   UNL     1     -40.342 -48.092  12.481  1.00  0.00    -0.355 N 
HETATM   13  H   UNL     1     -39.526 -48.166  11.884  1.00  0.00     0.162 HD
HETATM   14  O   UNL     1     -42.625 -48.313  12.558  1.00  0.00    -0.272 OA
BRANCH  12  15
HETATM   15  C   UNL     1     -40.147 -48.269  13.919  1.00  0.00     0.084 C 
HETATM   16  C   UNL     1     -39.758 -46.938  14.572  1.00  0.00     0.025 C 
HETATM   17  C   UNL     1     -38.323 -46.518  14.254  1.00  0.00     0.006 C 
HETATM   18  C   UNL     1     -37.295 -47.609  14.578  1.00  0.00    -0.019 C 
HETATM   19  C   UNL     1     -37.100 -47.765  16.090  1.00  0.00     0.010 C 
HETATM   20  C   UNL     1     -37.682 -48.938  13.913  1.00  0.00     0.006 C 
HETATM   21  C   UNL     1     -39.119 -49.369  14.215  1.00  0.00     0.025 C 
ENDBRANCH  12  15
ENDBRANCH  10  11
ENDBRANCH   1  10
TORSDOF 3
ENDMDL
MODEL 7
REMARK VINA RESULT:      -5.4      4.113      6.762
REMARK  3 active torsions:
REMARK  status: ('A' for Active; 'I' for Inactive)
REMARK    1  A    between atoms: C_5  and  N_8 
REMARK       I    between atoms: N_8  and  C_9 
REMARK    2  A    between atoms: C_9  and  C_11 
REMARK    3  A    between atoms: C_11  and  N_12 
ROOT
HETATM    1  N   UNL     1     -42.990 -47.809   9.780  1.00  0.00    -0.277 N 
HETATM    2  C   UNL     1     -42.946 -47.695   8.424  1.00  0.00     0.203 A 
HETATM    3  N   UNL     1     -44.166 -47.583   7.951  1.00  0.00    -0.327 N 
ATOM      4  HN  UNL     1     -44.464 -47.481   6.981  1.00  0.00     0.169 HD
HETATM    5  C   UNL     1     -44.941 -47.634   9.081  1.00  0.00     0.204 A 
HETATM    6  C   UNL     1     -46.370 -47.517   9.046  1.00  0.00     0.138 C 
HETATM    7  N   UNL     1     -47.529 -47.418   9.023  1.00  0.00    -0.188 NA
HETATM    8  N   UNL     1     -44.263 -47.790  10.229  1.00  0.00    -0.273 N 
ATOM      9  HN  UNL     1     -44.614 -47.871  11.183  1.00  0.00     0.189 HD
ENDROOT
BRANCH   1  10
HETATM   10  C   UNL     1     -41.886 -47.968  10.697  1.00  0.00     0.252 C 
BRANCH  10  11
HETATM   11  C   UNL     1     -42.077 -47.105  11.922  1.00  0.00     0.237 C 
HETATM   12  N   UNL     1     -41.729 -45.779  11.764  1.00  0.00    -0.355 N 
HETATM   13  H   UNL     1     -41.180 -45.511  10.955  1.00  0.00     0.162 HD
HETATM   14  O   UNL     1     -42.531 -47.560  12.969  1.00  0.00    -0.272 OA
BRANCH  12  15
HETATM   15  C   UNL     1     -41.813 -44.827  12.871  1.00  0.00     0.084 C 
HETATM   16  C   UNL     1     -42.395 -43.495  12.385  1.00  0.00     0.025 C 
HETATM   17  C   UNL     1     -41.408 -42.690  11.539  1.00  0.00     0.006 C 
HETATM   18  C   UNL     1     -40.058 -42.478  12.235  1.00  0.00    -0.019 C 
HETATM   19  C   UNL     1     -40.172 -41.466  13.381  1.00  0.00     0.010 C 
HETATM   20  C   UNL     1     -39.474 -43.815  12.711  1.00  0.00     0.006 C 
HETATM   21  C   UNL     1     -40.452 -44.637  13.553  1.00  0.00     0.025 C 
ENDBRANCH  12  15
ENDBRANCH  10  11
ENDBRANCH   1  10
TORSDOF 3
ENDMDL
MODEL 8
REMARK VINA RESULT:      -5.4      4.733      6.008
REMARK  3 active torsions:
REMARK  status: ('A' for Active; 'I' for Inactive)
REMARK    1  A    between atoms: C_5  and  N_8 
REMARK       I    between atoms: N_8  and  C_9 
REMARK    2  A    between atoms: C_9  and  C_11 
REMARK    3  A    between atoms: C_11  and  N_12 
ROOT
HETATM    1  N   UNL     1     -41.033 -53.044  12.862  1.00  0.00    -0.277 N 
HETATM    2  C   UNL     1     -41.223 -52.214  11.798  1.00  0.00     0.203 A 
HETATM    3  N   UNL     1     -40.339 -51.243  11.832  1.00  0.00    -0.327 N 
ATOM      4  HN  UNL     1     -40.221 -50.469  11.180  1.00  0.00     0.169 HD
HETATM    5  C   UNL     1     -39.613 -51.528  12.961  1.00  0.00     0.204 A 
HETATM    6  C   UNL     1     -38.498 -50.731  13.385  1.00  0.00     0.138 C 
HETATM    7  N   UNL     1     -37.590 -50.091  13.730  1.00  0.00    -0.188 NA
HETATM    8  N   UNL     1     -40.014 -52.616  13.636  1.00  0.00    -0.273 N 
ATOM      9  HN  UNL     1     -39.646 -53.013  14.501  1.00  0.00     0.189 HD
ENDROOT
BRANCH   1  10
HETATM   10  C   UNL     1     -41.786 -54.222  13.217  1.00  0.00     0.252 C 
BRANCH  10  11
HETATM   11  C   UNL     1     -42.445 -54.052  14.565  1.00  0.00     0.237 C 
HETATM   12  N   UNL     1     -43.778 -53.694  14.525  1.00  0.00    -0.355 N 
HETATM   13  H   UNL     1     -44.167 -53.360  13.651  1.00  0.00     0.162 HD
HETATM   14  O   UNL     1     -41.833 -54.242  15.613  1.00  0.00    -0.272 OA
BRANCH  12  15
HETATM   15  C   UNL     1     -44.543 -53.447  15.746  1.00  0.00     0.084 C 
HETATM   16  C   UNL     1     -45.979 -53.960  15.588  1.00  0.00     0.025 C 
HETATM   17  C   UNL     1     -46.826 -53.077  14.671  1.00  0.00     0.006 C 
HETATM   18  C   UNL     1     -46.813 -51.600  15.084  1.00  0.00    -0.019 C 
HETATM   19  C   UNL     1     -47.633 -51.367  16.357  1.00  0.00     0.010 C 
HETATM   20  C   UNL     1     -45.373 -51.088  15.231  1.00  0.00     0.006 C 
HETATM   21  C   UNL     1     -44.509 -51.964  16.139  1.00  0.00     0.025 C 
ENDBRANCH  12  15
ENDBRANCH  10  11
ENDBRANCH   1  10
TORSDOF 3
ENDMDL
MODEL 9
REMARK VINA RESULT:      -5.3      3.720      5.622
REMARK  3 active torsions:
REMARK  status: ('A' for Active; 'I' for Inactive)
REMARK    1  A    between atoms: C_5  and  N_8 
REMARK       I    between atoms: N_8  and  C_9 
REMARK    2  A    between atoms: C_9  and  C_11 
REMARK    3  A    between atoms: C_11  and  N_12 
ROOT
HETATM    1  N   UNL     1     -39.821 -50.066  12.256  1.00  0.00    -0.277 N 
HETATM    2  C   UNL     1     -38.695 -49.970  11.496  1.00  0.00     0.203 A 
HETATM    3  N   UNL     1     -37.658 -49.745  12.271  1.00  0.00    -0.327 N 
ATOM      4  HN  UNL     1     -36.681 -49.626  12.006  1.00  0.00     0.169 HD
HETATM    5  C   UNL     1     -38.213 -49.711  13.525  1.00  0.00     0.204 A 
HETATM    6  C   UNL     1     -37.432 -49.516  14.712  1.00  0.00     0.138 C 
HETATM    7  N   UNL     1     -36.802 -49.363  15.679  1.00  0.00    -0.188 NA
HETATM    8  N   UNL     1     -39.543 -49.886  13.564  1.00  0.00    -0.273 N 
ATOM      9  HN  UNL     1     -40.174 -49.885  14.366  1.00  0.00     0.189 HD
ENDROOT
BRANCH   1  10
HETATM   10  C   UNL     1     -41.177 -50.291  11.813  1.00  0.00     0.252 C 
BRANCH  10  11
HETATM   11  C   UNL     1     -41.783 -51.478  12.523  1.00  0.00     0.237 C 
HETATM   12  N   UNL     1     -43.160 -51.462  12.621  1.00  0.00    -0.355 N 
HETATM   13  H   UNL     1     -43.653 -50.599  12.427  1.00  0.00     0.162 HD
HETATM   14  O   UNL     1     -41.089 -52.395  12.959  1.00  0.00    -0.272 OA
BRANCH  12  15
HETATM   15  C   UNL     1     -43.892 -52.517  13.320  1.00  0.00     0.084 C 
HETATM   16  C   UNL     1     -45.252 -52.752  12.655  1.00  0.00     0.025 C 
HETATM   17  C   UNL     1     -46.252 -51.630  12.939  1.00  0.00     0.006 C 
HETATM   18  C   UNL     1     -46.415 -51.340  14.436  1.00  0.00    -0.019 C 
HETATM   19  C   UNL     1     -47.197 -52.453  15.141  1.00  0.00     0.010 C 
HETATM   20  C   UNL     1     -45.051 -51.095  15.096  1.00  0.00     0.006 C 
HETATM   21  C   UNL     1     -44.035 -52.204  14.815  1.00  0.00     0.025 C 
ENDBRANCH  12  15
ENDBRANCH  10  11
ENDBRANCH   1  10
TORSDOF 3
ENDMDL
