MODEL 1
REMARK VINA RESULT:      -5.7      0.000      0.000
REMARK  7 active torsions:
REMARK  status: ('A' for Active; 'I' for Inactive)
REMARK    1  A    between atoms: O_2  and  C_3 
REMARK    2  A    between atoms: C_3  and  C_4 
REMARK    3  A    between atoms: C_4  and  O_5 
REMARK    4  A    between atoms: O_5  and  C_6 
REMARK    5  A    between atoms: C_6  and  C_7 
REMARK       I    between atoms: C_7  and  N_9 
REMARK    6  A    between atoms: N_9  and  C_10 
REMARK    7  A    between atoms: C_13  and  N_17 
ROOT
HETATM    1  C   UNL     1     -42.363 -51.364  13.128  1.00  0.00     0.050 A 
HETATM    2  C   UNL     1     -43.178 -50.248  13.218  1.00  0.00     0.035 A 
HETATM    3  C   UNL     1     -42.918 -49.145  12.395  1.00  0.00     0.051 A 
HETATM    4  C   UNL     1     -41.897 -49.183  11.441  1.00  0.00     0.103 A 
HETATM    5  N   UNL     1     -41.143 -50.296  11.323  1.00  0.00    -0.350 N 
ATOM      6  HN  UNL     1     -40.414 -50.353  10.612  1.00  0.00     0.166 HD
HETATM    7  C   UNL     1     -41.367 -51.338  12.162  1.00  0.00     0.119 A 
ENDROOT
BRANCH   1   8
HETATM    8  N   UNL     1     -42.584 -52.446  13.999  1.00  0.00    -0.324 N 
HETATM    9  C   UNL     1     -43.355 -53.550  13.670  1.00  0.00     0.245 C 
HETATM   10  O   UNL     1     -43.833 -53.773  12.557  1.00  0.00    -0.271 OA
HETATM   11  H   UNL     1     -42.006 -52.511  14.827  1.00  0.00     0.169 HD
BRANCH   9  12
HETATM   12  C   UNL     1     -43.550 -54.527  14.824  1.00  0.00     0.270 C 
BRANCH  12  13
HETATM   13  O   UNL     1     -44.931 -54.861  14.887  1.00  0.00    -0.380 OA
BRANCH  13  14
HETATM   14  C   UNL     1     -45.678 -53.928  15.663  1.00  0.00     0.194 C 
BRANCH  14  15
HETATM   15  C   UNL     1     -46.745 -53.299  14.774  1.00  0.00     0.193 C 
BRANCH  15  16
HETATM   16  O   UNL     1     -46.392 -51.948  14.481  1.00  0.00    -0.394 OA
HETATM   17  C   UNL     1     -46.557 -51.662  13.096  1.00  0.00     0.201 C 
ENDBRANCH  15  16
ENDBRANCH  14  15
ENDBRANCH  13  14
ENDBRANCH  12  13
ENDBRANCH   9  12
ENDBRANCH   1   8
BRANCH   4  18
HETATM   18  N   UNL     1     -41.592 -48.089  10.660  1.00  0.00    -0.362 N 
HETATM   19  C   UNL     1     -40.552 -47.115  11.003  1.00  0.00     0.156 C 
HETATM   20  C   UNL     1     -41.184 -45.746  11.343  1.00  0.00     0.136 C 
HETATM   21  C   UNL     1     -40.104 -44.691  11.545  1.00  0.00     0.041 C 
HETATM   22  O   UNL     1     -42.039 -45.289  10.279  1.00  0.00    -0.378 OA
HETATM   23  C   UNL     1     -43.113 -46.223  10.055  1.00  0.00     0.136 C 
HETATM   24  C   UNL     1     -43.977 -45.645   8.940  1.00  0.00     0.041 C 
HETATM   25  C   UNL     1     -42.566 -47.611   9.664  1.00  0.00     0.156 C 
ENDBRANCH   4  18
TORSDOF 7
ENDMDL
MODEL 2
REMARK VINA RESULT:      -5.7      2.315      7.929
REMARK  7 active torsions:
REMARK  status: ('A' for Active; 'I' for Inactive)
REMARK    1  A    between atoms: O_2  and  C_3 
REMARK    2  A    between atoms: C_3  and  C_4 
REMARK    3  A    between atoms: C_4  and  O_5 
REMARK    4  A    between atoms: O_5  and  C_6 
REMARK    5  A    between atoms: C_6  and  C_7 
REMARK       I    between atoms: C_7  and  N_9 
REMARK    6  A    between atoms: N_9  and  C_10 
REMARK    7  A    between atoms: C_13  and  N_17 
ROOT
HETATM    1  C   UNL     1     -40.719 -49.131  11.380  1.00  0.00     0.050 A 
HETATM    2  C   UNL     1     -41.922 -49.584  11.895  1.00  0.00     0.035 A 
HETATM    3  C   UNL     1     -42.000 -50.889  12.396  1.00  0.00     0.051 A 
HETATM    4  C   UNL     1     -40.870 -51.711  12.447  1.00  0.00     0.103 A 
HETATM    5  N   UNL     1     -39.690 -51.241  11.992  1.00  0.00    -0.350 N 
ATOM      6  HN  UNL     1     -38.849 -51.815  12.049  1.00  0.00     0.166 HD
HETATM    7  C   UNL     1     -39.636 -49.994  11.458  1.00  0.00     0.119 A 
ENDROOT
BRANCH   1   8
HETATM    8  N   UNL     1     -40.656 -47.842  10.819  1.00  0.00    -0.324 N 
HETATM    9  C   UNL     1     -40.376 -46.699  11.551  1.00  0.00     0.245 C 
HETATM   10  O   UNL     1     -40.037 -46.683  12.734  1.00  0.00    -0.271 OA
HETATM   11  H   UNL     1     -40.628 -47.768   9.810  1.00  0.00     0.169 HD
BRANCH   9  12
HETATM   12  C   UNL     1     -40.492 -45.411  10.744  1.00  0.00     0.270 C 
BRANCH  12  13
HETATM   13  O   UNL     1     -41.465 -45.616   9.728  1.00  0.00    -0.380 OA
BRANCH  13  14
HETATM   14  C   UNL     1     -42.795 -45.451  10.213  1.00  0.00     0.194 C 
BRANCH  14  15
HETATM   15  C   UNL     1     -43.741 -46.250   9.322  1.00  0.00     0.193 C 
BRANCH  15  16
HETATM   16  O   UNL     1     -43.152 -47.509   9.001  1.00  0.00    -0.394 OA
HETATM   17  C   UNL     1     -43.476 -47.903   7.672  1.00  0.00     0.201 C 
ENDBRANCH  15  16
ENDBRANCH  14  15
ENDBRANCH  13  14
ENDBRANCH  12  13
ENDBRANCH   9  12
ENDBRANCH   1   8
BRANCH   4  18
HETATM   18  N   UNL     1     -40.940 -53.015  12.886  1.00  0.00    -0.362 N 
HETATM   19  C   UNL     1     -42.198 -53.752  13.039  1.00  0.00     0.156 C 
HETATM   20  C   UNL     1     -42.483 -54.031  14.533  1.00  0.00     0.136 C 
HETATM   21  C   UNL     1     -43.702 -54.930  14.688  1.00  0.00     0.041 C 
HETATM   22  O   UNL     1     -41.372 -54.699  15.159  1.00  0.00    -0.378 OA
HETATM   23  C   UNL     1     -40.184 -53.887  15.084  1.00  0.00     0.136 C 
HETATM   24  C   UNL     1     -39.076 -54.658  15.792  1.00  0.00     0.041 C 
HETATM   25  C   UNL     1     -39.802 -53.600  13.617  1.00  0.00     0.156 C 
ENDBRANCH   4  18
TORSDOF 7
ENDMDL
MODEL 3
REMARK VINA RESULT:      -5.5      1.800      2.234
REMARK  7 active torsions:
REMARK  status: ('A' for Active; 'I' for Inactive)
REMARK    1  A    between atoms: O_2  and  C_3 
REMARK    2  A    between atoms: C_3  and  C_4 
REMARK    3  A    between atoms: C_4  and  O_5 
REMARK    4  A    between atoms: O_5  and  C_6 
REMARK    5  A    between atoms: C_6  and  C_7 
REMARK       I    between atoms: C_7  and  N_9 
REMARK    6  A    between atoms: N_9  and  C_10 
REMARK    7  A    between atoms: C_13  and  N_17 
ROOT
HETATM    1  C   UNL     1     -41.169 -50.792  13.433  1.00  0.00     0.050 A 
HETATM    2  C   UNL     1     -40.427 -49.659  13.723  1.00  0.00     0.035 A 
HETATM    3  C   UNL     1     -40.428 -48.593  12.815  1.00  0.00     0.051 A 
HETATM    4  C   UNL     1     -41.219 -48.628  11.663  1.00  0.00     0.103 A 
HETATM    5  N   UNL     1     -41.981 -49.715  11.416  1.00  0.00    -0.350 N 
ATOM      6  HN  UNL     1     -42.587 -49.745  10.597  1.00  0.00     0.166 HD
HETATM    7  C   UNL     1     -41.931 -50.765  12.274  1.00  0.00     0.119 A 
ENDROOT
BRANCH   1   8
HETATM    8  N   UNL     1     -41.119 -51.889  14.313  1.00  0.00    -0.324 N 
HETATM    9  C   UNL     1     -40.277 -52.976  14.137  1.00  0.00     0.245 C 
HETATM   10  O   UNL     1     -39.403 -53.060  13.275  1.00  0.00    -0.271 OA
HETATM   11  H   UNL     1     -41.579 -51.795  15.210  1.00  0.00     0.169 HD
BRANCH   9  12
HETATM   12  C   UNL     1     -40.499 -54.093  15.151  1.00  0.00     0.270 C 
BRANCH  12  13
HETATM   13  O   UNL     1     -41.557 -54.914  14.675  1.00  0.00    -0.380 OA
BRANCH  13  14
HETATM   14  C   UNL     1     -42.688 -54.896  15.543  1.00  0.00     0.194 C 
BRANCH  14  15
HETATM   15  C   UNL     1     -43.939 -54.648  14.708  1.00  0.00     0.193 C 
BRANCH  15  16
HETATM   16  O   UNL     1     -43.773 -53.464  13.929  1.00  0.00    -0.394 OA
HETATM   17  C   UNL     1     -44.226 -53.659  12.595  1.00  0.00     0.201 C 
ENDBRANCH  15  16
ENDBRANCH  14  15
ENDBRANCH  13  14
ENDBRANCH  12  13
ENDBRANCH   9  12
ENDBRANCH   1   8
BRANCH   4  18
HETATM   18  N   UNL     1     -41.191 -47.613  10.732  1.00  0.00    -0.362 N 
HETATM   19  C   UNL     1     -40.346 -46.422  10.858  1.00  0.00     0.156 C 
HETATM   20  C   UNL     1     -41.214 -45.164  11.089  1.00  0.00     0.136 C 
HETATM   21  C   UNL     1     -40.356 -43.906  11.062  1.00  0.00     0.041 C 
HETATM   22  O   UNL     1     -42.213 -45.025  10.061  1.00  0.00    -0.378 OA
HETATM   23  C   UNL     1     -43.091 -46.168  10.051  1.00  0.00     0.136 C 
HETATM   24  C   UNL     1     -44.125 -45.921   8.959  1.00  0.00     0.041 C 
HETATM   25  C   UNL     1     -42.305 -47.467   9.779  1.00  0.00     0.156 C 
ENDBRANCH   4  18
TORSDOF 7
ENDMDL
MODEL 4
REMARK VINA RESULT:      -5.2      1.991      8.175
REMARK  7 active torsions:
REMARK  status: ('A' for Active; 'I' for Inactive)
REMARK    1  A    between atoms: O_2  and  C_3 
REMARK    2  A    between atoms: C_3  and  C_4 
REMARK    3  A    between atoms: C_4  and  O_5 
REMARK    4  A    between atoms: O_5  and  C_6 
REMARK    5  A    between atoms: C_6  and  C_7 
REMARK       I    between atoms: C_7  and  N_9 
REMARK    6  A    between atoms: N_9  and  C_10 
REMARK    7  A    between atoms: C_13  and  N_17 
ROOT
HETATM    1  C   UNL     1     -41.176 -48.742  11.119  1.00  0.00     0.050 A 
HETATM    2  C   UNL     1     -42.295 -48.879  11.923  1.00  0.00     0.035 A 
HETATM    3  C   UNL     1     -42.629 -50.147  12.414  1.00  0.00     0.051 A 
HETATM    4  C   UNL     1     -41.815 -51.255  12.163  1.00  0.00     0.103 A 
HETATM    5  N   UNL     1     -40.697 -51.101  11.423  1.00  0.00    -0.350 N 
ATOM      6  HN  UNL     1     -40.075 -51.891  11.256  1.00  0.00     0.166 HD
HETATM    7  C   UNL     1     -40.411 -49.879  10.906  1.00  0.00     0.119 A 
ENDROOT
BRANCH   1   8
HETATM    8  N   UNL     1     -40.875 -47.480  10.573  1.00  0.00    -0.324 N 
HETATM    9  C   UNL     1     -40.127 -46.517  11.233  1.00  0.00     0.245 C 
HETATM   10  O   UNL     1     -39.545 -46.686  12.304  1.00  0.00    -0.271 OA
HETATM   11  H   UNL     1     -41.051 -47.339   9.587  1.00  0.00     0.169 HD
BRANCH   9  12
HETATM   12  C   UNL     1     -40.048 -45.188  10.490  1.00  0.00     0.270 C 
BRANCH  12  13
HETATM   13  O   UNL     1     -41.359 -44.642  10.426  1.00  0.00    -0.380 OA
BRANCH  13  14
HETATM   14  C   UNL     1     -41.501 -43.482  11.241  1.00  0.00     0.194 C 
BRANCH  14  15
HETATM   15  C   UNL     1     -42.417 -43.819  12.413  1.00  0.00     0.193 C 
BRANCH  15  16
HETATM   16  O   UNL     1     -43.273 -42.712  12.690  1.00  0.00    -0.394 OA
HETATM   17  C   UNL     1     -43.479 -41.917  11.528  1.00  0.00     0.201 C 
ENDBRANCH  15  16
ENDBRANCH  14  15
ENDBRANCH  13  14
ENDBRANCH  12  13
ENDBRANCH   9  12
ENDBRANCH   1   8
BRANCH   4  18
HETATM   18  N   UNL     1     -42.157 -52.519  12.592  1.00  0.00    -0.362 N 
HETATM   19  C   UNL     1     -43.518 -53.058  12.522  1.00  0.00     0.156 C 
HETATM   20  C   UNL     1     -44.102 -53.241  13.941  1.00  0.00     0.136 C 
HETATM   21  C   UNL     1     -45.451 -53.946  13.880  1.00  0.00     0.041 C 
HETATM   22  O   UNL     1     -43.233 -54.043  14.762  1.00  0.00    -0.378 OA
HETATM   23  C   UNL     1     -41.942 -53.416  14.897  1.00  0.00     0.136 C 
HETATM   24  C   UNL     1     -41.107 -54.316  15.800  1.00  0.00     0.041 C 
HETATM   25  C   UNL     1     -41.268 -53.239  13.521  1.00  0.00     0.156 C 
ENDBRANCH   4  18
TORSDOF 7
ENDMDL
MODEL 5
REMARK VINA RESULT:      -5.2      2.091      8.171
REMARK  7 active torsions:
REMARK  status: ('A' for Active; 'I' for Inactive)
REMARK    1  A    between atoms: O_2  and  C_3 
REMARK    2  A    between atoms: C_3  and  C_4 
REMARK    3  A    between atoms: C_4  and  O_5 
REMARK    4  A    between atoms: O_5  and  C_6 
REMARK    5  A    between atoms: C_6  and  C_7 
REMARK       I    between atoms: C_7  and  N_9 
REMARK    6  A    between atoms: N_9  and  C_10 
REMARK    7  A    between atoms: C_13  and  N_17 
ROOT
HETATM    1  C   UNL     1     -41.780 -48.734  11.648  1.00  0.00     0.050 A 
HETATM    2  C   UNL     1     -42.667 -49.211  12.598  1.00  0.00     0.035 A 
HETATM    3  C   UNL     1     -42.666 -50.577  12.906  1.00  0.00     0.051 A 
HETATM    4  C   UNL     1     -41.740 -51.447  12.323  1.00  0.00     0.103 A 
HETATM    5  N   UNL     1     -40.843 -50.962  11.439  1.00  0.00    -0.350 N 
ATOM      6  HN  UNL     1     -40.141 -51.575  11.026  1.00  0.00     0.166 HD
HETATM    7  C   UNL     1     -40.888 -49.647  11.106  1.00  0.00     0.119 A 
ENDROOT
BRANCH   1   8
HETATM    8  N   UNL     1     -41.823 -47.373  11.292  1.00  0.00    -0.324 N 
HETATM    9  C   UNL     1     -42.568 -46.880  10.232  1.00  0.00     0.245 C 
HETATM   10  O   UNL     1     -43.362 -47.539   9.560  1.00  0.00    -0.271 OA
HETATM   11  H   UNL     1     -41.445 -46.702  11.949  1.00  0.00     0.169 HD
BRANCH   9  12
HETATM   12  C   UNL     1     -42.350 -45.395   9.969  1.00  0.00     0.270 C 
BRANCH  12  13
HETATM   13  O   UNL     1     -40.972 -45.111  10.170  1.00  0.00    -0.380 OA
BRANCH  13  14
HETATM   14  C   UNL     1     -40.770 -43.985  11.020  1.00  0.00     0.194 C 
BRANCH  14  15
HETATM   15  C   UNL     1     -39.623 -44.295  11.975  1.00  0.00     0.193 C 
BRANCH  15  16
HETATM   16  O   UNL     1     -39.578 -45.697  12.237  1.00  0.00    -0.394 OA
HETATM   17  C   UNL     1     -39.500 -45.957  13.634  1.00  0.00     0.201 C 
ENDBRANCH  15  16
ENDBRANCH  14  15
ENDBRANCH  13  14
ENDBRANCH  12  13
ENDBRANCH   9  12
ENDBRANCH   1   8
BRANCH   4  18
HETATM   18  N   UNL     1     -41.759 -52.802  12.572  1.00  0.00    -0.362 N 
HETATM   19  C   UNL     1     -42.988 -53.563  12.819  1.00  0.00     0.156 C 
HETATM   20  C   UNL     1     -43.033 -54.059  14.281  1.00  0.00     0.136 C 
HETATM   21  C   UNL     1     -44.226 -54.981  14.500  1.00  0.00     0.041 C 
HETATM   22  O   UNL     1     -41.847 -54.804  14.615  1.00  0.00    -0.378 OA
HETATM   23  C   UNL     1     -40.673 -53.980  14.468  1.00  0.00     0.136 C 
HETATM   24  C   UNL     1     -39.479 -54.838  14.868  1.00  0.00     0.041 C 
HETATM   25  C   UNL     1     -40.529 -53.478  13.017  1.00  0.00     0.156 C 
ENDBRANCH   4  18
TORSDOF 7
ENDMDL
MODEL 6
REMARK VINA RESULT:      -5.0      2.381      8.178
REMARK  7 active torsions:
REMARK  status: ('A' for Active; 'I' for Inactive)
REMARK    1  A    between atoms: O_2  and  C_3 
REMARK    2  A    between atoms: C_3  and  C_4 
REMARK    3  A    between atoms: C_4  and  O_5 
REMARK    4  A    between atoms: O_5  and  C_6 
REMARK    5  A    between atoms: C_6  and  C_7 
REMARK       I    between atoms: C_7  and  N_9 
REMARK    6  A    between atoms: N_9  and  C_10 
REMARK    7  A    between atoms: C_13  and  N_17 
ROOT
HETATM    1  C   UNL     1     -41.608 -47.658  12.712  1.00  0.00     0.050 A 
HETATM    2  C   UNL     1     -41.124 -48.446  13.743  1.00  0.00     0.035 A 
HETATM    3  C   UNL     1     -41.173 -49.840  13.616  1.00  0.00     0.051 A 
HETATM    4  C   UNL     1     -41.636 -50.441  12.442  1.00  0.00     0.103 A 
HETATM    5  N   UNL     1     -42.055 -49.663  11.421  1.00  0.00    -0.350 N 
ATOM      6  HN  UNL     1     -42.366 -50.083  10.546  1.00  0.00     0.166 HD
HETATM    7  C   UNL     1     -42.055 -48.315  11.575  1.00  0.00     0.119 A 
ENDROOT
BRANCH   1   8
HETATM    8  N   UNL     1     -41.618 -46.260  12.865  1.00  0.00    -0.324 N 
HETATM    9  C   UNL     1     -42.666 -45.558  13.440  1.00  0.00     0.245 C 
HETATM   10  O   UNL     1     -43.644 -46.069  13.986  1.00  0.00    -0.271 OA
HETATM   11  H   UNL     1     -40.748 -45.764  12.721  1.00  0.00     0.169 HD
BRANCH   9  12
HETATM   12  C   UNL     1     -42.498 -44.044  13.375  1.00  0.00     0.270 C 
BRANCH  12  13
HETATM   13  O   UNL     1     -42.749 -43.632  12.037  1.00  0.00    -0.380 OA
BRANCH  13  14
HETATM   14  C   UNL     1     -41.882 -42.578  11.624  1.00  0.00     0.194 C 
BRANCH  14  15
HETATM   15  C   UNL     1     -40.571 -43.188  11.140  1.00  0.00     0.193 C 
BRANCH  15  16
HETATM   16  O   UNL     1     -40.840 -44.341  10.344  1.00  0.00    -0.394 OA
HETATM   17  C   UNL     1     -39.681 -45.156  10.211  1.00  0.00     0.201 C 
ENDBRANCH  15  16
ENDBRANCH  14  15
ENDBRANCH  13  14
ENDBRANCH  12  13
ENDBRANCH   9  12
ENDBRANCH   1   8
BRANCH   4  18
HETATM   18  N   UNL     1     -41.742 -51.809  12.319  1.00  0.00    -0.362 N 
HETATM   19  C   UNL     1     -43.011 -52.535  12.420  1.00  0.00     0.156 C 
HETATM   20  C   UNL     1     -43.036 -53.407  13.697  1.00  0.00     0.136 C 
HETATM   21  C   UNL     1     -44.282 -54.282  13.726  1.00  0.00     0.041 C 
HETATM   22  O   UNL     1     -41.894 -54.282  13.752  1.00  0.00    -0.378 OA
HETATM   23  C   UNL     1     -40.671 -53.519  13.766  1.00  0.00     0.136 C 
HETATM   24  C   UNL     1     -39.526 -54.521  13.854  1.00  0.00     0.041 C 
HETATM   25  C   UNL     1     -40.547 -52.652  12.497  1.00  0.00     0.156 C 
ENDBRANCH   4  18
TORSDOF 7
ENDMDL
MODEL 7
REMARK VINA RESULT:      -4.8      3.076      8.195
REMARK  7 active torsions:
REMARK  status: ('A' for Active; 'I' for Inactive)
REMARK    1  A    between atoms: O_2  and  C_3 
REMARK    2  A    between atoms: C_3  and  C_4 
REMARK    3  A    between atoms: C_4  and  O_5 
REMARK    4  A    between atoms: O_5  and  C_6 
REMARK    5  A    between atoms: C_6  and  C_7 
REMARK       I    between atoms: C_7  and  N_9 
REMARK    6  A    between atoms: N_9  and  C_10 
REMARK    7  A    between atoms: C_13  and  N_17 
ROOT
HETATM    1  C   UNL     1     -41.789 -51.171  12.275  1.00  0.00     0.050 A 
HETATM    2  C   UNL     1     -41.091 -52.253  11.764  1.00  0.00     0.035 A 
HETATM    3  C   UNL     1     -40.890 -53.378  12.573  1.00  0.00     0.051 A 
HETATM    4  C   UNL     1     -41.441 -53.451  13.856  1.00  0.00     0.103 A 
HETATM    5  N   UNL     1     -42.166 -52.414  14.324  1.00  0.00    -0.350 N 
ATOM      6  HN  UNL     1     -42.601 -52.462  15.245  1.00  0.00     0.166 HD
HETATM    7  C   UNL     1     -42.309 -51.306  13.554  1.00  0.00     0.119 A 
ENDROOT
BRANCH   1   8
HETATM    8  N   UNL     1     -41.936 -50.016  11.486  1.00  0.00    -0.324 N 
HETATM    9  C   UNL     1     -41.031 -48.966  11.484  1.00  0.00     0.245 C 
HETATM   10  O   UNL     1     -39.948 -48.967  12.069  1.00  0.00    -0.271 OA
HETATM   11  H   UNL     1     -42.632 -50.033  10.751  1.00  0.00     0.169 HD
BRANCH   9  12
HETATM   12  C   UNL     1     -41.477 -47.774  10.645  1.00  0.00     0.270 C 
BRANCH  12  13
HETATM   13  O   UNL     1     -42.834 -47.980  10.276  1.00  0.00    -0.380 OA
BRANCH  13  14
HETATM   14  C   UNL     1     -43.188 -47.265   9.095  1.00  0.00     0.194 C 
BRANCH  14  15
HETATM   15  C   UNL     1     -44.592 -47.685   8.673  1.00  0.00     0.193 C 
BRANCH  15  16
HETATM   16  O   UNL     1     -45.501 -46.607   8.884  1.00  0.00    -0.394 OA
HETATM   17  C   UNL     1     -46.817 -47.086   9.138  1.00  0.00     0.201 C 
ENDBRANCH  15  16
ENDBRANCH  14  15
ENDBRANCH  13  14
ENDBRANCH  12  13
ENDBRANCH   9  12
ENDBRANCH   1   8
BRANCH   4  18
HETATM   18  N   UNL     1     -41.209 -54.526  14.685  1.00  0.00    -0.362 N 
HETATM   19  C   UNL     1     -42.193 -55.037  15.644  1.00  0.00     0.156 C 
HETATM   20  C   UNL     1     -41.721 -54.782  17.093  1.00  0.00     0.136 C 
HETATM   21  C   UNL     1     -42.660 -55.449  18.090  1.00  0.00     0.041 C 
HETATM   22  O   UNL     1     -40.404 -55.322  17.314  1.00  0.00    -0.378 OA
HETATM   23  C   UNL     1     -39.449 -54.708  16.427  1.00  0.00     0.136 C 
HETATM   24  C   UNL     1     -38.090 -55.316  16.751  1.00  0.00     0.041 C 
HETATM   25  C   UNL     1     -39.825 -54.956  14.952  1.00  0.00     0.156 C 
ENDBRANCH   4  18
TORSDOF 7
ENDMDL
MODEL 8
REMARK VINA RESULT:      -4.7      5.976      8.246
REMARK  7 active torsions:
REMARK  status: ('A' for Active; 'I' for Inactive)
REMARK    1  A    between atoms: O_2  and  C_3 
REMARK    2  A    between atoms: C_3  and  C_4 
REMARK    3  A    between atoms: C_4  and  O_5 
REMARK    4  A    between atoms: O_5  and  C_6 
REMARK    5  A    between atoms: C_6  and  C_7 
REMARK       I    between atoms: C_7  and  N_9 
REMARK    6  A    between atoms: N_9  and  C_10 
REMARK    7  A    between atoms: C_13  and  N_17 
ROOT
HETATM    1  C   UNL     1     -39.493 -55.161  15.371  1.00  0.00     0.050 A 
HETATM    2  C   UNL     1     -40.808 -55.103  15.803  1.00  0.00     0.035 A 
HETATM    3  C   UNL     1     -41.756 -54.439  15.015  1.00  0.00     0.051 A 
HETATM    4  C   UNL     1     -41.410 -53.900  13.772  1.00  0.00     0.103 A 
HETATM    5  N   UNL     1     -40.138 -54.010  13.334  1.00  0.00    -0.350 N 
ATOM      6  HN  UNL     1     -39.875 -53.650  12.417  1.00  0.00     0.166 HD
HETATM    7  C   UNL     1     -39.215 -54.607  14.130  1.00  0.00     0.119 A 
ENDROOT
BRANCH   1   8
HETATM    8  N   UNL     1     -38.528 -55.772  16.192  1.00  0.00    -0.324 N 
HETATM    9  C   UNL     1     -37.768 -55.084  17.125  1.00  0.00     0.245 C 
HETATM   10  O   UNL     1     -37.924 -53.902  17.431  1.00  0.00    -0.271 OA
HETATM   11  H   UNL     1     -38.519 -56.783  16.236  1.00  0.00     0.169 HD
BRANCH   9  12
HETATM   12  C   UNL     1     -36.702 -55.942  17.799  1.00  0.00     0.270 C 
BRANCH  12  13
HETATM   13  O   UNL     1     -35.607 -55.098  18.131  1.00  0.00    -0.380 OA
BRANCH  13  14
HETATM   14  C   UNL     1     -34.432 -55.839  18.450  1.00  0.00     0.194 C 
BRANCH  14  15
HETATM   15  C   UNL     1     -34.213 -56.893  17.370  1.00  0.00     0.193 C 
BRANCH  15  16
HETATM   16  O   UNL     1     -33.117 -56.513  16.540  1.00  0.00    -0.394 OA
HETATM   17  C   UNL     1     -32.220 -55.654  17.234  1.00  0.00     0.201 C 
ENDBRANCH  15  16
ENDBRANCH  14  15
ENDBRANCH  13  14
ENDBRANCH  12  13
ENDBRANCH   9  12
ENDBRANCH   1   8
BRANCH   4  18
HETATM   18  N   UNL     1     -42.316 -53.198  13.008  1.00  0.00    -0.362 N 
HETATM   19  C   UNL     1     -42.072 -51.842  12.505  1.00  0.00     0.156 C 
HETATM   20  C   UNL     1     -43.015 -50.831  13.194  1.00  0.00     0.136 C 
HETATM   21  C   UNL     1     -42.877 -49.451  12.564  1.00  0.00     0.041 C 
HETATM   22  O   UNL     1     -44.393 -51.229  13.060  1.00  0.00    -0.378 OA
HETATM   23  C   UNL     1     -44.609 -52.517  13.670  1.00  0.00     0.136 C 
HETATM   24  C   UNL     1     -46.090 -52.840  13.506  1.00  0.00     0.041 C 
HETATM   25  C   UNL     1     -43.733 -53.598  13.005  1.00  0.00     0.156 C 
ENDBRANCH   4  18
TORSDOF 7
ENDMDL
MODEL 9
REMARK VINA RESULT:      -4.7      3.097      8.227
REMARK  7 active torsions:
REMARK  status: ('A' for Active; 'I' for Inactive)
REMARK    1  A    between atoms: O_2  and  C_3 
REMARK    2  A    between atoms: C_3  and  C_4 
REMARK    3  A    between atoms: C_4  and  O_5 
REMARK    4  A    between atoms: O_5  and  C_6 
REMARK    5  A    between atoms: C_6  and  C_7 
REMARK       I    between atoms: C_7  and  N_9 
REMARK    6  A    between atoms: N_9  and  C_10 
REMARK    7  A    between atoms: C_13  and  N_17 
ROOT
HETATM    1  C   UNL     1     -42.711 -47.698  12.397  1.00  0.00     0.050 A 
HETATM    2  C   UNL     1     -43.005 -48.414  13.545  1.00  0.00     0.035 A 
HETATM    3  C   UNL     1     -42.810 -49.801  13.552  1.00  0.00     0.051 A 
HETATM    4  C   UNL     1     -42.259 -50.457  12.447  1.00  0.00     0.103 A 
HETATM    5  N   UNL     1     -41.924 -49.742  11.353  1.00  0.00    -0.350 N 
ATOM      6  HN  UNL     1     -41.493 -50.199  10.550  1.00  0.00     0.166 HD
HETATM    7  C   UNL     1     -42.168 -48.407  11.335  1.00  0.00     0.119 A 
ENDROOT
BRANCH   1   8
HETATM    8  N   UNL     1     -42.966 -46.315  12.368  1.00  0.00    -0.324 N 
HETATM    9  C   UNL     1     -42.033 -45.354  12.725  1.00  0.00     0.245 C 
HETATM   10  O   UNL     1     -40.853 -45.580  12.991  1.00  0.00    -0.271 OA
HETATM   11  H   UNL     1     -43.800 -46.000  11.889  1.00  0.00     0.169 HD
BRANCH   9  12
HETATM   12  C   UNL     1     -42.588 -43.934  12.734  1.00  0.00     0.270 C 
BRANCH  12  13
HETATM   13  O   UNL     1     -43.222 -43.719  13.989  1.00  0.00    -0.380 OA
BRANCH  13  14
HETATM   14  C   UNL     1     -42.602 -42.675  14.735  1.00  0.00     0.194 C 
BRANCH  14  15
HETATM   15  C   UNL     1     -43.691 -41.796  15.340  1.00  0.00     0.193 C 
BRANCH  15  16
HETATM   16  O   UNL     1     -44.625 -41.421  14.329  1.00  0.00    -0.394 OA
HETATM   17  C   UNL     1     -44.140 -40.325  13.562  1.00  0.00     0.201 C 
ENDBRANCH  15  16
ENDBRANCH  14  15
ENDBRANCH  13  14
ENDBRANCH  12  13
ENDBRANCH   9  12
ENDBRANCH   1   8
BRANCH   4  18
HETATM   18  N   UNL     1     -42.110 -51.826  12.416  1.00  0.00    -0.362 N 
HETATM   19  C   UNL     1     -43.216 -52.766  12.621  1.00  0.00     0.156 C 
HETATM   20  C   UNL     1     -43.033 -53.535  13.949  1.00  0.00     0.136 C 
HETATM   21  C   UNL     1     -44.090 -54.622  14.091  1.00  0.00     0.041 C 
HETATM   22  O   UNL     1     -41.745 -54.178  14.006  1.00  0.00    -0.378 OA
HETATM   23  C   UNL     1     -40.688 -53.203  13.915  1.00  0.00     0.136 C 
HETATM   24  C   UNL     1     -39.373 -53.966  14.012  1.00  0.00     0.041 C 
HETATM   25  C   UNL     1     -40.772 -52.418  12.590  1.00  0.00     0.156 C 
ENDBRANCH   4  18
TORSDOF 7
ENDMDL
