MODEL 1
REMARK VINA RESULT:      -5.5      0.000      0.000
REMARK  3 active torsions:
REMARK  status: ('A' for Active; 'I' for Inactive)
REMARK       I    between atoms: N_6  and  C_9 
REMARK       I    between atoms: C_9  and  N_11 
REMARK    1  A    between atoms: N_11  and  C_12 
REMARK    2  A    between atoms: C_12  and  C_13 
REMARK    3  A    between atoms: C_13  and  C_14 
ROOT
HETATM    1  C   UNL     1     -38.046 -50.806  15.952  1.00  0.00     0.309 C 
HETATM    2  N   UNL     1     -38.270 -51.048  14.523  1.00  0.00     0.085 N 
HETATM    3  C   UNL     1     -37.610 -49.999  13.726  1.00  0.00     0.273 C 
HETATM    4  C   UNL     1     -37.471 -50.401  12.257  1.00  0.00     0.050 C 
HETATM    5  C   UNL     1     -38.654 -49.976  11.390  1.00  0.00     0.129 C 
HETATM    6  N   UNL     1     -39.973 -50.223  11.970  1.00  0.00    -0.333 N 
HETATM    7  C   UNL     1     -40.120 -51.418  12.801  1.00  0.00     0.157 C 
HETATM    8  C   UNL     1     -39.722 -51.154  14.267  1.00  0.00     0.291 C 
HETATM    9  C   UNL     1     -41.022 -49.317  11.990  1.00  0.00     0.318 C 
HETATM   10  O   UNL     1     -42.044 -49.496  12.649  1.00  0.00    -0.247 OA
HETATM   11  N   UNL     1     -40.840 -48.181  11.245  1.00  0.00    -0.343 N 
HETATM   12  H   UNL     1     -40.295 -48.296  10.405  1.00  0.00     0.164 HD
ENDROOT
BRANCH  11  13
HETATM   13  C   UNL     1     -41.874 -47.160  11.226  1.00  0.00     0.129 C 
BRANCH  13  14
HETATM   14  C   UNL     1     -42.171 -46.618   9.827  1.00  0.00     0.061 C 
BRANCH  14  15
HETATM   15  C   UNL     1     -43.391 -47.202   9.201  1.00  0.00    -0.023 A 
HETATM   16  C   UNL     1     -43.520 -47.741   7.899  1.00  0.00     0.115 A 
HETATM   17  N   UNL     1     -44.756 -48.169   7.638  1.00  0.00    -0.310 N 
HETATM   18  N   UNL     1     -45.426 -47.913   8.774  1.00  0.00    -0.308 N 
ATOM     19  HN  UNL     1     -45.108 -48.591   6.778  1.00  0.00     0.186 HD
HETATM   20  C   UNL     1     -46.834 -48.214   8.872  1.00  0.00     0.177 C 
HETATM   21  C   UNL     1     -44.649 -47.354   9.746  1.00  0.00     0.118 A 
ENDBRANCH  14  15
ENDBRANCH  13  14
ENDBRANCH  11  13
TORSDOF 3
ENDMDL
MODEL 2
REMARK VINA RESULT:      -5.4      4.738      7.768
REMARK  3 active torsions:
REMARK  status: ('A' for Active; 'I' for Inactive)
REMARK       I    between atoms: N_6  and  C_9 
REMARK       I    between atoms: C_9  and  N_11 
REMARK    1  A    between atoms: N_11  and  C_12 
REMARK    2  A    between atoms: C_12  and  C_13 
REMARK    3  A    between atoms: C_13  and  C_14 
ROOT
HETATM    1  C   UNL     1     -46.877 -51.260  16.076  1.00  0.00     0.309 C 
HETATM    2  N   UNL     1     -46.766 -52.271  15.020  1.00  0.00     0.085 N 
HETATM    3  C   UNL     1     -46.157 -53.498  15.560  1.00  0.00     0.273 C 
HETATM    4  C   UNL     1     -46.372 -54.697  14.635  1.00  0.00     0.050 C 
HETATM    5  C   UNL     1     -45.259 -54.887  13.607  1.00  0.00     0.129 C 
HETATM    6  N   UNL     1     -44.816 -53.667  12.936  1.00  0.00    -0.333 N 
HETATM    7  C   UNL     1     -45.831 -52.647  12.672  1.00  0.00     0.157 C 
HETATM    8  C   UNL     1     -46.024 -51.701  13.874  1.00  0.00     0.291 C 
HETATM    9  C   UNL     1     -43.494 -53.299  12.733  1.00  0.00     0.318 C 
HETATM   10  O   UNL     1     -43.168 -52.183  12.334  1.00  0.00    -0.247 OA
HETATM   11  N   UNL     1     -42.559 -54.253  13.036  1.00  0.00    -0.343 N 
HETATM   12  H   UNL     1     -42.842 -55.206  12.870  1.00  0.00     0.164 HD
ENDROOT
BRANCH  11  13
HETATM   13  C   UNL     1     -41.146 -53.949  12.881  1.00  0.00     0.129 C 
BRANCH  13  14
HETATM   14  C   UNL     1     -40.541 -53.233  14.090  1.00  0.00     0.061 C 
BRANCH  14  15
HETATM   15  C   UNL     1     -39.640 -52.101  13.732  1.00  0.00    -0.023 A 
HETATM   16  C   UNL     1     -38.535 -51.611  14.467  1.00  0.00     0.115 A 
HETATM   17  N   UNL     1     -37.944 -50.570  13.879  1.00  0.00    -0.310 N 
HETATM   18  N   UNL     1     -38.664 -50.390  12.757  1.00  0.00    -0.308 N 
ATOM     19  HN  UNL     1     -37.137 -50.037  14.203  1.00  0.00     0.186 HD
HETATM   20  C   UNL     1     -38.345 -49.313  11.853  1.00  0.00     0.177 C 
HETATM   21  C   UNL     1     -39.677 -51.293  12.615  1.00  0.00     0.118 A 
ENDBRANCH  14  15
ENDBRANCH  13  14
ENDBRANCH  11  13
TORSDOF 3
ENDMDL
MODEL 3
REMARK VINA RESULT:      -5.4      5.323      6.500
REMARK  3 active torsions:
REMARK  status: ('A' for Active; 'I' for Inactive)
REMARK       I    between atoms: N_6  and  C_9 
REMARK       I    between atoms: C_9  and  N_11 
REMARK    1  A    between atoms: N_11  and  C_12 
REMARK    2  A    between atoms: C_12  and  C_13 
REMARK    3  A    between atoms: C_13  and  C_14 
ROOT
HETATM    1  C   UNL     1     -39.555 -52.475  16.166  1.00  0.00     0.309 C 
HETATM    2  N   UNL     1     -39.835 -52.572  14.730  1.00  0.00     0.085 N 
HETATM    3  C   UNL     1     -40.416 -51.309  14.245  1.00  0.00     0.273 C 
HETATM    4  C   UNL     1     -40.363 -51.204  12.720  1.00  0.00     0.050 C 
HETATM    5  C   UNL     1     -41.602 -51.760  12.023  1.00  0.00     0.129 C 
HETATM    6  N   UNL     1     -42.081 -53.044  12.533  1.00  0.00    -0.333 N 
HETATM    7  C   UNL     1     -41.070 -53.992  13.002  1.00  0.00     0.157 C 
HETATM    8  C   UNL     1     -40.693 -53.749  14.477  1.00  0.00     0.291 C 
HETATM    9  C   UNL     1     -43.403 -53.351  12.819  1.00  0.00     0.318 C 
HETATM   10  O   UNL     1     -43.735 -54.371  13.419  1.00  0.00    -0.247 OA
HETATM   11  N   UNL     1     -44.328 -52.423  12.415  1.00  0.00    -0.343 N 
HETATM   12  H   UNL     1     -44.102 -51.926  11.568  1.00  0.00     0.164 HD
ENDROOT
BRANCH  11  13
HETATM   13  C   UNL     1     -45.736 -52.645  12.696  1.00  0.00     0.129 C 
BRANCH  13  14
HETATM   14  C   UNL     1     -46.359 -51.564  13.582  1.00  0.00     0.061 C 
BRANCH  14  15
HETATM   15  C   UNL     1     -46.496 -51.962  15.012  1.00  0.00    -0.023 A 
HETATM   16  C   UNL     1     -47.217 -51.292  16.029  1.00  0.00     0.115 A 
HETATM   17  N   UNL     1     -47.127 -51.901  17.212  1.00  0.00    -0.310 N 
HETATM   18  N   UNL     1     -46.353 -52.971  16.959  1.00  0.00    -0.308 N 
ATOM     19  HN  UNL     1     -47.546 -51.622  18.099  1.00  0.00     0.186 HD
HETATM   20  C   UNL     1     -45.994 -53.877  18.022  1.00  0.00     0.177 C 
HETATM   21  C   UNL     1     -45.967 -53.062  15.654  1.00  0.00     0.118 A 
ENDBRANCH  14  15
ENDBRANCH  13  14
ENDBRANCH  11  13
TORSDOF 3
ENDMDL
MODEL 4
REMARK VINA RESULT:      -5.4      5.664      9.323
REMARK  3 active torsions:
REMARK  status: ('A' for Active; 'I' for Inactive)
REMARK       I    between atoms: N_6  and  C_9 
REMARK       I    between atoms: C_9  and  N_11 
REMARK    1  A    between atoms: N_11  and  C_12 
REMARK    2  A    between atoms: C_12  and  C_13 
REMARK    3  A    between atoms: C_13  and  C_14 
ROOT
HETATM    1  C   UNL     1     -47.049 -51.247  15.954  1.00  0.00     0.309 C 
HETATM    2  N   UNL     1     -46.851 -52.275  14.927  1.00  0.00     0.085 N 
HETATM    3  C   UNL     1     -46.275 -53.487  15.534  1.00  0.00     0.273 C 
HETATM    4  C   UNL     1     -46.411 -54.704  14.617  1.00  0.00     0.050 C 
HETATM    5  C   UNL     1     -45.222 -54.901  13.680  1.00  0.00     0.129 C 
HETATM    6  N   UNL     1     -44.738 -53.689  13.021  1.00  0.00    -0.333 N 
HETATM    7  C   UNL     1     -45.739 -52.683  12.664  1.00  0.00     0.157 C 
HETATM    8  C   UNL     1     -46.029 -51.719  13.831  1.00  0.00     0.291 C 
HETATM    9  C   UNL     1     -43.408 -53.312  12.912  1.00  0.00     0.318 C 
HETATM   10  O   UNL     1     -43.062 -52.200  12.519  1.00  0.00    -0.247 OA
HETATM   11  N   UNL     1     -42.491 -54.253  13.301  1.00  0.00    -0.343 N 
HETATM   12  H   UNL     1     -42.754 -55.211  13.133  1.00  0.00     0.164 HD
ENDROOT
BRANCH  11  13
HETATM   13  C   UNL     1     -41.073 -53.938  13.249  1.00  0.00     0.129 C 
BRANCH  13  14
HETATM   14  C   UNL     1     -40.497 -53.492  14.594  1.00  0.00     0.061 C 
BRANCH  14  15
HETATM   15  C   UNL     1     -39.947 -54.610  15.414  1.00  0.00    -0.023 A 
HETATM   16  C   UNL     1     -38.591 -54.982  15.567  1.00  0.00     0.115 A 
HETATM   17  N   UNL     1     -38.433 -56.042  16.361  1.00  0.00    -0.310 N 
HETATM   18  N   UNL     1     -39.689 -56.352  16.728  1.00  0.00    -0.308 N 
ATOM     19  HN  UNL     1     -37.565 -56.508  16.626  1.00  0.00     0.186 HD
HETATM   20  C   UNL     1     -39.938 -57.489  17.580  1.00  0.00     0.177 C 
HETATM   21  C   UNL     1     -40.628 -55.513  16.204  1.00  0.00     0.118 A 
ENDBRANCH  14  15
ENDBRANCH  13  14
ENDBRANCH  11  13
TORSDOF 3
ENDMDL
MODEL 5
REMARK VINA RESULT:      -5.2      4.236      5.449
REMARK  3 active torsions:
REMARK  status: ('A' for Active; 'I' for Inactive)
REMARK       I    between atoms: N_6  and  C_9 
REMARK       I    between atoms: C_9  and  N_11 
REMARK    1  A    between atoms: N_11  and  C_12 
REMARK    2  A    between atoms: C_12  and  C_13 
REMARK    3  A    between atoms: C_13  and  C_14 
ROOT
HETATM    1  C   UNL     1     -45.913 -53.658  16.908  1.00  0.00     0.309 C 
HETATM    2  N   UNL     1     -45.942 -53.442  15.458  1.00  0.00     0.085 N 
HETATM    3  C   UNL     1     -44.825 -54.160  14.820  1.00  0.00     0.273 C 
HETATM    4  C   UNL     1     -45.025 -54.300  13.310  1.00  0.00     0.050 C 
HETATM    5  C   UNL     1     -44.429 -53.149  12.503  1.00  0.00     0.129 C 
HETATM    6  N   UNL     1     -44.690 -51.813  13.034  1.00  0.00    -0.333 N 
HETATM    7  C   UNL     1     -45.982 -51.599  13.689  1.00  0.00     0.157 C 
HETATM    8  C   UNL     1     -45.943 -51.990  15.180  1.00  0.00     0.291 C 
HETATM    9  C   UNL     1     -43.747 -50.806  13.173  1.00  0.00     0.318 C 
HETATM   10  O   UNL     1     -43.968 -49.768  13.794  1.00  0.00    -0.247 OA
HETATM   11  N   UNL     1     -42.529 -51.050  12.595  1.00  0.00    -0.343 N 
HETATM   12  H   UNL     1     -42.552 -51.600  11.751  1.00  0.00     0.164 HD
ENDROOT
BRANCH  11  13
HETATM   13  C   UNL     1     -41.468 -50.064  12.712  1.00  0.00     0.129 C 
BRANCH  13  14
HETATM   14  C   UNL     1     -40.837 -49.685  11.371  1.00  0.00     0.061 C 
BRANCH  14  15
HETATM   15  C   UNL     1     -41.284 -48.362  10.848  1.00  0.00    -0.023 A 
HETATM   16  C   UNL     1     -40.577 -47.138  10.880  1.00  0.00     0.115 A 
HETATM   17  N   UNL     1     -41.265 -46.130  10.341  1.00  0.00    -0.310 N 
HETATM   18  N   UNL     1     -42.415 -46.706   9.951  1.00  0.00    -0.308 N 
ATOM     19  HN  UNL     1     -40.984 -45.154  10.246  1.00  0.00     0.186 HD
HETATM   20  C   UNL     1     -43.454 -45.914   9.338  1.00  0.00     0.177 C 
HETATM   21  C   UNL     1     -42.467 -48.043  10.214  1.00  0.00     0.118 A 
ENDBRANCH  14  15
ENDBRANCH  13  14
ENDBRANCH  11  13
TORSDOF 3
ENDMDL
MODEL 6
REMARK VINA RESULT:      -5.1      3.784      5.654
REMARK  3 active torsions:
REMARK  status: ('A' for Active; 'I' for Inactive)
REMARK       I    between atoms: N_6  and  C_9 
REMARK       I    between atoms: C_9  and  N_11 
REMARK    1  A    between atoms: N_11  and  C_12 
REMARK    2  A    between atoms: C_12  and  C_13 
REMARK    3  A    between atoms: C_13  and  C_14 
ROOT
HETATM    1  C   UNL     1     -38.972 -46.914  14.999  1.00  0.00     0.309 C 
HETATM    2  N   UNL     1     -38.983 -47.439  13.630  1.00  0.00     0.085 N 
HETATM    3  C   UNL     1     -40.371 -47.640  13.180  1.00  0.00     0.273 C 
HETATM    4  C   UNL     1     -40.461 -47.804  11.662  1.00  0.00     0.050 C 
HETATM    5  C   UNL     1     -40.354 -49.253  11.194  1.00  0.00     0.129 C 
HETATM    6  N   UNL     1     -39.302 -50.040  11.833  1.00  0.00    -0.333 N 
HETATM    7  C   UNL     1     -38.068 -49.337  12.186  1.00  0.00     0.157 C 
HETATM    8  C   UNL     1     -38.162 -48.667  13.571  1.00  0.00     0.291 C 
HETATM    9  C   UNL     1     -39.453 -51.324  12.336  1.00  0.00     0.318 C 
HETATM   10  O   UNL     1     -38.599 -51.872  13.028  1.00  0.00    -0.247 OA
HETATM   11  N   UNL     1     -40.638 -51.943  12.035  1.00  0.00    -0.343 N 
HETATM   12  H   UNL     1     -41.036 -51.706  11.140  1.00  0.00     0.164 HD
ENDROOT
BRANCH  11  13
HETATM   13  C   UNL     1     -40.899 -53.279  12.542  1.00  0.00     0.129 C 
BRANCH  13  14
HETATM   14  C   UNL     1     -41.643 -53.291  13.878  1.00  0.00     0.061 C 
BRANCH  14  15
HETATM   15  C   UNL     1     -43.105 -53.553  13.751  1.00  0.00    -0.023 A 
HETATM   16  C   UNL     1     -43.944 -53.255  12.651  1.00  0.00     0.115 A 
HETATM   17  N   UNL     1     -45.214 -53.602  12.862  1.00  0.00    -0.310 N 
HETATM   18  N   UNL     1     -45.196 -54.134  14.096  1.00  0.00    -0.308 N 
ATOM     19  HN  UNL     1     -46.010 -53.492  12.234  1.00  0.00     0.186 HD
HETATM   20  C   UNL     1     -46.417 -54.607  14.702  1.00  0.00     0.177 C 
HETATM   21  C   UNL     1     -43.955 -54.145  14.662  1.00  0.00     0.118 A 
ENDBRANCH  14  15
ENDBRANCH  13  14
ENDBRANCH  11  13
TORSDOF 3
ENDMDL
MODEL 7
REMARK VINA RESULT:      -5.1      3.537      4.746
REMARK  3 active torsions:
REMARK  status: ('A' for Active; 'I' for Inactive)
REMARK       I    between atoms: N_6  and  C_9 
REMARK       I    between atoms: C_9  and  N_11 
REMARK    1  A    between atoms: N_11  and  C_12 
REMARK    2  A    between atoms: C_12  and  C_13 
REMARK    3  A    between atoms: C_13  and  C_14 
ROOT
HETATM    1  C   UNL     1     -42.420 -55.105  16.448  1.00  0.00     0.309 C 
HETATM    2  N   UNL     1     -42.452 -54.866  15.002  1.00  0.00     0.085 N 
HETATM    3  C   UNL     1     -41.240 -54.140  14.585  1.00  0.00     0.273 C 
HETATM    4  C   UNL     1     -41.025 -54.208  13.072  1.00  0.00     0.050 C 
HETATM    5  C   UNL     1     -41.682 -53.062  12.307  1.00  0.00     0.129 C 
HETATM    6  N   UNL     1     -43.047 -52.738  12.718  1.00  0.00    -0.333 N 
HETATM    7  C   UNL     1     -43.892 -53.851  13.152  1.00  0.00     0.157 C 
HETATM    8  C   UNL     1     -43.706 -54.167  14.649  1.00  0.00     0.291 C 
HETATM    9  C   UNL     1     -43.533 -51.459  12.948  1.00  0.00     0.318 C 
HETATM   10  O   UNL     1     -44.625 -51.247  13.471  1.00  0.00    -0.247 OA
HETATM   11  N   UNL     1     -42.702 -50.434  12.581  1.00  0.00    -0.343 N 
HETATM   12  H   UNL     1     -42.124 -50.611  11.774  1.00  0.00     0.164 HD
ENDROOT
BRANCH  11  13
HETATM   13  C   UNL     1     -43.114 -49.059  12.809  1.00  0.00     0.129 C 
BRANCH  13  14
HETATM   14  C   UNL     1     -43.183 -48.223  11.530  1.00  0.00     0.061 C 
BRANCH  14  15
HETATM   15  C   UNL     1     -41.917 -47.503  11.211  1.00  0.00    -0.023 A 
HETATM   16  C   UNL     1     -40.594 -47.991  11.325  1.00  0.00     0.115 A 
HETATM   17  N   UNL     1     -39.679 -47.086  10.975  1.00  0.00    -0.310 N 
HETATM   18  N   UNL     1     -40.411 -46.013  10.627  1.00  0.00    -0.308 N 
ATOM     19  HN  UNL     1     -38.664 -47.185  10.973  1.00  0.00     0.186 HD
HETATM   20  C   UNL     1     -39.762 -44.794  10.212  1.00  0.00     0.177 C 
HETATM   21  C   UNL     1     -41.755 -46.219  10.732  1.00  0.00     0.118 A 
ENDBRANCH  14  15
ENDBRANCH  13  14
ENDBRANCH  11  13
TORSDOF 3
ENDMDL
MODEL 8
REMARK VINA RESULT:      -5.0      4.655      6.449
REMARK  3 active torsions:
REMARK  status: ('A' for Active; 'I' for Inactive)
REMARK       I    between atoms: N_6  and  C_9 
REMARK       I    between atoms: C_9  and  N_11 
REMARK    1  A    between atoms: N_11  and  C_12 
REMARK    2  A    between atoms: C_12  and  C_13 
REMARK    3  A    between atoms: C_13  and  C_14 
ROOT
HETATM    1  C   UNL     1     -46.962 -51.773  16.117  1.00  0.00     0.309 C 
HETATM    2  N   UNL     1     -46.188 -53.012  15.985  1.00  0.00     0.085 N 
HETATM    3  C   UNL     1     -44.885 -52.863  16.656  1.00  0.00     0.273 C 
HETATM    4  C   UNL     1     -44.208 -54.215  16.894  1.00  0.00     0.050 C 
HETATM    5  C   UNL     1     -43.298 -54.655  15.751  1.00  0.00     0.129 C 
HETATM    6  N   UNL     1     -43.848 -54.474  14.409  1.00  0.00    -0.333 N 
HETATM    7  C   UNL     1     -45.291 -54.661  14.253  1.00  0.00     0.157 C 
HETATM    8  C   UNL     1     -46.076 -53.369  14.555  1.00  0.00     0.291 C 
HETATM    9  C   UNL     1     -43.170 -53.926  13.331  1.00  0.00     0.318 C 
HETATM   10  O   UNL     1     -43.728 -53.622  12.279  1.00  0.00    -0.247 OA
HETATM   11  N   UNL     1     -41.829 -53.713  13.519  1.00  0.00    -0.343 N 
HETATM   12  H   UNL     1     -41.364 -54.379  14.116  1.00  0.00     0.164 HD
ENDROOT
BRANCH  11  13
HETATM   13  C   UNL     1     -41.041 -53.117  12.455  1.00  0.00     0.129 C 
BRANCH  13  14
HETATM   14  C   UNL     1     -40.466 -51.746  12.816  1.00  0.00     0.061 C 
BRANCH  14  15
HETATM   15  C   UNL     1     -41.264 -50.600  12.291  1.00  0.00    -0.023 A 
HETATM   16  C   UNL     1     -42.577 -50.223  12.658  1.00  0.00     0.115 A 
HETATM   17  N   UNL     1     -43.013 -49.156  11.987  1.00  0.00    -0.310 N 
HETATM   18  N   UNL     1     -41.978 -48.838  11.191  1.00  0.00    -0.308 N 
ATOM     19  HN  UNL     1     -43.918 -48.691  12.061  1.00  0.00     0.186 HD
HETATM   20  C   UNL     1     -42.081 -47.732  10.270  1.00  0.00     0.177 C 
HETATM   21  C   UNL     1     -40.901 -49.660  11.350  1.00  0.00     0.118 A 
ENDBRANCH  14  15
ENDBRANCH  13  14
ENDBRANCH  11  13
TORSDOF 3
ENDMDL
MODEL 9
REMARK VINA RESULT:      -5.0      3.512      7.166
REMARK  3 active torsions:
REMARK  status: ('A' for Active; 'I' for Inactive)
REMARK       I    between atoms: N_6  and  C_9 
REMARK       I    between atoms: C_9  and  N_11 
REMARK    1  A    between atoms: N_11  and  C_12 
REMARK    2  A    between atoms: C_12  and  C_13 
REMARK    3  A    between atoms: C_13  and  C_14 
ROOT
HETATM    1  C   UNL     1     -39.386 -46.814  15.025  1.00  0.00     0.309 C 
HETATM    2  N   UNL     1     -39.561 -47.173  13.615  1.00  0.00     0.085 N 
HETATM    3  C   UNL     1     -40.977 -47.475  13.344  1.00  0.00     0.273 C 
HETATM    4  C   UNL     1     -41.285 -47.468  11.846  1.00  0.00     0.050 C 
HETATM    5  C   UNL     1     -41.119 -48.832  11.179  1.00  0.00     0.129 C 
HETATM    6  N   UNL     1     -39.911 -49.565  11.553  1.00  0.00    -0.333 N 
HETATM    7  C   UNL     1     -38.708 -48.775  11.816  1.00  0.00     0.157 C 
HETATM    8  C   UNL     1     -38.648 -48.287  13.277  1.00  0.00     0.291 C 
HETATM    9  C   UNL     1     -39.862 -50.908  11.897  1.00  0.00     0.318 C 
HETATM   10  O   UNL     1     -38.864 -51.435  12.383  1.00  0.00    -0.247 OA
HETATM   11  N   UNL     1     -41.017 -51.616  11.689  1.00  0.00    -0.343 N 
HETATM   12  H   UNL     1     -41.570 -51.323  10.899  1.00  0.00     0.164 HD
ENDROOT
BRANCH  11  13
HETATM   13  C   UNL     1     -41.070 -53.024  12.046  1.00  0.00     0.129 C 
BRANCH  13  14
HETATM   14  C   UNL     1     -41.517 -53.271  13.488  1.00  0.00     0.061 C 
BRANCH  14  15
HETATM   15  C   UNL     1     -40.565 -54.100  14.281  1.00  0.00    -0.023 A 
HETATM   16  C   UNL     1     -39.220 -54.407  13.968  1.00  0.00     0.115 A 
HETATM   17  N   UNL     1     -38.644 -55.191  14.880  1.00  0.00    -0.310 N 
HETATM   18  N   UNL     1     -39.616 -55.386  15.789  1.00  0.00    -0.308 N 
ATOM     19  HN  UNL     1     -37.692 -55.556  14.887  1.00  0.00     0.186 HD
HETATM   20  C   UNL     1     -39.381 -56.228  16.936  1.00  0.00     0.177 C 
HETATM   21  C   UNL     1     -40.777 -54.738  15.485  1.00  0.00     0.118 A 
ENDBRANCH  14  15
ENDBRANCH  13  14
ENDBRANCH  11  13
TORSDOF 3
ENDMDL
