MODEL 1
REMARK VINA RESULT:      -6.9      0.000      0.000
REMARK  5 active torsions:
REMARK  status: ('A' for Active; 'I' for Inactive)
REMARK    1  A    between atoms: N_8  and  C_9 
REMARK    2  A    between atoms: C_9  and  C_10 
REMARK    3  A    between atoms: C_10  and  O_11 
REMARK    4  A    between atoms: C_10  and  C_12 
REMARK    5  A    between atoms: C_12  and  N_13 
ROOT
HETATM    1  C   UNL     1     -39.453 -50.854  12.247  1.00  0.00     0.154 C 
ENDROOT
BRANCH   1   2
HETATM    2  C   UNL     1     -39.519 -49.410  12.772  1.00  0.00     0.163 C 
BRANCH   2   3
HETATM    3  N   UNL     1     -40.204 -48.526  11.838  1.00  0.00    -0.339 N 
HETATM    4  C   UNL     1     -40.991 -48.947  10.799  1.00  0.00     0.184 A 
HETATM    5  N   UNL     1     -41.532 -47.939  10.156  1.00  0.00    -0.350 N 
HETATM    6  C   UNL     1     -41.073 -46.816  10.800  1.00  0.00     0.060 A 
ATOM      7  HN  UNL     1     -42.158 -47.981   9.351  1.00  0.00     0.166 HD
HETATM    8  C   UNL     1     -41.359 -45.466  10.546  1.00  0.00     0.039 A 
HETATM    9  C   UNL     1     -40.213 -47.152  11.843  1.00  0.00     0.062 A 
HETATM   10  C   UNL     1     -40.755 -44.468  11.331  1.00  0.00    -0.054 A 
HETATM   11  C   UNL     1     -41.090 -43.024  11.051  1.00  0.00     0.049 C 
HETATM   12  C   UNL     1     -39.864 -44.829  12.367  1.00  0.00    -0.054 A 
HETATM   13  C   UNL     1     -39.588 -46.184  12.639  1.00  0.00     0.039 A 
HETATM   14  C   UNL     1     -39.190 -43.772  13.205  1.00  0.00     0.049 C 
ENDBRANCH   2   3
ENDBRANCH   1   2
BRANCH   1  15
HETATM   15  O   UNL     1     -38.180 -51.103  11.628  1.00  0.00    -0.392 OA
HETATM   16  H   UNL     1     -37.481 -51.114  12.302  1.00  0.00     0.210 HD
ENDBRANCH   1  15
BRANCH   1  17
HETATM   17  C   UNL     1     -39.661 -51.900  13.367  1.00  0.00     0.166 C 
BRANCH  17  18
HETATM   18  N   UNL     1     -40.935 -52.612  13.218  1.00  0.00    -0.307 N 
HETATM   19  C   UNL     1     -41.834 -52.274  12.246  1.00  0.00     0.186 C 
HETATM   20  N   UNL     1     -42.988 -52.825  12.070  1.00  0.00    -0.355 N 
HETATM   21  C   UNL     1     -43.379 -53.773  12.986  1.00  0.00     0.017 C 
ATOM     22  HN  UNL     1     -43.585 -52.568  11.283  1.00  0.00     0.166 HD
HETATM   23  C   UNL     1     -44.788 -54.280  12.799  1.00  0.00     0.069 C 
HETATM   24  C   UNL     1     -42.598 -54.201  13.993  1.00  0.00     0.028 C 
HETATM   25  C   UNL     1     -42.991 -55.142  15.090  1.00  0.00     0.056 C 
HETATM   26  C   UNL     1     -41.211 -53.669  14.056  1.00  0.00     0.256 C 
HETATM   27  O   UNL     1     -40.379 -54.159  14.819  1.00  0.00    -0.267 OA
ENDBRANCH  17  18
ENDBRANCH   1  17
TORSDOF 5
ENDMDL
MODEL 2
REMARK VINA RESULT:      -6.9      2.369      3.579
REMARK  5 active torsions:
REMARK  status: ('A' for Active; 'I' for Inactive)
REMARK    1  A    between atoms: N_8  and  C_9 
REMARK    2  A    between atoms: C_9  and  C_10 
REMARK    3  A    between atoms: C_10  and  O_11 
REMARK    4  A    between atoms: C_10  and  C_12 
REMARK    5  A    between atoms: C_12  and  N_13 
ROOT
HETATM    1  C   UNL     1     -39.944 -53.704  13.636  1.00  0.00     0.154 C 
ENDROOT
BRANCH   1   2
HETATM    2  C   UNL     1     -39.368 -52.559  14.487  1.00  0.00     0.163 C 
BRANCH   2   3
HETATM    3  N   UNL     1     -38.926 -51.442  13.663  1.00  0.00    -0.339 N 
HETATM    4  C   UNL     1     -37.640 -51.249  13.233  1.00  0.00     0.184 A 
HETATM    5  N   UNL     1     -37.536 -50.196  12.457  1.00  0.00    -0.350 N 
HETATM    6  C   UNL     1     -38.807 -49.680  12.383  1.00  0.00     0.060 A 
ATOM      7  HN  UNL     1     -36.694 -49.838  12.006  1.00  0.00     0.166 HD
HETATM    8  C   UNL     1     -39.275 -48.570  11.664  1.00  0.00     0.039 A 
HETATM    9  C   UNL     1     -39.696 -50.424  13.155  1.00  0.00     0.062 A 
HETATM   10  C   UNL     1     -40.631 -48.207  11.750  1.00  0.00    -0.054 A 
HETATM   11  C   UNL     1     -41.115 -47.020  10.955  1.00  0.00     0.049 C 
HETATM   12  C   UNL     1     -41.511 -48.959  12.560  1.00  0.00    -0.054 A 
HETATM   13  C   UNL     1     -41.051 -50.087  13.269  1.00  0.00     0.039 A 
HETATM   14  C   UNL     1     -42.964 -48.572  12.682  1.00  0.00     0.049 C 
ENDBRANCH   2   3
ENDBRANCH   1   2
BRANCH   1  15
HETATM   15  O   UNL     1     -38.921 -54.667  13.337  1.00  0.00    -0.392 OA
HETATM   16  H   UNL     1     -38.082 -54.397  13.747  1.00  0.00     0.210 HD
ENDBRANCH   1  15
BRANCH   1  17
HETATM   17  C   UNL     1     -41.110 -54.436  14.340  1.00  0.00     0.166 C 
BRANCH  17  18
HETATM   18  N   UNL     1     -42.410 -54.065  13.770  1.00  0.00    -0.307 N 
HETATM   19  C   UNL     1     -42.508 -53.207  12.711  1.00  0.00     0.186 C 
HETATM   20  N   UNL     1     -43.611 -52.804  12.175  1.00  0.00    -0.355 N 
HETATM   21  C   UNL     1     -44.784 -53.206  12.770  1.00  0.00     0.017 C 
ATOM     22  HN  UNL     1     -43.612 -52.211  11.344  1.00  0.00     0.166 HD
HETATM   23  C   UNL     1     -46.029 -52.595  12.175  1.00  0.00     0.069 C 
HETATM   24  C   UNL     1     -44.837 -54.048  13.816  1.00  0.00     0.028 C 
HETATM   25  C   UNL     1     -46.060 -54.442  14.585  1.00  0.00     0.056 C 
HETATM   26  C   UNL     1     -43.552 -54.627  14.293  1.00  0.00     0.256 C 
HETATM   27  O   UNL     1     -43.538 -55.550  15.106  1.00  0.00    -0.267 OA
ENDBRANCH  17  18
ENDBRANCH   1  17
TORSDOF 5
ENDMDL
MODEL 3
REMARK VINA RESULT:      -6.8      3.013      7.372
REMARK  5 active torsions:
REMARK  status: ('A' for Active; 'I' for Inactive)
REMARK    1  A    between atoms: N_8  and  C_9 
REMARK    2  A    between atoms: C_9  and  C_10 
REMARK    3  A    between atoms: C_10  and  O_11 
REMARK    4  A    between atoms: C_10  and  C_12 
REMARK    5  A    between atoms: C_12  and  N_13 
ROOT
HETATM    1  C   UNL     1     -40.357 -49.933  11.550  1.00  0.00     0.154 C 
ENDROOT
BRANCH   1   2
HETATM    2  C   UNL     1     -41.762 -50.062  12.161  1.00  0.00     0.163 C 
BRANCH   2   3
HETATM    3  N   UNL     1     -42.140 -51.454  12.362  1.00  0.00    -0.339 N 
HETATM    4  C   UNL     1     -41.361 -52.530  12.028  1.00  0.00     0.184 A 
HETATM    5  N   UNL     1     -41.921 -53.665  12.374  1.00  0.00    -0.350 N 
HETATM    6  C   UNL     1     -43.116 -53.312  12.953  1.00  0.00     0.060 A 
ATOM      7  HN  UNL     1     -41.550 -54.607  12.242  1.00  0.00     0.166 HD
HETATM    8  C   UNL     1     -44.102 -54.130  13.525  1.00  0.00     0.039 A 
HETATM    9  C   UNL     1     -43.295 -51.931  12.933  1.00  0.00     0.062 A 
HETATM   10  C   UNL     1     -45.270 -53.548  14.050  1.00  0.00    -0.054 A 
HETATM   11  C   UNL     1     -46.309 -54.444  14.676  1.00  0.00     0.049 C 
HETATM   12  C   UNL     1     -45.444 -52.147  13.995  1.00  0.00    -0.054 A 
HETATM   13  C   UNL     1     -44.448 -51.318  13.439  1.00  0.00     0.039 A 
HETATM   14  C   UNL     1     -46.699 -51.506  14.533  1.00  0.00     0.049 C 
ENDBRANCH   2   3
ENDBRANCH   1   2
BRANCH   1  15
HETATM   15  O   UNL     1     -40.437 -49.907  10.115  1.00  0.00    -0.392 OA
HETATM   16  H   UNL     1     -40.992 -50.640   9.802  1.00  0.00     0.210 HD
ENDBRANCH   1  15
BRANCH   1  17
HETATM   17  C   UNL     1     -39.621 -48.657  12.019  1.00  0.00     0.166 C 
BRANCH  17  18
HETATM   18  N   UNL     1     -38.690 -48.936  13.117  1.00  0.00    -0.307 N 
HETATM   19  C   UNL     1     -38.074 -50.150  13.241  1.00  0.00     0.186 C 
HETATM   20  N   UNL     1     -37.271 -50.488  14.193  1.00  0.00    -0.355 N 
HETATM   21  C   UNL     1     -37.084 -49.581  15.211  1.00  0.00     0.017 C 
ATOM     22  HN  UNL     1     -36.794 -51.390  14.192  1.00  0.00     0.166 HD
HETATM   23  C   UNL     1     -36.241 -50.088  16.354  1.00  0.00     0.069 C 
HETATM   24  C   UNL     1     -37.627 -48.351  15.220  1.00  0.00     0.028 C 
HETATM   25  C   UNL     1     -37.563 -47.355  16.335  1.00  0.00     0.056 C 
HETATM   26  C   UNL     1     -38.403 -47.938  14.020  1.00  0.00     0.256 C 
HETATM   27  O   UNL     1     -38.757 -46.769  13.867  1.00  0.00    -0.267 OA
ENDBRANCH  17  18
ENDBRANCH   1  17
TORSDOF 5
ENDMDL
MODEL 4
REMARK VINA RESULT:      -6.7      2.893      7.400
REMARK  5 active torsions:
REMARK  status: ('A' for Active; 'I' for Inactive)
REMARK    1  A    between atoms: N_8  and  C_9 
REMARK    2  A    between atoms: C_9  and  C_10 
REMARK    3  A    between atoms: C_10  and  O_11 
REMARK    4  A    between atoms: C_10  and  C_12 
REMARK    5  A    between atoms: C_12  and  N_13 
ROOT
HETATM    1  C   UNL     1     -41.870 -54.175  14.737  1.00  0.00     0.154 C 
ENDROOT
BRANCH   1   2
HETATM    2  C   UNL     1     -43.087 -55.088  14.964  1.00  0.00     0.163 C 
BRANCH   2   3
HETATM    3  N   UNL     1     -44.337 -54.412  14.644  1.00  0.00    -0.339 N 
HETATM    4  C   UNL     1     -45.045 -54.586  13.484  1.00  0.00     0.184 A 
HETATM    5  N   UNL     1     -46.162 -53.899  13.485  1.00  0.00    -0.350 N 
HETATM    6  C   UNL     1     -46.180 -53.246  14.694  1.00  0.00     0.060 A 
ATOM      7  HN  UNL     1     -46.867 -53.858  12.748  1.00  0.00     0.166 HD
HETATM    8  C   UNL     1     -47.158 -52.396  15.231  1.00  0.00     0.039 A 
HETATM    9  C   UNL     1     -45.032 -53.525  15.431  1.00  0.00     0.062 A 
HETATM   10  C   UNL     1     -46.957 -51.816  16.496  1.00  0.00    -0.054 A 
HETATM   11  C   UNL     1     -48.030 -50.919  17.061  1.00  0.00     0.049 C 
HETATM   12  C   UNL     1     -45.773 -52.091  17.217  1.00  0.00    -0.054 A 
HETATM   13  C   UNL     1     -44.795 -52.960  16.691  1.00  0.00     0.039 A 
HETATM   14  C   UNL     1     -45.529 -51.461  18.565  1.00  0.00     0.049 C 
ENDBRANCH   2   3
ENDBRANCH   1   2
BRANCH   1  15
HETATM   15  O   UNL     1     -40.741 -54.654  15.487  1.00  0.00    -0.392 OA
HETATM   16  H   UNL     1     -40.022 -54.899  14.881  1.00  0.00     0.210 HD
ENDBRANCH   1  15
BRANCH   1  17
HETATM   17  C   UNL     1     -41.463 -54.090  13.248  1.00  0.00     0.166 C 
BRANCH  17  18
HETATM   18  N   UNL     1     -41.267 -52.702  12.815  1.00  0.00    -0.307 N 
HETATM   19  C   UNL     1     -42.309 -51.938  12.370  1.00  0.00     0.186 C 
HETATM   20  N   UNL     1     -42.216 -50.725  11.939  1.00  0.00    -0.355 N 
HETATM   21  C   UNL     1     -40.954 -50.186  11.842  1.00  0.00     0.017 C 
ATOM     22  HN  UNL     1     -43.044 -50.187  11.681  1.00  0.00     0.166 HD
HETATM   23  C   UNL     1     -40.905 -48.816  11.210  1.00  0.00     0.069 C 
HETATM   24  C   UNL     1     -39.840 -50.823  12.243  1.00  0.00     0.028 C 
HETATM   25  C   UNL     1     -38.430 -50.352  12.069  1.00  0.00     0.056 C 
HETATM   26  C   UNL     1     -40.009 -52.149  12.895  1.00  0.00     0.256 C 
HETATM   27  O   UNL     1     -39.067 -52.698  13.464  1.00  0.00    -0.267 OA
ENDBRANCH  17  18
ENDBRANCH   1  17
TORSDOF 5
ENDMDL
MODEL 5
REMARK VINA RESULT:      -6.6      1.940      2.664
REMARK  5 active torsions:
REMARK  status: ('A' for Active; 'I' for Inactive)
REMARK    1  A    between atoms: N_8  and  C_9 
REMARK    2  A    between atoms: C_9  and  C_10 
REMARK    3  A    between atoms: C_10  and  O_11 
REMARK    4  A    between atoms: C_10  and  C_12 
REMARK    5  A    between atoms: C_12  and  N_13 
ROOT
HETATM    1  C   UNL     1     -40.444 -52.852  13.325  1.00  0.00     0.154 C 
ENDROOT
BRANCH   1   2
HETATM    2  C   UNL     1     -39.867 -51.482  13.720  1.00  0.00     0.163 C 
BRANCH   2   3
HETATM    3  N   UNL     1     -40.044 -50.495  12.664  1.00  0.00    -0.339 N 
HETATM    4  C   UNL     1     -40.454 -50.782  11.388  1.00  0.00     0.184 A 
HETATM    5  N   UNL     1     -40.585 -49.697  10.662  1.00  0.00    -0.350 N 
HETATM    6  C   UNL     1     -40.241 -48.663  11.498  1.00  0.00     0.060 A 
ATOM      7  HN  UNL     1     -40.879 -49.635   9.687  1.00  0.00     0.166 HD
HETATM    8  C   UNL     1     -40.231 -47.282  11.246  1.00  0.00     0.039 A 
HETATM    9  C   UNL     1     -39.867 -49.135  12.753  1.00  0.00     0.062 A 
HETATM   10  C   UNL     1     -39.820 -46.394  12.257  1.00  0.00    -0.054 A 
HETATM   11  C   UNL     1     -39.833 -44.914  11.970  1.00  0.00     0.049 C 
HETATM   12  C   UNL     1     -39.419 -46.896  13.515  1.00  0.00    -0.054 A 
HETATM   13  C   UNL     1     -39.446 -48.281  13.780  1.00  0.00     0.039 A 
HETATM   14  C   UNL     1     -38.954 -45.962  14.604  1.00  0.00     0.049 C 
ENDBRANCH   2   3
ENDBRANCH   1   2
BRANCH   1  15
HETATM   15  O   UNL     1     -39.398 -53.835  13.263  1.00  0.00    -0.392 OA
HETATM   16  H   UNL     1     -38.877 -53.713  12.452  1.00  0.00     0.210 HD
ENDBRANCH   1  15
BRANCH   1  17
HETATM   17  C   UNL     1     -41.520 -53.349  14.318  1.00  0.00     0.166 C 
BRANCH  17  18
HETATM   18  N   UNL     1     -42.871 -52.961  13.898  1.00  0.00    -0.307 N 
HETATM   19  C   UNL     1     -43.271 -53.060  12.595  1.00  0.00     0.186 C 
HETATM   20  N   UNL     1     -44.426 -52.709  12.138  1.00  0.00    -0.355 N 
HETATM   21  C   UNL     1     -45.295 -52.109  13.019  1.00  0.00     0.017 C 
ATOM     22  HN  UNL     1     -44.683 -52.869  11.164  1.00  0.00     0.166 HD
HETATM   23  C   UNL     1     -46.572 -51.605  12.393  1.00  0.00     0.069 C 
HETATM   24  C   UNL     1     -45.033 -51.946  14.328  1.00  0.00     0.028 C 
HETATM   25  C   UNL     1     -45.875 -51.208  15.322  1.00  0.00     0.056 C 
HETATM   26  C   UNL     1     -43.765 -52.523  14.848  1.00  0.00     0.256 C 
HETATM   27  O   UNL     1     -43.552 -52.592  16.057  1.00  0.00    -0.267 OA
ENDBRANCH  17  18
ENDBRANCH   1  17
TORSDOF 5
ENDMDL
MODEL 6
REMARK VINA RESULT:      -6.5      5.029      6.345
REMARK  5 active torsions:
REMARK  status: ('A' for Active; 'I' for Inactive)
REMARK    1  A    between atoms: N_8  and  C_9 
REMARK    2  A    between atoms: C_9  and  C_10 
REMARK    3  A    between atoms: C_10  and  O_11 
REMARK    4  A    between atoms: C_10  and  C_12 
REMARK    5  A    between atoms: C_12  and  N_13 
ROOT
HETATM    1  C   UNL     1     -41.427 -53.599  12.712  1.00  0.00     0.154 C 
ENDROOT
BRANCH   1   2
HETATM    2  C   UNL     1     -42.223 -52.295  12.894  1.00  0.00     0.163 C 
BRANCH   2   3
HETATM    3  N   UNL     1     -43.641 -52.552  13.103  1.00  0.00    -0.339 N 
HETATM    4  C   UNL     1     -44.401 -53.404  12.346  1.00  0.00     0.184 A 
HETATM    5  N   UNL     1     -45.632 -53.489  12.793  1.00  0.00    -0.350 N 
HETATM    6  C   UNL     1     -45.676 -52.654  13.883  1.00  0.00     0.060 A 
ATOM      7  HN  UNL     1     -46.392 -54.054  12.413  1.00  0.00     0.166 HD
HETATM    8  C   UNL     1     -46.741 -52.386  14.755  1.00  0.00     0.039 A 
HETATM    9  C   UNL     1     -44.448 -52.028  14.085  1.00  0.00     0.062 A 
HETATM   10  C   UNL     1     -46.565 -51.470  15.808  1.00  0.00    -0.054 A 
HETATM   11  C   UNL     1     -47.719 -51.210  16.743  1.00  0.00     0.049 C 
HETATM   12  C   UNL     1     -45.320 -50.825  15.979  1.00  0.00    -0.054 A 
HETATM   13  C   UNL     1     -44.239 -51.105  15.117  1.00  0.00     0.039 A 
HETATM   14  C   UNL     1     -45.118 -49.824  17.088  1.00  0.00     0.049 C 
ENDBRANCH   2   3
ENDBRANCH   1   2
BRANCH   1  15
HETATM   15  O   UNL     1     -40.463 -53.452  11.657  1.00  0.00    -0.392 OA
HETATM   16  H   UNL     1     -40.651 -52.648  11.146  1.00  0.00     0.210 HD
ENDBRANCH   1  15
BRANCH   1  17
HETATM   17  C   UNL     1     -40.680 -54.020  13.998  1.00  0.00     0.166 C 
BRANCH  17  18
HETATM   18  N   UNL     1     -41.576 -54.064  15.160  1.00  0.00    -0.307 N 
HETATM   19  C   UNL     1     -42.604 -54.961  15.237  1.00  0.00     0.186 C 
HETATM   20  N   UNL     1     -43.455 -55.042  16.204  1.00  0.00    -0.355 N 
HETATM   21  C   UNL     1     -43.371 -54.095  17.197  1.00  0.00     0.017 C 
ATOM     22  HN  UNL     1     -44.161 -55.778  16.230  1.00  0.00     0.166 HD
HETATM   23  C   UNL     1     -44.473 -54.167  18.225  1.00  0.00     0.069 C 
HETATM   24  C   UNL     1     -42.412 -53.154  17.249  1.00  0.00     0.028 C 
HETATM   25  C   UNL     1     -42.319 -52.027  18.230  1.00  0.00     0.056 C 
HETATM   26  C   UNL     1     -41.349 -53.205  16.210  1.00  0.00     0.256 C 
HETATM   27  O   UNL     1     -40.337 -52.511  16.307  1.00  0.00    -0.267 OA
ENDBRANCH  17  18
ENDBRANCH   1  17
TORSDOF 5
ENDMDL
MODEL 7
REMARK VINA RESULT:      -6.5      2.423      6.792
REMARK  5 active torsions:
REMARK  status: ('A' for Active; 'I' for Inactive)
REMARK    1  A    between atoms: N_8  and  C_9 
REMARK    2  A    between atoms: C_9  and  C_10 
REMARK    3  A    between atoms: C_10  and  O_11 
REMARK    4  A    between atoms: C_10  and  C_12 
REMARK    5  A    between atoms: C_12  and  N_13 
ROOT
HETATM    1  C   UNL     1     -39.903 -49.802  13.688  1.00  0.00     0.154 C 
ENDROOT
BRANCH   1   2
HETATM    2  C   UNL     1     -40.127 -51.323  13.726  1.00  0.00     0.163 C 
BRANCH   2   3
HETATM    3  N   UNL     1     -41.437 -51.691  13.205  1.00  0.00    -0.339 N 
HETATM    4  C   UNL     1     -41.648 -52.368  12.033  1.00  0.00     0.184 A 
HETATM    5  N   UNL     1     -42.921 -52.618  11.836  1.00  0.00    -0.350 N 
HETATM    6  C   UNL     1     -43.564 -52.076  12.923  1.00  0.00     0.060 A 
ATOM      7  HN  UNL     1     -43.343 -53.109  11.047  1.00  0.00     0.166 HD
HETATM    8  C   UNL     1     -44.931 -52.080  13.239  1.00  0.00     0.039 A 
HETATM    9  C   UNL     1     -42.661 -51.461  13.785  1.00  0.00     0.062 A 
HETATM   10  C   UNL     1     -45.376 -51.441  14.410  1.00  0.00    -0.054 A 
HETATM   11  C   UNL     1     -46.847 -51.471  14.740  1.00  0.00     0.049 C 
HETATM   12  C   UNL     1     -44.445 -50.798  15.258  1.00  0.00    -0.054 A 
HETATM   13  C   UNL     1     -43.068 -50.808  14.955  1.00  0.00     0.039 A 
HETATM   14  C   UNL     1     -44.905 -50.088  16.507  1.00  0.00     0.049 C 
ENDBRANCH   2   3
ENDBRANCH   1   2
BRANCH   1  15
HETATM   15  O   UNL     1     -38.958 -49.412  14.697  1.00  0.00    -0.392 OA
HETATM   16  H   UNL     1     -38.361 -50.152  14.896  1.00  0.00     0.210 HD
ENDBRANCH   1  15
BRANCH   1  17
HETATM   17  C   UNL     1     -39.380 -49.315  12.317  1.00  0.00     0.166 C 
BRANCH  17  18
HETATM   18  N   UNL     1     -40.359 -48.467  11.629  1.00  0.00    -0.307 N 
HETATM   19  C   UNL     1     -41.388 -49.004  10.907  1.00  0.00     0.186 C 
HETATM   20  N   UNL     1     -42.268 -48.331  10.246  1.00  0.00    -0.355 N 
HETATM   21  C   UNL     1     -42.110 -46.966  10.195  1.00  0.00     0.017 C 
ATOM     22  HN  UNL     1     -43.050 -48.793   9.779  1.00  0.00     0.166 HD
HETATM   23  C   UNL     1     -43.095 -46.254   9.300  1.00  0.00     0.069 C 
HETATM   24  C   UNL     1     -41.145 -46.304  10.856  1.00  0.00     0.028 C 
HETATM   25  C   UNL     1     -40.841 -44.841  10.763  1.00  0.00     0.056 C 
HETATM   26  C   UNL     1     -40.258 -47.100  11.747  1.00  0.00     0.256 C 
HETATM   27  O   UNL     1     -39.489 -46.546  12.532  1.00  0.00    -0.267 OA
ENDBRANCH  17  18
ENDBRANCH   1  17
TORSDOF 5
ENDMDL
MODEL 8
REMARK VINA RESULT:      -6.4      3.428      6.880
REMARK  5 active torsions:
REMARK  status: ('A' for Active; 'I' for Inactive)
REMARK    1  A    between atoms: N_8  and  C_9 
REMARK    2  A    between atoms: C_9  and  C_10 
REMARK    3  A    between atoms: C_10  and  O_11 
REMARK    4  A    between atoms: C_10  and  C_12 
REMARK    5  A    between atoms: C_12  and  N_13 
ROOT
HETATM    1  C   UNL     1     -42.065 -53.711  13.551  1.00  0.00     0.154 C 
ENDROOT
BRANCH   1   2
HETATM    2  C   UNL     1     -42.776 -52.438  13.060  1.00  0.00     0.163 C 
BRANCH   2   3
HETATM    3  N   UNL     1     -44.211 -52.492  13.304  1.00  0.00    -0.339 N 
HETATM    4  C   UNL     1     -45.113 -53.150  12.510  1.00  0.00     0.184 A 
HETATM    5  N   UNL     1     -46.330 -53.084  12.996  1.00  0.00    -0.350 N 
HETATM    6  C   UNL     1     -46.215 -52.349  14.151  1.00  0.00     0.060 A 
ATOM      7  HN  UNL     1     -47.179 -53.492  12.602  1.00  0.00     0.166 HD
HETATM    8  C   UNL     1     -47.203 -51.998  15.083  1.00  0.00     0.039 A 
HETATM    9  C   UNL     1     -44.900 -51.938  14.355  1.00  0.00     0.062 A 
HETATM   10  C   UNL     1     -46.859 -51.214  16.199  1.00  0.00    -0.054 A 
HETATM   11  C   UNL     1     -47.933 -50.862  17.197  1.00  0.00     0.049 C 
HETATM   12  C   UNL     1     -45.524 -50.784  16.373  1.00  0.00    -0.054 A 
HETATM   13  C   UNL     1     -44.523 -51.150  15.450  1.00  0.00     0.039 A 
HETATM   14  C   UNL     1     -45.140 -49.924  17.551  1.00  0.00     0.049 C 
ENDBRANCH   2   3
ENDBRANCH   1   2
BRANCH   1  15
HETATM   15  O   UNL     1     -41.269 -54.276  12.496  1.00  0.00    -0.392 OA
HETATM   16  H   UNL     1     -41.845 -54.594  11.781  1.00  0.00     0.210 HD
ENDBRANCH   1  15
BRANCH   1  17
HETATM   17  C   UNL     1     -41.144 -53.445  14.764  1.00  0.00     0.166 C 
BRANCH  17  18
HETATM   18  N   UNL     1     -40.328 -52.240  14.576  1.00  0.00    -0.307 N 
HETATM   19  C   UNL     1     -40.722 -51.026  15.063  1.00  0.00     0.186 C 
HETATM   20  N   UNL     1     -40.082 -49.915  14.911  1.00  0.00    -0.355 N 
HETATM   21  C   UNL     1     -38.955 -49.941  14.124  1.00  0.00     0.017 C 
ATOM     22  HN  UNL     1     -40.400 -49.053  15.356  1.00  0.00     0.166 HD
HETATM   23  C   UNL     1     -38.330 -48.589  13.881  1.00  0.00     0.069 C 
HETATM   24  C   UNL     1     -38.452 -51.064  13.581  1.00  0.00     0.028 C 
HETATM   25  C   UNL     1     -37.301 -51.157  12.628  1.00  0.00     0.056 C 
HETATM   26  C   UNL     1     -39.120 -52.347  13.925  1.00  0.00     0.256 C 
HETATM   27  O   UNL     1     -38.605 -53.426  13.634  1.00  0.00    -0.267 OA
ENDBRANCH  17  18
ENDBRANCH   1  17
TORSDOF 5
ENDMDL
MODEL 9
REMARK VINA RESULT:      -6.4      2.010      3.029
REMARK  5 active torsions:
REMARK  status: ('A' for Active; 'I' for Inactive)
REMARK    1  A    between atoms: N_8  and  C_9 
REMARK    2  A    between atoms: C_9  and  C_10 
REMARK    3  A    between atoms: C_10  and  O_11 
REMARK    4  A    between atoms: C_10  and  C_12 
REMARK    5  A    between atoms: C_12  and  N_13 
ROOT
HETATM    1  C   UNL     1     -40.730 -51.810  12.198  1.00  0.00     0.154 C 
ENDROOT
BRANCH   1   2
HETATM    2  C   UNL     1     -39.438 -50.976  12.151  1.00  0.00     0.163 C 
BRANCH   2   3
HETATM    3  N   UNL     1     -39.672 -49.594  12.549  1.00  0.00    -0.339 N 
HETATM    4  C   UNL     1     -39.061 -48.971  13.605  1.00  0.00     0.184 A 
HETATM    5  N   UNL     1     -39.413 -47.711  13.699  1.00  0.00    -0.350 N 
HETATM    6  C   UNL     1     -40.293 -47.507  12.665  1.00  0.00     0.060 A 
ATOM      7  HN  UNL     1     -39.100 -47.029  14.392  1.00  0.00     0.166 HD
HETATM    8  C   UNL     1     -40.955 -46.331  12.280  1.00  0.00     0.039 A 
HETATM    9  C   UNL     1     -40.499 -48.679  11.942  1.00  0.00     0.062 A 
HETATM   10  C   UNL     1     -41.836 -46.356  11.184  1.00  0.00    -0.054 A 
HETATM   11  C   UNL     1     -42.524 -45.077  10.777  1.00  0.00     0.049 C 
HETATM   12  C   UNL     1     -42.052 -47.563  10.481  1.00  0.00    -0.054 A 
HETATM   13  C   UNL     1     -41.375 -48.743  10.852  1.00  0.00     0.039 A 
HETATM   14  C   UNL     1     -43.011 -47.615   9.319  1.00  0.00     0.049 C 
ENDBRANCH   2   3
ENDBRANCH   1   2
BRANCH   1  15
HETATM   15  O   UNL     1     -40.537 -53.066  11.527  1.00  0.00    -0.392 OA
HETATM   16  H   UNL     1     -39.610 -53.154  11.250  1.00  0.00     0.210 HD
ENDBRANCH   1  15
BRANCH   1  17
HETATM   17  C   UNL     1     -41.196 -52.098  13.644  1.00  0.00     0.166 C 
BRANCH  17  18
HETATM   18  N   UNL     1     -42.654 -52.004  13.776  1.00  0.00    -0.307 N 
HETATM   19  C   UNL     1     -43.270 -50.821  14.072  1.00  0.00     0.186 C 
HETATM   20  N   UNL     1     -44.540 -50.661  14.240  1.00  0.00    -0.355 N 
HETATM   21  C   UNL     1     -45.328 -51.787  14.199  1.00  0.00     0.017 C 
ATOM     22  HN  UNL     1     -44.943 -49.736  14.396  1.00  0.00     0.166 HD
HETATM   23  C   UNL     1     -46.780 -51.548  14.532  1.00  0.00     0.069 C 
HETATM   24  C   UNL     1     -44.856 -53.015  13.919  1.00  0.00     0.028 C 
HETATM   25  C   UNL     1     -45.625 -54.299  13.965  1.00  0.00     0.056 C 
HETATM   26  C   UNL     1     -43.418 -53.129  13.560  1.00  0.00     0.256 C 
HETATM   27  O   UNL     1     -42.962 -54.175  13.099  1.00  0.00    -0.267 OA
ENDBRANCH  17  18
ENDBRANCH   1  17
TORSDOF 5
ENDMDL
