MODEL 1
REMARK VINA RESULT:      -6.3      0.000      0.000
REMARK  3 active torsions:
REMARK  status: ('A' for Active; 'I' for Inactive)
REMARK       I    between atoms: C_2  and  N_4 
REMARK       I    between atoms: N_8  and  C_11 
REMARK       I    between atoms: C_11  and  N_13 
REMARK    1  A    between atoms: N_13  and  C_14 
REMARK    2  A    between atoms: C_14  and  C_15 
REMARK    3  A    between atoms: C_15  and  C_16 
ROOT
HETATM    1  C   UNL     1     -45.439 -55.224  13.993  1.00  0.00     0.117 C 
HETATM    2  C   UNL     1     -45.925 -53.796  13.960  1.00  0.00     0.215 C 
HETATM    3  O   UNL     1     -47.061 -53.535  14.358  1.00  0.00    -0.274 OA
HETATM    4  N   UNL     1     -45.035 -52.822  13.520  1.00  0.00    -0.351 N 
HETATM    5  C   UNL     1     -45.432 -51.415  13.630  1.00  0.00     0.127 C 
HETATM    6  C   UNL     1     -44.669 -50.716  14.758  1.00  0.00     0.040 C 
HETATM    7  C   UNL     1     -43.333 -50.122  14.303  1.00  0.00     0.129 C 
HETATM    8  N   UNL     1     -42.524 -50.975  13.428  1.00  0.00    -0.333 N 
HETATM    9  C   UNL     1     -42.556 -52.419  13.674  1.00  0.00     0.147 C 
HETATM   10  C   UNL     1     -43.714 -53.101  12.932  1.00  0.00     0.145 C 
HETATM   11  C   UNL     1     -41.884 -50.559  12.270  1.00  0.00     0.318 C 
HETATM   12  O   UNL     1     -41.412 -51.349  11.456  1.00  0.00    -0.247 OA
HETATM   13  N   UNL     1     -41.833 -49.207  12.072  1.00  0.00    -0.343 N 
HETATM   14  H   UNL     1     -41.880 -48.617  12.886  1.00  0.00     0.164 HD
ENDROOT
BRANCH  13  15
HETATM   15  C   UNL     1     -41.210 -48.639  10.889  1.00  0.00     0.129 C 
BRANCH  15  16
HETATM   16  C   UNL     1     -41.832 -47.306  10.454  1.00  0.00     0.061 C 
BRANCH  16  17
HETATM   17  C   UNL     1     -43.096 -47.479   9.679  1.00  0.00    -0.023 A 
HETATM   18  C   UNL     1     -43.228 -47.732   8.295  1.00  0.00     0.115 A 
HETATM   19  N   UNL     1     -44.501 -47.843   7.909  1.00  0.00    -0.310 N 
HETATM   20  N   UNL     1     -45.191 -47.628   9.043  1.00  0.00    -0.308 N 
ATOM     21  HN  UNL     1     -44.863 -48.043   6.977  1.00  0.00     0.186 HD
HETATM   22  C   UNL     1     -46.636 -47.633   9.022  1.00  0.00     0.177 C 
HETATM   23  C   UNL     1     -44.398 -47.421  10.132  1.00  0.00     0.118 A 
ENDBRANCH  16  17
ENDBRANCH  15  16
ENDBRANCH  13  15
TORSDOF 3
ENDMDL
MODEL 2
REMARK VINA RESULT:      -5.9      2.243      3.048
REMARK  3 active torsions:
REMARK  status: ('A' for Active; 'I' for Inactive)
REMARK       I    between atoms: C_2  and  N_4 
REMARK       I    between atoms: N_8  and  C_11 
REMARK       I    between atoms: C_11  and  N_13 
REMARK    1  A    between atoms: N_13  and  C_14 
REMARK    2  A    between atoms: C_14  and  C_15 
REMARK    3  A    between atoms: C_15  and  C_16 
ROOT
HETATM    1  C   UNL     1     -45.528 -55.331  13.876  1.00  0.00     0.117 C 
HETATM    2  C   UNL     1     -44.900 -54.394  14.877  1.00  0.00     0.215 C 
HETATM    3  O   UNL     1     -45.383 -54.303  16.007  1.00  0.00    -0.274 OA
HETATM    4  N   UNL     1     -43.758 -53.704  14.487  1.00  0.00    -0.351 N 
HETATM    5  C   UNL     1     -43.043 -52.913  15.494  1.00  0.00     0.127 C 
HETATM    6  C   UNL     1     -41.735 -53.595  15.900  1.00  0.00     0.040 C 
HETATM    7  C   UNL     1     -40.551 -53.208  15.009  1.00  0.00     0.129 C 
HETATM    8  N   UNL     1     -40.824 -53.175  13.570  1.00  0.00    -0.333 N 
HETATM    9  C   UNL     1     -41.756 -54.172  13.035  1.00  0.00     0.147 C 
HETATM   10  C   UNL     1     -43.214 -53.696  13.118  1.00  0.00     0.145 C 
HETATM   11  C   UNL     1     -40.431 -52.168  12.702  1.00  0.00     0.318 C 
HETATM   12  O   UNL     1     -40.873 -52.070  11.559  1.00  0.00    -0.247 OA
HETATM   13  N   UNL     1     -39.535 -51.266  13.205  1.00  0.00    -0.343 N 
HETATM   14  H   UNL     1     -38.939 -51.573  13.956  1.00  0.00     0.164 HD
ENDROOT
BRANCH  13  15
HETATM   15  C   UNL     1     -39.058 -50.149  12.408  1.00  0.00     0.129 C 
BRANCH  15  16
HETATM   16  C   UNL     1     -39.637 -48.798  12.843  1.00  0.00     0.061 C 
BRANCH  16  17
HETATM   17  C   UNL     1     -40.434 -48.133  11.771  1.00  0.00    -0.023 A 
HETATM   18  C   UNL     1     -40.249 -46.836  11.242  1.00  0.00     0.115 A 
HETATM   19  N   UNL     1     -41.128 -46.539  10.281  1.00  0.00    -0.310 N 
HETATM   20  N   UNL     1     -41.901 -47.637  10.214  1.00  0.00    -0.308 N 
ATOM     21  HN  UNL     1     -41.197 -45.684   9.730  1.00  0.00     0.186 HD
HETATM   22  C   UNL     1     -43.012 -47.685   9.292  1.00  0.00     0.177 C 
HETATM   23  C   UNL     1     -41.519 -48.625  11.073  1.00  0.00     0.118 A 
ENDBRANCH  16  17
ENDBRANCH  15  16
ENDBRANCH  13  15
TORSDOF 3
ENDMDL
MODEL 3
REMARK VINA RESULT:      -5.8      2.006      2.836
REMARK  3 active torsions:
REMARK  status: ('A' for Active; 'I' for Inactive)
REMARK       I    between atoms: C_2  and  N_4 
REMARK       I    between atoms: N_8  and  C_11 
REMARK       I    between atoms: C_11  and  N_13 
REMARK    1  A    between atoms: N_13  and  C_14 
REMARK    2  A    between atoms: C_14  and  C_15 
REMARK    3  A    between atoms: C_15  and  C_16 
ROOT
HETATM    1  C   UNL     1     -45.336 -55.275  14.063  1.00  0.00     0.117 C 
HETATM    2  C   UNL     1     -43.933 -55.095  14.588  1.00  0.00     0.215 C 
HETATM    3  O   UNL     1     -43.435 -55.970  15.297  1.00  0.00    -0.274 OA
HETATM    4  N   UNL     1     -43.240 -53.953  14.198  1.00  0.00    -0.351 N 
HETATM    5  C   UNL     1     -41.825 -53.838  14.566  1.00  0.00     0.127 C 
HETATM    6  C   UNL     1     -40.923 -54.045  13.347  1.00  0.00     0.040 C 
HETATM    7  C   UNL     1     -40.648 -52.751  12.575  1.00  0.00     0.129 C 
HETATM    8  N   UNL     1     -41.807 -51.881  12.361  1.00  0.00    -0.333 N 
HETATM    9  C   UNL     1     -43.103 -52.525  12.131  1.00  0.00     0.147 C 
HETATM   10  C   UNL     1     -43.831 -52.833  13.447  1.00  0.00     0.145 C 
HETATM   11  C   UNL     1     -41.824 -50.507  12.547  1.00  0.00     0.318 C 
HETATM   12  O   UNL     1     -42.866 -49.856  12.575  1.00  0.00    -0.247 OA
HETATM   13  N   UNL     1     -40.603 -49.916  12.725  1.00  0.00    -0.343 N 
HETATM   14  H   UNL     1     -39.801 -50.383  12.337  1.00  0.00     0.164 HD
ENDROOT
BRANCH  13  15
HETATM   15  C   UNL     1     -40.481 -48.487  12.953  1.00  0.00     0.129 C 
BRANCH  15  16
HETATM   16  C   UNL     1     -40.027 -47.709  11.712  1.00  0.00     0.061 C 
BRANCH  16  17
HETATM   17  C   UNL     1     -41.166 -47.159  10.920  1.00  0.00    -0.023 A 
HETATM   18  C   UNL     1     -41.630 -45.824  10.895  1.00  0.00     0.115 A 
HETATM   19  N   UNL     1     -42.669 -45.654  10.073  1.00  0.00    -0.310 N 
HETATM   20  N   UNL     1     -42.894 -46.889   9.592  1.00  0.00    -0.308 N 
ATOM     21  HN  UNL     1     -43.171 -44.792   9.861  1.00  0.00     0.186 HD
HETATM   22  C   UNL     1     -43.986 -47.121   8.676  1.00  0.00     0.177 C 
HETATM   23  C   UNL     1     -42.014 -47.822  10.055  1.00  0.00     0.118 A 
ENDBRANCH  16  17
ENDBRANCH  15  16
ENDBRANCH  13  15
TORSDOF 3
ENDMDL
MODEL 4
REMARK VINA RESULT:      -5.7      3.537      5.233
REMARK  3 active torsions:
REMARK  status: ('A' for Active; 'I' for Inactive)
REMARK       I    between atoms: C_2  and  N_4 
REMARK       I    between atoms: N_8  and  C_11 
REMARK       I    between atoms: C_11  and  N_13 
REMARK    1  A    between atoms: N_13  and  C_14 
REMARK    2  A    between atoms: C_14  and  C_15 
REMARK    3  A    between atoms: C_15  and  C_16 
ROOT
HETATM    1  C   UNL     1     -46.871 -51.733  12.019  1.00  0.00     0.117 C 
HETATM    2  C   UNL     1     -46.320 -51.664  13.421  1.00  0.00     0.215 C 
HETATM    3  O   UNL     1     -47.021 -51.208  14.325  1.00  0.00    -0.274 OA
HETATM    4  N   UNL     1     -45.044 -52.174  13.638  1.00  0.00    -0.351 N 
HETATM    5  C   UNL     1     -44.554 -52.262  15.018  1.00  0.00     0.127 C 
HETATM    6  C   UNL     1     -44.539 -53.714  15.503  1.00  0.00     0.040 C 
HETATM    7  C   UNL     1     -43.233 -54.444  15.177  1.00  0.00     0.129 C 
HETATM    8  N   UNL     1     -42.701 -54.223  13.829  1.00  0.00    -0.333 N 
HETATM    9  C   UNL     1     -43.667 -54.077  12.737  1.00  0.00     0.147 C 
HETATM   10  C   UNL     1     -44.131 -52.623  12.573  1.00  0.00     0.145 C 
HETATM   11  C   UNL     1     -41.376 -53.948  13.525  1.00  0.00     0.318 C 
HETATM   12  O   UNL     1     -41.022 -53.549  12.417  1.00  0.00    -0.247 OA
HETATM   13  N   UNL     1     -40.483 -54.122  14.545  1.00  0.00    -0.343 N 
HETATM   14  H   UNL     1     -40.729 -54.774  15.271  1.00  0.00     0.164 HD
ENDROOT
BRANCH  13  15
HETATM   15  C   UNL     1     -39.068 -53.848  14.366  1.00  0.00     0.129 C 
BRANCH  15  16
HETATM   16  C   UNL     1     -38.643 -52.471  14.890  1.00  0.00     0.061 C 
BRANCH  16  17
HETATM   17  C   UNL     1     -38.568 -51.437  13.816  1.00  0.00    -0.023 A 
HETATM   18  C   UNL     1     -37.503 -51.208  12.916  1.00  0.00     0.115 A 
HETATM   19  N   UNL     1     -37.750 -50.208  12.066  1.00  0.00    -0.310 N 
HETATM   20  N   UNL     1     -38.965 -49.773  12.441  1.00  0.00    -0.308 N 
ATOM     21  HN  UNL     1     -37.158 -49.859  11.312  1.00  0.00     0.186 HD
HETATM   22  C   UNL     1     -39.573 -48.651  11.763  1.00  0.00     0.177 C 
HETATM   23  C   UNL     1     -39.504 -50.484  13.472  1.00  0.00     0.118 A 
ENDBRANCH  16  17
ENDBRANCH  15  16
ENDBRANCH  13  15
TORSDOF 3
ENDMDL
MODEL 5
REMARK VINA RESULT:      -5.6      3.981      6.457
REMARK  3 active torsions:
REMARK  status: ('A' for Active; 'I' for Inactive)
REMARK       I    between atoms: C_2  and  N_4 
REMARK       I    between atoms: N_8  and  C_11 
REMARK       I    between atoms: C_11  and  N_13 
REMARK    1  A    between atoms: N_13  and  C_14 
REMARK    2  A    between atoms: C_14  and  C_15 
REMARK    3  A    between atoms: C_15  and  C_16 
ROOT
HETATM    1  C   UNL     1     -38.577 -53.477  16.558  1.00  0.00     0.117 C 
HETATM    2  C   UNL     1     -39.035 -52.275  15.770  1.00  0.00     0.215 C 
HETATM    3  O   UNL     1     -38.334 -51.263  15.749  1.00  0.00    -0.274 OA
HETATM    4  N   UNL     1     -40.221 -52.388  15.052  1.00  0.00    -0.351 N 
HETATM    5  C   UNL     1     -40.600 -51.292  14.155  1.00  0.00     0.127 C 
HETATM    6  C   UNL     1     -40.404 -51.689  12.690  1.00  0.00     0.040 C 
HETATM    7  C   UNL     1     -41.631 -52.376  12.084  1.00  0.00     0.129 C 
HETATM    8  N   UNL     1     -42.277 -53.384  12.929  1.00  0.00    -0.333 N 
HETATM    9  C   UNL     1     -41.414 -54.205  13.783  1.00  0.00     0.147 C 
HETATM   10  C   UNL     1     -41.143 -53.534  15.137  1.00  0.00     0.145 C 
HETATM   11  C   UNL     1     -43.643 -53.500  13.138  1.00  0.00     0.318 C 
HETATM   12  O   UNL     1     -44.119 -54.207  14.024  1.00  0.00    -0.247 OA
HETATM   13  N   UNL     1     -44.436 -52.754  12.310  1.00  0.00    -0.343 N 
HETATM   14  H   UNL     1     -44.063 -52.505  11.409  1.00  0.00     0.164 HD
ENDROOT
BRANCH  13  15
HETATM   15  C   UNL     1     -45.883 -52.766  12.437  1.00  0.00     0.129 C 
BRANCH  15  16
HETATM   16  C   UNL     1     -46.453 -51.482  13.050  1.00  0.00     0.061 C 
BRANCH  16  17
HETATM   17  C   UNL     1     -46.333 -51.443  14.537  1.00  0.00    -0.023 A 
HETATM   18  C   UNL     1     -45.279 -50.892  15.300  1.00  0.00     0.115 A 
HETATM   19  N   UNL     1     -45.476 -51.011  16.616  1.00  0.00    -0.310 N 
HETATM   20  N   UNL     1     -46.645 -51.669  16.698  1.00  0.00    -0.308 N 
ATOM     21  HN  UNL     1     -44.881 -50.681  17.376  1.00  0.00     0.186 HD
HETATM   22  C   UNL     1     -47.187 -52.023  17.990  1.00  0.00     0.177 C 
HETATM   23  C   UNL     1     -47.206 -51.938  15.484  1.00  0.00     0.118 A 
ENDBRANCH  16  17
ENDBRANCH  15  16
ENDBRANCH  13  15
TORSDOF 3
ENDMDL
MODEL 6
REMARK VINA RESULT:      -5.5      3.905      6.974
REMARK  3 active torsions:
REMARK  status: ('A' for Active; 'I' for Inactive)
REMARK       I    between atoms: C_2  and  N_4 
REMARK       I    between atoms: N_8  and  C_11 
REMARK       I    between atoms: C_11  and  N_13 
REMARK    1  A    between atoms: N_13  and  C_14 
REMARK    2  A    between atoms: C_14  and  C_15 
REMARK    3  A    between atoms: C_15  and  C_16 
ROOT
HETATM    1  C   UNL     1     -36.758 -47.457  14.796  1.00  0.00     0.117 C 
HETATM    2  C   UNL     1     -38.231 -47.438  14.470  1.00  0.00     0.215 C 
HETATM    3  O   UNL     1     -38.847 -46.373  14.517  1.00  0.00    -0.274 OA
HETATM    4  N   UNL     1     -38.819 -48.636  14.077  1.00  0.00    -0.351 N 
HETATM    5  C   UNL     1     -40.207 -48.608  13.604  1.00  0.00     0.127 C 
HETATM    6  C   UNL     1     -40.273 -48.800  12.087  1.00  0.00     0.040 C 
HETATM    7  C   UNL     1     -40.344 -50.271  11.668  1.00  0.00     0.129 C 
HETATM    8  N   UNL     1     -39.439 -51.177  12.380  1.00  0.00    -0.333 N 
HETATM    9  C   UNL     1     -38.120 -50.660  12.755  1.00  0.00     0.147 C 
HETATM   10  C   UNL     1     -38.151 -49.947  14.115  1.00  0.00     0.145 C 
HETATM   11  C   UNL     1     -39.788 -52.416  12.899  1.00  0.00     0.318 C 
HETATM   12  O   UNL     1     -39.065 -53.034  13.678  1.00  0.00    -0.247 OA
HETATM   13  N   UNL     1     -41.006 -52.900  12.512  1.00  0.00    -0.343 N 
HETATM   14  H   UNL     1     -41.377 -52.577  11.633  1.00  0.00     0.164 HD
ENDROOT
BRANCH  13  15
HETATM   15  C   UNL     1     -41.502 -54.175  13.000  1.00  0.00     0.129 C 
BRANCH  15  16
HETATM   16  C   UNL     1     -42.465 -54.041  14.186  1.00  0.00     0.061 C 
BRANCH  16  17
HETATM   17  C   UNL     1     -43.871 -53.769  13.766  1.00  0.00    -0.023 A 
HETATM   18  C   UNL     1     -45.006 -54.583  13.985  1.00  0.00     0.115 A 
HETATM   19  N   UNL     1     -46.127 -54.051  13.491  1.00  0.00    -0.310 N 
HETATM   20  N   UNL     1     -45.706 -52.907  12.925  1.00  0.00    -0.308 N 
ATOM     21  HN  UNL     1     -47.075 -54.424  13.533  1.00  0.00     0.186 HD
HETATM   22  C   UNL     1     -46.647 -52.051  12.240  1.00  0.00     0.177 C 
HETATM   23  C   UNL     1     -44.369 -52.684  13.074  1.00  0.00     0.118 A 
ENDBRANCH  16  17
ENDBRANCH  15  16
ENDBRANCH  13  15
TORSDOF 3
ENDMDL
MODEL 7
REMARK VINA RESULT:      -5.4      2.109      2.577
REMARK  3 active torsions:
REMARK  status: ('A' for Active; 'I' for Inactive)
REMARK       I    between atoms: C_2  and  N_4 
REMARK       I    between atoms: N_8  and  C_11 
REMARK       I    between atoms: C_11  and  N_13 
REMARK    1  A    between atoms: N_13  and  C_14 
REMARK    2  A    between atoms: C_14  and  C_15 
REMARK    3  A    between atoms: C_15  and  C_16 
ROOT
HETATM    1  C   UNL     1     -43.380 -54.430  17.674  1.00  0.00     0.117 C 
HETATM    2  C   UNL     1     -42.961 -54.838  16.284  1.00  0.00     0.215 C 
HETATM    3  O   UNL     1     -42.824 -56.034  16.020  1.00  0.00    -0.274 OA
HETATM    4  N   UNL     1     -42.796 -53.832  15.338  1.00  0.00    -0.351 N 
HETATM    5  C   UNL     1     -42.546 -54.219  13.946  1.00  0.00     0.127 C 
HETATM    6  C   UNL     1     -43.782 -53.973  13.078  1.00  0.00     0.040 C 
HETATM    7  C   UNL     1     -43.836 -52.559  12.492  1.00  0.00     0.129 C 
HETATM    8  N   UNL     1     -43.489 -51.476  13.417  1.00  0.00    -0.333 N 
HETATM    9  C   UNL     1     -43.891 -51.627  14.817  1.00  0.00     0.147 C 
HETATM   10  C   UNL     1     -42.840 -52.391  15.636  1.00  0.00     0.145 C 
HETATM   11  C   UNL     1     -42.647 -50.412  13.126  1.00  0.00     0.318 C 
HETATM   12  O   UNL     1     -42.209 -49.660  13.994  1.00  0.00    -0.247 OA
HETATM   13  N   UNL     1     -42.309 -50.264  11.809  1.00  0.00    -0.343 N 
HETATM   14  H   UNL     1     -42.947 -50.631  11.122  1.00  0.00     0.164 HD
ENDROOT
BRANCH  13  15
HETATM   15  C   UNL     1     -41.417 -49.204  11.372  1.00  0.00     0.129 C 
BRANCH  15  16
HETATM   16  C   UNL     1     -42.079 -47.821  11.350  1.00  0.00     0.061 C 
BRANCH  16  17
HETATM   17  C   UNL     1     -43.159 -47.709  10.326  1.00  0.00    -0.023 A 
HETATM   18  C   UNL     1     -43.009 -47.665   8.921  1.00  0.00     0.115 A 
HETATM   19  N   UNL     1     -44.177 -47.570   8.280  1.00  0.00    -0.310 N 
HETATM   20  N   UNL     1     -45.078 -47.521   9.277  1.00  0.00    -0.308 N 
ATOM     21  HN  UNL     1     -44.344 -47.541   7.274  1.00  0.00     0.186 HD
HETATM   22  C   UNL     1     -46.483 -47.379   8.975  1.00  0.00     0.177 C 
HETATM   23  C   UNL     1     -44.522 -47.616  10.518  1.00  0.00     0.118 A 
ENDBRANCH  16  17
ENDBRANCH  15  16
ENDBRANCH  13  15
TORSDOF 3
ENDMDL
MODEL 8
REMARK VINA RESULT:      -5.4      4.075      5.887
REMARK  3 active torsions:
REMARK  status: ('A' for Active; 'I' for Inactive)
REMARK       I    between atoms: C_2  and  N_4 
REMARK       I    between atoms: N_8  and  C_11 
REMARK       I    between atoms: C_11  and  N_13 
REMARK    1  A    between atoms: N_13  and  C_14 
REMARK    2  A    between atoms: C_14  and  C_15 
REMARK    3  A    between atoms: C_15  and  C_16 
ROOT
HETATM    1  C   UNL     1     -47.002 -53.366  14.722  1.00  0.00     0.117 C 
HETATM    2  C   UNL     1     -45.724 -53.702  15.450  1.00  0.00     0.215 C 
HETATM    3  O   UNL     1     -45.776 -54.354  16.494  1.00  0.00    -0.274 OA
HETATM    4  N   UNL     1     -44.526 -53.295  14.872  1.00  0.00    -0.351 N 
HETATM    5  C   UNL     1     -43.270 -53.748  15.480  1.00  0.00     0.127 C 
HETATM    6  C   UNL     1     -42.600 -54.821  14.618  1.00  0.00     0.040 C 
HETATM    7  C   UNL     1     -41.670 -54.240  13.549  1.00  0.00     0.129 C 
HETATM    8  N   UNL     1     -42.188 -53.079  12.820  1.00  0.00    -0.333 N 
HETATM    9  C   UNL     1     -43.625 -53.045  12.536  1.00  0.00     0.147 C 
HETATM   10  C   UNL     1     -44.422 -52.422  13.691  1.00  0.00     0.145 C 
HETATM   11  C   UNL     1     -41.475 -51.922  12.544  1.00  0.00     0.318 C 
HETATM   12  O   UNL     1     -42.014 -50.895  12.135  1.00  0.00    -0.247 OA
HETATM   13  N   UNL     1     -40.130 -51.982  12.782  1.00  0.00    -0.343 N 
HETATM   14  H   UNL     1     -39.692 -52.888  12.748  1.00  0.00     0.164 HD
ENDROOT
BRANCH  13  15
HETATM   15  C   UNL     1     -39.271 -50.832  12.556  1.00  0.00     0.129 C 
BRANCH  15  16
HETATM   16  C   UNL     1     -37.899 -50.955  13.231  1.00  0.00     0.061 C 
BRANCH  16  17
HETATM   17  C   UNL     1     -37.547 -49.761  14.055  1.00  0.00    -0.023 A 
HETATM   18  C   UNL     1     -37.785 -48.403  13.745  1.00  0.00     0.115 A 
HETATM   19  N   UNL     1     -37.354 -47.573  14.698  1.00  0.00    -0.310 N 
HETATM   20  N   UNL     1     -36.810 -48.398  15.609  1.00  0.00    -0.308 N 
ATOM     21  HN  UNL     1     -37.423 -46.556  14.728  1.00  0.00     0.186 HD
HETATM   22  C   UNL     1     -36.193 -47.857  16.798  1.00  0.00     0.177 C 
HETATM   23  C   UNL     1     -36.912 -49.717  15.279  1.00  0.00     0.118 A 
ENDBRANCH  16  17
ENDBRANCH  15  16
ENDBRANCH  13  15
TORSDOF 3
ENDMDL
MODEL 9
REMARK VINA RESULT:      -5.4      1.817      2.293
REMARK  3 active torsions:
REMARK  status: ('A' for Active; 'I' for Inactive)
REMARK       I    between atoms: C_2  and  N_4 
REMARK       I    between atoms: N_8  and  C_11 
REMARK       I    between atoms: C_11  and  N_13 
REMARK    1  A    between atoms: N_13  and  C_14 
REMARK    2  A    between atoms: C_14  and  C_15 
REMARK    3  A    between atoms: C_15  and  C_16 
ROOT
HETATM    1  C   UNL     1     -45.341 -55.239  13.942  1.00  0.00     0.117 C 
HETATM    2  C   UNL     1     -45.822 -53.809  13.936  1.00  0.00     0.215 C 
HETATM    3  O   UNL     1     -46.959 -53.552  14.331  1.00  0.00    -0.274 OA
HETATM    4  N   UNL     1     -44.925 -52.829  13.524  1.00  0.00    -0.351 N 
HETATM    5  C   UNL     1     -45.318 -51.423  13.662  1.00  0.00     0.127 C 
HETATM    6  C   UNL     1     -44.562 -50.752  14.811  1.00  0.00     0.040 C 
HETATM    7  C   UNL     1     -43.220 -50.153  14.379  1.00  0.00     0.129 C 
HETATM    8  N   UNL     1     -42.407 -50.989  13.492  1.00  0.00    -0.333 N 
HETATM    9  C   UNL     1     -42.446 -52.438  13.706  1.00  0.00     0.147 C 
HETATM   10  C   UNL     1     -43.601 -53.100  12.940  1.00  0.00     0.145 C 
HETATM   11  C   UNL     1     -41.757 -50.550  12.348  1.00  0.00     0.318 C 
HETATM   12  O   UNL     1     -41.281 -51.324  11.520  1.00  0.00    -0.247 OA
HETATM   13  N   UNL     1     -41.700 -49.194  12.180  1.00  0.00    -0.343 N 
HETATM   14  H   UNL     1     -41.751 -48.622  13.007  1.00  0.00     0.164 HD
ENDROOT
BRANCH  13  15
HETATM   15  C   UNL     1     -41.067 -48.602  11.015  1.00  0.00     0.129 C 
BRANCH  15  16
HETATM   16  C   UNL     1     -40.497 -47.203  11.275  1.00  0.00     0.061 C 
BRANCH  16  17
HETATM   17  C   UNL     1     -41.484 -46.114  11.016  1.00  0.00    -0.023 A 
HETATM   18  C   UNL     1     -42.672 -46.195  10.254  1.00  0.00     0.115 A 
HETATM   19  N   UNL     1     -43.344 -45.042  10.222  1.00  0.00    -0.310 N 
HETATM   20  N   UNL     1     -42.570 -44.209  10.938  1.00  0.00    -0.308 N 
ATOM     21  HN  UNL     1     -44.233 -44.842   9.763  1.00  0.00     0.186 HD
HETATM   22  C   UNL     1     -42.956 -42.826  11.104  1.00  0.00     0.177 C 
HETATM   23  C   UNL     1     -41.455 -44.804  11.448  1.00  0.00     0.118 A 
ENDBRANCH  16  17
ENDBRANCH  15  16
ENDBRANCH  13  15
TORSDOF 3
ENDMDL
