MODEL 1
REMARK VINA RESULT:      -5.8      0.000      0.000
REMARK  4 active torsions:
REMARK  status: ('A' for Active; 'I' for Inactive)
REMARK    1  A    between atoms: N1_1  and  C1*_4 
REMARK    2  A    between atoms: C4*_10  and  C5*_16 
REMARK    3  A    between atoms: C3*_11  and  O3*_15 
REMARK    4  A    between atoms: C5*_16  and  O5*_17 
ROOT
ATOM      1  N1    T A   1     -44.004 -52.627  14.066  1.00  0.00    -0.282 N 
ATOM      2  C2    T A   1     -45.184 -53.034  13.459  1.00  0.00     0.331 A 
ATOM      3  N3    T A   1     -46.337 -52.571  14.027  1.00  0.00    -0.275 N 
ATOM      4  C6    T A   1     -44.005 -51.737  15.123  1.00  0.00     0.110 A 
ATOM      5  C5    T A   1     -45.136 -51.236  15.636  1.00  0.00     0.022 A 
ATOM      6  C4    T A   1     -46.424 -51.671  15.048  1.00  0.00     0.256 A 
ATOM      7  O2    T A   1     -45.240 -53.757  12.468  1.00  0.00    -0.246 OA
ATOM      8  O4    T A   1     -47.500 -51.239  15.442  1.00  0.00    -0.267 OA
ATOM      9  C5M   T A   1     -45.203 -50.247  16.755  1.00  0.00     0.056 C 
ATOM     10  H3    T A   1     -47.200 -52.860  13.595  1.00  0.00     0.173 HD
ENDROOT
BRANCH   1  11
ATOM     11  C1*   T A   1     -42.764 -53.088  13.460  1.00  0.00     0.235 C 
ATOM     12  O4*   T A   1     -41.832 -53.545  14.460  1.00  0.00    -0.356 OA
ATOM     13  C4*   T A   1     -40.496 -53.248  13.976  1.00  0.00     0.176 C 
ATOM     14  C3*   T A   1     -40.652 -52.608  12.586  1.00  0.00     0.153 C 
ATOM     15  C2*   T A   1     -42.039 -52.015  12.663  1.00  0.00     0.088 C 
BRANCH  13  16
ATOM     16  C5*   T A   1     -39.668 -54.530  14.016  1.00  0.00     0.198 C 
BRANCH  16  17
ATOM     17  O5*   T A   1     -38.411 -54.312  13.367  1.00  0.00    -0.398 OA
ATOM     18  H5*   T A   1     -38.147 -53.399  13.602  1.00  0.00     0.209 HD
ENDBRANCH  16  17
ENDBRANCH  13  16
BRANCH  14  19
ATOM     19  O3*   T A   1     -40.620 -53.512  11.486  1.00  0.00    -0.393 OA
ATOM     20  H3*   T A   1     -41.294 -53.246  10.824  1.00  0.00     0.210 HD
ENDBRANCH  14  19
ENDBRANCH   1  11
TORSDOF 4
ENDMDL
MODEL 2
REMARK VINA RESULT:      -5.4      8.289      9.348
REMARK  4 active torsions:
REMARK  status: ('A' for Active; 'I' for Inactive)
REMARK    1  A    between atoms: N1_1  and  C1*_4 
REMARK    2  A    between atoms: C4*_10  and  C5*_16 
REMARK    3  A    between atoms: C3*_11  and  O3*_15 
REMARK    4  A    between atoms: C5*_16  and  O5*_17 
ROOT
ATOM      1  N1    T A   1     -41.645 -44.480  11.065  1.00  0.00    -0.282 N 
ATOM      2  C2    T A   1     -40.526 -43.762  10.668  1.00  0.00     0.331 A 
ATOM      3  N3    T A   1     -40.316 -42.579  11.317  1.00  0.00    -0.275 N 
ATOM      4  C6    T A   1     -42.440 -44.058  12.114  1.00  0.00     0.110 A 
ATOM      5  C5    T A   1     -42.193 -42.928  12.790  1.00  0.00     0.022 A 
ATOM      6  C4    T A   1     -41.032 -42.106  12.377  1.00  0.00     0.256 A 
ATOM      7  O2    T A   1     -39.739 -44.128   9.799  1.00  0.00    -0.246 OA
ATOM      8  O4    T A   1     -40.724 -41.074  12.961  1.00  0.00    -0.267 OA
ATOM      9  C5M   T A   1     -42.993 -42.435  13.952  1.00  0.00     0.056 C 
ATOM     10  H3    T A   1     -39.506 -42.048  11.037  1.00  0.00     0.173 HD
ENDROOT
BRANCH   1  11
ATOM     11  C1*   T A   1     -41.872 -45.757  10.404  1.00  0.00     0.235 C 
ATOM     12  O4*   T A   1     -43.147 -45.778   9.732  1.00  0.00    -0.356 OA
ATOM     13  C4*   T A   1     -43.646 -47.140   9.791  1.00  0.00     0.176 C 
ATOM     14  C3*   T A   1     -42.577 -47.980  10.512  1.00  0.00     0.153 C 
ATOM     15  C2*   T A   1     -41.873 -46.944  11.354  1.00  0.00     0.088 C 
BRANCH  13  16
ATOM     16  C5*   T A   1     -43.986 -47.595   8.374  1.00  0.00     0.198 C 
BRANCH  16  17
ATOM     17  O5*   T A   1     -42.938 -47.208   7.478  1.00  0.00    -0.398 OA
ATOM     18  H5*   T A   1     -42.625 -46.338   7.798  1.00  0.00     0.209 HD
ENDBRANCH  16  17
ENDBRANCH  13  16
BRANCH  14  19
ATOM     19  O3*   T A   1     -41.608 -48.596   9.670  1.00  0.00    -0.393 OA
ATOM     20  H3*   T A   1     -40.844 -47.991   9.554  1.00  0.00     0.210 HD
ENDBRANCH  14  19
ENDBRANCH   1  11
TORSDOF 4
ENDMDL
MODEL 3
REMARK VINA RESULT:      -5.3      2.849      4.105
REMARK  4 active torsions:
REMARK  status: ('A' for Active; 'I' for Inactive)
REMARK    1  A    between atoms: N1_1  and  C1*_4 
REMARK    2  A    between atoms: C4*_10  and  C5*_16 
REMARK    3  A    between atoms: C3*_11  and  O3*_15 
REMARK    4  A    between atoms: C5*_16  and  O5*_17 
ROOT
ATOM      1  N1    T A   1     -41.396 -52.824  13.352  1.00  0.00    -0.282 N 
ATOM      2  C2    T A   1     -40.670 -53.945  13.729  1.00  0.00     0.331 A 
ATOM      3  N3    T A   1     -41.319 -54.829  14.544  1.00  0.00    -0.275 N 
ATOM      4  C6    T A   1     -42.721 -52.667  13.711  1.00  0.00     0.110 A 
ATOM      5  C5    T A   1     -43.373 -53.568  14.458  1.00  0.00     0.022 A 
ATOM      6  C4    T A   1     -42.628 -54.764  14.919  1.00  0.00     0.256 A 
ATOM      7  O2    T A   1     -39.518 -54.177  13.373  1.00  0.00    -0.246 OA
ATOM      8  O4    T A   1     -43.158 -55.646  15.583  1.00  0.00    -0.267 OA
ATOM      9  C5M   T A   1     -44.810 -53.474  14.852  1.00  0.00     0.056 C 
ATOM     10  H3    T A   1     -40.801 -55.647  14.825  1.00  0.00     0.173 HD
ENDROOT
BRANCH   1  11
ATOM     11  C1*   T A   1     -40.732 -51.883  12.462  1.00  0.00     0.235 C 
ATOM     12  O4*   T A   1     -39.552 -51.327  13.076  1.00  0.00    -0.356 OA
ATOM     13  C4*   T A   1     -39.405 -49.969  12.583  1.00  0.00     0.176 C 
ATOM     14  C3*   T A   1     -40.553 -49.724  11.590  1.00  0.00     0.153 C 
ATOM     15  C2*   T A   1     -41.601 -50.700  12.068  1.00  0.00     0.088 C 
BRANCH  13  16
ATOM     16  C5*   T A   1     -38.000 -49.809  12.010  1.00  0.00     0.198 C 
BRANCH  16  17
ATOM     17  O5*   T A   1     -37.614 -51.012  11.335  1.00  0.00    -0.398 OA
ATOM     18  H5*   T A   1     -38.122 -51.020  10.499  1.00  0.00     0.209 HD
ENDBRANCH  16  17
ENDBRANCH  13  16
BRANCH  14  19
ATOM     19  O3*   T A   1     -40.262 -50.023  10.228  1.00  0.00    -0.393 OA
ATOM     20  H3*   T A   1     -40.370 -50.987  10.074  1.00  0.00     0.210 HD
ENDBRANCH  14  19
ENDBRANCH   1  11
TORSDOF 4
ENDMDL
MODEL 4
REMARK VINA RESULT:      -5.3      5.535      6.684
REMARK  4 active torsions:
REMARK  status: ('A' for Active; 'I' for Inactive)
REMARK    1  A    between atoms: N1_1  and  C1*_4 
REMARK    2  A    between atoms: C4*_10  and  C5*_16 
REMARK    3  A    between atoms: C3*_11  and  O3*_15 
REMARK    4  A    between atoms: C5*_16  and  O5*_17 
ROOT
ATOM      1  N1    T A   1     -40.605 -47.677  11.417  1.00  0.00    -0.282 N 
ATOM      2  C2    T A   1     -41.498 -47.337  10.411  1.00  0.00     0.331 A 
ATOM      3  N3    T A   1     -41.689 -46.000  10.210  1.00  0.00    -0.275 N 
ATOM      4  C6    T A   1     -39.892 -46.714  12.106  1.00  0.00     0.110 A 
ATOM      5  C5    T A   1     -40.036 -45.404  11.861  1.00  0.00     0.022 A 
ATOM      6  C4    T A   1     -41.008 -44.990  10.822  1.00  0.00     0.256 A 
ATOM      7  O2    T A   1     -42.097 -48.150   9.713  1.00  0.00    -0.246 OA
ATOM      8  O4    T A   1     -41.178 -43.815  10.521  1.00  0.00    -0.267 OA
ATOM      9  C5M   T A   1     -39.273 -44.318  12.546  1.00  0.00     0.056 C 
ATOM     10  H3    T A   1     -42.336 -45.741   9.481  1.00  0.00     0.173 HD
ENDROOT
BRANCH   1  11
ATOM     11  C1*   T A   1     -40.367 -49.097  11.630  1.00  0.00     0.235 C 
ATOM     12  O4*   T A   1     -41.574 -49.775  12.033  1.00  0.00    -0.356 OA
ATOM     13  C4*   T A   1     -41.189 -50.854  12.924  1.00  0.00     0.176 C 
ATOM     14  C3*   T A   1     -39.654 -50.830  13.024  1.00  0.00     0.153 C 
ATOM     15  C2*   T A   1     -39.338 -49.387  12.711  1.00  0.00     0.088 C 
BRANCH  13  16
ATOM     16  C5*   T A   1     -41.789 -52.155  12.400  1.00  0.00     0.198 C 
BRANCH  16  17
ATOM     17  O5*   T A   1     -41.351 -52.382  11.056  1.00  0.00    -0.398 OA
ATOM     18  H5*   T A   1     -41.192 -51.493  10.677  1.00  0.00     0.209 HD
ENDBRANCH  16  17
ENDBRANCH  13  16
BRANCH  14  19
ATOM     19  O3*   T A   1     -38.964 -51.646  12.082  1.00  0.00    -0.393 OA
ATOM     20  H3*   T A   1     -39.333 -52.555  12.105  1.00  0.00     0.210 HD
ENDBRANCH  14  19
ENDBRANCH   1  11
TORSDOF 4
ENDMDL
MODEL 5
REMARK VINA RESULT:      -5.2      5.504      7.621
REMARK  4 active torsions:
REMARK  status: ('A' for Active; 'I' for Inactive)
REMARK    1  A    between atoms: N1_1  and  C1*_4 
REMARK    2  A    between atoms: C4*_10  and  C5*_16 
REMARK    3  A    between atoms: C3*_11  and  O3*_15 
REMARK    4  A    between atoms: C5*_16  and  O5*_17 
ROOT
ATOM      1  N1    T A   1     -41.201 -48.884  11.749  1.00  0.00    -0.282 N 
ATOM      2  C2    T A   1     -41.896 -49.923  12.350  1.00  0.00     0.331 A 
ATOM      3  N3    T A   1     -41.170 -51.048  12.621  1.00  0.00    -0.275 N 
ATOM      4  C6    T A   1     -39.839 -48.959  11.524  1.00  0.00     0.110 A 
ATOM      5  C5    T A   1     -39.119 -50.041  11.850  1.00  0.00     0.022 A 
ATOM      6  C4    T A   1     -39.824 -51.193  12.459  1.00  0.00     0.256 A 
ATOM      7  O2    T A   1     -43.086 -49.881  12.647  1.00  0.00    -0.246 OA
ATOM      8  O4    T A   1     -39.233 -52.208  12.809  1.00  0.00    -0.267 OA
ATOM      9  C5M   T A   1     -37.642 -50.172  11.664  1.00  0.00     0.056 C 
ATOM     10  H3    T A   1     -41.664 -51.810  13.058  1.00  0.00     0.173 HD
ENDROOT
BRANCH   1  11
ATOM     11  C1*   T A   1     -41.950 -47.667  11.476  1.00  0.00     0.235 C 
ATOM     12  O4*   T A   1     -42.466 -47.661  10.129  1.00  0.00    -0.356 OA
ATOM     13  C4*   T A   1     -42.481 -46.282   9.676  1.00  0.00     0.176 C 
ATOM     14  C3*   T A   1     -41.975 -45.419  10.844  1.00  0.00     0.153 C 
ATOM     15  C2*   T A   1     -41.125 -46.397  11.619  1.00  0.00     0.088 C 
BRANCH  13  16
ATOM     16  C5*   T A   1     -43.884 -45.949   9.178  1.00  0.00     0.198 C 
BRANCH  16  17
ATOM     17  O5*   T A   1     -44.093 -44.533   9.235  1.00  0.00    -0.398 OA
ATOM     18  H5*   T A   1     -44.031 -44.295  10.183  1.00  0.00     0.209 HD
ENDBRANCH  16  17
ENDBRANCH  13  16
BRANCH  14  19
ATOM     19  O3*   T A   1     -42.980 -44.919  11.720  1.00  0.00    -0.393 OA
ATOM     20  H3*   T A   1     -42.928 -43.939  11.753  1.00  0.00     0.210 HD
ENDBRANCH  14  19
ENDBRANCH   1  11
TORSDOF 4
ENDMDL
MODEL 6
REMARK VINA RESULT:      -5.2      5.234      6.338
REMARK  4 active torsions:
REMARK  status: ('A' for Active; 'I' for Inactive)
REMARK    1  A    between atoms: N1_1  and  C1*_4 
REMARK    2  A    between atoms: C4*_10  and  C5*_16 
REMARK    3  A    between atoms: C3*_11  and  O3*_15 
REMARK    4  A    between atoms: C5*_16  and  O5*_17 
ROOT
ATOM      1  N1    T A   1     -41.612 -47.988  11.098  1.00  0.00    -0.282 N 
ATOM      2  C2    T A   1     -40.933 -46.830  10.749  1.00  0.00     0.331 A 
ATOM      3  N3    T A   1     -41.620 -45.949   9.963  1.00  0.00    -0.275 N 
ATOM      4  C6    T A   1     -42.932 -48.187  10.741  1.00  0.00     0.110 A 
ATOM      5  C5    T A   1     -43.622 -47.291  10.022  1.00  0.00     0.022 A 
ATOM      6  C4    T A   1     -42.927 -46.055   9.592  1.00  0.00     0.256 A 
ATOM      7  O2    T A   1     -39.789 -46.563  11.107  1.00  0.00    -0.246 OA
ATOM      8  O4    T A   1     -43.496 -45.175   8.956  1.00  0.00    -0.267 OA
ATOM      9  C5M   T A   1     -45.058 -47.431   9.632  1.00  0.00     0.056 C 
ATOM     10  H3    T A   1     -41.136 -45.104   9.704  1.00  0.00     0.173 HD
ENDROOT
BRANCH   1  11
ATOM     11  C1*   T A   1     -40.907 -48.927  11.958  1.00  0.00     0.235 C 
ATOM     12  O4*   T A   1     -41.226 -50.291  11.614  1.00  0.00    -0.356 OA
ATOM     13  C4*   T A   1     -41.183 -51.068  12.839  1.00  0.00     0.176 C 
ATOM     14  C3*   T A   1     -40.778 -50.106  13.969  1.00  0.00     0.153 C 
ATOM     15  C2*   T A   1     -41.241 -48.773  13.433  1.00  0.00     0.088 C 
BRANCH  13  16
ATOM     16  C5*   T A   1     -40.249 -52.257  12.629  1.00  0.00     0.198 C 
BRANCH  16  17
ATOM     17  O5*   T A   1     -40.646 -52.980  11.459  1.00  0.00    -0.398 OA
ATOM     18  H5*   T A   1     -39.965 -53.673  11.333  1.00  0.00     0.209 HD
ENDBRANCH  16  17
ENDBRANCH  13  16
BRANCH  14  19
ATOM     19  O3*   T A   1     -39.380 -50.015  14.229  1.00  0.00    -0.393 OA
ATOM     20  H3*   T A   1     -38.882 -50.190  13.402  1.00  0.00     0.210 HD
ENDBRANCH  14  19
ENDBRANCH   1  11
TORSDOF 4
ENDMDL
MODEL 7
REMARK VINA RESULT:      -5.1      2.588      3.499
REMARK  4 active torsions:
REMARK  status: ('A' for Active; 'I' for Inactive)
REMARK    1  A    between atoms: N1_1  and  C1*_4 
REMARK    2  A    between atoms: C4*_10  and  C5*_16 
REMARK    3  A    between atoms: C3*_11  and  O3*_15 
REMARK    4  A    between atoms: C5*_16  and  O5*_17 
ROOT
ATOM      1  N1    T A   1     -42.197 -53.647  13.873  1.00  0.00    -0.282 N 
ATOM      2  C2    T A   1     -42.245 -52.817  12.762  1.00  0.00     0.331 A 
ATOM      3  N3    T A   1     -43.445 -52.759  12.112  1.00  0.00    -0.275 N 
ATOM      4  C6    T A   1     -43.324 -54.300  14.336  1.00  0.00     0.110 A 
ATOM      5  C5    T A   1     -44.515 -54.190  13.731  1.00  0.00     0.022 A 
ATOM      6  C4    T A   1     -44.607 -53.345  12.517  1.00  0.00     0.256 A 
ATOM      7  O2    T A   1     -41.298 -52.150  12.355  1.00  0.00    -0.246 OA
ATOM      8  O4    T A   1     -45.664 -53.172  11.923  1.00  0.00    -0.267 OA
ATOM      9  C5M   T A   1     -45.775 -54.842  14.199  1.00  0.00     0.056 C 
ATOM     10  H3    T A   1     -43.491 -52.159  11.304  1.00  0.00     0.173 HD
ENDROOT
BRANCH   1  11
ATOM     11  C1*   T A   1     -40.935 -53.703  14.595  1.00  0.00     0.235 C 
ATOM     12  O4*   T A   1     -40.709 -55.013  15.152  1.00  0.00    -0.356 OA
ATOM     13  C4*   T A   1     -39.973 -54.838  16.391  1.00  0.00     0.176 C 
ATOM     14  C3*   T A   1     -39.721 -53.329  16.555  1.00  0.00     0.153 C 
ATOM     15  C2*   T A   1     -40.856 -52.729  15.760  1.00  0.00     0.088 C 
BRANCH  13  16
ATOM     16  C5*   T A   1     -38.720 -55.707  16.340  1.00  0.00     0.198 C 
BRANCH  16  17
ATOM     17  O5*   T A   1     -38.200 -55.727  15.007  1.00  0.00    -0.398 OA
ATOM     18  H5*   T A   1     -37.344 -56.197  15.064  1.00  0.00     0.209 HD
ENDBRANCH  16  17
ENDBRANCH  13  16
BRANCH  14  19
ATOM     19  O3*   T A   1     -38.497 -52.847  16.008  1.00  0.00    -0.393 OA
ATOM     20  H3*   T A   1     -37.936 -53.607  15.743  1.00  0.00     0.210 HD
ENDBRANCH  14  19
ENDBRANCH   1  11
TORSDOF 4
ENDMDL
MODEL 8
REMARK VINA RESULT:      -5.1      2.044      5.767
REMARK  4 active torsions:
REMARK  status: ('A' for Active; 'I' for Inactive)
REMARK    1  A    between atoms: N1_1  and  C1*_4 
REMARK    2  A    between atoms: C4*_10  and  C5*_16 
REMARK    3  A    between atoms: C3*_11  and  O3*_15 
REMARK    4  A    between atoms: C5*_16  and  O5*_17 
ROOT
ATOM      1  N1    T A   1     -42.298 -52.383  13.406  1.00  0.00    -0.282 N 
ATOM      2  C2    T A   1     -41.746 -51.178  12.999  1.00  0.00     0.331 A 
ATOM      3  N3    T A   1     -40.383 -51.102  13.040  1.00  0.00    -0.275 N 
ATOM      4  C6    T A   1     -41.505 -53.463  13.746  1.00  0.00     0.110 A 
ATOM      5  C5    T A   1     -40.167 -53.404  13.724  1.00  0.00     0.022 A 
ATOM      6  C4    T A   1     -39.530 -52.125  13.333  1.00  0.00     0.256 A 
ATOM      7  O2    T A   1     -42.398 -50.213  12.609  1.00  0.00    -0.246 OA
ATOM      8  O4    T A   1     -38.314 -51.997  13.263  1.00  0.00    -0.267 OA
ATOM      9  C5M   T A   1     -39.255 -54.543  14.048  1.00  0.00     0.056 C 
ATOM     10  H3    T A   1     -39.970 -50.231  12.746  1.00  0.00     0.173 HD
ENDROOT
BRANCH   1  11
ATOM     11  C1*   T A   1     -43.748 -52.494  13.345  1.00  0.00     0.235 C 
ATOM     12  O4*   T A   1     -44.337 -52.387  14.656  1.00  0.00    -0.356 OA
ATOM     13  C4*   T A   1     -45.524 -53.221  14.668  1.00  0.00     0.176 C 
ATOM     14  C3*   T A   1     -45.662 -53.830  13.262  1.00  0.00     0.153 C 
ATOM     15  C2*   T A   1     -44.235 -53.814  12.768  1.00  0.00     0.088 C 
BRANCH  13  16
ATOM     16  C5*   T A   1     -46.708 -52.376  15.132  1.00  0.00     0.198 C 
BRANCH  16  17
ATOM     17  O5*   T A   1     -46.817 -51.208  14.312  1.00  0.00    -0.398 OA
ATOM     18  H5*   T A   1     -47.611 -50.734  14.633  1.00  0.00     0.209 HD
ENDBRANCH  16  17
ENDBRANCH  13  16
BRANCH  14  19
ATOM     19  O3*   T A   1     -46.454 -53.083  12.344  1.00  0.00    -0.393 OA
ATOM     20  H3*   T A   1     -47.357 -53.466  12.305  1.00  0.00     0.210 HD
ENDBRANCH  14  19
ENDBRANCH   1  11
TORSDOF 4
ENDMDL
MODEL 9
REMARK VINA RESULT:      -5.0      5.048      6.391
REMARK  4 active torsions:
REMARK  status: ('A' for Active; 'I' for Inactive)
REMARK    1  A    between atoms: N1_1  and  C1*_4 
REMARK    2  A    between atoms: C4*_10  and  C5*_16 
REMARK    3  A    between atoms: C3*_11  and  O3*_15 
REMARK    4  A    between atoms: C5*_16  and  O5*_17 
ROOT
ATOM      1  N1    T A   1     -42.064 -49.162  11.816  1.00  0.00    -0.282 N 
ATOM      2  C2    T A   1     -41.073 -50.127  11.705  1.00  0.00     0.331 A 
ATOM      3  N3    T A   1     -41.243 -51.246  12.469  1.00  0.00    -0.275 N 
ATOM      4  C6    T A   1     -43.192 -49.369  12.587  1.00  0.00     0.110 A 
ATOM      5  C5    T A   1     -43.384 -50.497  13.285  1.00  0.00     0.022 A 
ATOM      6  C4    T A   1     -42.335 -51.541  13.229  1.00  0.00     0.256 A 
ATOM      7  O2    T A   1     -40.091 -50.031  10.973  1.00  0.00    -0.246 OA
ATOM      8  O4    T A   1     -42.447 -52.610  13.818  1.00  0.00    -0.267 OA
ATOM      9  C5M   T A   1     -44.594 -50.796  14.109  1.00  0.00     0.056 C 
ATOM     10  H3    T A   1     -40.529 -51.954  12.396  1.00  0.00     0.173 HD
ENDROOT
BRANCH   1  11
ATOM     11  C1*   T A   1     -41.915 -47.972  10.990  1.00  0.00     0.235 C 
ATOM     12  O4*   T A   1     -41.113 -46.974  11.651  1.00  0.00    -0.356 OA
ATOM     13  C4*   T A   1     -41.610 -45.674  11.237  1.00  0.00     0.176 C 
ATOM     14  C3*   T A   1     -42.755 -45.926  10.241  1.00  0.00     0.153 C 
ATOM     15  C2*   T A   1     -43.235 -47.298  10.649  1.00  0.00     0.088 C 
BRANCH  13  16
ATOM     16  C5*   T A   1     -40.441 -44.857  10.694  1.00  0.00     0.198 C 
BRANCH  16  17
ATOM     17  O5*   T A   1     -39.602 -45.691   9.888  1.00  0.00    -0.398 OA
ATOM     18  H5*   T A   1     -40.204 -46.327   9.451  1.00  0.00     0.209 HD
ENDBRANCH  16  17
ENDBRANCH  13  16
BRANCH  14  19
ATOM     19  O3*   T A   1     -42.376 -45.982   8.869  1.00  0.00    -0.393 OA
ATOM     20  H3*   T A   1     -41.676 -45.317   8.696  1.00  0.00     0.210 HD
ENDBRANCH  14  19
ENDBRANCH   1  11
TORSDOF 4
ENDMDL
