MODEL 1
REMARK VINA RESULT:      -7.3      0.000      0.000
REMARK  7 active torsions:
REMARK  status: ('A' for Active; 'I' for Inactive)
REMARK    1  A    between atoms: N_1  and  C_4 
REMARK    2  A    between atoms: N_3  and  C_12 
REMARK    3  A    between atoms: C_11  and  C_21 
REMARK    4  A    between atoms: C_17  and  C_24 
REMARK    5  A    between atoms: C_17  and  C_25 
REMARK    6  A    between atoms: C_24  and  O_26 
REMARK    7  A    between atoms: C_25  and  O_27 
ROOT
HETATM    1  C   UNL     1     -42.165 -50.128  12.431  1.00  0.00     0.122 A 
HETATM    2  N   UNL     1     -42.241 -47.959  12.207  1.00  0.00    -0.322 N 
HETATM    3  C   UNL     1     -41.632 -51.422  12.234  1.00  0.00     0.135 A 
HETATM    4  C   UNL     1     -41.498 -49.055  11.844  1.00  0.00     0.140 A 
HETATM    5  N   UNL     1     -43.274 -49.692  13.136  1.00  0.00    -0.346 N 
ATOM      6  HN  UNL     1     -43.940 -50.260  13.659  1.00  0.00     0.167 HD
HETATM    7  C   UNL     1     -43.282 -48.390  12.983  1.00  0.00     0.185 A 
HETATM    8  N   UNL     1     -40.380 -49.116  11.098  1.00  0.00    -0.336 N 
ATOM      9  HN  UNL     1     -39.913 -48.306  10.692  1.00  0.00     0.168 HD
HETATM   10  N   UNL     1     -40.503 -51.516  11.473  1.00  0.00    -0.337 N 
ATOM     11  HN  UNL     1     -40.074 -52.425  11.295  1.00  0.00     0.168 HD
HETATM   12  C   UNL     1     -39.960 -50.389  10.958  1.00  0.00     0.183 A 
ENDROOT
BRANCH   3  13
HETATM   13  N   UNL     1     -42.238 -52.574  12.771  1.00  0.00    -0.359 N 
HETATM   14  C   UNL     1     -43.554 -53.044  12.477  1.00  0.00     0.136 C 
HETATM   15  C   UNL     1     -43.761 -53.334  13.979  1.00  0.00    -0.003 C 
HETATM   16  C   UNL     1     -44.272 -54.748  14.284  1.00  0.00     0.013 C 
HETATM   17  C   UNL     1     -44.625 -52.266  14.689  1.00  0.00     0.013 C 
HETATM   18  C   UNL     1     -42.212 -53.053  14.130  1.00  0.00     0.099 C 
HETATM   19  C   UNL     1     -45.752 -54.896  13.952  1.00  0.00     0.001 C 
HETATM   20  C   UNL     1     -46.577 -53.873  14.723  1.00  0.00     0.000 C 
HETATM   21  C   UNL     1     -46.116 -52.459  14.390  1.00  0.00     0.001 C 
BRANCH  18  22
HETATM   22  C   UNL     1     -41.231 -54.237  14.292  1.00  0.00     0.001 C 
HETATM   23  C   UNL     1     -39.795 -53.838  13.940  1.00  0.00     0.011 C 
HETATM   24  C   UNL     1     -41.239 -54.752  15.735  1.00  0.00     0.011 C 
ENDBRANCH  18  22
ENDBRANCH   3  13
BRANCH   2  25
HETATM   25  C   UNL     1     -42.058 -46.562  11.917  1.00  0.00     0.094 C 
HETATM   26  C   UNL     1     -41.664 -46.240  10.450  1.00  0.00     0.039 C 
HETATM   27  C   UNL     1     -40.709 -45.130  11.009  1.00  0.00     0.006 C 
HETATM   28  C   UNL     1     -40.681 -45.976  12.324  1.00  0.00     0.039 C 
BRANCH  27  29
HETATM   29  C   UNL     1     -39.374 -44.960  10.277  1.00  0.00     0.175 C 
BRANCH  29  30
HETATM   30  O   UNL     1     -39.558 -44.562   8.923  1.00  0.00    -0.400 OA
HETATM   31  H   UNL     1     -38.810 -43.996   8.667  1.00  0.00     0.209 HD
ENDBRANCH  29  30
ENDBRANCH  27  29
BRANCH  27  32
HETATM   32  C   UNL     1     -41.404 -43.764  11.152  1.00  0.00     0.175 C 
BRANCH  32  33
HETATM   33  O   UNL     1     -40.545 -42.732  10.678  1.00  0.00    -0.400 OA
HETATM   34  H   UNL     1     -40.705 -42.625   9.723  1.00  0.00     0.209 HD
ENDBRANCH  32  33
ENDBRANCH  27  32
ENDBRANCH   2  25
TORSDOF 7
ENDMDL
MODEL 2
REMARK VINA RESULT:      -7.0      3.881      8.475
REMARK  7 active torsions:
REMARK  status: ('A' for Active; 'I' for Inactive)
REMARK    1  A    between atoms: N_1  and  C_4 
REMARK    2  A    between atoms: N_3  and  C_12 
REMARK    3  A    between atoms: C_11  and  C_21 
REMARK    4  A    between atoms: C_17  and  C_24 
REMARK    5  A    between atoms: C_17  and  C_25 
REMARK    6  A    between atoms: C_24  and  O_26 
REMARK    7  A    between atoms: C_25  and  O_27 
ROOT
HETATM    1  C   UNL     1     -42.041 -49.211  11.924  1.00  0.00     0.122 A 
HETATM    2  N   UNL     1     -42.605 -51.071  12.915  1.00  0.00    -0.322 N 
HETATM    3  C   UNL     1     -41.179 -48.343  11.217  1.00  0.00     0.135 A 
HETATM    4  C   UNL     1     -41.563 -50.480  12.245  1.00  0.00     0.140 A 
HETATM    5  N   UNL     1     -43.337 -49.044  12.380  1.00  0.00    -0.346 N 
ATOM      6  HN  UNL     1     -43.927 -48.218  12.285  1.00  0.00     0.167 HD
HETATM    7  C   UNL     1     -43.642 -50.179  12.961  1.00  0.00     0.185 A 
HETATM    8  N   UNL     1     -40.350 -50.980  11.947  1.00  0.00    -0.336 N 
ATOM      9  HN  UNL     1     -40.038 -51.920  12.190  1.00  0.00     0.168 HD
HETATM   10  N   UNL     1     -39.938 -48.819  10.909  1.00  0.00    -0.337 N 
ATOM     11  HN  UNL     1     -39.272 -48.237  10.401  1.00  0.00     0.168 HD
HETATM   12  C   UNL     1     -39.602 -50.074  11.286  1.00  0.00     0.183 A 
ENDROOT
BRANCH   3  13
HETATM   13  N   UNL     1     -41.559 -47.035  10.857  1.00  0.00    -0.359 N 
HETATM   14  C   UNL     1     -40.980 -45.828  11.353  1.00  0.00     0.136 C 
HETATM   15  C   UNL     1     -42.397 -45.233  11.493  1.00  0.00    -0.003 C 
HETATM   16  C   UNL     1     -42.568 -43.852  10.847  1.00  0.00     0.013 C 
HETATM   17  C   UNL     1     -42.912 -45.231  12.951  1.00  0.00     0.013 C 
HETATM   18  C   UNL     1     -42.885 -46.500  10.683  1.00  0.00     0.099 C 
HETATM   19  C   UNL     1     -41.920 -42.754  11.682  1.00  0.00     0.001 C 
HETATM   20  C   UNL     1     -42.503 -42.739  13.090  1.00  0.00     0.000 C 
HETATM   21  C   UNL     1     -42.292 -44.089  13.766  1.00  0.00     0.001 C 
BRANCH  18  22
HETATM   22  C   UNL     1     -43.246 -46.361   9.187  1.00  0.00     0.001 C 
HETATM   23  C   UNL     1     -43.289 -47.720   8.483  1.00  0.00     0.011 C 
HETATM   24  C   UNL     1     -44.617 -45.697   9.020  1.00  0.00     0.011 C 
ENDBRANCH  18  22
ENDBRANCH   3  13
BRANCH   2  25
HETATM   25  C   UNL     1     -42.728 -52.384  13.491  1.00  0.00     0.094 C 
HETATM   26  C   UNL     1     -43.553 -53.398  12.651  1.00  0.00     0.039 C 
HETATM   27  C   UNL     1     -44.145 -53.944  13.996  1.00  0.00     0.006 C 
HETATM   28  C   UNL     1     -43.822 -52.529  14.581  1.00  0.00     0.039 C 
BRANCH  27  29
HETATM   29  C   UNL     1     -45.622 -54.349  13.964  1.00  0.00     0.175 C 
BRANCH  29  30
HETATM   30  O   UNL     1     -45.784 -55.760  13.882  1.00  0.00    -0.400 OA
HETATM   31  H   UNL     1     -45.218 -56.172  14.557  1.00  0.00     0.209 HD
ENDBRANCH  29  30
ENDBRANCH  27  29
BRANCH  27  32
HETATM   32  C   UNL     1     -43.303 -55.084  14.597  1.00  0.00     0.175 C 
BRANCH  32  33
HETATM   33  O   UNL     1     -43.755 -55.375  15.915  1.00  0.00    -0.400 OA
HETATM   34  H   UNL     1     -43.461 -56.276  16.140  1.00  0.00     0.209 HD
ENDBRANCH  32  33
ENDBRANCH  27  32
ENDBRANCH   2  25
TORSDOF 7
ENDMDL
MODEL 3
REMARK VINA RESULT:      -6.6      1.494      3.170
REMARK  7 active torsions:
REMARK  status: ('A' for Active; 'I' for Inactive)
REMARK    1  A    between atoms: N_1  and  C_4 
REMARK    2  A    between atoms: N_3  and  C_12 
REMARK    3  A    between atoms: C_11  and  C_21 
REMARK    4  A    between atoms: C_17  and  C_24 
REMARK    5  A    between atoms: C_17  and  C_25 
REMARK    6  A    between atoms: C_24  and  O_26 
REMARK    7  A    between atoms: C_25  and  O_27 
ROOT
HETATM    1  C   UNL     1     -41.958 -50.273  13.506  1.00  0.00     0.122 A 
HETATM    2  N   UNL     1     -41.091 -48.492  12.590  1.00  0.00    -0.322 N 
HETATM    3  C   UNL     1     -42.272 -51.647  13.597  1.00  0.00     0.135 A 
HETATM    4  C   UNL     1     -41.234 -49.844  12.396  1.00  0.00     0.140 A 
HETATM    5  N   UNL     1     -42.237 -49.211  14.350  1.00  0.00    -0.346 N 
ATOM      6  HN  UNL     1     -42.751 -49.237  15.231  1.00  0.00     0.167 HD
HETATM    7  C   UNL     1     -41.697 -48.166  13.772  1.00  0.00     0.185 A 
HETATM    8  N   UNL     1     -40.790 -50.611  11.383  1.00  0.00    -0.336 N 
ATOM      9  HN  UNL     1     -40.253 -50.263  10.589  1.00  0.00     0.168 HD
HETATM   10  N   UNL     1     -41.843 -52.448  12.579  1.00  0.00    -0.337 N 
ATOM     11  HN  UNL     1     -42.042 -53.449  12.590  1.00  0.00     0.168 HD
HETATM   12  C   UNL     1     -41.150 -51.898  11.555  1.00  0.00     0.183 A 
ENDROOT
BRANCH   3  13
HETATM   13  N   UNL     1     -43.012 -52.180  14.671  1.00  0.00    -0.359 N 
HETATM   14  C   UNL     1     -42.480 -52.605  15.926  1.00  0.00     0.136 C 
HETATM   15  C   UNL     1     -43.388 -53.852  15.861  1.00  0.00    -0.003 C 
HETATM   16  C   UNL     1     -44.222 -54.092  17.127  1.00  0.00     0.013 C 
HETATM   17  C   UNL     1     -42.630 -55.133  15.445  1.00  0.00     0.013 C 
HETATM   18  C   UNL     1     -44.086 -53.139  14.634  1.00  0.00     0.099 C 
HETATM   19  C   UNL     1     -43.373 -54.649  18.264  1.00  0.00     0.001 C 
HETATM   20  C   UNL     1     -42.698 -55.948  17.838  1.00  0.00     0.000 C 
HETATM   21  C   UNL     1     -41.823 -55.714  16.612  1.00  0.00     0.001 C 
BRANCH  18  22
HETATM   22  C   UNL     1     -45.460 -52.457  14.825  1.00  0.00     0.001 C 
HETATM   23  C   UNL     1     -45.694 -51.350  13.792  1.00  0.00     0.011 C 
HETATM   24  C   UNL     1     -46.595 -53.477  14.690  1.00  0.00     0.011 C 
ENDBRANCH  18  22
ENDBRANCH   3  13
BRANCH   2  25
HETATM   25  C   UNL     1     -40.430 -47.495  11.792  1.00  0.00     0.094 C 
HETATM   26  C   UNL     1     -40.275 -46.105  12.469  1.00  0.00     0.039 C 
HETATM   27  C   UNL     1     -40.575 -45.454  11.075  1.00  0.00     0.006 C 
HETATM   28  C   UNL     1     -41.325 -46.786  10.742  1.00  0.00     0.039 C 
BRANCH  27  29
HETATM   29  C   UNL     1     -41.424 -44.179  11.098  1.00  0.00     0.175 C 
BRANCH  29  30
HETATM   30  O   UNL     1     -40.683 -43.042  10.669  1.00  0.00    -0.400 OA
HETATM   31  H   UNL     1     -40.650 -42.405  11.404  1.00  0.00     0.209 HD
ENDBRANCH  29  30
ENDBRANCH  27  29
BRANCH  27  32
HETATM   32  C   UNL     1     -39.302 -45.221  10.242  1.00  0.00     0.175 C 
BRANCH  32  33
HETATM   33  O   UNL     1     -39.655 -44.832   8.918  1.00  0.00    -0.400 OA
HETATM   34  H   UNL     1     -39.707 -45.638   8.373  1.00  0.00     0.209 HD
ENDBRANCH  32  33
ENDBRANCH  27  32
ENDBRANCH   2  25
TORSDOF 7
ENDMDL
MODEL 4
REMARK VINA RESULT:      -6.4      1.458      2.180
REMARK  7 active torsions:
REMARK  status: ('A' for Active; 'I' for Inactive)
REMARK    1  A    between atoms: N_1  and  C_4 
REMARK    2  A    between atoms: N_3  and  C_12 
REMARK    3  A    between atoms: C_11  and  C_21 
REMARK    4  A    between atoms: C_17  and  C_24 
REMARK    5  A    between atoms: C_17  and  C_25 
REMARK    6  A    between atoms: C_24  and  O_26 
REMARK    7  A    between atoms: C_25  and  O_27 
ROOT
HETATM    1  C   UNL     1     -41.993 -49.508  12.882  1.00  0.00     0.122 A 
HETATM    2  N   UNL     1     -41.472 -47.657  11.849  1.00  0.00    -0.322 N 
HETATM    3  C   UNL     1     -42.234 -50.325  14.008  1.00  0.00     0.135 A 
HETATM    4  C   UNL     1     -41.638 -48.179  13.108  1.00  0.00     0.140 A 
HETATM    5  N   UNL     1     -42.048 -49.777  11.525  1.00  0.00    -0.346 N 
ATOM      6  HN  UNL     1     -42.279 -50.664  11.077  1.00  0.00     0.167 HD
HETATM    7  C   UNL     1     -41.737 -48.646  10.941  1.00  0.00     0.185 A 
HETATM    8  N   UNL     1     -41.500 -47.579  14.304  1.00  0.00    -0.336 N 
ATOM      9  HN  UNL     1     -41.248 -46.599  14.431  1.00  0.00     0.168 HD
HETATM   10  N   UNL     1     -42.093 -49.746  15.235  1.00  0.00    -0.337 N 
ATOM     11  HN  UNL     1     -42.253 -50.288  16.085  1.00  0.00     0.168 HD
HETATM   12  C   UNL     1     -41.739 -48.442  15.311  1.00  0.00     0.183 A 
ENDROOT
BRANCH   3  13
HETATM   13  N   UNL     1     -42.584 -51.685  13.889  1.00  0.00    -0.359 N 
HETATM   14  C   UNL     1     -43.816 -52.191  13.376  1.00  0.00     0.136 C 
HETATM   15  C   UNL     1     -43.849 -53.216  14.530  1.00  0.00    -0.003 C 
HETATM   16  C   UNL     1     -44.078 -54.665  14.080  1.00  0.00     0.013 C 
HETATM   17  C   UNL     1     -44.826 -52.824  15.662  1.00  0.00     0.013 C 
HETATM   18  C   UNL     1     -42.365 -52.755  14.828  1.00  0.00     0.099 C 
HETATM   19  C   UNL     1     -45.532 -54.911  13.693  1.00  0.00     0.001 C 
HETATM   20  C   UNL     1     -46.458 -54.580  14.856  1.00  0.00     0.000 C 
HETATM   21  C   UNL     1     -46.280 -53.127  15.280  1.00  0.00     0.001 C 
BRANCH  18  22
HETATM   22  C   UNL     1     -41.183 -53.652  14.397  1.00  0.00     0.001 C 
HETATM   23  C   UNL     1     -39.913 -52.836  14.140  1.00  0.00     0.011 C 
HETATM   24  C   UNL     1     -40.867 -54.689  15.480  1.00  0.00     0.011 C 
ENDBRANCH  18  22
ENDBRANCH   3  13
BRANCH   2  25
HETATM   25  C   UNL     1     -41.115 -46.331  11.422  1.00  0.00     0.094 C 
HETATM   26  C   UNL     1     -39.872 -45.724  12.128  1.00  0.00     0.039 C 
HETATM   27  C   UNL     1     -40.616 -44.344  12.130  1.00  0.00     0.006 C 
HETATM   28  C   UNL     1     -41.934 -45.184  12.069  1.00  0.00     0.039 C 
BRANCH  27  29
HETATM   29  C   UNL     1     -40.417 -43.474  13.374  1.00  0.00     0.175 C 
BRANCH  29  30
HETATM   30  O   UNL     1     -39.141 -42.844  13.383  1.00  0.00    -0.400 OA
HETATM   31  H   UNL     1     -38.589 -43.264  12.702  1.00  0.00     0.209 HD
ENDBRANCH  29  30
ENDBRANCH  27  29
BRANCH  27  32
HETATM   32  C   UNL     1     -40.335 -43.516  10.862  1.00  0.00     0.175 C 
BRANCH  32  33
HETATM   33  O   UNL     1     -40.538 -42.133  11.133  1.00  0.00    -0.400 OA
HETATM   34  H   UNL     1     -39.738 -41.794  11.574  1.00  0.00     0.209 HD
ENDBRANCH  32  33
ENDBRANCH  27  32
ENDBRANCH   2  25
TORSDOF 7
ENDMDL
MODEL 5
REMARK VINA RESULT:      -6.3      2.169      3.986
REMARK  7 active torsions:
REMARK  status: ('A' for Active; 'I' for Inactive)
REMARK    1  A    between atoms: N_1  and  C_4 
REMARK    2  A    between atoms: N_3  and  C_12 
REMARK    3  A    between atoms: C_11  and  C_21 
REMARK    4  A    between atoms: C_17  and  C_24 
REMARK    5  A    between atoms: C_17  and  C_25 
REMARK    6  A    between atoms: C_24  and  O_26 
REMARK    7  A    between atoms: C_25  and  O_27 
ROOT
HETATM    1  C   UNL     1     -41.185 -50.740  13.922  1.00  0.00     0.122 A 
HETATM    2  N   UNL     1     -41.752 -48.893  12.906  1.00  0.00    -0.322 N 
HETATM    3  C   UNL     1     -40.284 -51.713  14.409  1.00  0.00     0.135 A 
HETATM    4  C   UNL     1     -40.653 -49.640  13.251  1.00  0.00     0.140 A 
HETATM    5  N   UNL     1     -42.565 -50.654  13.987  1.00  0.00    -0.346 N 
ATOM      6  HN  UNL     1     -43.209 -51.318  14.418  1.00  0.00     0.167 HD
HETATM    7  C   UNL     1     -42.866 -49.534  13.375  1.00  0.00     0.185 A 
HETATM    8  N   UNL     1     -39.350 -49.398  13.015  1.00  0.00    -0.336 N 
ATOM      9  HN  UNL     1     -38.996 -48.576  12.529  1.00  0.00     0.168 HD
HETATM   10  N   UNL     1     -38.957 -51.499  14.177  1.00  0.00    -0.337 N 
ATOM     11  HN  UNL     1     -38.261 -52.168  14.504  1.00  0.00     0.168 HD
HETATM   12  C   UNL     1     -38.577 -50.387  13.507  1.00  0.00     0.183 A 
ENDROOT
BRANCH   3  13
HETATM   13  N   UNL     1     -40.721 -52.868  15.088  1.00  0.00    -0.359 N 
HETATM   14  C   UNL     1     -40.201 -53.361  16.323  1.00  0.00     0.136 C 
HETATM   15  C   UNL     1     -40.231 -54.789  15.738  1.00  0.00    -0.003 C 
HETATM   16  C   UNL     1     -40.933 -55.822  16.631  1.00  0.00     0.013 C 
HETATM   17  C   UNL     1     -38.838 -55.293  15.296  1.00  0.00     0.013 C 
HETATM   18  C   UNL     1     -41.052 -54.159  14.542  1.00  0.00     0.099 C 
HETATM   19  C   UNL     1     -40.065 -56.222  17.819  1.00  0.00     0.001 C 
HETATM   20  C   UNL     1     -38.729 -56.778  17.341  1.00  0.00     0.000 C 
HETATM   21  C   UNL     1     -37.996 -55.742  16.495  1.00  0.00     0.001 C 
BRANCH  18  22
HETATM   22  C   UNL     1     -42.582 -54.366  14.470  1.00  0.00     0.001 C 
HETATM   23  C   UNL     1     -43.323 -53.490  15.484  1.00  0.00     0.011 C 
HETATM   24  C   UNL     1     -43.109 -54.024  13.072  1.00  0.00     0.011 C 
ENDBRANCH  18  22
ENDBRANCH   3  13
BRANCH   2  25
HETATM   25  C   UNL     1     -41.853 -47.641  12.206  1.00  0.00     0.094 C 
HETATM   26  C   UNL     1     -43.281 -47.272  11.717  1.00  0.00     0.039 C 
HETATM   27  C   UNL     1     -42.626 -46.700  10.413  1.00  0.00     0.006 C 
HETATM   28  C   UNL     1     -41.446 -47.683  10.710  1.00  0.00     0.039 C 
BRANCH  27  29
HETATM   29  C   UNL     1     -43.401 -46.935   9.113  1.00  0.00     0.175 C 
BRANCH  29  30
HETATM   30  O   UNL     1     -42.864 -46.182   8.032  1.00  0.00    -0.400 OA
HETATM   31  H   UNL     1     -42.404 -45.407   8.398  1.00  0.00     0.209 HD
ENDBRANCH  29  30
ENDBRANCH  27  29
BRANCH  27  32
HETATM   32  C   UNL     1     -42.254 -45.211  10.539  1.00  0.00     0.175 C 
BRANCH  32  33
HETATM   33  O   UNL     1     -43.335 -44.403  10.084  1.00  0.00    -0.400 OA
HETATM   34  H   UNL     1     -43.126 -43.476  10.298  1.00  0.00     0.209 HD
ENDBRANCH  32  33
ENDBRANCH  27  32
ENDBRANCH   2  25
TORSDOF 7
ENDMDL
MODEL 6
REMARK VINA RESULT:      -6.3      2.828      4.861
REMARK  7 active torsions:
REMARK  status: ('A' for Active; 'I' for Inactive)
REMARK    1  A    between atoms: N_1  and  C_4 
REMARK    2  A    between atoms: N_3  and  C_12 
REMARK    3  A    between atoms: C_11  and  C_21 
REMARK    4  A    between atoms: C_17  and  C_24 
REMARK    5  A    between atoms: C_17  and  C_25 
REMARK    6  A    between atoms: C_24  and  O_26 
REMARK    7  A    between atoms: C_25  and  O_27 
ROOT
HETATM    1  C   UNL     1     -41.534 -50.512  13.721  1.00  0.00     0.122 A 
HETATM    2  N   UNL     1     -41.961 -49.185  12.042  1.00  0.00    -0.322 N 
HETATM    3  C   UNL     1     -41.846 -51.467  14.714  1.00  0.00     0.135 A 
HETATM    4  C   UNL     1     -42.562 -50.094  12.878  1.00  0.00     0.140 A 
HETATM    5  N   UNL     1     -40.346 -49.880  13.398  1.00  0.00    -0.346 N 
ATOM      6  HN  UNL     1     -39.438 -49.996  13.849  1.00  0.00     0.167 HD
HETATM    7  C   UNL     1     -40.640 -49.100  12.386  1.00  0.00     0.185 A 
HETATM    8  N   UNL     1     -43.841 -50.510  12.905  1.00  0.00    -0.336 N 
ATOM      9  HN  UNL     1     -44.566 -50.188  12.263  1.00  0.00     0.168 HD
HETATM   10  N   UNL     1     -43.138 -51.900  14.772  1.00  0.00    -0.337 N 
ATOM     11  HN  UNL     1     -43.422 -52.588  15.470  1.00  0.00     0.168 HD
HETATM   12  C   UNL     1     -44.039 -51.406  13.891  1.00  0.00     0.183 A 
ENDROOT
BRANCH   3  13
HETATM   13  N   UNL     1     -40.883 -51.944  15.626  1.00  0.00    -0.359 N 
HETATM   14  C   UNL     1     -40.257 -51.182  16.659  1.00  0.00     0.136 C 
HETATM   15  C   UNL     1     -38.907 -51.829  16.285  1.00  0.00    -0.003 C 
HETATM   16  C   UNL     1     -38.144 -52.429  17.473  1.00  0.00     0.013 C 
HETATM   17  C   UNL     1     -37.996 -50.894  15.456  1.00  0.00     0.013 C 
HETATM   18  C   UNL     1     -39.756 -52.805  15.375  1.00  0.00     0.099 C 
HETATM   19  C   UNL     1     -37.498 -51.348  18.333  1.00  0.00     0.001 C 
HETATM   20  C   UNL     1     -36.556 -50.493  17.495  1.00  0.00     0.000 C 
HETATM   21  C   UNL     1     -37.312 -49.846  16.340  1.00  0.00     0.001 C 
BRANCH  18  22
HETATM   22  C   UNL     1     -40.032 -54.249  15.851  1.00  0.00     0.001 C 
HETATM   23  C   UNL     1     -41.322 -54.811  15.247  1.00  0.00     0.011 C 
HETATM   24  C   UNL     1     -38.880 -55.179  15.455  1.00  0.00     0.011 C 
ENDBRANCH  18  22
ENDBRANCH   3  13
BRANCH   2  25
HETATM   25  C   UNL     1     -42.497 -48.415  10.952  1.00  0.00     0.094 C 
HETATM   26  C   UNL     1     -41.566 -47.293  10.417  1.00  0.00     0.039 C 
HETATM   27  C   UNL     1     -42.840 -46.396  10.242  1.00  0.00     0.006 C 
HETATM   28  C   UNL     1     -43.480 -47.286  11.359  1.00  0.00     0.039 C 
BRANCH  27  29
HETATM   29  C   UNL     1     -42.666 -44.910  10.570  1.00  0.00     0.175 C 
BRANCH  29  30
HETATM   30  O   UNL     1     -43.589 -44.097   9.855  1.00  0.00    -0.400 OA
HETATM   31  H   UNL     1     -44.467 -44.205  10.259  1.00  0.00     0.209 HD
ENDBRANCH  29  30
ENDBRANCH  27  29
BRANCH  27  32
HETATM   32  C   UNL     1     -43.493 -46.553   8.857  1.00  0.00     0.175 C 
BRANCH  32  33
HETATM   33  O   UNL     1     -42.697 -45.904   7.871  1.00  0.00    -0.400 OA
HETATM   34  H   UNL     1     -42.011 -45.389   8.332  1.00  0.00     0.209 HD
ENDBRANCH  32  33
ENDBRANCH  27  32
ENDBRANCH   2  25
TORSDOF 7
ENDMDL
MODEL 7
REMARK VINA RESULT:      -6.2      4.932      5.596
REMARK  7 active torsions:
REMARK  status: ('A' for Active; 'I' for Inactive)
REMARK    1  A    between atoms: N_1  and  C_4 
REMARK    2  A    between atoms: N_3  and  C_12 
REMARK    3  A    between atoms: C_11  and  C_21 
REMARK    4  A    between atoms: C_17  and  C_24 
REMARK    5  A    between atoms: C_17  and  C_25 
REMARK    6  A    between atoms: C_24  and  O_26 
REMARK    7  A    between atoms: C_25  and  O_27 
ROOT
HETATM    1  C   UNL     1     -39.286 -50.833  14.236  1.00  0.00     0.122 A 
HETATM    2  N   UNL     1     -37.902 -49.668  15.457  1.00  0.00    -0.322 N 
HETATM    3  C   UNL     1     -39.856 -51.297  13.030  1.00  0.00     0.135 A 
HETATM    4  C   UNL     1     -38.231 -49.926  14.149  1.00  0.00     0.140 A 
HETATM    5  N   UNL     1     -39.579 -51.120  15.558  1.00  0.00    -0.346 N 
ATOM      6  HN  UNL     1     -40.300 -51.748  15.912  1.00  0.00     0.167 HD
HETATM    7  C   UNL     1     -38.726 -50.410  16.257  1.00  0.00     0.185 A 
HETATM    8  N   UNL     1     -37.685 -49.438  13.021  1.00  0.00    -0.336 N 
ATOM      9  HN  UNL     1     -36.905 -48.781  12.995  1.00  0.00     0.168 HD
HETATM   10  N   UNL     1     -39.328 -50.812  11.869  1.00  0.00    -0.337 N 
ATOM     11  HN  UNL     1     -39.701 -51.111  10.967  1.00  0.00     0.168 HD
HETATM   12  C   UNL     1     -38.304 -49.930  11.929  1.00  0.00     0.183 A 
ENDROOT
BRANCH   3  13
HETATM   13  N   UNL     1     -40.935 -52.203  13.008  1.00  0.00    -0.359 N 
HETATM   14  C   UNL     1     -42.126 -52.069  12.233  1.00  0.00     0.136 C 
HETATM   15  C   UNL     1     -42.947 -52.519  13.460  1.00  0.00    -0.003 C 
HETATM   16  C   UNL     1     -43.937 -53.657  13.175  1.00  0.00     0.013 C 
HETATM   17  C   UNL     1     -43.645 -51.346  14.187  1.00  0.00     0.013 C 
HETATM   18  C   UNL     1     -41.555 -52.889  14.113  1.00  0.00     0.099 C 
HETATM   19  C   UNL     1     -45.162 -53.161  12.416  1.00  0.00     0.001 C 
HETATM   20  C   UNL     1     -45.861 -52.054  13.196  1.00  0.00     0.000 C 
HETATM   21  C   UNL     1     -44.905 -50.892  13.442  1.00  0.00     0.001 C 
BRANCH  18  22
HETATM   22  C   UNL     1     -41.110 -54.368  14.181  1.00  0.00     0.001 C 
HETATM   23  C   UNL     1     -39.587 -54.508  14.099  1.00  0.00     0.011 C 
HETATM   24  C   UNL     1     -41.575 -55.014  15.490  1.00  0.00     0.011 C 
ENDBRANCH  18  22
ENDBRANCH   3  13
BRANCH   2  25
HETATM   25  C   UNL     1     -36.886 -48.819  16.019  1.00  0.00     0.094 C 
HETATM   26  C   UNL     1     -35.654 -49.562  16.602  1.00  0.00     0.039 C 
HETATM   27  C   UNL     1     -35.638 -48.509  17.763  1.00  0.00     0.006 C 
HETATM   28  C   UNL     1     -37.162 -48.323  17.463  1.00  0.00     0.039 C 
BRANCH  27  29
HETATM   29  C   UNL     1     -35.275 -49.044  19.151  1.00  0.00     0.175 C 
BRANCH  29  30
HETATM   30  O   UNL     1     -33.884 -48.916  19.423  1.00  0.00    -0.400 OA
HETATM   31  H   UNL     1     -33.698 -49.352  20.272  1.00  0.00     0.209 HD
ENDBRANCH  29  30
ENDBRANCH  27  29
BRANCH  27  32
HETATM   32  C   UNL     1     -34.775 -47.276  17.436  1.00  0.00     0.175 C 
BRANCH  32  33
HETATM   33  O   UNL     1     -34.703 -46.421  18.572  1.00  0.00    -0.400 OA
HETATM   34  H   UNL     1     -34.083 -45.699  18.364  1.00  0.00     0.209 HD
ENDBRANCH  32  33
ENDBRANCH  27  32
ENDBRANCH   2  25
TORSDOF 7
ENDMDL
MODEL 8
REMARK VINA RESULT:      -6.1      5.057      8.442
REMARK  7 active torsions:
REMARK  status: ('A' for Active; 'I' for Inactive)
REMARK    1  A    between atoms: N_1  and  C_4 
REMARK    2  A    between atoms: N_3  and  C_12 
REMARK    3  A    between atoms: C_11  and  C_21 
REMARK    4  A    between atoms: C_17  and  C_24 
REMARK    5  A    between atoms: C_17  and  C_25 
REMARK    6  A    between atoms: C_24  and  O_26 
REMARK    7  A    between atoms: C_25  and  O_27 
ROOT
HETATM    1  C   UNL     1     -40.615 -50.671  13.951  1.00  0.00     0.122 A 
HETATM    2  N   UNL     1     -42.180 -52.180  14.135  1.00  0.00    -0.322 N 
HETATM    3  C   UNL     1     -39.807 -49.736  13.267  1.00  0.00     0.135 A 
HETATM    4  C   UNL     1     -41.571 -51.365  13.213  1.00  0.00     0.140 A 
HETATM    5  N   UNL     1     -40.652 -51.050  15.282  1.00  0.00    -0.346 N 
ATOM      6  HN  UNL     1     -40.066 -50.705  16.042  1.00  0.00     0.167 HD
HETATM    7  C   UNL     1     -41.604 -51.948  15.353  1.00  0.00     0.185 A 
HETATM    8  N   UNL     1     -41.815 -51.239  11.896  1.00  0.00    -0.336 N 
ATOM      9  HN  UNL     1     -42.532 -51.758  11.389  1.00  0.00     0.168 HD
HETATM   10  N   UNL     1     -40.025 -49.593  11.927  1.00  0.00    -0.337 N 
ATOM     11  HN  UNL     1     -39.470 -48.933  11.381  1.00  0.00     0.168 HD
HETATM   12  C   UNL     1     -40.987 -50.336  11.334  1.00  0.00     0.183 A 
ENDROOT
BRANCH   3  13
HETATM   13  N   UNL     1     -38.801 -48.993  13.917  1.00  0.00    -0.359 N 
HETATM   14  C   UNL     1     -37.542 -49.498  14.362  1.00  0.00     0.136 C 
HETATM   15  C   UNL     1     -37.716 -48.708  15.676  1.00  0.00    -0.003 C 
HETATM   16  C   UNL     1     -36.510 -47.837  16.053  1.00  0.00     0.013 C 
HETATM   17  C   UNL     1     -38.152 -49.596  16.864  1.00  0.00     0.013 C 
HETATM   18  C   UNL     1     -38.943 -48.012  14.961  1.00  0.00     0.099 C 
HETATM   19  C   UNL     1     -35.358 -48.675  16.596  1.00  0.00     0.001 C 
HETATM   20  C   UNL     1     -35.809 -49.482  17.807  1.00  0.00     0.000 C 
HETATM   21  C   UNL     1     -36.974 -50.392  17.435  1.00  0.00     0.001 C 
BRANCH  18  22
HETATM   22  C   UNL     1     -38.794 -46.575  14.410  1.00  0.00     0.001 C 
HETATM   23  C   UNL     1     -39.695 -46.336  13.195  1.00  0.00     0.011 C 
HETATM   24  C   UNL     1     -39.160 -45.543  15.482  1.00  0.00     0.011 C 
ENDBRANCH  18  22
ENDBRANCH   3  13
BRANCH   2  25
HETATM   25  C   UNL     1     -43.252 -53.128  13.987  1.00  0.00     0.094 C 
HETATM   26  C   UNL     1     -44.681 -52.537  14.137  1.00  0.00     0.039 C 
HETATM   27  C   UNL     1     -45.084 -53.848  14.895  1.00  0.00     0.006 C 
HETATM   28  C   UNL     1     -43.565 -53.976  15.248  1.00  0.00     0.039 C 
BRANCH  27  29
HETATM   29  C   UNL     1     -46.046 -53.675  16.073  1.00  0.00     0.175 C 
BRANCH  29  30
HETATM   30  O   UNL     1     -45.931 -54.737  17.013  1.00  0.00    -0.400 OA
HETATM   31  H   UNL     1     -46.727 -54.738  17.572  1.00  0.00     0.209 HD
ENDBRANCH  29  30
ENDBRANCH  27  29
BRANCH  27  32
HETATM   32  C   UNL     1     -45.606 -54.945  13.949  1.00  0.00     0.175 C 
BRANCH  32  33
HETATM   33  O   UNL     1     -46.853 -55.440  14.426  1.00  0.00    -0.400 OA
HETATM   34  H   UNL     1     -47.014 -56.304  14.003  1.00  0.00     0.209 HD
ENDBRANCH  32  33
ENDBRANCH  27  32
ENDBRANCH   2  25
TORSDOF 7
ENDMDL
MODEL 9
REMARK VINA RESULT:      -6.1      2.336      4.146
REMARK  7 active torsions:
REMARK  status: ('A' for Active; 'I' for Inactive)
REMARK    1  A    between atoms: N_1  and  C_4 
REMARK    2  A    between atoms: N_3  and  C_12 
REMARK    3  A    between atoms: C_11  and  C_21 
REMARK    4  A    between atoms: C_17  and  C_24 
REMARK    5  A    between atoms: C_17  and  C_25 
REMARK    6  A    between atoms: C_24  and  O_26 
REMARK    7  A    between atoms: C_25  and  O_27 
ROOT
HETATM    1  C   UNL     1     -40.982 -50.654  13.214  1.00  0.00     0.122 A 
HETATM    2  N   UNL     1     -41.518 -49.031  11.858  1.00  0.00    -0.322 N 
HETATM    3  C   UNL     1     -41.224 -51.799  14.006  1.00  0.00     0.135 A 
HETATM    4  C   UNL     1     -42.058 -50.107  12.519  1.00  0.00     0.140 A 
HETATM    5  N   UNL     1     -39.824 -49.935  12.973  1.00  0.00    -0.346 N 
ATOM      6  HN  UNL     1     -38.893 -50.111  13.351  1.00  0.00     0.167 HD
HETATM    7  C   UNL     1     -40.184 -48.976  12.154  1.00  0.00     0.185 A 
HETATM    8  N   UNL     1     -43.325 -50.558  12.517  1.00  0.00    -0.336 N 
ATOM      9  HN  UNL     1     -44.087 -50.137  11.987  1.00  0.00     0.168 HD
HETATM   10  N   UNL     1     -42.503 -52.274  14.032  1.00  0.00    -0.337 N 
ATOM     11  HN  UNL     1     -42.737 -53.097  14.588  1.00  0.00     0.168 HD
HETATM   12  C   UNL     1     -43.455 -51.641  13.310  1.00  0.00     0.183 A 
ENDROOT
BRANCH   3  13
HETATM   13  N   UNL     1     -40.208 -52.420  14.760  1.00  0.00    -0.359 N 
HETATM   14  C   UNL     1     -39.769 -53.771  14.620  1.00  0.00     0.136 C 
HETATM   15  C   UNL     1     -39.738 -53.896  16.158  1.00  0.00    -0.003 C 
HETATM   16  C   UNL     1     -38.422 -54.449  16.720  1.00  0.00     0.013 C 
HETATM   17  C   UNL     1     -40.952 -54.665  16.728  1.00  0.00     0.013 C 
HETATM   18  C   UNL     1     -39.955 -52.329  16.175  1.00  0.00     0.099 C 
HETATM   19  C   UNL     1     -38.303 -55.953  16.499  1.00  0.00     0.001 C 
HETATM   20  C   UNL     1     -39.480 -56.681  17.135  1.00  0.00     0.000 C 
HETATM   21  C   UNL     1     -40.795 -56.179  16.547  1.00  0.00     0.001 C 
BRANCH  18  22
HETATM   22  C   UNL     1     -38.762 -51.394  16.476  1.00  0.00     0.001 C 
HETATM   23  C   UNL     1     -39.150 -49.918  16.347  1.00  0.00     0.011 C 
HETATM   24  C   UNL     1     -38.240 -51.624  17.899  1.00  0.00     0.011 C 
ENDBRANCH  18  22
ENDBRANCH   3  13
BRANCH   2  25
HETATM   25  C   UNL     1     -42.123 -48.074  10.971  1.00  0.00     0.094 C 
HETATM   26  C   UNL     1     -41.261 -46.818  10.668  1.00  0.00     0.039 C 
HETATM   27  C   UNL     1     -42.577 -45.969  10.719  1.00  0.00     0.006 C 
HETATM   28  C   UNL     1     -43.140 -47.108  11.633  1.00  0.00     0.039 C 
BRANCH  27  29
HETATM   29  C   UNL     1     -42.457 -44.581  11.354  1.00  0.00     0.175 C 
BRANCH  29  30
HETATM   30  O   UNL     1     -41.742 -43.676  10.520  1.00  0.00    -0.400 OA
HETATM   31  H   UNL     1     -42.144 -43.695   9.634  1.00  0.00     0.209 HD
ENDBRANCH  29  30
ENDBRANCH  27  29
BRANCH  27  32
HETATM   32  C   UNL     1     -43.269 -45.861   9.348  1.00  0.00     0.175 C 
BRANCH  32  33
HETATM   33  O   UNL     1     -43.967 -44.623   9.256  1.00  0.00    -0.400 OA
HETATM   34  H   UNL     1     -43.500 -44.063   8.609  1.00  0.00     0.209 HD
ENDBRANCH  32  33
ENDBRANCH  27  32
ENDBRANCH   2  25
TORSDOF 7
ENDMDL
