MODEL 1
REMARK VINA RESULT:      -6.6      0.000      0.000
REMARK  8 active torsions:
REMARK  status: ('A' for Active; 'I' for Inactive)
REMARK    1  A    between atoms: N_2  and  C_13 
REMARK    2  A    between atoms: C_4  and  N_8 
REMARK    3  A    between atoms: N_8  and  C_14 
REMARK    4  A    between atoms: C_13  and  C_17 
REMARK    5  A    between atoms: C_14  and  C_15 
REMARK    6  A    between atoms: C_15  and  S_16 
REMARK    7  A    between atoms: C_17  and  C_22 
REMARK    8  A    between atoms: C_22  and  O_23 
ROOT
HETATM    1  C   UNL     1     -42.313 -49.338  12.060  1.00  0.00     0.122 A 
HETATM    2  N   UNL     1     -42.468 -51.065  13.434  1.00  0.00    -0.326 N 
HETATM    3  C   UNL     1     -41.606 -50.420  12.575  1.00  0.00     0.140 A 
HETATM    4  C   UNL     1     -41.664 -48.499  11.093  1.00  0.00     0.135 A 
HETATM    5  N   UNL     1     -43.579 -49.310  12.619  1.00  0.00    -0.346 N 
ATOM      6  HN  UNL     1     -44.317 -48.630  12.436  1.00  0.00     0.167 HD
HETATM    7  C   UNL     1     -43.636 -50.342  13.436  1.00  0.00     0.185 A 
HETATM    8  N   UNL     1     -40.405 -48.883  10.731  1.00  0.00    -0.337 N 
ATOM      9  HN  UNL     1     -39.899 -48.363  10.015  1.00  0.00     0.168 HD
HETATM   10  N   UNL     1     -40.349 -50.786  12.258  1.00  0.00    -0.336 N 
ATOM     11  HN  UNL     1     -39.855 -51.579  12.666  1.00  0.00     0.168 HD
HETATM   12  C   UNL     1     -39.832 -49.955  11.323  1.00  0.00     0.183 A 
ENDROOT
BRANCH   2  13
HETATM   13  C   UNL     1     -42.213 -52.281  14.221  1.00  0.00     0.143 C 
BRANCH  13  14
HETATM   14  C   UNL     1     -42.316 -53.635  13.434  1.00  0.00     0.001 C 
HETATM   15  C   UNL     1     -43.232 -53.474  12.194  1.00  0.00     0.039 C 
HETATM   16  C   UNL     1     -44.708 -53.425  12.588  1.00  0.00     0.168 C 
HETATM   17  O   UNL     1     -45.085 -54.648  13.205  1.00  0.00    -0.391 OA
HETATM   18  C   UNL     1     -44.423 -54.836  14.451  1.00  0.00     0.168 C 
HETATM   19  C   UNL     1     -42.904 -54.804  14.294  1.00  0.00     0.039 C 
BRANCH  14  20
HETATM   20  C   UNL     1     -40.892 -54.090  13.029  1.00  0.00     0.175 C 
BRANCH  20  21
HETATM   21  O   UNL     1     -40.603 -53.663  11.699  1.00  0.00    -0.400 OA
HETATM   22  H   UNL     1     -40.399 -54.462  11.169  1.00  0.00     0.209 HD
ENDBRANCH  20  21
ENDBRANCH  14  20
ENDBRANCH  13  14
ENDBRANCH   2  13
BRANCH   4  23
HETATM   23  N   UNL     1     -42.247 -47.353  10.512  1.00  0.00    -0.364 N 
HETATM   24  C   UNL     1     -41.358 -46.192  10.533  1.00  0.00     0.151 C 
BRANCH  23  25
HETATM   25  C   UNL     1     -43.206 -47.516   9.370  1.00  0.00     0.093 C 
HETATM   26  C   UNL     1     -43.122 -46.353   8.360  1.00  0.00     0.033 C 
BRANCH  25  27
HETATM   27  C   UNL     1     -44.631 -47.643   9.960  1.00  0.00     0.133 C 
BRANCH  27  28
HETATM   28  S   UNL     1     -45.914 -47.956   8.694  1.00  0.00     0.012 S 
HETATM   29  O   UNL     1     -46.814 -49.045   9.195  1.00  0.00    -0.258 OA
HETATM   30  C   UNL     1     -46.789 -46.385   8.881  1.00  0.00     0.127 C 
ENDBRANCH  27  28
ENDBRANCH  25  27
ENDBRANCH  23  25
ENDBRANCH   4  23
TORSDOF 8
ENDMDL
MODEL 2
REMARK VINA RESULT:      -6.5      2.155      2.825
REMARK  8 active torsions:
REMARK  status: ('A' for Active; 'I' for Inactive)
REMARK    1  A    between atoms: N_2  and  C_13 
REMARK    2  A    between atoms: C_4  and  N_8 
REMARK    3  A    between atoms: N_8  and  C_14 
REMARK    4  A    between atoms: C_13  and  C_17 
REMARK    5  A    between atoms: C_14  and  C_15 
REMARK    6  A    between atoms: C_15  and  S_16 
REMARK    7  A    between atoms: C_17  and  C_22 
REMARK    8  A    between atoms: C_22  and  O_23 
ROOT
HETATM    1  C   UNL     1     -42.212 -49.291  12.023  1.00  0.00     0.122 A 
HETATM    2  N   UNL     1     -42.472 -51.017  13.381  1.00  0.00    -0.326 N 
HETATM    3  C   UNL     1     -41.549 -50.377  12.585  1.00  0.00     0.140 A 
HETATM    4  C   UNL     1     -41.493 -48.455  11.104  1.00  0.00     0.135 A 
HETATM    5  N   UNL     1     -43.514 -49.258  12.491  1.00  0.00    -0.346 N 
ATOM      6  HN  UNL     1     -44.234 -48.574  12.257  1.00  0.00     0.167 HD
HETATM    7  C   UNL     1     -43.634 -50.290  13.301  1.00  0.00     0.185 A 
HETATM    8  N   UNL     1     -40.215 -48.845  10.831  1.00  0.00    -0.337 N 
ATOM      9  HN  UNL     1     -39.656 -48.327  10.153  1.00  0.00     0.168 HD
HETATM   10  N   UNL     1     -40.274 -50.748  12.357  1.00  0.00    -0.336 N 
ATOM     11  HN  UNL     1     -39.814 -51.544  12.798  1.00  0.00     0.168 HD
HETATM   12  C   UNL     1     -39.689 -49.920  11.461  1.00  0.00     0.183 A 
ENDROOT
BRANCH   2  13
HETATM   13  C   UNL     1     -42.278 -52.236  14.184  1.00  0.00     0.143 C 
BRANCH  13  14
HETATM   14  C   UNL     1     -42.371 -53.591  13.397  1.00  0.00     0.001 C 
HETATM   15  C   UNL     1     -43.291 -53.437  12.159  1.00  0.00     0.039 C 
HETATM   16  C   UNL     1     -44.767 -53.400  12.555  1.00  0.00     0.168 C 
HETATM   17  O   UNL     1     -45.132 -54.626  13.174  1.00  0.00    -0.391 OA
HETATM   18  C   UNL     1     -44.467 -54.808  14.418  1.00  0.00     0.168 C 
HETATM   19  C   UNL     1     -42.949 -54.764  14.258  1.00  0.00     0.039 C 
BRANCH  14  20
HETATM   20  C   UNL     1     -40.945 -54.034  12.990  1.00  0.00     0.175 C 
BRANCH  20  21
HETATM   21  O   UNL     1     -40.667 -53.618  11.654  1.00  0.00    -0.400 OA
HETATM   22  H   UNL     1     -40.624 -54.423  11.096  1.00  0.00     0.209 HD
ENDBRANCH  20  21
ENDBRANCH  14  20
ENDBRANCH  13  14
ENDBRANCH   2  13
BRANCH   4  23
HETATM   23  N   UNL     1     -42.030 -47.306  10.484  1.00  0.00    -0.364 N 
HETATM   24  C   UNL     1     -42.846 -47.626   9.313  1.00  0.00     0.151 C 
BRANCH  23  25
HETATM   25  C   UNL     1     -42.394 -46.119  11.325  1.00  0.00     0.093 C 
HETATM   26  C   UNL     1     -42.726 -44.875  10.474  1.00  0.00     0.033 C 
BRANCH  25  27
HETATM   27  C   UNL     1     -41.214 -45.839  12.288  1.00  0.00     0.133 C 
BRANCH  27  28
HETATM   28  S   UNL     1     -41.666 -46.002  14.053  1.00  0.00     0.012 S 
HETATM   29  O   UNL     1     -43.010 -46.661  14.136  1.00  0.00    -0.258 OA
HETATM   30  C   UNL     1     -40.417 -47.237  14.482  1.00  0.00     0.127 C 
ENDBRANCH  27  28
ENDBRANCH  25  27
ENDBRANCH  23  25
ENDBRANCH   4  23
TORSDOF 8
ENDMDL
MODEL 3
REMARK VINA RESULT:      -6.5      1.700      2.281
REMARK  8 active torsions:
REMARK  status: ('A' for Active; 'I' for Inactive)
REMARK    1  A    between atoms: N_2  and  C_13 
REMARK    2  A    between atoms: C_4  and  N_8 
REMARK    3  A    between atoms: N_8  and  C_14 
REMARK    4  A    between atoms: C_13  and  C_17 
REMARK    5  A    between atoms: C_14  and  C_15 
REMARK    6  A    between atoms: C_15  and  S_16 
REMARK    7  A    between atoms: C_17  and  C_22 
REMARK    8  A    between atoms: C_22  and  O_23 
ROOT
HETATM    1  C   UNL     1     -41.433 -49.265  12.272  1.00  0.00     0.122 A 
HETATM    2  N   UNL     1     -42.351 -51.260  12.538  1.00  0.00    -0.326 N 
HETATM    3  C   UNL     1     -41.186 -50.629  12.159  1.00  0.00     0.140 A 
HETATM    4  C   UNL     1     -40.390 -48.351  11.898  1.00  0.00     0.135 A 
HETATM    5  N   UNL     1     -42.721 -49.069  12.739  1.00  0.00    -0.346 N 
ATOM      6  HN  UNL     1     -43.179 -48.177  12.925  1.00  0.00     0.167 HD
HETATM    7  C   UNL     1     -43.235 -50.272  12.895  1.00  0.00     0.185 A 
HETATM    8  N   UNL     1     -39.252 -48.925  11.412  1.00  0.00    -0.337 N 
ATOM      9  HN  UNL     1     -38.485 -48.340  11.083  1.00  0.00     0.168 HD
HETATM   10  N   UNL     1     -40.053 -51.209  11.720  1.00  0.00    -0.336 N 
ATOM     11  HN  UNL     1     -39.901 -52.216  11.663  1.00  0.00     0.168 HD
HETATM   12  C   UNL     1     -39.143 -50.273  11.367  1.00  0.00     0.183 A 
ENDROOT
BRANCH   2  13
HETATM   13  C   UNL     1     -42.620 -52.706  12.579  1.00  0.00     0.143 C 
BRANCH  13  14
HETATM   14  C   UNL     1     -42.055 -53.468  13.829  1.00  0.00     0.001 C 
HETATM   15  C   UNL     1     -43.041 -54.576  14.280  1.00  0.00     0.039 C 
HETATM   16  C   UNL     1     -44.253 -53.990  15.006  1.00  0.00     0.168 C 
HETATM   17  O   UNL     1     -43.833 -53.324  16.189  1.00  0.00    -0.391 OA
HETATM   18  C   UNL     1     -43.044 -52.177  15.896  1.00  0.00     0.168 C 
HETATM   19  C   UNL     1     -41.815 -52.534  15.063  1.00  0.00     0.039 C 
BRANCH  14  20
HETATM   20  C   UNL     1     -40.668 -54.058  13.474  1.00  0.00     0.175 C 
BRANCH  20  21
HETATM   21  O   UNL     1     -40.530 -54.161  12.058  1.00  0.00    -0.400 OA
HETATM   22  H   UNL     1     -39.904 -53.463  11.770  1.00  0.00     0.209 HD
ENDBRANCH  20  21
ENDBRANCH  14  20
ENDBRANCH  13  14
ENDBRANCH   2  13
BRANCH   4  23
HETATM   23  N   UNL     1     -40.490 -46.947  11.990  1.00  0.00    -0.364 N 
HETATM   24  C   UNL     1     -39.656 -46.389  13.054  1.00  0.00     0.151 C 
BRANCH  23  25
HETATM   25  C   UNL     1     -40.716 -46.143  10.744  1.00  0.00     0.093 C 
HETATM   26  C   UNL     1     -39.817 -44.891  10.680  1.00  0.00     0.033 C 
BRANCH  25  27
HETATM   27  C   UNL     1     -42.215 -45.759  10.692  1.00  0.00     0.133 C 
BRANCH  27  28
HETATM   28  S   UNL     1     -43.220 -46.900   9.673  1.00  0.00     0.012 S 
HETATM   29  O   UNL     1     -44.112 -47.684  10.587  1.00  0.00    -0.258 OA
HETATM   30  C   UNL     1     -44.228 -45.635   8.866  1.00  0.00     0.127 C 
ENDBRANCH  27  28
ENDBRANCH  25  27
ENDBRANCH  23  25
ENDBRANCH   4  23
TORSDOF 8
ENDMDL
MODEL 4
REMARK VINA RESULT:      -6.2      3.693      6.959
REMARK  8 active torsions:
REMARK  status: ('A' for Active; 'I' for Inactive)
REMARK    1  A    between atoms: N_2  and  C_13 
REMARK    2  A    between atoms: C_4  and  N_8 
REMARK    3  A    between atoms: N_8  and  C_14 
REMARK    4  A    between atoms: C_13  and  C_17 
REMARK    5  A    between atoms: C_14  and  C_15 
REMARK    6  A    between atoms: C_15  and  S_16 
REMARK    7  A    between atoms: C_17  and  C_22 
REMARK    8  A    between atoms: C_22  and  O_23 
ROOT
HETATM    1  C   UNL     1     -42.953 -51.736  12.698  1.00  0.00     0.122 A 
HETATM    2  N   UNL     1     -41.382 -50.443  11.829  1.00  0.00    -0.326 N 
HETATM    3  C   UNL     1     -41.692 -51.755  12.111  1.00  0.00     0.140 A 
HETATM    4  C   UNL     1     -43.519 -52.980  13.137  1.00  0.00     0.135 A 
HETATM    5  N   UNL     1     -43.415 -50.432  12.748  1.00  0.00    -0.346 N 
ATOM      6  HN  UNL     1     -44.308 -50.110  13.120  1.00  0.00     0.167 HD
HETATM    7  C   UNL     1     -42.464 -49.691  12.216  1.00  0.00     0.185 A 
HETATM    8  N   UNL     1     -42.724 -54.077  12.975  1.00  0.00    -0.337 N 
ATOM      9  HN  UNL     1     -43.039 -54.989  13.305  1.00  0.00     0.168 HD
HETATM   10  N   UNL     1     -40.915 -52.836  11.906  1.00  0.00    -0.336 N 
ATOM     11  HN  UNL     1     -39.999 -52.816  11.459  1.00  0.00     0.168 HD
HETATM   12  C   UNL     1     -41.518 -53.952  12.376  1.00  0.00     0.183 A 
ENDROOT
BRANCH   2  13
HETATM   13  C   UNL     1     -40.150 -49.920  11.218  1.00  0.00     0.143 C 
BRANCH  13  14
HETATM   14  C   UNL     1     -39.156 -49.203  12.198  1.00  0.00     0.001 C 
HETATM   15  C   UNL     1     -37.689 -49.454  11.763  1.00  0.00     0.039 C 
HETATM   16  C   UNL     1     -37.233 -50.872  12.109  1.00  0.00     0.168 C 
HETATM   17  O   UNL     1     -37.270 -51.061  13.517  1.00  0.00    -0.391 OA
HETATM   18  C   UNL     1     -38.600 -51.015  14.022  1.00  0.00     0.168 C 
HETATM   19  C   UNL     1     -39.288 -49.696  13.679  1.00  0.00     0.039 C 
BRANCH  14  20
HETATM   20  C   UNL     1     -39.484 -47.691  12.229  1.00  0.00     0.175 C 
BRANCH  20  21
HETATM   21  O   UNL     1     -39.741 -47.219  10.908  1.00  0.00    -0.400 OA
HETATM   22  H   UNL     1     -40.608 -47.583  10.627  1.00  0.00     0.209 HD
ENDBRANCH  20  21
ENDBRANCH  14  20
ENDBRANCH  13  14
ENDBRANCH   2  13
BRANCH   4  23
HETATM   23  N   UNL     1     -44.797 -53.113  13.720  1.00  0.00    -0.364 N 
HETATM   24  C   UNL     1     -45.877 -52.745  12.804  1.00  0.00     0.151 C 
BRANCH  23  25
HETATM   25  C   UNL     1     -45.035 -54.195  14.730  1.00  0.00     0.093 C 
HETATM   26  C   UNL     1     -46.528 -54.559  14.862  1.00  0.00     0.033 C 
BRANCH  25  27
HETATM   27  C   UNL     1     -44.454 -53.717  16.084  1.00  0.00     0.133 C 
BRANCH  27  28
HETATM   28  S   UNL     1     -43.034 -54.718  16.656  1.00  0.00     0.012 S 
HETATM   29  O   UNL     1     -42.799 -55.813  15.660  1.00  0.00    -0.258 OA
HETATM   30  C   UNL     1     -41.765 -53.456  16.400  1.00  0.00     0.127 C 
ENDBRANCH  27  28
ENDBRANCH  25  27
ENDBRANCH  23  25
ENDBRANCH   4  23
TORSDOF 8
ENDMDL
MODEL 5
REMARK VINA RESULT:      -6.2      2.933      3.627
REMARK  8 active torsions:
REMARK  status: ('A' for Active; 'I' for Inactive)
REMARK    1  A    between atoms: N_2  and  C_13 
REMARK    2  A    between atoms: C_4  and  N_8 
REMARK    3  A    between atoms: N_8  and  C_14 
REMARK    4  A    between atoms: C_13  and  C_17 
REMARK    5  A    between atoms: C_14  and  C_15 
REMARK    6  A    between atoms: C_15  and  S_16 
REMARK    7  A    between atoms: C_17  and  C_22 
REMARK    8  A    between atoms: C_22  and  O_23 
ROOT
HETATM    1  C   UNL     1     -41.279 -50.021  11.875  1.00  0.00     0.122 A 
HETATM    2  N   UNL     1     -41.350 -52.113  12.593  1.00  0.00    -0.326 N 
HETATM    3  C   UNL     1     -40.483 -51.105  12.232  1.00  0.00     0.140 A 
HETATM    4  C   UNL     1     -40.634 -48.826  11.412  1.00  0.00     0.135 A 
HETATM    5  N   UNL     1     -42.611 -50.358  12.041  1.00  0.00    -0.346 N 
ATOM      6  HN  UNL     1     -43.422 -49.765  11.864  1.00  0.00     0.167 HD
HETATM    7  C   UNL     1     -42.619 -51.601  12.476  1.00  0.00     0.185 A 
HETATM    8  N   UNL     1     -39.274 -48.889  11.321  1.00  0.00    -0.337 N 
ATOM      9  HN  UNL     1     -38.749 -48.094  10.957  1.00  0.00     0.168 HD
HETATM   10  N   UNL     1     -39.138 -51.166  12.187  1.00  0.00    -0.336 N 
ATOM     11  HN  UNL     1     -38.584 -51.974  12.470  1.00  0.00     0.168 HD
HETATM   12  C   UNL     1     -38.624 -50.008  11.714  1.00  0.00     0.183 A 
ENDROOT
BRANCH   2  13
HETATM   13  C   UNL     1     -41.012 -53.476  13.035  1.00  0.00     0.143 C 
BRANCH  13  14
HETATM   14  C   UNL     1     -40.614 -53.621  14.546  1.00  0.00     0.001 C 
HETATM   15  C   UNL     1     -41.309 -54.856  15.174  1.00  0.00     0.039 C 
HETATM   16  C   UNL     1     -42.791 -54.592  15.443  1.00  0.00     0.168 C 
HETATM   17  O   UNL     1     -42.930 -53.534  16.382  1.00  0.00    -0.391 OA
HETATM   18  C   UNL     1     -42.470 -52.295  15.854  1.00  0.00     0.168 C 
HETATM   19  C   UNL     1     -41.011 -52.378  15.410  1.00  0.00     0.039 C 
BRANCH  14  20
HETATM   20  C   UNL     1     -39.072 -53.728  14.650  1.00  0.00     0.175 C 
BRANCH  20  21
HETATM   21  O   UNL     1     -38.527 -54.157  13.403  1.00  0.00    -0.400 OA
HETATM   22  H   UNL     1     -37.568 -53.953  13.413  1.00  0.00     0.209 HD
ENDBRANCH  20  21
ENDBRANCH  14  20
ENDBRANCH  13  14
ENDBRANCH   2  13
BRANCH   4  23
HETATM   23  N   UNL     1     -41.313 -47.644  11.047  1.00  0.00    -0.364 N 
HETATM   24  C   UNL     1     -42.249 -47.849   9.942  1.00  0.00     0.151 C 
BRANCH  23  25
HETATM   25  C   UNL     1     -41.640 -46.628  12.100  1.00  0.00     0.093 C 
HETATM   26  C   UNL     1     -42.963 -46.941  12.829  1.00  0.00     0.033 C 
BRANCH  25  27
HETATM   27  C   UNL     1     -41.691 -45.238  11.421  1.00  0.00     0.133 C 
BRANCH  27  28
HETATM   28  S   UNL     1     -40.036 -44.519  11.118  1.00  0.00     0.012 S 
HETATM   29  O   UNL     1     -39.769 -44.556   9.644  1.00  0.00    -0.258 OA
HETATM   30  C   UNL     1     -40.456 -42.818  11.562  1.00  0.00     0.127 C 
ENDBRANCH  27  28
ENDBRANCH  25  27
ENDBRANCH  23  25
ENDBRANCH   4  23
TORSDOF 8
ENDMDL
MODEL 6
REMARK VINA RESULT:      -6.1      3.066      4.562
REMARK  8 active torsions:
REMARK  status: ('A' for Active; 'I' for Inactive)
REMARK    1  A    between atoms: N_2  and  C_13 
REMARK    2  A    between atoms: C_4  and  N_8 
REMARK    3  A    between atoms: N_8  and  C_14 
REMARK    4  A    between atoms: C_13  and  C_17 
REMARK    5  A    between atoms: C_14  and  C_15 
REMARK    6  A    between atoms: C_15  and  S_16 
REMARK    7  A    between atoms: C_17  and  C_22 
REMARK    8  A    between atoms: C_22  and  O_23 
ROOT
HETATM    1  C   UNL     1     -41.844 -51.317  13.129  1.00  0.00     0.122 A 
HETATM    2  N   UNL     1     -44.019 -51.715  13.209  1.00  0.00    -0.326 N 
HETATM    3  C   UNL     1     -42.795 -52.331  13.070  1.00  0.00     0.140 A 
HETATM    4  C   UNL     1     -40.462 -51.669  12.971  1.00  0.00     0.135 A 
HETATM    5  N   UNL     1     -42.481 -50.104  13.326  1.00  0.00    -0.346 N 
ATOM      6  HN  UNL     1     -42.043 -49.187  13.414  1.00  0.00     0.167 HD
HETATM    7  C   UNL     1     -43.769 -50.376  13.378  1.00  0.00     0.185 A 
HETATM    8  N   UNL     1     -40.216 -52.988  12.725  1.00  0.00    -0.337 N 
ATOM      9  HN  UNL     1     -39.262 -53.307  12.556  1.00  0.00     0.168 HD
HETATM   10  N   UNL     1     -42.562 -53.643  12.871  1.00  0.00    -0.336 N 
ATOM     11  HN  UNL     1     -43.283 -54.363  12.848  1.00  0.00     0.168 HD
HETATM   12  C   UNL     1     -41.239 -53.872  12.706  1.00  0.00     0.183 A 
ENDROOT
BRANCH   2  13
HETATM   13  C   UNL     1     -45.350 -52.344  13.197  1.00  0.00     0.143 C 
BRANCH  13  14
HETATM   14  C   UNL     1     -45.751 -53.111  14.506  1.00  0.00     0.001 C 
HETATM   15  C   UNL     1     -47.143 -52.645  15.003  1.00  0.00     0.039 C 
HETATM   16  C   UNL     1     -47.073 -51.266  15.662  1.00  0.00     0.168 C 
HETATM   17  O   UNL     1     -46.237 -51.321  16.810  1.00  0.00    -0.391 OA
HETATM   18  C   UNL     1     -44.882 -51.584  16.464  1.00  0.00     0.168 C 
HETATM   19  C   UNL     1     -44.743 -52.890  15.683  1.00  0.00     0.039 C 
BRANCH  14  20
HETATM   20  C   UNL     1     -45.735 -54.633  14.221  1.00  0.00     0.175 C 
BRANCH  20  21
HETATM   21  O   UNL     1     -45.373 -54.871  12.862  1.00  0.00    -0.400 OA
HETATM   22  H   UNL     1     -45.878 -54.241  12.306  1.00  0.00     0.209 HD
ENDBRANCH  20  21
ENDBRANCH  14  20
ENDBRANCH  13  14
ENDBRANCH   2  13
BRANCH   4  23
HETATM   23  N   UNL     1     -39.393 -50.751  13.038  1.00  0.00    -0.364 N 
HETATM   24  C   UNL     1     -38.264 -51.253  13.821  1.00  0.00     0.151 C 
BRANCH  23  25
HETATM   25  C   UNL     1     -39.125 -49.848  11.870  1.00  0.00     0.093 C 
HETATM   26  C   UNL     1     -37.674 -49.962  11.358  1.00  0.00     0.033 C 
BRANCH  25  27
HETATM   27  C   UNL     1     -39.452 -48.398  12.306  1.00  0.00     0.133 C 
BRANCH  27  28
HETATM   28  S   UNL     1     -40.713 -47.593  11.253  1.00  0.00     0.012 S 
HETATM   29  O   UNL     1     -41.665 -48.646  10.770  1.00  0.00    -0.258 OA
HETATM   30  C   UNL     1     -41.534 -46.668  12.571  1.00  0.00     0.127 C 
ENDBRANCH  27  28
ENDBRANCH  25  27
ENDBRANCH  23  25
ENDBRANCH   4  23
TORSDOF 8
ENDMDL
MODEL 7
REMARK VINA RESULT:      -5.9      3.368      7.496
REMARK  8 active torsions:
REMARK  status: ('A' for Active; 'I' for Inactive)
REMARK    1  A    between atoms: N_2  and  C_13 
REMARK    2  A    between atoms: C_4  and  N_8 
REMARK    3  A    between atoms: N_8  and  C_14 
REMARK    4  A    between atoms: C_13  and  C_17 
REMARK    5  A    between atoms: C_14  and  C_15 
REMARK    6  A    between atoms: C_15  and  S_16 
REMARK    7  A    between atoms: C_17  and  C_22 
REMARK    8  A    between atoms: C_22  and  O_23 
ROOT
HETATM    1  C   UNL     1     -43.124 -50.993  13.130  1.00  0.00     0.122 A 
HETATM    2  N   UNL     1     -42.003 -49.096  12.927  1.00  0.00    -0.326 N 
HETATM    3  C   UNL     1     -42.018 -50.411  12.518  1.00  0.00     0.140 A 
HETATM    4  C   UNL     1     -43.367 -52.390  12.911  1.00  0.00     0.135 A 
HETATM    5  N   UNL     1     -43.786 -50.037  13.881  1.00  0.00    -0.346 N 
ATOM      6  HN  UNL     1     -44.632 -50.170  14.436  1.00  0.00     0.167 HD
HETATM    7  C   UNL     1     -43.102 -48.922  13.732  1.00  0.00     0.185 A 
HETATM    8  N   UNL     1     -42.440 -53.035  12.144  1.00  0.00    -0.337 N 
ATOM      9  HN  UNL     1     -42.521 -54.038  11.981  1.00  0.00     0.168 HD
HETATM   10  N   UNL     1     -41.120 -51.026  11.724  1.00  0.00    -0.336 N 
ATOM     11  HN  UNL     1     -40.327 -50.564  11.279  1.00  0.00     0.168 HD
HETATM   12  C   UNL     1     -41.416 -52.340  11.599  1.00  0.00     0.183 A 
ENDROOT
BRANCH   2  13
HETATM   13  C   UNL     1     -41.025 -48.054  12.575  1.00  0.00     0.143 C 
BRANCH  13  14
HETATM   14  C   UNL     1     -41.489 -47.026  11.484  1.00  0.00     0.001 C 
HETATM   15  C   UNL     1     -40.270 -46.269  10.898  1.00  0.00     0.039 C 
HETATM   16  C   UNL     1     -39.741 -45.215  11.871  1.00  0.00     0.168 C 
HETATM   17  O   UNL     1     -40.741 -44.234  12.112  1.00  0.00    -0.391 OA
HETATM   18  C   UNL     1     -41.859 -44.780  12.802  1.00  0.00     0.168 C 
HETATM   19  C   UNL     1     -42.480 -45.947  12.036  1.00  0.00     0.039 C 
BRANCH  14  20
HETATM   20  C   UNL     1     -42.267 -47.783  10.380  1.00  0.00     0.175 C 
BRANCH  20  21
HETATM   21  O   UNL     1     -41.391 -48.666   9.682  1.00  0.00    -0.400 OA
HETATM   22  H   UNL     1     -41.368 -48.381   8.744  1.00  0.00     0.209 HD
ENDBRANCH  20  21
ENDBRANCH  14  20
ENDBRANCH  13  14
ENDBRANCH   2  13
BRANCH   4  23
HETATM   23  N   UNL     1     -44.463 -53.102  13.443  1.00  0.00    -0.364 N 
HETATM   24  C   UNL     1     -45.729 -52.755  12.797  1.00  0.00     0.151 C 
BRANCH  23  25
HETATM   25  C   UNL     1     -44.258 -54.501  13.942  1.00  0.00     0.093 C 
HETATM   26  C   UNL     1     -45.545 -55.348  13.862  1.00  0.00     0.033 C 
BRANCH  25  27
HETATM   27  C   UNL     1     -43.733 -54.415  15.396  1.00  0.00     0.133 C 
BRANCH  27  28
HETATM   28  S   UNL     1     -41.941 -54.753  15.541  1.00  0.00     0.012 S 
HETATM   29  O   UNL     1     -41.313 -53.633  16.314  1.00  0.00    -0.258 OA
HETATM   30  C   UNL     1     -42.080 -56.178  16.643  1.00  0.00     0.127 C 
ENDBRANCH  27  28
ENDBRANCH  25  27
ENDBRANCH  23  25
ENDBRANCH   4  23
TORSDOF 8
ENDMDL
MODEL 8
REMARK VINA RESULT:      -5.8      3.000      4.505
REMARK  8 active torsions:
REMARK  status: ('A' for Active; 'I' for Inactive)
REMARK    1  A    between atoms: N_2  and  C_13 
REMARK    2  A    between atoms: C_4  and  N_8 
REMARK    3  A    between atoms: N_8  and  C_14 
REMARK    4  A    between atoms: C_13  and  C_17 
REMARK    5  A    between atoms: C_14  and  C_15 
REMARK    6  A    between atoms: C_15  and  S_16 
REMARK    7  A    between atoms: C_17  and  C_22 
REMARK    8  A    between atoms: C_22  and  O_23 
ROOT
HETATM    1  C   UNL     1     -42.211 -49.812  12.890  1.00  0.00     0.122 A 
HETATM    2  N   UNL     1     -43.253 -50.906  14.506  1.00  0.00    -0.326 N 
HETATM    3  C   UNL     1     -42.404 -51.078  13.435  1.00  0.00     0.140 A 
HETATM    4  C   UNL     1     -41.388 -49.693  11.720  1.00  0.00     0.135 A 
HETATM    5  N   UNL     1     -42.912 -48.881  13.636  1.00  0.00    -0.346 N 
ATOM      6  HN  UNL     1     -42.956 -47.874  13.478  1.00  0.00     0.167 HD
HETATM    7  C   UNL     1     -43.512 -49.560  14.592  1.00  0.00     0.185 A 
HETATM    8  N   UNL     1     -40.905 -50.867  11.219  1.00  0.00    -0.337 N 
ATOM      9  HN  UNL     1     -40.351 -50.867  10.363  1.00  0.00     0.168 HD
HETATM   10  N   UNL     1     -41.899 -52.238  12.975  1.00  0.00    -0.336 N 
ATOM     11  HN  UNL     1     -42.050 -53.149  13.408  1.00  0.00     0.168 HD
HETATM   12  C   UNL     1     -41.163 -52.029  11.859  1.00  0.00     0.183 A 
ENDROOT
BRANCH   2  13
HETATM   13  C   UNL     1     -43.784 -51.940  15.409  1.00  0.00     0.143 C 
BRANCH  13  14
HETATM   14  C   UNL     1     -45.270 -52.371  15.151  1.00  0.00     0.001 C 
HETATM   15  C   UNL     1     -45.434 -53.900  15.347  1.00  0.00     0.039 C 
HETATM   16  C   UNL     1     -44.852 -54.685  14.171  1.00  0.00     0.168 C 
HETATM   17  O   UNL     1     -45.552 -54.358  12.978  1.00  0.00    -0.391 OA
HETATM   18  C   UNL     1     -45.345 -53.002  12.598  1.00  0.00     0.168 C 
HETATM   19  C   UNL     1     -45.766 -52.036  13.703  1.00  0.00     0.039 C 
BRANCH  14  20
HETATM   20  C   UNL     1     -46.196 -51.577  16.104  1.00  0.00     0.175 C 
BRANCH  20  21
HETATM   21  O   UNL     1     -45.475 -51.184  17.270  1.00  0.00    -0.400 OA
HETATM   22  H   UNL     1     -46.117 -51.121  18.009  1.00  0.00     0.209 HD
ENDBRANCH  20  21
ENDBRANCH  14  20
ENDBRANCH  13  14
ENDBRANCH   2  13
BRANCH   4  23
HETATM   23  N   UNL     1     -41.082 -48.472  11.081  1.00  0.00    -0.364 N 
HETATM   24  C   UNL     1     -42.122 -48.050  10.143  1.00  0.00     0.151 C 
BRANCH  23  25
HETATM   25  C   UNL     1     -40.304 -47.429  11.825  1.00  0.00     0.093 C 
HETATM   26  C   UNL     1     -39.943 -46.220  10.937  1.00  0.00     0.033 C 
BRANCH  25  27
HETATM   27  C   UNL     1     -39.033 -48.102  12.397  1.00  0.00     0.133 C 
BRANCH  27  28
HETATM   28  S   UNL     1     -38.959 -48.074  14.225  1.00  0.00     0.012 S 
HETATM   29  O   UNL     1     -40.289 -47.614  14.742  1.00  0.00    -0.258 OA
HETATM   30  C   UNL     1     -38.861 -49.863  14.464  1.00  0.00     0.127 C 
ENDBRANCH  27  28
ENDBRANCH  25  27
ENDBRANCH  23  25
ENDBRANCH   4  23
TORSDOF 8
ENDMDL
MODEL 9
REMARK VINA RESULT:      -5.8      3.166      4.700
REMARK  8 active torsions:
REMARK  status: ('A' for Active; 'I' for Inactive)
REMARK    1  A    between atoms: N_2  and  C_13 
REMARK    2  A    between atoms: C_4  and  N_8 
REMARK    3  A    between atoms: N_8  and  C_14 
REMARK    4  A    between atoms: C_13  and  C_17 
REMARK    5  A    between atoms: C_14  and  C_15 
REMARK    6  A    between atoms: C_15  and  S_16 
REMARK    7  A    between atoms: C_17  and  C_22 
REMARK    8  A    between atoms: C_22  and  O_23 
ROOT
HETATM    1  C   UNL     1     -40.189 -48.197  11.661  1.00  0.00     0.122 A 
HETATM    2  N   UNL     1     -40.413 -50.394  11.796  1.00  0.00    -0.326 N 
HETATM    3  C   UNL     1     -41.077 -49.243  11.432  1.00  0.00     0.140 A 
HETATM    4  C   UNL     1     -40.635 -46.857  11.402  1.00  0.00     0.135 A 
HETATM    5  N   UNL     1     -38.993 -48.707  12.134  1.00  0.00    -0.346 N 
ATOM      6  HN  UNL     1     -38.156 -48.179  12.385  1.00  0.00     0.167 HD
HETATM    7  C   UNL     1     -39.155 -50.013  12.195  1.00  0.00     0.185 A 
HETATM    8  N   UNL     1     -41.931 -46.737  10.993  1.00  0.00    -0.337 N 
ATOM      9  HN  UNL     1     -42.333 -45.814  10.834  1.00  0.00     0.168 HD
HETATM   10  N   UNL     1     -42.344 -49.142  10.988  1.00  0.00    -0.336 N 
ATOM     11  HN  UNL     1     -42.964 -49.934  10.817  1.00  0.00     0.168 HD
HETATM   12  C   UNL     1     -42.681 -47.846  10.799  1.00  0.00     0.183 A 
ENDROOT
BRANCH   2  13
HETATM   13  C   UNL     1     -40.919 -51.775  11.763  1.00  0.00     0.143 C 
BRANCH  13  14
HETATM   14  C   UNL     1     -41.281 -52.401  13.156  1.00  0.00     0.001 C 
HETATM   15  C   UNL     1     -42.322 -53.537  12.987  1.00  0.00     0.039 C 
HETATM   16  C   UNL     1     -43.720 -52.982  12.712  1.00  0.00     0.168 C 
HETATM   17  O   UNL     1     -44.157 -52.202  13.817  1.00  0.00    -0.391 OA
HETATM   18  C   UNL     1     -43.368 -51.028  13.978  1.00  0.00     0.168 C 
HETATM   19  C   UNL     1     -41.889 -51.363  14.158  1.00  0.00     0.039 C 
BRANCH  14  20
HETATM   20  C   UNL     1     -39.984 -52.919  13.826  1.00  0.00     0.175 C 
BRANCH  20  21
HETATM   21  O   UNL     1     -39.551 -54.119  13.187  1.00  0.00    -0.400 OA
HETATM   22  H   UNL     1     -40.255 -54.790  13.309  1.00  0.00     0.209 HD
ENDBRANCH  20  21
ENDBRANCH  14  20
ENDBRANCH  13  14
ENDBRANCH   2  13
BRANCH   4  23
HETATM   23  N   UNL     1     -39.834 -45.706  11.561  1.00  0.00    -0.364 N 
HETATM   24  C   UNL     1     -39.670 -44.956  10.316  1.00  0.00     0.151 C 
BRANCH  23  25
HETATM   25  C   UNL     1     -39.869 -44.961  12.861  1.00  0.00     0.093 C 
HETATM   26  C   UNL     1     -39.809 -43.432  12.665  1.00  0.00     0.033 C 
BRANCH  25  27
HETATM   27  C   UNL     1     -38.687 -45.461  13.727  1.00  0.00     0.133 C 
BRANCH  27  28
HETATM   28  S   UNL     1     -39.217 -46.398  15.206  1.00  0.00     0.012 S 
HETATM   29  O   UNL     1     -40.362 -47.284  14.816  1.00  0.00    -0.258 OA
HETATM   30  C   UNL     1     -37.740 -47.430  15.348  1.00  0.00     0.127 C 
ENDBRANCH  27  28
ENDBRANCH  25  27
ENDBRANCH  23  25
ENDBRANCH   4  23
TORSDOF 8
ENDMDL
