MODEL 1
REMARK VINA RESULT:      -6.2      0.000      0.000
REMARK  7 active torsions:
REMARK  status: ('A' for Active; 'I' for Inactive)
REMARK    1  A    between atoms: C_2  and  C_3 
REMARK    2  A    between atoms: C_2  and  N_11 
REMARK    3  A    between atoms: C_3  and  N_4 
REMARK    4  A    between atoms: N_11  and  C_12 
REMARK    5  A    between atoms: C_12  and  C_14 
REMARK       I    between atoms: C_14  and  N_16 
REMARK    6  A    between atoms: N_16  and  C_17 
REMARK    7  A    between atoms: C_17  and  C_18 
ROOT
HETATM    1  N   UNL     1     -41.310 -49.286  12.651  1.00  0.00     0.102 N 
HETATM    2  H   UNL     1     -42.077 -49.764  13.127  1.00  0.00     0.317 HD
ENDROOT
BRANCH   1   3
HETATM    3  C   UNL     1     -41.818 -48.075  11.974  1.00  0.00     0.237 C 
HETATM    4  C   UNL     1     -41.067 -46.824  12.449  1.00  0.00     0.044 C 
BRANCH   3   5
HETATM    5  C   UNL     1     -41.654 -48.175  10.441  1.00  0.00     0.183 C 
BRANCH   5   6
HETATM    6  N   UNL     1     -42.831 -47.816   9.674  1.00  0.00    -0.301 N 
HETATM    7  C   UNL     1     -44.045 -47.443  10.179  1.00  0.00     0.118 A 
HETATM    8  C   UNL     1     -44.919 -47.398   9.114  1.00  0.00    -0.028 A 
HETATM    9  C   UNL     1     -46.360 -47.069   9.130  1.00  0.00     0.051 C 
HETATM   10  C   UNL     1     -44.120 -47.758   8.005  1.00  0.00     0.115 A 
HETATM   11  N   UNL     1     -42.854 -48.018   8.340  1.00  0.00    -0.310 N 
ATOM     12  HN  UNL     1     -42.087 -48.302   7.732  1.00  0.00     0.186 HD
ENDBRANCH   5   6
ENDBRANCH   3   5
ENDBRANCH   1   3
BRANCH   1  13
HETATM   13  C   UNL     1     -40.640 -50.277  11.766  1.00  0.00     0.308 C 
HETATM   14  C   UNL     1     -39.127 -50.349  11.956  1.00  0.00     0.053 C 
BRANCH  13  15
HETATM   15  C   UNL     1     -41.225 -51.681  12.038  1.00  0.00     0.250 C 
HETATM   16  O   UNL     1     -40.512 -52.669  12.200  1.00  0.00    -0.271 OA
HETATM   17  N   UNL     1     -42.596 -51.712  12.134  1.00  0.00    -0.357 N 
HETATM   18  H   UNL     1     -43.088 -50.857  11.884  1.00  0.00     0.162 HD
BRANCH  17  19
HETATM   19  C   UNL     1     -43.353 -52.921  12.387  1.00  0.00     0.154 C 
BRANCH  19  20
HETATM   20  C   UNL     1     -44.532 -52.736  13.348  1.00  0.00     0.139 C 
HETATM   21  C   UNL     1     -45.870 -52.365  12.726  1.00  0.00     0.035 C 
HETATM   22  C   UNL     1     -46.527 -51.460  13.750  1.00  0.00     0.029 C 
HETATM   23  C   UNL     1     -45.530 -51.370  14.885  1.00  0.00     0.168 C 
HETATM   24  O   UNL     1     -44.260 -51.704  14.315  1.00  0.00    -0.384 OA
ENDBRANCH  19  20
ENDBRANCH  17  19
ENDBRANCH  13  15
ENDBRANCH   1  13
TORSDOF 7
ENDMDL
MODEL 2
REMARK VINA RESULT:      -5.9      2.497      5.695
REMARK  7 active torsions:
REMARK  status: ('A' for Active; 'I' for Inactive)
REMARK    1  A    between atoms: C_2  and  C_3 
REMARK    2  A    between atoms: C_2  and  N_11 
REMARK    3  A    between atoms: C_3  and  N_4 
REMARK    4  A    between atoms: N_11  and  C_12 
REMARK    5  A    between atoms: C_12  and  C_14 
REMARK       I    between atoms: C_14  and  N_16 
REMARK    6  A    between atoms: N_16  and  C_17 
REMARK    7  A    between atoms: C_17  and  C_18 
ROOT
HETATM    1  N   UNL     1     -39.908 -50.719  11.342  1.00  0.00     0.102 N 
HETATM    2  H   UNL     1     -40.538 -50.098  10.830  1.00  0.00     0.317 HD
ENDROOT
BRANCH   1   3
HETATM    3  C   UNL     1     -40.691 -51.608  12.226  1.00  0.00     0.237 C 
HETATM    4  C   UNL     1     -39.833 -52.120  13.390  1.00  0.00     0.044 C 
BRANCH   3   5
HETATM    5  C   UNL     1     -41.913 -50.875  12.823  1.00  0.00     0.183 C 
BRANCH   5   6
HETATM    6  N   UNL     1     -43.163 -51.608  12.753  1.00  0.00    -0.301 N 
HETATM    7  C   UNL     1     -44.318 -51.306  13.419  1.00  0.00     0.118 A 
HETATM    8  C   UNL     1     -45.173 -52.370  13.228  1.00  0.00    -0.028 A 
HETATM    9  C   UNL     1     -46.542 -52.546  13.759  1.00  0.00     0.051 C 
HETATM   10  C   UNL     1     -44.430 -53.262  12.422  1.00  0.00     0.115 A 
HETATM   11  N   UNL     1     -43.208 -52.807  12.136  1.00  0.00    -0.310 N 
ATOM     12  HN  UNL     1     -42.482 -53.258  11.581  1.00  0.00     0.186 HD
ENDBRANCH   5   6
ENDBRANCH   3   5
ENDBRANCH   1   3
BRANCH   1  13
HETATM   13  C   UNL     1     -38.896 -49.871  12.027  1.00  0.00     0.308 C 
HETATM   14  C   UNL     1     -37.554 -49.806  11.300  1.00  0.00     0.053 C 
BRANCH  13  15
HETATM   15  C   UNL     1     -39.441 -48.432  12.159  1.00  0.00     0.250 C 
HETATM   16  O   UNL     1     -39.396 -47.809  13.218  1.00  0.00    -0.271 OA
HETATM   17  N   UNL     1     -39.926 -47.903  10.988  1.00  0.00    -0.357 N 
HETATM   18  H   UNL     1     -40.005 -48.541  10.200  1.00  0.00     0.162 HD
BRANCH  17  19
HETATM   19  C   UNL     1     -40.482 -46.569  10.883  1.00  0.00     0.154 C 
BRANCH  19  20
HETATM   20  C   UNL     1     -41.978 -46.535  10.555  1.00  0.00     0.139 C 
HETATM   21  C   UNL     1     -42.616 -47.851  10.131  1.00  0.00     0.035 C 
HETATM   22  C   UNL     1     -43.673 -47.450   9.119  1.00  0.00     0.029 C 
HETATM   23  C   UNL     1     -43.574 -45.943   9.030  1.00  0.00     0.168 C 
HETATM   24  O   UNL     1     -42.258 -45.611   9.487  1.00  0.00    -0.384 OA
ENDBRANCH  19  20
ENDBRANCH  17  19
ENDBRANCH  13  15
ENDBRANCH   1  13
TORSDOF 7
ENDMDL
MODEL 3
REMARK VINA RESULT:      -5.8      2.936      6.546
REMARK  7 active torsions:
REMARK  status: ('A' for Active; 'I' for Inactive)
REMARK    1  A    between atoms: C_2  and  C_3 
REMARK    2  A    between atoms: C_2  and  N_11 
REMARK    3  A    between atoms: C_3  and  N_4 
REMARK    4  A    between atoms: N_11  and  C_12 
REMARK    5  A    between atoms: C_12  and  C_14 
REMARK       I    between atoms: C_14  and  N_16 
REMARK    6  A    between atoms: N_16  and  C_17 
REMARK    7  A    between atoms: C_17  and  C_18 
ROOT
HETATM    1  N   UNL     1     -39.867 -50.613  11.394  1.00  0.00     0.102 N 
HETATM    2  H   UNL     1     -40.366 -50.051  10.702  1.00  0.00     0.317 HD
ENDROOT
BRANCH   1   3
HETATM    3  C   UNL     1     -40.832 -51.209  12.342  1.00  0.00     0.237 C 
HETATM    4  C   UNL     1     -42.122 -50.381  12.406  1.00  0.00     0.044 C 
BRANCH   3   5
HETATM    5  C   UNL     1     -41.212 -52.648  11.930  1.00  0.00     0.183 C 
BRANCH   5   6
HETATM    6  N   UNL     1     -42.036 -53.363  12.886  1.00  0.00    -0.301 N 
HETATM    7  C   UNL     1     -41.617 -53.909  14.067  1.00  0.00     0.118 A 
HETATM    8  C   UNL     1     -42.667 -54.663  14.547  1.00  0.00    -0.028 A 
HETATM    9  C   UNL     1     -42.718 -55.473  15.783  1.00  0.00     0.051 C 
HETATM   10  C   UNL     1     -43.677 -54.495  13.573  1.00  0.00     0.115 A 
HETATM   11  N   UNL     1     -43.297 -53.712  12.561  1.00  0.00    -0.310 N 
ATOM     12  HN  UNL     1     -43.834 -53.442  11.738  1.00  0.00     0.186 HD
ENDBRANCH   5   6
ENDBRANCH   3   5
ENDBRANCH   1   3
BRANCH   1  13
HETATM   13  C   UNL     1     -38.820 -49.752  12.008  1.00  0.00     0.308 C 
HETATM   14  C   UNL     1     -37.495 -49.759  11.250  1.00  0.00     0.053 C 
BRANCH  13  15
HETATM   15  C   UNL     1     -39.331 -48.295  12.069  1.00  0.00     0.250 C 
HETATM   16  O   UNL     1     -39.113 -47.564  13.033  1.00  0.00    -0.271 OA
HETATM   17  N   UNL     1     -39.995 -47.882  10.940  1.00  0.00    -0.357 N 
HETATM   18  H   UNL     1     -40.204 -48.598  10.248  1.00  0.00     0.162 HD
BRANCH  17  19
HETATM   19  C   UNL     1     -40.554 -46.555  10.781  1.00  0.00     0.154 C 
BRANCH  19  20
HETATM   20  C   UNL     1     -42.049 -46.538  10.442  1.00  0.00     0.139 C 
HETATM   21  C   UNL     1     -42.633 -47.817   9.859  1.00  0.00     0.035 C 
HETATM   22  C   UNL     1     -43.697 -47.341   8.888  1.00  0.00     0.029 C 
HETATM   23  C   UNL     1     -43.654 -45.831   8.976  1.00  0.00     0.168 C 
HETATM   24  O   UNL     1     -42.356 -45.506   9.485  1.00  0.00    -0.384 OA
ENDBRANCH  19  20
ENDBRANCH  17  19
ENDBRANCH  13  15
ENDBRANCH   1  13
TORSDOF 7
ENDMDL
MODEL 4
REMARK VINA RESULT:      -5.7      2.212      2.965
REMARK  7 active torsions:
REMARK  status: ('A' for Active; 'I' for Inactive)
REMARK    1  A    between atoms: C_2  and  C_3 
REMARK    2  A    between atoms: C_2  and  N_11 
REMARK    3  A    between atoms: C_3  and  N_4 
REMARK    4  A    between atoms: N_11  and  C_12 
REMARK    5  A    between atoms: C_12  and  C_14 
REMARK       I    between atoms: C_14  and  N_16 
REMARK    6  A    between atoms: N_16  and  C_17 
REMARK    7  A    between atoms: C_17  and  C_18 
ROOT
HETATM    1  N   UNL     1     -40.145 -47.972  12.350  1.00  0.00     0.102 N 
HETATM    2  H   UNL     1     -40.515 -48.039  13.300  1.00  0.00     0.317 HD
ENDROOT
BRANCH   1   3
HETATM    3  C   UNL     1     -41.144 -47.333  11.468  1.00  0.00     0.237 C 
HETATM    4  C   UNL     1     -40.573 -46.066  10.818  1.00  0.00     0.044 C 
BRANCH   3   5
HETATM    5  C   UNL     1     -41.591 -48.287  10.338  1.00  0.00     0.183 C 
BRANCH   5   6
HETATM    6  N   UNL     1     -42.784 -47.875   9.623  1.00  0.00    -0.301 N 
HETATM    7  C   UNL     1     -43.987 -47.544  10.180  1.00  0.00     0.118 A 
HETATM    8  C   UNL     1     -44.883 -47.422   9.139  1.00  0.00    -0.028 A 
HETATM    9  C   UNL     1     -46.324 -47.098   9.209  1.00  0.00     0.051 C 
HETATM   10  C   UNL     1     -44.107 -47.697   7.991  1.00  0.00     0.115 A 
HETATM   11  N   UNL     1     -42.834 -47.977   8.279  1.00  0.00    -0.310 N 
ATOM     12  HN  UNL     1     -42.080 -48.213   7.636  1.00  0.00     0.186 HD
ENDBRANCH   5   6
ENDBRANCH   3   5
ENDBRANCH   1   3
BRANCH   1  13
HETATM   13  C   UNL     1     -39.709 -49.333  11.937  1.00  0.00     0.308 C 
HETATM   14  C   UNL     1     -38.297 -49.693  12.396  1.00  0.00     0.053 C 
BRANCH  13  15
HETATM   15  C   UNL     1     -40.684 -50.379  12.520  1.00  0.00     0.250 C 
HETATM   16  O   UNL     1     -41.234 -50.228  13.610  1.00  0.00    -0.271 OA
HETATM   17  N   UNL     1     -40.919 -51.453  11.696  1.00  0.00    -0.357 N 
HETATM   18  H   UNL     1     -40.336 -51.523  10.865  1.00  0.00     0.162 HD
BRANCH  17  19
HETATM   19  C   UNL     1     -41.802 -52.549  12.041  1.00  0.00     0.154 C 
BRANCH  19  20
HETATM   20  C   UNL     1     -41.129 -53.670  12.841  1.00  0.00     0.139 C 
HETATM   21  C   UNL     1     -41.623 -53.886  14.265  1.00  0.00     0.035 C 
HETATM   22  C   UNL     1     -40.388 -54.316  15.033  1.00  0.00     0.029 C 
HETATM   23  C   UNL     1     -39.274 -54.318  14.009  1.00  0.00     0.168 C 
HETATM   24  O   UNL     1     -39.711 -53.450  12.957  1.00  0.00    -0.384 OA
ENDBRANCH  19  20
ENDBRANCH  17  19
ENDBRANCH  13  15
ENDBRANCH   1  13
TORSDOF 7
ENDMDL
MODEL 5
REMARK VINA RESULT:      -5.6      3.119      6.474
REMARK  7 active torsions:
REMARK  status: ('A' for Active; 'I' for Inactive)
REMARK    1  A    between atoms: C_2  and  C_3 
REMARK    2  A    between atoms: C_2  and  N_11 
REMARK    3  A    between atoms: C_3  and  N_4 
REMARK    4  A    between atoms: N_11  and  C_12 
REMARK    5  A    between atoms: C_12  and  C_14 
REMARK       I    between atoms: C_14  and  N_16 
REMARK    6  A    between atoms: N_16  and  C_17 
REMARK    7  A    between atoms: C_17  and  C_18 
ROOT
HETATM    1  N   UNL     1     -44.153 -50.266  12.812  1.00  0.00     0.102 N 
HETATM    2  H   UNL     1     -44.928 -49.638  12.591  1.00  0.00     0.317 HD
ENDROOT
BRANCH   1   3
HETATM    3  C   UNL     1     -44.673 -51.501  13.436  1.00  0.00     0.237 C 
HETATM    4  C   UNL     1     -46.202 -51.452  13.559  1.00  0.00     0.044 C 
BRANCH   3   5
HETATM    5  C   UNL     1     -44.303 -52.751  12.606  1.00  0.00     0.183 C 
BRANCH   5   6
HETATM    6  N   UNL     1     -42.890 -53.078  12.587  1.00  0.00    -0.301 N 
HETATM    7  C   UNL     1     -42.196 -53.727  13.569  1.00  0.00     0.118 A 
HETATM    8  C   UNL     1     -40.862 -53.639  13.233  1.00  0.00    -0.028 A 
HETATM    9  C   UNL     1     -39.697 -54.163  13.979  1.00  0.00     0.051 C 
HETATM   10  C   UNL     1     -40.865 -52.916  12.019  1.00  0.00     0.115 A 
HETATM   11  N   UNL     1     -42.093 -52.569  11.626  1.00  0.00    -0.310 N 
ATOM     12  HN  UNL     1     -42.363 -52.043  10.795  1.00  0.00     0.186 HD
ENDBRANCH   5   6
ENDBRANCH   3   5
ENDBRANCH   1   3
BRANCH   1  13
HETATM   13  C   UNL     1     -43.173 -49.503  13.631  1.00  0.00     0.308 C 
HETATM   14  C   UNL     1     -42.663 -50.267  14.851  1.00  0.00     0.053 C 
BRANCH  13  15
HETATM   15  C   UNL     1     -41.957 -49.131  12.754  1.00  0.00     0.250 C 
HETATM   16  O   UNL     1     -41.836 -49.529  11.597  1.00  0.00    -0.271 OA
HETATM   17  N   UNL     1     -41.062 -48.284  13.361  1.00  0.00    -0.357 N 
HETATM   18  H   UNL     1     -41.210 -48.099  14.350  1.00  0.00     0.162 HD
BRANCH  17  19
HETATM   19  C   UNL     1     -39.853 -47.805  12.721  1.00  0.00     0.154 C 
BRANCH  19  20
HETATM   20  C   UNL     1     -38.627 -48.695  12.946  1.00  0.00     0.139 C 
HETATM   21  C   UNL     1     -38.154 -49.523  11.759  1.00  0.00     0.035 C 
HETATM   22  C   UNL     1     -37.626 -50.804  12.376  1.00  0.00     0.029 C 
HETATM   23  C   UNL     1     -37.830 -50.631  13.865  1.00  0.00     0.168 C 
HETATM   24  O   UNL     1     -38.857 -49.643  14.006  1.00  0.00    -0.384 OA
ENDBRANCH  19  20
ENDBRANCH  17  19
ENDBRANCH  13  15
ENDBRANCH   1  13
TORSDOF 7
ENDMDL
MODEL 6
REMARK VINA RESULT:      -5.5      2.048      2.985
REMARK  7 active torsions:
REMARK  status: ('A' for Active; 'I' for Inactive)
REMARK    1  A    between atoms: C_2  and  C_3 
REMARK    2  A    between atoms: C_2  and  N_11 
REMARK    3  A    between atoms: C_3  and  N_4 
REMARK    4  A    between atoms: N_11  and  C_12 
REMARK    5  A    between atoms: C_12  and  C_14 
REMARK       I    between atoms: C_14  and  N_16 
REMARK    6  A    between atoms: N_16  and  C_17 
REMARK    7  A    between atoms: C_17  and  C_18 
ROOT
HETATM    1  N   UNL     1     -39.904 -51.636  12.375  1.00  0.00     0.102 N 
HETATM    2  H   UNL     1     -39.393 -52.442  12.009  1.00  0.00     0.317 HD
ENDROOT
BRANCH   1   3
HETATM    3  C   UNL     1     -38.959 -50.538  12.667  1.00  0.00     0.237 C 
HETATM    4  C   UNL     1     -37.522 -51.065  12.780  1.00  0.00     0.044 C 
BRANCH   3   5
HETATM    5  C   UNL     1     -38.985 -49.462  11.559  1.00  0.00     0.183 C 
BRANCH   5   6
HETATM    6  N   UNL     1     -40.223 -48.714  11.459  1.00  0.00    -0.301 N 
HETATM    7  C   UNL     1     -40.749 -47.888  12.413  1.00  0.00     0.118 A 
HETATM    8  C   UNL     1     -42.019 -47.557  11.991  1.00  0.00    -0.028 A 
HETATM    9  C   UNL     1     -43.014 -46.703  12.675  1.00  0.00     0.051 C 
HETATM   10  C   UNL     1     -42.155 -48.238  10.760  1.00  0.00     0.115 A 
HETATM   11  N   UNL     1     -41.071 -48.945  10.436  1.00  0.00    -0.310 N 
ATOM     12  HN  UNL     1     -40.920 -49.524   9.610  1.00  0.00     0.186 HD
ENDBRANCH   5   6
ENDBRANCH   3   5
ENDBRANCH   1   3
BRANCH   1  13
HETATM   13  C   UNL     1     -40.715 -52.103  13.532  1.00  0.00     0.308 C 
HETATM   14  C   UNL     1     -41.469 -50.983  14.246  1.00  0.00     0.053 C 
BRANCH  13  15
HETATM   15  C   UNL     1     -41.748 -53.142  13.043  1.00  0.00     0.250 C 
HETATM   16  O   UNL     1     -41.470 -54.333  12.912  1.00  0.00    -0.271 OA
HETATM   17  N   UNL     1     -43.004 -52.629  12.822  1.00  0.00    -0.357 N 
HETATM   18  H   UNL     1     -43.094 -51.617  12.865  1.00  0.00     0.162 HD
BRANCH  17  19
HETATM   19  C   UNL     1     -44.124 -53.426  12.364  1.00  0.00     0.154 C 
BRANCH  19  20
HETATM   20  C   UNL     1     -45.451 -53.102  13.058  1.00  0.00     0.139 C 
HETATM   21  C   UNL     1     -45.934 -51.661  12.976  1.00  0.00     0.035 C 
HETATM   22  C   UNL     1     -46.634 -51.419  14.299  1.00  0.00     0.029 C 
HETATM   23  C   UNL     1     -46.510 -52.727  15.049  1.00  0.00     0.168 C 
HETATM   24  O   UNL     1     -45.393 -53.407  14.465  1.00  0.00    -0.384 OA
ENDBRANCH  19  20
ENDBRANCH  17  19
ENDBRANCH  13  15
ENDBRANCH   1  13
TORSDOF 7
ENDMDL
MODEL 7
REMARK VINA RESULT:      -5.5      1.613      2.050
REMARK  7 active torsions:
REMARK  status: ('A' for Active; 'I' for Inactive)
REMARK    1  A    between atoms: C_2  and  C_3 
REMARK    2  A    between atoms: C_2  and  N_11 
REMARK    3  A    between atoms: C_3  and  N_4 
REMARK    4  A    between atoms: N_11  and  C_12 
REMARK    5  A    between atoms: C_12  and  C_14 
REMARK       I    between atoms: C_14  and  N_16 
REMARK    6  A    between atoms: N_16  and  C_17 
REMARK    7  A    between atoms: C_17  and  C_18 
ROOT
HETATM    1  N   UNL     1     -41.002 -48.457  12.899  1.00  0.00     0.102 N 
HETATM    2  H   UNL     1     -41.280 -48.132  13.828  1.00  0.00     0.317 HD
ENDROOT
BRANCH   1   3
HETATM    3  C   UNL     1     -41.514 -47.526  11.872  1.00  0.00     0.237 C 
HETATM    4  C   UNL     1     -40.576 -46.323  11.704  1.00  0.00     0.044 C 
BRANCH   3   5
HETATM    5  C   UNL     1     -41.646 -48.220  10.498  1.00  0.00     0.183 C 
BRANCH   5   6
HETATM    6  N   UNL     1     -42.817 -47.842   9.730  1.00  0.00    -0.301 N 
HETATM    7  C   UNL     1     -44.037 -47.488  10.234  1.00  0.00     0.118 A 
HETATM    8  C   UNL     1     -44.901 -47.414   9.162  1.00  0.00    -0.028 A 
HETATM    9  C   UNL     1     -46.343 -47.088   9.174  1.00  0.00     0.051 C 
HETATM   10  C   UNL     1     -44.090 -47.738   8.051  1.00  0.00     0.115 A 
HETATM   11  N   UNL     1     -42.827 -48.004   8.391  1.00  0.00    -0.310 N 
ATOM     12  HN  UNL     1     -42.053 -48.267   7.781  1.00  0.00     0.186 HD
ENDBRANCH   5   6
ENDBRANCH   3   5
ENDBRANCH   1   3
BRANCH   1  13
HETATM   13  C   UNL     1     -41.452 -49.868  12.761  1.00  0.00     0.308 C 
HETATM   14  C   UNL     1     -40.501 -50.882  13.393  1.00  0.00     0.053 C 
BRANCH  13  15
HETATM   15  C   UNL     1     -42.837 -50.029  13.426  1.00  0.00     0.250 C 
HETATM   16  O   UNL     1     -43.192 -49.337  14.378  1.00  0.00    -0.271 OA
HETATM   17  N   UNL     1     -43.644 -50.968  12.829  1.00  0.00    -0.357 N 
HETATM   18  H   UNL     1     -43.212 -51.549  12.114  1.00  0.00     0.162 HD
BRANCH  17  19
HETATM   19  C   UNL     1     -44.983 -51.279  13.287  1.00  0.00     0.154 C 
BRANCH  19  20
HETATM   20  C   UNL     1     -45.078 -52.555  14.131  1.00  0.00     0.139 C 
HETATM   21  C   UNL     1     -43.939 -53.555  13.991  1.00  0.00     0.035 C 
HETATM   22  C   UNL     1     -44.602 -54.910  14.152  1.00  0.00     0.029 C 
HETATM   23  C   UNL     1     -46.068 -54.601  14.371  1.00  0.00     0.168 C 
HETATM   24  O   UNL     1     -46.277 -53.294  13.826  1.00  0.00    -0.384 OA
ENDBRANCH  19  20
ENDBRANCH  17  19
ENDBRANCH  13  15
ENDBRANCH   1  13
TORSDOF 7
ENDMDL
MODEL 8
REMARK VINA RESULT:      -5.4      2.106      2.767
REMARK  7 active torsions:
REMARK  status: ('A' for Active; 'I' for Inactive)
REMARK    1  A    between atoms: C_2  and  C_3 
REMARK    2  A    between atoms: C_2  and  N_11 
REMARK    3  A    between atoms: C_3  and  N_4 
REMARK    4  A    between atoms: N_11  and  C_12 
REMARK    5  A    between atoms: C_12  and  C_14 
REMARK       I    between atoms: C_14  and  N_16 
REMARK    6  A    between atoms: N_16  and  C_17 
REMARK    7  A    between atoms: C_17  and  C_18 
ROOT
HETATM    1  N   UNL     1     -40.112 -49.992  13.336  1.00  0.00     0.102 N 
HETATM    2  H   UNL     1     -41.088 -50.270  13.213  1.00  0.00     0.317 HD
ENDROOT
BRANCH   1   3
HETATM    3  C   UNL     1     -39.683 -49.160  12.192  1.00  0.00     0.237 C 
HETATM    4  C   UNL     1     -38.307 -49.603  11.677  1.00  0.00     0.044 C 
BRANCH   3   5
HETATM    5  C   UNL     1     -40.682 -49.256  11.018  1.00  0.00     0.183 C 
BRANCH   5   6
HETATM    6  N   UNL     1     -41.326 -48.007  10.657  1.00  0.00    -0.301 N 
HETATM    7  C   UNL     1     -42.587 -47.863  10.150  1.00  0.00     0.118 A 
HETATM    8  C   UNL     1     -42.707 -46.546   9.761  1.00  0.00    -0.028 A 
HETATM    9  C   UNL     1     -43.870 -45.883   9.132  1.00  0.00     0.051 C 
HETATM   10  C   UNL     1     -41.454 -45.980  10.087  1.00  0.00     0.115 A 
HETATM   11  N   UNL     1     -40.611 -46.864  10.626  1.00  0.00    -0.310 N 
ATOM     12  HN  UNL     1     -39.653 -46.710  10.940  1.00  0.00     0.186 HD
ENDBRANCH   5   6
ENDBRANCH   3   5
ENDBRANCH   1   3
BRANCH   1  13
HETATM   13  C   UNL     1     -39.315 -51.227  13.560  1.00  0.00     0.308 C 
HETATM   14  C   UNL     1     -38.805 -51.380  14.991  1.00  0.00     0.053 C 
BRANCH  13  15
HETATM   15  C   UNL     1     -40.182 -52.461  13.225  1.00  0.00     0.250 C 
HETATM   16  O   UNL     1     -40.345 -52.854  12.071  1.00  0.00    -0.271 OA
HETATM   17  N   UNL     1     -40.703 -53.100  14.324  1.00  0.00    -0.357 N 
HETATM   18  H   UNL     1     -40.586 -52.631  15.219  1.00  0.00     0.162 HD
BRANCH  17  19
HETATM   19  C   UNL     1     -41.541 -54.279  14.241  1.00  0.00     0.154 C 
BRANCH  19  20
HETATM   20  C   UNL     1     -43.043 -53.980  14.194  1.00  0.00     0.139 C 
HETATM   21  C   UNL     1     -43.975 -55.072  14.701  1.00  0.00     0.035 C 
HETATM   22  C   UNL     1     -45.207 -54.957  13.824  1.00  0.00     0.029 C 
HETATM   23  C   UNL     1     -44.905 -53.816  12.877  1.00  0.00     0.168 C 
HETATM   24  O   UNL     1     -43.478 -53.700  12.850  1.00  0.00    -0.384 OA
ENDBRANCH  19  20
ENDBRANCH  17  19
ENDBRANCH  13  15
ENDBRANCH   1  13
TORSDOF 7
ENDMDL
MODEL 9
REMARK VINA RESULT:      -5.4      2.364      3.333
REMARK  7 active torsions:
REMARK  status: ('A' for Active; 'I' for Inactive)
REMARK    1  A    between atoms: C_2  and  C_3 
REMARK    2  A    between atoms: C_2  and  N_11 
REMARK    3  A    between atoms: C_3  and  N_4 
REMARK    4  A    between atoms: N_11  and  C_12 
REMARK    5  A    between atoms: C_12  and  C_14 
REMARK       I    between atoms: C_14  and  N_16 
REMARK    6  A    between atoms: N_16  and  C_17 
REMARK    7  A    between atoms: C_17  and  C_18 
ROOT
HETATM    1  N   UNL     1     -39.962 -51.369  14.017  1.00  0.00     0.102 N 
HETATM    2  H   UNL     1     -40.797 -51.015  14.489  1.00  0.00     0.317 HD
ENDROOT
BRANCH   1   3
HETATM    3  C   UNL     1     -39.145 -50.238  13.531  1.00  0.00     0.237 C 
HETATM    4  C   UNL     1     -37.695 -50.358  14.019  1.00  0.00     0.044 C 
BRANCH   3   5
HETATM    5  C   UNL     1     -39.124 -50.179  11.988  1.00  0.00     0.183 C 
BRANCH   5   6
HETATM    6  N   UNL     1     -39.908 -49.108  11.404  1.00  0.00    -0.301 N 
HETATM    7  C   UNL     1     -39.828 -47.780  11.720  1.00  0.00     0.118 A 
HETATM    8  C   UNL     1     -40.883 -47.160  11.086  1.00  0.00    -0.028 A 
HETATM    9  C   UNL     1     -41.257 -45.729  11.124  1.00  0.00     0.051 C 
HETATM   10  C   UNL     1     -41.537 -48.213  10.406  1.00  0.00     0.115 A 
HETATM   11  N   UNL     1     -40.952 -49.397  10.600  1.00  0.00    -0.310 N 
ATOM     12  HN  UNL     1     -41.229 -50.305  10.228  1.00  0.00     0.186 HD
ENDBRANCH   5   6
ENDBRANCH   3   5
ENDBRANCH   1   3
BRANCH   1  13
HETATM   13  C   UNL     1     -40.408 -52.328  12.971  1.00  0.00     0.308 C 
HETATM   14  C   UNL     1     -40.137 -53.790  13.320  1.00  0.00     0.053 C 
BRANCH  13  15
HETATM   15  C   UNL     1     -41.927 -52.163  12.742  1.00  0.00     0.250 C 
HETATM   16  O   UNL     1     -42.461 -51.059  12.659  1.00  0.00    -0.271 OA
HETATM   17  N   UNL     1     -42.606 -53.347  12.588  1.00  0.00    -0.357 N 
HETATM   18  H   UNL     1     -42.082 -54.199  12.774  1.00  0.00     0.162 HD
BRANCH  17  19
HETATM   19  C   UNL     1     -44.035 -53.426  12.360  1.00  0.00     0.154 C 
BRANCH  19  20
HETATM   20  C   UNL     1     -44.869 -53.561  13.638  1.00  0.00     0.139 C 
HETATM   21  C   UNL     1     -45.363 -54.958  13.989  1.00  0.00     0.035 C 
HETATM   22  C   UNL     1     -46.715 -54.730  14.638  1.00  0.00     0.029 C 
HETATM   23  C   UNL     1     -46.907 -53.229  14.618  1.00  0.00     0.168 C 
HETATM   24  O   UNL     1     -46.051 -52.740  13.580  1.00  0.00    -0.384 OA
ENDBRANCH  19  20
ENDBRANCH  17  19
ENDBRANCH  13  15
ENDBRANCH   1  13
TORSDOF 7
ENDMDL
