MODEL 1
REMARK VINA RESULT:      -5.7      0.000      0.000
REMARK  8 active torsions:
REMARK  status: ('A' for Active; 'I' for Inactive)
REMARK    1  A    between atoms: O_2  and  C_3 
REMARK    2  A    between atoms: C_3  and  C_4 
REMARK    3  A    between atoms: C_4  and  N_5 
REMARK       I    between atoms: N_5  and  C_6 
REMARK    4  A    between atoms: N_5  and  C_12 
REMARK    5  A    between atoms: C_6  and  C_8 
REMARK    6  A    between atoms: C_13  and  N_14 
REMARK    7  A    between atoms: N_15  and  C_16 
REMARK    8  A    between atoms: C_16  and  C_17 
ROOT
HETATM    1  C   UNL     1     -41.958 -51.772  13.511  1.00  0.00     0.144 C 
HETATM    2  C   UNL     1     -42.980 -51.886  14.397  1.00  0.00     0.117 C 
HETATM    3  N   UNL     1     -43.987 -52.825  14.149  1.00  0.00    -0.288 N 
HETATM    4  C   UNL     1     -43.893 -53.749  13.106  1.00  0.00     0.330 C 
HETATM    5  O   UNL     1     -44.801 -54.494  12.747  1.00  0.00    -0.246 OA
HETATM    6  N   UNL     1     -42.714 -53.779  12.426  1.00  0.00    -0.273 N 
HETATM    7  C   UNL     1     -41.861 -52.727  12.374  1.00  0.00     0.279 C 
HETATM    8  O   UNL     1     -41.063 -52.585  11.455  1.00  0.00    -0.265 OA
HETATM    9  H   UNL     1     -42.686 -54.415  11.644  1.00  0.00     0.173 HD
ENDROOT
BRANCH   1  10
HETATM   10  N   UNL     1     -40.974 -50.802  13.650  1.00  0.00    -0.308 N 
HETATM   11  C   UNL     1     -40.857 -49.661  12.833  1.00  0.00     0.228 C 
HETATM   12  O   UNL     1     -39.849 -48.940  12.974  1.00  0.00    -0.273 OA
BRANCH  10  13
HETATM   13  C   UNL     1     -39.805 -51.178  14.477  1.00  0.00     0.158 C 
BRANCH  13  14
HETATM   14  C   UNL     1     -38.643 -51.760  13.660  1.00  0.00     0.187 C 
BRANCH  14  15
HETATM   15  O   UNL     1     -38.668 -53.191  13.702  1.00  0.00    -0.394 OA
HETATM   16  C   UNL     1     -39.127 -53.648  14.972  1.00  0.00     0.201 C 
ENDBRANCH  14  15
ENDBRANCH  13  14
ENDBRANCH  10  13
BRANCH  11  17
HETATM   17  C   UNL     1     -41.925 -49.201  11.815  1.00  0.00     0.078 A 
HETATM   18  C   UNL     1     -41.811 -48.191  10.659  1.00  0.00     0.014 A 
HETATM   19  C   UNL     1     -43.050 -47.448  11.171  1.00  0.00     0.002 A 
HETATM   20  C   UNL     1     -43.099 -48.373  12.387  1.00  0.00     0.014 A 
ENDBRANCH  11  17
ENDBRANCH   1  10
BRANCH   2  21
HETATM   21  N   UNL     1     -43.009 -51.029  15.491  1.00  0.00    -0.286 NA
HETATM   22  H   UNL     1     -42.167 -51.095  16.063  1.00  0.00     0.125 HD
HETATM   23  H   UNL     1     -43.254 -50.069  15.294  1.00  0.00     0.125 HD
ENDBRANCH   2  21
BRANCH   3  24
HETATM   24  C   UNL     1     -45.283 -52.770  14.842  1.00  0.00     0.138 C 
BRANCH  24  25
HETATM   25  C   UNL     1     -46.142 -51.521  14.555  1.00  0.00    -0.004 C 
HETATM   26  C   UNL     1     -46.721 -51.526  13.143  1.00  0.00     0.011 C 
HETATM   27  C   UNL     1     -47.273 -51.429  15.585  1.00  0.00     0.011 C 
ENDBRANCH  24  25
ENDBRANCH   3  24
TORSDOF 8
ENDMDL
MODEL 2
REMARK VINA RESULT:      -5.7      3.611      6.683
REMARK  8 active torsions:
REMARK  status: ('A' for Active; 'I' for Inactive)
REMARK    1  A    between atoms: O_2  and  C_3 
REMARK    2  A    between atoms: C_3  and  C_4 
REMARK    3  A    between atoms: C_4  and  N_5 
REMARK       I    between atoms: N_5  and  C_6 
REMARK    4  A    between atoms: N_5  and  C_12 
REMARK    5  A    between atoms: C_6  and  C_8 
REMARK    6  A    between atoms: C_13  and  N_14 
REMARK    7  A    between atoms: N_15  and  C_16 
REMARK    8  A    between atoms: C_16  and  C_17 
ROOT
HETATM    1  C   UNL     1     -42.122 -47.984  11.825  1.00  0.00     0.144 C 
HETATM    2  C   UNL     1     -41.280 -48.995  11.489  1.00  0.00     0.117 C 
HETATM    3  N   UNL     1     -40.802 -49.838  12.496  1.00  0.00    -0.288 N 
HETATM    4  C   UNL     1     -41.282 -49.770  13.806  1.00  0.00     0.330 C 
HETATM    5  O   UNL     1     -40.802 -50.375  14.760  1.00  0.00    -0.246 OA
HETATM    6  N   UNL     1     -42.333 -48.932  14.023  1.00  0.00    -0.273 N 
HETATM    7  C   UNL     1     -42.616 -47.875  13.224  1.00  0.00     0.279 C 
HETATM    8  O   UNL     1     -43.245 -46.904  13.631  1.00  0.00    -0.265 OA
HETATM    9  H   UNL     1     -42.629 -48.856  14.985  1.00  0.00     0.173 HD
ENDROOT
BRANCH   1  10
HETATM   10  N   UNL     1     -42.563 -47.058  10.890  1.00  0.00    -0.308 N 
HETATM   11  C   UNL     1     -41.992 -45.784  10.695  1.00  0.00     0.228 C 
HETATM   12  O   UNL     1     -42.568 -44.995   9.920  1.00  0.00    -0.273 OA
BRANCH  10  13
HETATM   13  C   UNL     1     -43.909 -47.301  10.320  1.00  0.00     0.158 C 
BRANCH  13  14
HETATM   14  C   UNL     1     -43.884 -47.643   8.824  1.00  0.00     0.187 C 
BRANCH  14  15
HETATM   15  O   UNL     1     -45.196 -47.987   8.367  1.00  0.00    -0.394 OA
HETATM   16  C   UNL     1     -46.188 -47.294   9.121  1.00  0.00     0.201 C 
ENDBRANCH  14  15
ENDBRANCH  13  14
ENDBRANCH  10  13
BRANCH  11  17
HETATM   17  C   UNL     1     -40.661 -45.318  11.327  1.00  0.00     0.078 A 
HETATM   18  C   UNL     1     -40.333 -44.986  12.794  1.00  0.00     0.014 A 
HETATM   19  C   UNL     1     -39.745 -43.636  12.368  1.00  0.00     0.002 A 
HETATM   20  C   UNL     1     -40.176 -43.905  10.927  1.00  0.00     0.014 A 
ENDBRANCH  11  17
ENDBRANCH   1  10
BRANCH   2  21
HETATM   21  N   UNL     1     -40.889 -49.119  10.160  1.00  0.00    -0.286 NA
HETATM   22  H   UNL     1     -41.443 -49.809   9.652  1.00  0.00     0.125 HD
HETATM   23  H   UNL     1     -40.802 -48.255   9.643  1.00  0.00     0.125 HD
ENDBRANCH   2  21
BRANCH   3  24
HETATM   24  C   UNL     1     -39.636 -50.710  12.286  1.00  0.00     0.138 C 
BRANCH  24  25
HETATM   25  C   UNL     1     -38.259 -50.048  12.508  1.00  0.00    -0.004 C 
HETATM   26  C   UNL     1     -37.448 -50.746  13.596  1.00  0.00     0.011 C 
HETATM   27  C   UNL     1     -37.476 -50.045  11.191  1.00  0.00     0.011 C 
ENDBRANCH  24  25
ENDBRANCH   3  24
TORSDOF 8
ENDMDL
MODEL 3
REMARK VINA RESULT:      -5.7      1.820      4.085
REMARK  8 active torsions:
REMARK  status: ('A' for Active; 'I' for Inactive)
REMARK    1  A    between atoms: O_2  and  C_3 
REMARK    2  A    between atoms: C_3  and  C_4 
REMARK    3  A    between atoms: C_4  and  N_5 
REMARK       I    between atoms: N_5  and  C_6 
REMARK    4  A    between atoms: N_5  and  C_12 
REMARK    5  A    between atoms: C_6  and  C_8 
REMARK    6  A    between atoms: C_13  and  N_14 
REMARK    7  A    between atoms: N_15  and  C_16 
REMARK    8  A    between atoms: C_16  and  C_17 
ROOT
HETATM    1  C   UNL     1     -41.603 -52.550  14.201  1.00  0.00     0.144 C 
HETATM    2  C   UNL     1     -42.788 -52.613  14.859  1.00  0.00     0.117 C 
HETATM    3  N   UNL     1     -43.878 -53.225  14.231  1.00  0.00    -0.288 N 
HETATM    4  C   UNL     1     -43.744 -53.905  13.018  1.00  0.00     0.330 C 
HETATM    5  O   UNL     1     -44.680 -54.332  12.348  1.00  0.00    -0.246 OA
HETATM    6  N   UNL     1     -42.476 -54.058  12.545  1.00  0.00    -0.273 N 
HETATM    7  C   UNL     1     -41.452 -53.240  12.891  1.00  0.00     0.279 C 
HETATM    8  O   UNL     1     -40.470 -53.092  12.173  1.00  0.00    -0.265 OA
HETATM    9  H   UNL     1     -42.406 -54.504  11.643  1.00  0.00     0.173 HD
ENDROOT
BRANCH   1  10
HETATM   10  N   UNL     1     -40.507 -51.880  14.729  1.00  0.00    -0.308 N 
HETATM   11  C   UNL     1     -39.602 -52.435  15.656  1.00  0.00     0.228 C 
HETATM   12  O   UNL     1     -38.742 -51.685  16.157  1.00  0.00    -0.273 OA
BRANCH  10  13
HETATM   13  C   UNL     1     -40.504 -50.409  14.563  1.00  0.00     0.158 C 
BRANCH  13  14
HETATM   14  C   UNL     1     -39.833 -49.944  13.263  1.00  0.00     0.187 C 
BRANCH  14  15
HETATM   15  O   UNL     1     -38.437 -49.711  13.476  1.00  0.00    -0.394 OA
HETATM   16  C   UNL     1     -37.655 -50.700  12.811  1.00  0.00     0.201 C 
ENDBRANCH  14  15
ENDBRANCH  13  14
ENDBRANCH  10  13
BRANCH  11  17
HETATM   17  C   UNL     1     -39.560 -53.929  16.049  1.00  0.00     0.078 A 
HETATM   18  C   UNL     1     -38.794 -54.625  17.187  1.00  0.00     0.014 A 
HETATM   19  C   UNL     1     -38.210 -55.635  16.193  1.00  0.00     0.002 A 
HETATM   20  C   UNL     1     -38.870 -54.879  15.041  1.00  0.00     0.014 A 
ENDBRANCH  11  17
ENDBRANCH   1  10
BRANCH   2  21
HETATM   21  N   UNL     1     -42.883 -52.023  16.114  1.00  0.00    -0.286 NA
HETATM   22  H   UNL     1     -42.947 -52.709  16.867  1.00  0.00     0.125 HD
HETATM   23  H   UNL     1     -42.199 -51.306  16.318  1.00  0.00     0.125 HD
ENDBRANCH   2  21
BRANCH   3  24
HETATM   24  C   UNL     1     -45.256 -53.025  14.705  1.00  0.00     0.138 C 
BRANCH  24  25
HETATM   25  C   UNL     1     -45.861 -51.632  14.430  1.00  0.00    -0.004 C 
HETATM   26  C   UNL     1     -46.505 -51.540  13.049  1.00  0.00     0.011 C 
HETATM   27  C   UNL     1     -46.893 -51.300  15.512  1.00  0.00     0.011 C 
ENDBRANCH  24  25
ENDBRANCH   3  24
TORSDOF 8
ENDMDL
MODEL 4
REMARK VINA RESULT:      -5.3      1.781      5.289
REMARK  8 active torsions:
REMARK  status: ('A' for Active; 'I' for Inactive)
REMARK    1  A    between atoms: O_2  and  C_3 
REMARK    2  A    between atoms: C_3  and  C_4 
REMARK    3  A    between atoms: C_4  and  N_5 
REMARK       I    between atoms: N_5  and  C_6 
REMARK    4  A    between atoms: N_5  and  C_12 
REMARK    5  A    between atoms: C_6  and  C_8 
REMARK    6  A    between atoms: C_13  and  N_14 
REMARK    7  A    between atoms: N_15  and  C_16 
REMARK    8  A    between atoms: C_16  and  C_17 
ROOT
HETATM    1  C   UNL     1     -41.597 -51.747  13.544  1.00  0.00     0.144 C 
HETATM    2  C   UNL     1     -41.003 -51.094  12.512  1.00  0.00     0.117 C 
HETATM    3  N   UNL     1     -40.403 -49.854  12.753  1.00  0.00    -0.288 N 
HETATM    4  C   UNL     1     -40.260 -49.342  14.045  1.00  0.00     0.330 C 
HETATM    5  O   UNL     1     -39.880 -48.205  14.309  1.00  0.00    -0.246 OA
HETATM    6  N   UNL     1     -40.614 -50.169  15.067  1.00  0.00    -0.273 N 
HETATM    7  C   UNL     1     -41.485 -51.197  14.922  1.00  0.00     0.279 C 
HETATM    8  O   UNL     1     -42.125 -51.643  15.868  1.00  0.00    -0.265 OA
HETATM    9  H   UNL     1     -40.555 -49.761  15.988  1.00  0.00     0.173 HD
ENDROOT
BRANCH   1  10
HETATM   10  N   UNL     1     -42.287 -52.937  13.357  1.00  0.00    -0.308 N 
HETATM   11  C   UNL     1     -43.690 -53.063  13.400  1.00  0.00     0.228 C 
HETATM   12  O   UNL     1     -44.178 -54.209  13.353  1.00  0.00    -0.273 OA
BRANCH  10  13
HETATM   13  C   UNL     1     -41.483 -54.176  13.462  1.00  0.00     0.158 C 
BRANCH  13  14
HETATM   14  C   UNL     1     -41.283 -54.652  14.907  1.00  0.00     0.187 C 
BRANCH  14  15
HETATM   15  O   UNL     1     -39.918 -54.487  15.304  1.00  0.00    -0.394 OA
HETATM   16  C   UNL     1     -39.068 -54.407  14.162  1.00  0.00     0.201 C 
ENDBRANCH  14  15
ENDBRANCH  13  14
ENDBRANCH  10  13
BRANCH  11  17
HETATM   17  C   UNL     1     -44.673 -51.870  13.435  1.00  0.00     0.078 A 
HETATM   18  C   UNL     1     -45.394 -51.226  14.632  1.00  0.00     0.014 A 
HETATM   19  C   UNL     1     -46.738 -51.354  13.906  1.00  0.00     0.002 A 
HETATM   20  C   UNL     1     -46.048 -52.103  12.766  1.00  0.00     0.014 A 
ENDBRANCH  11  17
ENDBRANCH   1  10
BRANCH   2  21
HETATM   21  N   UNL     1     -41.060 -51.665  11.246  1.00  0.00    -0.286 NA
HETATM   22  H   UNL     1     -40.304 -52.330  11.081  1.00  0.00     0.125 HD
HETATM   23  H   UNL     1     -41.957 -52.041  10.970  1.00  0.00     0.125 HD
ENDBRANCH   2  21
BRANCH   3  24
HETATM   24  C   UNL     1     -40.063 -48.934  11.658  1.00  0.00     0.138 C 
BRANCH  24  25
HETATM   25  C   UNL     1     -41.080 -47.803  11.397  1.00  0.00    -0.004 C 
HETATM   26  C   UNL     1     -40.402 -46.459  11.140  1.00  0.00     0.011 C 
HETATM   27  C   UNL     1     -41.967 -48.178  10.205  1.00  0.00     0.011 C 
ENDBRANCH  24  25
ENDBRANCH   3  24
TORSDOF 8
ENDMDL
MODEL 5
REMARK VINA RESULT:      -5.3      1.572      1.794
REMARK  8 active torsions:
REMARK  status: ('A' for Active; 'I' for Inactive)
REMARK    1  A    between atoms: O_2  and  C_3 
REMARK    2  A    between atoms: C_3  and  C_4 
REMARK    3  A    between atoms: C_4  and  N_5 
REMARK       I    between atoms: N_5  and  C_6 
REMARK    4  A    between atoms: N_5  and  C_12 
REMARK    5  A    between atoms: C_6  and  C_8 
REMARK    6  A    between atoms: C_13  and  N_14 
REMARK    7  A    between atoms: N_15  and  C_16 
REMARK    8  A    between atoms: C_16  and  C_17 
ROOT
HETATM    1  C   UNL     1     -41.657 -52.372  14.168  1.00  0.00     0.144 C 
HETATM    2  C   UNL     1     -42.849 -52.477  14.810  1.00  0.00     0.117 C 
HETATM    3  N   UNL     1     -43.897 -53.158  14.183  1.00  0.00    -0.288 N 
HETATM    4  C   UNL     1     -43.710 -53.863  12.991  1.00  0.00     0.330 C 
HETATM    5  O   UNL     1     -44.613 -54.352  12.318  1.00  0.00    -0.246 OA
HETATM    6  N   UNL     1     -42.428 -53.965  12.542  1.00  0.00    -0.273 N 
HETATM    7  C   UNL     1     -41.452 -53.089  12.880  1.00  0.00     0.279 C 
HETATM    8  O   UNL     1     -40.466 -52.911  12.173  1.00  0.00    -0.265 OA
HETATM    9  H   UNL     1     -42.322 -54.431  11.653  1.00  0.00     0.173 HD
ENDROOT
BRANCH   1  10
HETATM   10  N   UNL     1     -40.604 -51.636  14.694  1.00  0.00    -0.308 N 
HETATM   11  C   UNL     1     -40.328 -50.293  14.369  1.00  0.00     0.228 C 
HETATM   12  O   UNL     1     -39.273 -49.790  14.805  1.00  0.00    -0.273 OA
BRANCH  10  13
HETATM   13  C   UNL     1     -39.536 -52.416  15.360  1.00  0.00     0.158 C 
BRANCH  13  14
HETATM   14  C   UNL     1     -39.653 -52.427  16.890  1.00  0.00     0.187 C 
BRANCH  14  15
HETATM   15  O   UNL     1     -40.565 -53.445  17.315  1.00  0.00    -0.394 OA
HETATM   16  C   UNL     1     -39.940 -54.322  18.250  1.00  0.00     0.201 C 
ENDBRANCH  14  15
ENDBRANCH  13  14
ENDBRANCH  10  13
BRANCH  11  17
HETATM   17  C   UNL     1     -41.274 -49.377  13.561  1.00  0.00     0.078 A 
HETATM   18  C   UNL     1     -40.988 -48.029  12.875  1.00  0.00     0.014 A 
HETATM   19  C   UNL     1     -42.193 -47.400  13.585  1.00  0.00     0.002 A 
HETATM   20  C   UNL     1     -42.411 -48.699  14.361  1.00  0.00     0.014 A 
ENDBRANCH  11  17
ENDBRANCH   1  10
BRANCH   2  21
HETATM   21  N   UNL     1     -42.993 -51.859  16.047  1.00  0.00    -0.286 NA
HETATM   22  H   UNL     1     -43.796 -51.231  16.080  1.00  0.00     0.125 HD
HETATM   23  H   UNL     1     -42.961 -52.469  16.852  1.00  0.00     0.125 HD
ENDBRANCH   2  21
BRANCH   3  24
HETATM   24  C   UNL     1     -45.290 -53.013  14.630  1.00  0.00     0.138 C 
BRANCH  24  25
HETATM   25  C   UNL     1     -45.950 -51.651  14.329  1.00  0.00    -0.004 C 
HETATM   26  C   UNL     1     -46.567 -51.599  12.934  1.00  0.00     0.011 C 
HETATM   27  C   UNL     1     -47.020 -51.358  15.387  1.00  0.00     0.011 C 
ENDBRANCH  24  25
ENDBRANCH   3  24
TORSDOF 8
ENDMDL
MODEL 6
REMARK VINA RESULT:      -5.2      2.769      5.577
REMARK  8 active torsions:
REMARK  status: ('A' for Active; 'I' for Inactive)
REMARK    1  A    between atoms: O_2  and  C_3 
REMARK    2  A    between atoms: C_3  and  C_4 
REMARK    3  A    between atoms: C_4  and  N_5 
REMARK       I    between atoms: N_5  and  C_6 
REMARK    4  A    between atoms: N_5  and  C_12 
REMARK    5  A    between atoms: C_6  and  C_8 
REMARK    6  A    between atoms: C_13  and  N_14 
REMARK    7  A    between atoms: N_15  and  C_16 
REMARK    8  A    between atoms: C_16  and  C_17 
ROOT
HETATM    1  C   UNL     1     -41.658 -48.722  12.112  1.00  0.00     0.144 C 
HETATM    2  C   UNL     1     -41.271 -49.964  11.723  1.00  0.00     0.117 C 
HETATM    3  N   UNL     1     -41.876 -51.076  12.316  1.00  0.00    -0.288 N 
HETATM    4  C   UNL     1     -42.968 -50.951  13.178  1.00  0.00     0.330 C 
HETATM    5  O   UNL     1     -43.445 -51.868  13.841  1.00  0.00    -0.246 OA
HETATM    6  N   UNL     1     -43.498 -49.703  13.308  1.00  0.00    -0.273 N 
HETATM    7  C   UNL     1     -42.797 -48.570  13.058  1.00  0.00     0.279 C 
HETATM    8  O   UNL     1     -43.094 -47.498  13.571  1.00  0.00    -0.265 OA
HETATM    9  H   UNL     1     -44.250 -49.624  13.975  1.00  0.00     0.173 HD
ENDROOT
BRANCH   1  10
HETATM   10  N   UNL     1     -41.038 -47.577  11.629  1.00  0.00    -0.308 N 
HETATM   11  C   UNL     1     -40.034 -46.864  12.313  1.00  0.00     0.228 C 
HETATM   12  O   UNL     1     -39.657 -45.776  11.834  1.00  0.00    -0.273 OA
BRANCH  10  13
HETATM   13  C   UNL     1     -41.717 -46.898  10.503  1.00  0.00     0.158 C 
BRANCH  13  14
HETATM   14  C   UNL     1     -43.003 -47.604  10.051  1.00  0.00     0.187 C 
BRANCH  14  15
HETATM   15  O   UNL     1     -42.972 -47.847   8.641  1.00  0.00    -0.394 OA
HETATM   16  C   UNL     1     -44.289 -47.809   8.096  1.00  0.00     0.201 C 
ENDBRANCH  14  15
ENDBRANCH  13  14
ENDBRANCH  10  13
BRANCH  11  17
HETATM   17  C   UNL     1     -39.317 -47.367  13.587  1.00  0.00     0.078 A 
HETATM   18  C   UNL     1     -38.369 -46.621  14.541  1.00  0.00     0.014 A 
HETATM   19  C   UNL     1     -37.335 -47.745  14.413  1.00  0.00     0.002 A 
HETATM   20  C   UNL     1     -38.218 -48.434  13.372  1.00  0.00     0.014 A 
ENDBRANCH  11  17
ENDBRANCH   1  10
BRANCH   2  21
HETATM   21  N   UNL     1     -40.252 -50.077  10.784  1.00  0.00    -0.286 NA
HETATM   22  H   UNL     1     -40.532 -50.619   9.965  1.00  0.00     0.125 HD
HETATM   23  H   UNL     1     -39.793 -49.215  10.523  1.00  0.00     0.125 HD
ENDBRANCH   2  21
BRANCH   3  24
HETATM   24  C   UNL     1     -41.284 -52.419  12.223  1.00  0.00     0.138 C 
BRANCH  24  25
HETATM   25  C   UNL     1     -40.532 -52.906  13.479  1.00  0.00    -0.004 C 
HETATM   26  C   UNL     1     -40.213 -54.397  13.425  1.00  0.00     0.011 C 
HETATM   27  C   UNL     1     -39.239 -52.099  13.645  1.00  0.00     0.011 C 
ENDBRANCH  24  25
ENDBRANCH   3  24
TORSDOF 8
ENDMDL
MODEL 7
REMARK VINA RESULT:      -5.1      1.995      5.527
REMARK  8 active torsions:
REMARK  status: ('A' for Active; 'I' for Inactive)
REMARK    1  A    between atoms: O_2  and  C_3 
REMARK    2  A    between atoms: C_3  and  C_4 
REMARK    3  A    between atoms: C_4  and  N_5 
REMARK       I    between atoms: N_5  and  C_6 
REMARK    4  A    between atoms: N_5  and  C_12 
REMARK    5  A    between atoms: C_6  and  C_8 
REMARK    6  A    between atoms: C_13  and  N_14 
REMARK    7  A    between atoms: N_15  and  C_16 
REMARK    8  A    between atoms: C_16  and  C_17 
ROOT
HETATM    1  C   UNL     1     -42.144 -50.682  13.394  1.00  0.00     0.144 C 
HETATM    2  C   UNL     1     -41.903 -49.521  12.733  1.00  0.00     0.117 C 
HETATM    3  N   UNL     1     -41.332 -48.453  13.432  1.00  0.00    -0.288 N 
HETATM    4  C   UNL     1     -40.863 -48.593  14.740  1.00  0.00     0.330 C 
HETATM    5  O   UNL     1     -40.490 -47.666  15.454  1.00  0.00    -0.246 OA
HETATM    6  N   UNL     1     -40.867 -49.855  15.254  1.00  0.00    -0.273 N 
HETATM    7  C   UNL     1     -41.682 -50.837  14.800  1.00  0.00     0.279 C 
HETATM    8  O   UNL     1     -42.004 -51.789  15.502  1.00  0.00    -0.265 OA
HETATM    9  H   UNL     1     -40.576 -49.926  16.217  1.00  0.00     0.173 HD
ENDROOT
BRANCH   1  10
HETATM   10  N   UNL     1     -42.789 -51.750  12.784  1.00  0.00    -0.308 N 
HETATM   11  C   UNL     1     -44.124 -52.125  13.033  1.00  0.00     0.228 C 
HETATM   12  O   UNL     1     -44.540 -53.185  12.525  1.00  0.00    -0.273 OA
BRANCH  10  13
HETATM   13  C   UNL     1     -41.914 -52.734  12.106  1.00  0.00     0.158 C 
BRANCH  13  14
HETATM   14  C   UNL     1     -41.276 -53.746  13.067  1.00  0.00     0.187 C 
BRANCH  14  15
HETATM   15  O   UNL     1     -39.854 -53.584  13.094  1.00  0.00    -0.394 OA
HETATM   16  C   UNL     1     -39.297 -54.211  14.247  1.00  0.00     0.201 C 
ENDBRANCH  14  15
ENDBRANCH  13  14
ENDBRANCH  10  13
BRANCH  11  17
HETATM   17  C   UNL     1     -45.133 -51.278  13.841  1.00  0.00     0.078 A 
HETATM   18  C   UNL     1     -45.454 -51.305  15.346  1.00  0.00     0.014 A 
HETATM   19  C   UNL     1     -46.949 -51.440  15.036  1.00  0.00     0.002 A 
HETATM   20  C   UNL     1     -46.629 -51.536  13.545  1.00  0.00     0.014 A 
ENDBRANCH  11  17
ENDBRANCH   1  10
BRANCH   2  21
HETATM   21  N   UNL     1     -42.279 -49.426  11.398  1.00  0.00    -0.286 NA
HETATM   22  H   UNL     1     -41.518 -49.658  10.759  1.00  0.00     0.125 HD
HETATM   23  H   UNL     1     -43.136 -49.899  11.146  1.00  0.00     0.125 HD
ENDBRANCH   2  21
BRANCH   3  24
HETATM   24  C   UNL     1     -41.367 -47.079  12.908  1.00  0.00     0.138 C 
BRANCH  24  25
HETATM   25  C   UNL     1     -40.108 -46.625  12.139  1.00  0.00    -0.004 C 
HETATM   26  C   UNL     1     -39.183 -47.791  11.800  1.00  0.00     0.011 C 
HETATM   27  C   UNL     1     -40.527 -45.898  10.857  1.00  0.00     0.011 C 
ENDBRANCH  24  25
ENDBRANCH   3  24
TORSDOF 8
ENDMDL
MODEL 8
REMARK VINA RESULT:      -5.1      1.836      5.392
REMARK  8 active torsions:
REMARK  status: ('A' for Active; 'I' for Inactive)
REMARK    1  A    between atoms: O_2  and  C_3 
REMARK    2  A    between atoms: C_3  and  C_4 
REMARK    3  A    between atoms: C_4  and  N_5 
REMARK       I    between atoms: N_5  and  C_6 
REMARK    4  A    between atoms: N_5  and  C_12 
REMARK    5  A    between atoms: C_6  and  C_8 
REMARK    6  A    between atoms: C_13  and  N_14 
REMARK    7  A    between atoms: N_15  and  C_16 
REMARK    8  A    between atoms: C_16  and  C_17 
ROOT
HETATM    1  C   UNL     1     -42.321 -52.010  13.026  1.00  0.00     0.144 C 
HETATM    2  C   UNL     1     -42.872 -50.777  13.163  1.00  0.00     0.117 C 
HETATM    3  N   UNL     1     -42.280 -49.695  12.504  1.00  0.00    -0.288 N 
HETATM    4  C   UNL     1     -41.237 -49.869  11.590  1.00  0.00     0.330 C 
HETATM    5  O   UNL     1     -40.581 -48.956  11.095  1.00  0.00    -0.246 OA
HETATM    6  N   UNL     1     -40.916 -51.153  11.274  1.00  0.00    -0.273 N 
HETATM    7  C   UNL     1     -41.186 -52.206  12.083  1.00  0.00     0.279 C 
HETATM    8  O   UNL     1     -40.542 -53.248  12.030  1.00  0.00    -0.265 OA
HETATM    9  H   UNL     1     -40.126 -51.258  10.656  1.00  0.00     0.173 HD
ENDROOT
BRANCH   1  10
HETATM   10  N   UNL     1     -42.804 -53.109  13.723  1.00  0.00    -0.308 N 
HETATM   11  C   UNL     1     -42.260 -53.594  14.928  1.00  0.00     0.228 C 
HETATM   12  O   UNL     1     -42.700 -54.670  15.379  1.00  0.00    -0.273 OA
BRANCH  10  13
HETATM   13  C   UNL     1     -43.715 -54.003  12.971  1.00  0.00     0.158 C 
BRANCH  13  14
HETATM   14  C   UNL     1     -45.198 -53.645  13.143  1.00  0.00     0.187 C 
BRANCH  14  15
HETATM   15  O   UNL     1     -45.651 -52.848  12.044  1.00  0.00    -0.394 OA
HETATM   16  C   UNL     1     -46.696 -51.971  12.456  1.00  0.00     0.201 C 
ENDBRANCH  14  15
ENDBRANCH  13  14
ENDBRANCH  10  13
BRANCH  11  17
HETATM   17  C   UNL     1     -41.197 -52.851  15.768  1.00  0.00     0.078 A 
HETATM   18  C   UNL     1     -40.870 -51.349  15.833  1.00  0.00     0.014 A 
HETATM   19  C   UNL     1     -39.387 -51.649  15.584  1.00  0.00     0.002 A 
HETATM   20  C   UNL     1     -39.721 -53.129  15.399  1.00  0.00     0.014 A 
ENDBRANCH  11  17
ENDBRANCH   1  10
BRANCH   2  21
HETATM   21  N   UNL     1     -43.977 -50.633  13.995  1.00  0.00    -0.286 NA
HETATM   22  H   UNL     1     -43.760 -50.829  14.972  1.00  0.00     0.125 HD
HETATM   23  H   UNL     1     -44.497 -49.772  13.892  1.00  0.00     0.125 HD
ENDBRANCH   2  21
BRANCH   3  24
HETATM   24  C   UNL     1     -42.583 -48.304  12.873  1.00  0.00     0.138 C 
BRANCH  24  25
HETATM   25  C   UNL     1     -41.855 -47.771  14.125  1.00  0.00    -0.004 C 
HETATM   26  C   UNL     1     -40.891 -46.635  13.797  1.00  0.00     0.011 C 
HETATM   27  C   UNL     1     -42.888 -47.302  15.155  1.00  0.00     0.011 C 
ENDBRANCH  24  25
ENDBRANCH   3  24
TORSDOF 8
ENDMDL
MODEL 9
REMARK VINA RESULT:      -5.1      2.448      6.725
REMARK  8 active torsions:
REMARK  status: ('A' for Active; 'I' for Inactive)
REMARK    1  A    between atoms: O_2  and  C_3 
REMARK    2  A    between atoms: C_3  and  C_4 
REMARK    3  A    between atoms: C_4  and  N_5 
REMARK       I    between atoms: N_5  and  C_6 
REMARK    4  A    between atoms: N_5  and  C_12 
REMARK    5  A    between atoms: C_6  and  C_8 
REMARK    6  A    between atoms: C_13  and  N_14 
REMARK    7  A    between atoms: N_15  and  C_16 
REMARK    8  A    between atoms: C_16  and  C_17 
ROOT
HETATM    1  C   UNL     1     -41.561 -51.604  13.767  1.00  0.00     0.144 C 
HETATM    2  C   UNL     1     -40.608 -51.443  12.814  1.00  0.00     0.117 C 
HETATM    3  N   UNL     1     -39.896 -50.240  12.769  1.00  0.00    -0.288 N 
HETATM    4  C   UNL     1     -40.026 -49.267  13.763  1.00  0.00     0.330 C 
HETATM    5  O   UNL     1     -39.546 -48.138  13.704  1.00  0.00    -0.246 OA
HETATM    6  N   UNL     1     -40.779 -49.604  14.846  1.00  0.00    -0.273 N 
HETATM    7  C   UNL     1     -41.738 -50.561  14.814  1.00  0.00     0.279 C 
HETATM    8  O   UNL     1     -42.677 -50.565  15.602  1.00  0.00    -0.265 OA
HETATM    9  H   UNL     1     -40.905 -48.869  15.525  1.00  0.00     0.173 HD
ENDROOT
BRANCH   1  10
HETATM   10  N   UNL     1     -42.365 -52.736  13.814  1.00  0.00    -0.308 N 
HETATM   11  C   UNL     1     -42.023 -53.932  14.476  1.00  0.00     0.228 C 
HETATM   12  O   UNL     1     -42.770 -54.919  14.326  1.00  0.00    -0.273 OA
BRANCH  10  13
HETATM   13  C   UNL     1     -43.472 -52.787  12.831  1.00  0.00     0.158 C 
BRANCH  13  14
HETATM   14  C   UNL     1     -44.701 -51.972  13.256  1.00  0.00     0.187 C 
BRANCH  14  15
HETATM   15  O   UNL     1     -45.280 -52.521  14.444  1.00  0.00    -0.394 OA
HETATM   16  C   UNL     1     -46.000 -53.715  14.147  1.00  0.00     0.201 C 
ENDBRANCH  14  15
ENDBRANCH  13  14
ENDBRANCH  10  13
BRANCH  11  17
HETATM   17  C   UNL     1     -40.817 -54.088  15.430  1.00  0.00     0.078 A 
HETATM   18  C   UNL     1     -39.320 -54.234  15.105  1.00  0.00     0.014 A 
HETATM   19  C   UNL     1     -39.237 -55.480  15.994  1.00  0.00     0.002 A 
HETATM   20  C   UNL     1     -40.746 -55.413  16.225  1.00  0.00     0.014 A 
ENDBRANCH  11  17
ENDBRANCH   1  10
BRANCH   2  21
HETATM   21  N   UNL     1     -40.413 -52.463  11.891  1.00  0.00    -0.286 NA
HETATM   22  H   UNL     1     -40.734 -52.212  10.955  1.00  0.00     0.125 HD
HETATM   23  H   UNL     1     -39.488 -52.871  11.872  1.00  0.00     0.125 HD
ENDBRANCH   2  21
BRANCH   3  24
HETATM   24  C   UNL     1     -39.120 -49.845  11.583  1.00  0.00     0.138 C 
BRANCH  24  25
HETATM   25  C   UNL     1     -37.587 -49.935  11.728  1.00  0.00    -0.004 C 
HETATM   26  C   UNL     1     -37.154 -51.089  12.628  1.00  0.00     0.011 C 
HETATM   27  C   UNL     1     -36.950 -50.084  10.342  1.00  0.00     0.011 C 
ENDBRANCH  24  25
ENDBRANCH   3  24
TORSDOF 8
ENDMDL
