MODEL 1
REMARK VINA RESULT:      -6.0      0.000      0.000
REMARK  4 active torsions:
REMARK  status: ('A' for Active; 'I' for Inactive)
REMARK    1  A    between atoms: C_5  and  O_6 
REMARK    2  A    between atoms: O_6  and  C_7 
REMARK    3  A    between atoms: C_7  and  C_8 
REMARK    4  A    between atoms: C_8  and  N_9 
ROOT
HETATM    1  C   UNL     1     -41.034 -50.443  13.217  1.00  0.00     0.160 C 
ENDROOT
BRANCH   1   2
HETATM    2  C   UNL     1     -40.684 -49.539  12.030  1.00  0.00     0.196 C 
BRANCH   2   3
HETATM    3  O   UNL     1     -41.110 -48.199  12.295  1.00  0.00    -0.348 OA
BRANCH   3   4
HETATM    4  C   UNL     1     -41.989 -47.633  11.403  1.00  0.00     0.090 A 
HETATM    5  C   UNL     1     -43.307 -48.067  11.212  1.00  0.00     0.041 A 
HETATM    6  C   UNL     1     -44.132 -47.435  10.277  1.00  0.00     0.045 A 
HETATM    7  C   UNL     1     -43.643 -46.370   9.534  1.00  0.00     0.118 A 
HETATM    8  F   UNL     1     -44.441 -45.769   8.642  1.00  0.00    -0.206 F 
HETATM    9  C   UNL     1     -42.339 -45.921   9.701  1.00  0.00     0.069 A 
HETATM   10  C   UNL     1     -41.515 -46.553  10.634  1.00  0.00     0.070 A 
HETATM   11 CL   UNL     1     -39.898 -45.964  10.812  1.00  0.00    -0.081 Cl
ENDBRANCH   3   4
ENDBRANCH   2   3
ENDBRANCH   1   2
BRANCH   1  12
HETATM   12  N   UNL     1     -42.127 -51.382  12.943  1.00  0.00    -0.306 N 
HETATM   13  C   UNL     1     -43.420 -51.039  13.294  1.00  0.00     0.125 A 
HETATM   14  C   UNL     1     -44.447 -51.880  13.140  1.00  0.00     0.117 A 
HETATM   15 CL   UNL     1     -46.043 -51.467  13.613  1.00  0.00    -0.077 Cl
HETATM   16  C   UNL     1     -44.183 -53.224  12.572  1.00  0.00     0.272 A 
HETATM   17  O   UNL     1     -45.042 -54.095  12.471  1.00  0.00    -0.266 OA
HETATM   18  N   UNL     1     -42.892 -53.447  12.166  1.00  0.00    -0.274 N 
HETATM   19  C   UNL     1     -41.829 -52.599  12.339  1.00  0.00     0.329 A 
HETATM   20  H   UNL     1     -42.689 -54.355  11.776  1.00  0.00     0.173 HD
HETATM   21  O   UNL     1     -40.700 -52.929  11.986  1.00  0.00    -0.246 OA
ENDBRANCH   1  12
TORSDOF 4
ENDMDL
MODEL 2
REMARK VINA RESULT:      -5.9      3.933      6.739
REMARK  4 active torsions:
REMARK  status: ('A' for Active; 'I' for Inactive)
REMARK    1  A    between atoms: C_5  and  O_6 
REMARK    2  A    between atoms: O_6  and  C_7 
REMARK    3  A    between atoms: C_7  and  C_8 
REMARK    4  A    between atoms: C_8  and  N_9 
ROOT
HETATM    1  C   UNL     1     -42.792 -49.578  12.512  1.00  0.00     0.160 C 
ENDROOT
BRANCH   1   2
HETATM    2  C   UNL     1     -43.324 -50.221  13.797  1.00  0.00     0.196 C 
BRANCH   2   3
HETATM    3  O   UNL     1     -44.674 -50.655  13.603  1.00  0.00    -0.348 OA
BRANCH   3   4
HETATM    4  C   UNL     1     -44.901 -52.010  13.598  1.00  0.00     0.090 A 
HETATM    5  C   UNL     1     -44.105 -52.941  12.917  1.00  0.00     0.041 A 
HETATM    6  C   UNL     1     -44.413 -54.303  12.962  1.00  0.00     0.045 A 
HETATM    7  C   UNL     1     -45.514 -54.738  13.687  1.00  0.00     0.118 A 
HETATM    8  F   UNL     1     -45.801 -56.045  13.726  1.00  0.00    -0.206 F 
HETATM    9  C   UNL     1     -46.321 -53.837  14.369  1.00  0.00     0.069 A 
HETATM   10  C   UNL     1     -46.014 -52.477  14.323  1.00  0.00     0.070 A 
HETATM   11 CL   UNL     1     -47.045 -51.386  15.185  1.00  0.00    -0.081 Cl
ENDBRANCH   3   4
ENDBRANCH   2   3
ENDBRANCH   1   2
BRANCH   1  12
HETATM   12  N   UNL     1     -41.392 -49.906  12.223  1.00  0.00    -0.306 N 
HETATM   13  C   UNL     1     -40.714 -50.779  13.055  1.00  0.00     0.125 A 
HETATM   14  C   UNL     1     -39.418 -51.059  12.890  1.00  0.00     0.117 A 
HETATM   15 CL   UNL     1     -38.570 -52.111  13.946  1.00  0.00    -0.077 Cl
HETATM   16  C   UNL     1     -38.689 -50.408  11.774  1.00  0.00     0.272 A 
HETATM   17  O   UNL     1     -37.482 -50.534  11.592  1.00  0.00    -0.266 OA
HETATM   18  N   UNL     1     -39.457 -49.632  10.944  1.00  0.00    -0.274 N 
HETATM   19  C   UNL     1     -40.781 -49.322  11.118  1.00  0.00     0.329 A 
HETATM   20  H   UNL     1     -38.983 -49.179  10.177  1.00  0.00     0.173 HD
HETATM   21  O   UNL     1     -41.355 -48.566  10.339  1.00  0.00    -0.246 OA
ENDBRANCH   1  12
TORSDOF 4
ENDMDL
MODEL 3
REMARK VINA RESULT:      -5.9      3.479      6.250
REMARK  4 active torsions:
REMARK  status: ('A' for Active; 'I' for Inactive)
REMARK    1  A    between atoms: C_5  and  O_6 
REMARK    2  A    between atoms: O_6  and  C_7 
REMARK    3  A    between atoms: C_7  and  C_8 
REMARK    4  A    between atoms: C_8  and  N_9 
ROOT
HETATM    1  C   UNL     1     -40.781 -48.779  12.063  1.00  0.00     0.160 C 
ENDROOT
BRANCH   1   2
HETATM    2  C   UNL     1     -41.184 -50.244  11.859  1.00  0.00     0.196 C 
BRANCH   2   3
HETATM    3  O   UNL     1     -41.592 -50.817  13.104  1.00  0.00    -0.348 OA
BRANCH   3   4
HETATM    4  C   UNL     1     -42.844 -51.381  13.153  1.00  0.00     0.090 A 
HETATM    5  C   UNL     1     -44.029 -50.656  13.336  1.00  0.00     0.041 A 
HETATM    6  C   UNL     1     -45.262 -51.313  13.379  1.00  0.00     0.045 A 
HETATM    7  C   UNL     1     -45.314 -52.692  13.237  1.00  0.00     0.118 A 
HETATM    8  F   UNL     1     -46.499 -53.313  13.278  1.00  0.00    -0.206 F 
HETATM    9  C   UNL     1     -44.155 -53.436  13.057  1.00  0.00     0.069 A 
HETATM   10  C   UNL     1     -42.924 -52.780  13.017  1.00  0.00     0.070 A 
HETATM   11 CL   UNL     1     -41.503 -53.742  12.790  1.00  0.00    -0.081 Cl
ENDBRANCH   3   4
ENDBRANCH   2   3
ENDBRANCH   1   2
BRANCH   1  12
HETATM   12  N   UNL     1     -41.538 -47.836  11.233  1.00  0.00    -0.306 N 
HETATM   13  C   UNL     1     -42.870 -48.092  10.959  1.00  0.00     0.125 A 
HETATM   14  C   UNL     1     -43.592 -47.313  10.148  1.00  0.00     0.117 A 
HETATM   15 CL   UNL     1     -45.232 -47.653   9.779  1.00  0.00    -0.077 Cl
HETATM   16  C   UNL     1     -42.937 -46.137   9.526  1.00  0.00     0.272 A 
HETATM   17  O   UNL     1     -43.490 -45.412   8.705  1.00  0.00    -0.266 OA
HETATM   18  N   UNL     1     -41.645 -45.905   9.924  1.00  0.00    -0.274 N 
HETATM   19  C   UNL     1     -40.890 -46.710  10.738  1.00  0.00     0.329 A 
HETATM   20  H   UNL     1     -41.179 -45.110   9.515  1.00  0.00     0.173 HD
HETATM   21  O   UNL     1     -39.719 -46.432  10.982  1.00  0.00    -0.246 OA
ENDBRANCH   1  12
TORSDOF 4
ENDMDL
MODEL 4
REMARK VINA RESULT:      -5.8      2.956      5.697
REMARK  4 active torsions:
REMARK  status: ('A' for Active; 'I' for Inactive)
REMARK    1  A    between atoms: C_5  and  O_6 
REMARK    2  A    between atoms: O_6  and  C_7 
REMARK    3  A    between atoms: C_7  and  C_8 
REMARK    4  A    between atoms: C_8  and  N_9 
ROOT
HETATM    1  C   UNL     1     -40.261 -51.573  12.400  1.00  0.00     0.160 C 
ENDROOT
BRANCH   1   2
HETATM    2  C   UNL     1     -41.403 -52.499  11.967  1.00  0.00     0.196 C 
BRANCH   2   3
HETATM    3  O   UNL     1     -42.113 -52.970  13.116  1.00  0.00    -0.348 OA
BRANCH   3   4
HETATM    4  C   UNL     1     -43.407 -52.537  13.275  1.00  0.00     0.090 A 
HETATM    5  C   UNL     1     -44.487 -52.978  12.499  1.00  0.00     0.041 A 
HETATM    6  C   UNL     1     -45.772 -52.480  12.727  1.00  0.00     0.045 A 
HETATM    7  C   UNL     1     -45.982 -51.542  13.728  1.00  0.00     0.118 A 
HETATM    8  F   UNL     1     -47.216 -51.071  13.940  1.00  0.00    -0.206 F 
HETATM    9  C   UNL     1     -44.929 -51.085  14.510  1.00  0.00     0.069 A 
HETATM   10  C   UNL     1     -43.645 -51.582  14.282  1.00  0.00     0.070 A 
HETATM   11 CL   UNL     1     -42.360 -50.988  15.277  1.00  0.00    -0.081 Cl
ENDBRANCH   3   4
ENDBRANCH   2   3
ENDBRANCH   1   2
BRANCH   1  12
HETATM   12  N   UNL     1     -40.441 -50.177  11.985  1.00  0.00    -0.306 N 
HETATM   13  C   UNL     1     -41.721 -49.682  11.810  1.00  0.00     0.125 A 
HETATM   14  C   UNL     1     -41.951 -48.445  11.361  1.00  0.00     0.117 A 
HETATM   15 CL   UNL     1     -43.537 -47.847  11.106  1.00  0.00    -0.077 Cl
HETATM   16  C   UNL     1     -40.789 -47.579  11.044  1.00  0.00     0.272 A 
HETATM   17  O   UNL     1     -40.895 -46.462  10.548  1.00  0.00    -0.266 OA
HETATM   18  N   UNL     1     -39.560 -48.115  11.335  1.00  0.00    -0.274 N 
HETATM   19  C   UNL     1     -39.315 -49.390  11.774  1.00  0.00     0.329 A 
HETATM   20  H   UNL     1     -38.755 -47.544  11.128  1.00  0.00     0.173 HD
HETATM   21  O   UNL     1     -38.164 -49.782  11.948  1.00  0.00    -0.246 OA
ENDBRANCH   1  12
TORSDOF 4
ENDMDL
MODEL 5
REMARK VINA RESULT:      -5.8      4.054      6.818
REMARK  4 active torsions:
REMARK  status: ('A' for Active; 'I' for Inactive)
REMARK    1  A    between atoms: C_5  and  O_6 
REMARK    2  A    between atoms: O_6  and  C_7 
REMARK    3  A    between atoms: C_7  and  C_8 
REMARK    4  A    between atoms: C_8  and  N_9 
ROOT
HETATM    1  C   UNL     1     -41.577 -48.868  12.412  1.00  0.00     0.160 C 
ENDROOT
BRANCH   1   2
HETATM    2  C   UNL     1     -42.550 -50.006  12.740  1.00  0.00     0.196 C 
BRANCH   2   3
HETATM    3  O   UNL     1     -42.048 -51.242  12.225  1.00  0.00    -0.348 OA
BRANCH   3   4
HETATM    4  C   UNL     1     -42.377 -52.386  12.910  1.00  0.00     0.090 A 
HETATM    5  C   UNL     1     -43.652 -52.966  12.911  1.00  0.00     0.041 A 
HETATM    6  C   UNL     1     -43.900 -54.131  13.642  1.00  0.00     0.045 A 
HETATM    7  C   UNL     1     -42.877 -54.719  14.371  1.00  0.00     0.118 A 
HETATM    8  F   UNL     1     -43.123 -55.835  15.067  1.00  0.00    -0.206 F 
HETATM    9  C   UNL     1     -41.604 -54.164  14.390  1.00  0.00     0.069 A 
HETATM   10  C   UNL     1     -41.357 -53.000  13.661  1.00  0.00     0.070 A 
HETATM   11 CL   UNL     1     -39.758 -52.340  13.711  1.00  0.00    -0.081 Cl
ENDBRANCH   3   4
ENDBRANCH   2   3
ENDBRANCH   1   2
BRANCH   1  12
HETATM   12  N   UNL     1     -42.076 -47.940  11.390  1.00  0.00    -0.306 N 
HETATM   13  C   UNL     1     -43.406 -47.997  11.014  1.00  0.00     0.125 A 
HETATM   14  C   UNL     1     -43.903 -47.233  10.038  1.00  0.00     0.117 A 
HETATM   15 CL   UNL     1     -45.543 -47.333   9.547  1.00  0.00    -0.077 Cl
HETATM   16  C   UNL     1     -42.992 -46.294   9.339  1.00  0.00     0.272 A 
HETATM   17  O   UNL     1     -43.333 -45.613   8.377  1.00  0.00    -0.266 OA
HETATM   18  N   UNL     1     -41.716 -46.235   9.836  1.00  0.00    -0.274 N 
HETATM   19  C   UNL     1     -41.192 -47.030  10.823  1.00  0.00     0.329 A 
HETATM   20  H   UNL     1     -41.078 -45.602   9.378  1.00  0.00     0.173 HD
HETATM   21  O   UNL     1     -40.012 -46.927  11.149  1.00  0.00    -0.246 OA
ENDBRANCH   1  12
TORSDOF 4
ENDMDL
MODEL 6
REMARK VINA RESULT:      -5.8      3.811      6.466
REMARK  4 active torsions:
REMARK  status: ('A' for Active; 'I' for Inactive)
REMARK    1  A    between atoms: C_5  and  O_6 
REMARK    2  A    between atoms: O_6  and  C_7 
REMARK    3  A    between atoms: C_7  and  C_8 
REMARK    4  A    between atoms: C_8  and  N_9 
ROOT
HETATM    1  C   UNL     1     -40.975 -54.093  12.876  1.00  0.00     0.160 C 
ENDROOT
BRANCH   1   2
HETATM    2  C   UNL     1     -42.262 -54.245  13.693  1.00  0.00     0.196 C 
BRANCH   2   3
HETATM    3  O   UNL     1     -43.399 -53.975  12.868  1.00  0.00    -0.348 OA
BRANCH   3   4
HETATM    4  C   UNL     1     -44.392 -53.193  13.407  1.00  0.00     0.090 A 
HETATM    5  C   UNL     1     -44.326 -51.798  13.514  1.00  0.00     0.041 A 
HETATM    6  C   UNL     1     -45.384 -51.081  14.082  1.00  0.00     0.045 A 
HETATM    7  C   UNL     1     -46.506 -51.754  14.540  1.00  0.00     0.118 A 
HETATM    8  F   UNL     1     -47.515 -51.060  15.081  1.00  0.00    -0.206 F 
HETATM    9  C   UNL     1     -46.597 -53.137  14.448  1.00  0.00     0.069 A 
HETATM   10  C   UNL     1     -45.541 -53.853  13.883  1.00  0.00     0.070 A 
HETATM   11 CL   UNL     1     -45.692 -55.574  13.786  1.00  0.00    -0.081 Cl
ENDBRANCH   3   4
ENDBRANCH   2   3
ENDBRANCH   1   2
BRANCH   1  12
HETATM   12  N   UNL     1     -40.370 -52.760  12.968  1.00  0.00    -0.306 N 
HETATM   13  C   UNL     1     -40.829 -51.749  12.144  1.00  0.00     0.125 A 
HETATM   14  C   UNL     1     -40.270 -50.535  12.126  1.00  0.00     0.117 A 
HETATM   15 CL   UNL     1     -40.817 -49.295  11.075  1.00  0.00    -0.077 Cl
HETATM   16  C   UNL     1     -39.119 -50.272  13.023  1.00  0.00     0.272 A 
HETATM   17  O   UNL     1     -38.487 -49.220  13.018  1.00  0.00    -0.266 OA
HETATM   18  N   UNL     1     -38.789 -51.298  13.871  1.00  0.00    -0.274 N 
HETATM   19  C   UNL     1     -39.343 -52.552  13.882  1.00  0.00     0.329 A 
HETATM   20  H   UNL     1     -38.009 -51.141  14.492  1.00  0.00     0.173 HD
HETATM   21  O   UNL     1     -38.926 -53.414  14.651  1.00  0.00    -0.246 OA
ENDBRANCH   1  12
TORSDOF 4
ENDMDL
MODEL 7
REMARK VINA RESULT:      -5.8      5.093      6.829
REMARK  4 active torsions:
REMARK  status: ('A' for Active; 'I' for Inactive)
REMARK    1  A    between atoms: C_5  and  O_6 
REMARK    2  A    between atoms: O_6  and  C_7 
REMARK    3  A    between atoms: C_7  and  C_8 
REMARK    4  A    between atoms: C_8  and  N_9 
ROOT
HETATM    1  C   UNL     1     -45.790 -54.623  14.278  1.00  0.00     0.160 C 
ENDROOT
BRANCH   1   2
HETATM    2  C   UNL     1     -46.213 -53.850  15.531  1.00  0.00     0.196 C 
BRANCH   2   3
HETATM    3  O   UNL     1     -46.678 -52.547  15.168  1.00  0.00    -0.348 OA
BRANCH   3   4
HETATM    4  C   UNL     1     -46.735 -51.602  16.163  1.00  0.00     0.090 A 
HETATM    5  C   UNL     1     -47.868 -51.352  16.949  1.00  0.00     0.041 A 
HETATM    6  C   UNL     1     -47.839 -50.366  17.939  1.00  0.00     0.045 A 
HETATM    7  C   UNL     1     -46.682 -49.630  18.147  1.00  0.00     0.118 A 
HETATM    8  F   UNL     1     -46.663 -48.689  19.099  1.00  0.00    -0.206 F 
HETATM    9  C   UNL     1     -45.545 -49.855  17.381  1.00  0.00     0.069 A 
HETATM   10  C   UNL     1     -45.574 -50.839  16.391  1.00  0.00     0.070 A 
HETATM   11 CL   UNL     1     -44.138 -51.089  15.459  1.00  0.00    -0.081 Cl
ENDBRANCH   3   4
ENDBRANCH   2   3
ENDBRANCH   1   2
BRANCH   1  12
HETATM   12  N   UNL     1     -44.545 -54.136  13.674  1.00  0.00    -0.306 N 
HETATM   13  C   UNL     1     -43.334 -54.471  14.253  1.00  0.00     0.125 A 
HETATM   14  C   UNL     1     -42.171 -53.997  13.796  1.00  0.00     0.117 A 
HETATM   15 CL   UNL     1     -40.675 -54.382  14.539  1.00  0.00    -0.077 Cl
HETATM   16  C   UNL     1     -42.188 -53.082  12.629  1.00  0.00     0.272 A 
HETATM   17  O   UNL     1     -41.184 -52.529  12.190  1.00  0.00    -0.266 OA
HETATM   18  N   UNL     1     -43.420 -52.877  12.061  1.00  0.00    -0.274 N 
HETATM   19  C   UNL     1     -44.619 -53.342  12.535  1.00  0.00     0.329 A 
HETATM   20  H   UNL     1     -43.456 -52.259  11.265  1.00  0.00     0.173 HD
HETATM   21  O   UNL     1     -45.671 -53.046  11.974  1.00  0.00    -0.246 OA
ENDBRANCH   1  12
TORSDOF 4
ENDMDL
MODEL 8
REMARK VINA RESULT:      -5.7      3.050      3.941
REMARK  4 active torsions:
REMARK  status: ('A' for Active; 'I' for Inactive)
REMARK    1  A    between atoms: C_5  and  O_6 
REMARK    2  A    between atoms: O_6  and  C_7 
REMARK    3  A    between atoms: C_7  and  C_8 
REMARK    4  A    between atoms: C_8  and  N_9 
ROOT
HETATM    1  C   UNL     1     -41.705 -54.007  13.019  1.00  0.00     0.160 C 
ENDROOT
BRANCH   1   2
HETATM    2  C   UNL     1     -40.901 -52.819  13.559  1.00  0.00     0.196 C 
BRANCH   2   3
HETATM    3  O   UNL     1     -39.958 -52.381  12.577  1.00  0.00    -0.348 OA
BRANCH   3   4
HETATM    4  C   UNL     1     -39.957 -51.044  12.261  1.00  0.00     0.090 A 
HETATM    5  C   UNL     1     -41.095 -50.325  11.874  1.00  0.00     0.041 A 
HETATM    6  C   UNL     1     -41.002 -48.964  11.566  1.00  0.00     0.045 A 
HETATM    7  C   UNL     1     -39.775 -48.321  11.645  1.00  0.00     0.118 A 
HETATM    8  F   UNL     1     -39.695 -47.018  11.350  1.00  0.00    -0.206 F 
HETATM    9  C   UNL     1     -38.630 -49.011  12.024  1.00  0.00     0.069 A 
HETATM   10  C   UNL     1     -38.723 -50.369  12.330  1.00  0.00     0.070 A 
HETATM   11 CL   UNL     1     -37.275 -51.192  12.798  1.00  0.00    -0.081 Cl
ENDBRANCH   3   4
ENDBRANCH   2   3
ENDBRANCH   1   2
BRANCH   1  12
HETATM   12  N   UNL     1     -43.122 -53.983  13.396  1.00  0.00    -0.306 N 
HETATM   13  C   UNL     1     -44.015 -53.253  12.632  1.00  0.00     0.125 A 
HETATM   14  C   UNL     1     -45.303 -53.129  12.965  1.00  0.00     0.117 A 
HETATM   15 CL   UNL     1     -46.399 -52.192  12.037  1.00  0.00    -0.077 Cl
HETATM   16  C   UNL     1     -45.784 -53.801  14.197  1.00  0.00     0.272 A 
HETATM   17  O   UNL     1     -46.925 -53.677  14.631  1.00  0.00    -0.266 OA
HETATM   18  N   UNL     1     -44.856 -54.577  14.843  1.00  0.00    -0.274 N 
HETATM   19  C   UNL     1     -43.529 -54.693  14.520  1.00  0.00     0.329 A 
HETATM   20  H   UNL     1     -45.161 -55.045  15.683  1.00  0.00     0.173 HD
HETATM   21  O   UNL     1     -42.774 -55.376  15.208  1.00  0.00    -0.246 OA
ENDBRANCH   1  12
TORSDOF 4
ENDMDL
MODEL 9
REMARK VINA RESULT:      -5.7      4.423      6.705
REMARK  4 active torsions:
REMARK  status: ('A' for Active; 'I' for Inactive)
REMARK    1  A    between atoms: C_5  and  O_6 
REMARK    2  A    between atoms: O_6  and  C_7 
REMARK    3  A    between atoms: C_7  and  C_8 
REMARK    4  A    between atoms: C_8  and  N_9 
ROOT
HETATM    1  C   UNL     1     -43.407 -52.912  12.263  1.00  0.00     0.160 C 
ENDROOT
BRANCH   1   2
HETATM    2  C   UNL     1     -44.013 -54.206  12.817  1.00  0.00     0.196 C 
BRANCH   2   3
HETATM    3  O   UNL     1     -45.428 -54.058  12.965  1.00  0.00    -0.348 OA
BRANCH   3   4
HETATM    4  C   UNL     1     -45.874 -53.365  14.064  1.00  0.00     0.090 A 
HETATM    5  C   UNL     1     -45.722 -53.802  15.386  1.00  0.00     0.041 A 
HETATM    6  C   UNL     1     -46.212 -53.034  16.446  1.00  0.00     0.045 A 
HETATM    7  C   UNL     1     -46.851 -51.830  16.189  1.00  0.00     0.118 A 
HETATM    8  F   UNL     1     -47.316 -51.100  17.210  1.00  0.00    -0.206 F 
HETATM    9  C   UNL     1     -47.018 -51.374  14.887  1.00  0.00     0.069 A 
HETATM   10  C   UNL     1     -46.530 -52.142  13.829  1.00  0.00     0.070 A 
HETATM   11 CL   UNL     1     -46.757 -51.539  12.222  1.00  0.00    -0.081 Cl
ENDBRANCH   3   4
ENDBRANCH   2   3
ENDBRANCH   1   2
BRANCH   1  12
HETATM   12  N   UNL     1     -42.027 -52.671  12.698  1.00  0.00    -0.306 N 
HETATM   13  C   UNL     1     -41.283 -53.722  13.204  1.00  0.00     0.125 A 
HETATM   14  C   UNL     1     -40.048 -53.553  13.687  1.00  0.00     0.117 A 
HETATM   15 CL   UNL     1     -39.143 -54.850  14.349  1.00  0.00    -0.077 Cl
HETATM   16  C   UNL     1     -39.464 -52.190  13.675  1.00  0.00     0.272 A 
HETATM   17  O   UNL     1     -38.375 -51.919  14.172  1.00  0.00    -0.266 OA
HETATM   18  N   UNL     1     -40.231 -51.226  13.073  1.00  0.00    -0.274 N 
HETATM   19  C   UNL     1     -41.506 -51.386  12.595  1.00  0.00     0.329 A 
HETATM   20  H   UNL     1     -39.853 -50.291  13.053  1.00  0.00     0.173 HD
HETATM   21  O   UNL     1     -42.122 -50.434  12.125  1.00  0.00    -0.246 OA
ENDBRANCH   1  12
TORSDOF 4
ENDMDL
