MODEL 1
REMARK VINA RESULT:      -5.8      0.000      0.000
REMARK  3 active torsions:
REMARK  status: ('A' for Active; 'I' for Inactive)
REMARK    1  A    between atoms: S_2  and  N_5 
REMARK    2  A    between atoms: C_8  and  N_11 
REMARK       I    between atoms: N_11  and  C_12 
REMARK       I    between atoms: C_12  and  N_14 
REMARK    3  A    between atoms: N_14  and  C_15 
ROOT
HETATM    1  N   UNL     1     -43.333 -49.294  12.161  1.00  0.00    -0.338 N 
HETATM    2  C   UNL     1     -43.754 -50.250  13.064  1.00  0.00     0.321 C 
HETATM    3  O   UNL     1     -43.092 -50.585  14.037  1.00  0.00    -0.247 OA
HETATM    4  N   UNL     1     -44.950 -50.815  12.673  1.00  0.00    -0.308 N 
HETATM    5  H   UNL     1     -44.074 -48.734  11.763  1.00  0.00     0.164 HD
HETATM    6  H   UNL     1     -45.086 -50.819  11.672  1.00  0.00     0.170 HD
ENDROOT
BRANCH   1   7
HETATM    7  C   UNL     1     -42.009 -48.689  12.315  1.00  0.00     0.089 C 
HETATM    8  C   UNL     1     -42.043 -47.428  13.180  1.00  0.00     0.045 C 
HETATM    9  C   UNL     1     -42.622 -46.239  12.427  1.00  0.00     0.137 C 
HETATM   10  N   UNL     1     -41.909 -46.011  11.150  1.00  0.00    -0.311 N 
HETATM   11  C   UNL     1     -41.897 -47.193  10.259  1.00  0.00     0.137 C 
HETATM   12  C   UNL     1     -41.344 -48.423  10.962  1.00  0.00     0.045 C 
BRANCH  10  13
HETATM   13  S   UNL     1     -40.536 -45.017  11.165  1.00  0.00     0.224 S 
HETATM   14  C   UNL     1     -41.206 -43.508  11.836  1.00  0.00     0.186 C 
HETATM   15  O   UNL     1     -40.165 -44.739   9.794  1.00  0.00    -0.206 OA
HETATM   16  O   UNL     1     -39.590 -45.559  12.110  1.00  0.00    -0.206 OA
ENDBRANCH  10  13
ENDBRANCH   1   7
BRANCH   4  17
HETATM   17  C   UNL     1     -45.523 -51.885  13.393  1.00  0.00     0.051 A 
HETATM   18  C   UNL     1     -46.358 -51.600  14.470  1.00  0.00     0.032 A 
HETATM   19  C   UNL     1     -47.009 -52.645  15.124  1.00  0.00     0.019 A 
HETATM   20  C   UNL     1     -46.756 -53.944  14.713  1.00  0.00     0.088 A 
HETATM   21  N   UNL     1     -45.908 -54.260  13.711  1.00  0.00    -0.373 N 
HETATM   22  C   UNL     1     -45.325 -53.223  13.061  1.00  0.00     0.117 A 
ATOM     23  HN  UNL     1     -45.717 -55.229  13.457  1.00  0.00     0.164 HD
ENDBRANCH   4  17
TORSDOF 3
ENDMDL
MODEL 2
REMARK VINA RESULT:      -5.8      3.488      4.055
REMARK  3 active torsions:
REMARK  status: ('A' for Active; 'I' for Inactive)
REMARK    1  A    between atoms: S_2  and  N_5 
REMARK    2  A    between atoms: C_8  and  N_11 
REMARK       I    between atoms: N_11  and  C_12 
REMARK       I    between atoms: C_12  and  N_14 
REMARK    3  A    between atoms: N_14  and  C_15 
ROOT
HETATM    1  N   UNL     1     -42.050 -48.875  11.099  1.00  0.00    -0.338 N 
HETATM    2  C   UNL     1     -41.951 -49.992  11.903  1.00  0.00     0.321 C 
HETATM    3  O   UNL     1     -42.636 -50.157  12.904  1.00  0.00    -0.247 OA
HETATM    4  N   UNL     1     -40.940 -50.828  11.476  1.00  0.00    -0.308 N 
HETATM    5  H   UNL     1     -41.889 -49.047  10.116  1.00  0.00     0.164 HD
HETATM    6  H   UNL     1     -40.187 -50.344  11.010  1.00  0.00     0.170 HD
ENDROOT
BRANCH   1   7
HETATM    7  C   UNL     1     -42.959 -47.792  11.477  1.00  0.00     0.089 C 
HETATM    8  C   UNL     1     -43.362 -46.927  10.282  1.00  0.00     0.045 C 
HETATM    9  C   UNL     1     -42.242 -45.989   9.857  1.00  0.00     0.137 C 
HETATM   10  N   UNL     1     -41.765 -45.168  10.993  1.00  0.00    -0.311 N 
HETATM   11  C   UNL     1     -41.316 -45.970  12.154  1.00  0.00     0.137 C 
HETATM   12  C   UNL     1     -42.389 -46.942  12.617  1.00  0.00     0.045 C 
BRANCH  10  13
HETATM   13  S   UNL     1     -42.546 -43.696  11.301  1.00  0.00     0.224 S 
HETATM   14  C   UNL     1     -41.174 -42.559  11.267  1.00  0.00     0.186 C 
HETATM   15  O   UNL     1     -43.036 -43.722  12.663  1.00  0.00    -0.206 OA
HETATM   16  O   UNL     1     -43.417 -43.399  10.189  1.00  0.00    -0.206 OA
ENDBRANCH  10  13
ENDBRANCH   1   7
BRANCH   4  17
HETATM   17  C   UNL     1     -40.592 -51.985  12.206  1.00  0.00     0.051 A 
HETATM   18  C   UNL     1     -39.689 -51.870  13.260  1.00  0.00     0.032 A 
HETATM   19  C   UNL     1     -39.416 -52.985  14.051  1.00  0.00     0.019 A 
HETATM   20  C   UNL     1     -40.012 -54.192  13.722  1.00  0.00     0.088 A 
HETATM   21  N   UNL     1     -40.846 -54.354  12.672  1.00  0.00    -0.373 N 
HETATM   22  C   UNL     1     -41.132 -53.244  11.948  1.00  0.00     0.117 A 
ATOM     23  HN  UNL     1     -41.240 -55.264  12.436  1.00  0.00     0.164 HD
ENDBRANCH   4  17
TORSDOF 3
ENDMDL
MODEL 3
REMARK VINA RESULT:      -5.8      1.548      2.083
REMARK  3 active torsions:
REMARK  status: ('A' for Active; 'I' for Inactive)
REMARK    1  A    between atoms: S_2  and  N_5 
REMARK    2  A    between atoms: C_8  and  N_11 
REMARK       I    between atoms: N_11  and  C_12 
REMARK       I    between atoms: C_12  and  N_14 
REMARK    3  A    between atoms: N_14  and  C_15 
ROOT
HETATM    1  N   UNL     1     -42.484 -49.736  12.204  1.00  0.00    -0.338 N 
HETATM    2  C   UNL     1     -43.308 -50.607  12.888  1.00  0.00     0.321 C 
HETATM    3  O   UNL     1     -43.957 -50.278  13.871  1.00  0.00    -0.247 OA
HETATM    4  N   UNL     1     -43.229 -51.882  12.368  1.00  0.00    -0.308 N 
HETATM    5  H   UNL     1     -42.435 -49.896  11.207  1.00  0.00     0.164 HD
HETATM    6  H   UNL     1     -42.335 -52.091  11.948  1.00  0.00     0.170 HD
ENDROOT
BRANCH   1   7
HETATM    7  C   UNL     1     -42.309 -48.370  12.699  1.00  0.00     0.089 C 
HETATM    8  C   UNL     1     -43.065 -47.343  11.853  1.00  0.00     0.045 C 
HETATM    9  C   UNL     1     -42.366 -47.073  10.530  1.00  0.00     0.137 C 
HETATM   10  N   UNL     1     -40.953 -46.681  10.736  1.00  0.00    -0.311 N 
HETATM   11  C   UNL     1     -40.171 -47.674  11.507  1.00  0.00     0.137 C 
HETATM   12  C   UNL     1     -40.830 -48.000  12.838  1.00  0.00     0.045 C 
BRANCH  10  13
HETATM   13  S   UNL     1     -40.603 -45.039  10.973  1.00  0.00     0.224 S 
HETATM   14  C   UNL     1     -39.294 -44.788   9.790  1.00  0.00     0.186 C 
HETATM   15  O   UNL     1     -40.016 -44.889  12.287  1.00  0.00    -0.206 OA
HETATM   16  O   UNL     1     -41.749 -44.264  10.562  1.00  0.00    -0.206 OA
ENDBRANCH  10  13
ENDBRANCH   1   7
BRANCH   4  17
HETATM   17  C   UNL     1     -43.911 -52.961  12.971  1.00  0.00     0.051 A 
HETATM   18  C   UNL     1     -43.198 -53.837  13.786  1.00  0.00     0.032 A 
HETATM   19  C   UNL     1     -43.880 -54.844  14.468  1.00  0.00     0.019 A 
HETATM   20  C   UNL     1     -45.244 -54.975  14.263  1.00  0.00     0.088 A 
HETATM   21  N   UNL     1     -45.957 -54.181  13.437  1.00  0.00    -0.373 N 
HETATM   22  C   UNL     1     -45.279 -53.180  12.823  1.00  0.00     0.117 A 
ATOM     23  HN  UNL     1     -46.954 -54.326  13.282  1.00  0.00     0.164 HD
ENDBRANCH   4  17
TORSDOF 3
ENDMDL
MODEL 4
REMARK VINA RESULT:      -5.8      3.359      8.159
REMARK  3 active torsions:
REMARK  status: ('A' for Active; 'I' for Inactive)
REMARK    1  A    between atoms: S_2  and  N_5 
REMARK    2  A    between atoms: C_8  and  N_11 
REMARK       I    between atoms: N_11  and  C_12 
REMARK       I    between atoms: C_12  and  N_14 
REMARK    3  A    between atoms: N_14  and  C_15 
ROOT
HETATM    1  N   UNL     1     -42.633 -50.819  12.193  1.00  0.00    -0.338 N 
HETATM    2  C   UNL     1     -42.122 -49.539  12.262  1.00  0.00     0.321 C 
HETATM    3  O   UNL     1     -41.768 -49.017  13.310  1.00  0.00    -0.247 OA
HETATM    4  N   UNL     1     -42.150 -48.923  11.027  1.00  0.00    -0.308 N 
HETATM    5  H   UNL     1     -42.398 -51.323  11.349  1.00  0.00     0.164 HD
HETATM    6  H   UNL     1     -42.894 -49.252  10.430  1.00  0.00     0.170 HD
ENDROOT
BRANCH   1   7
HETATM    7  C   UNL     1     -42.833 -51.583  13.427  1.00  0.00     0.089 C 
HETATM    8  C   UNL     1     -42.561 -53.076  13.237  1.00  0.00     0.045 C 
HETATM    9  C   UNL     1     -43.693 -53.769  12.492  1.00  0.00     0.137 C 
HETATM   10  N   UNL     1     -44.998 -53.526  13.146  1.00  0.00    -0.311 N 
HETATM   11  C   UNL     1     -45.324 -52.091  13.303  1.00  0.00     0.137 C 
HETATM   12  C   UNL     1     -44.219 -51.338  14.028  1.00  0.00     0.045 C 
BRANCH  10  13
HETATM   13  S   UNL     1     -45.488 -54.588  14.374  1.00  0.00     0.224 S 
HETATM   14  C   UNL     1     -46.965 -53.783  14.962  1.00  0.00     0.186 C 
HETATM   15  O   UNL     1     -44.517 -54.519  15.444  1.00  0.00    -0.206 OA
HETATM   16  O   UNL     1     -45.859 -55.845  13.769  1.00  0.00    -0.206 OA
ENDBRANCH  10  13
ENDBRANCH   1   7
BRANCH   4  17
HETATM   17  C   UNL     1     -41.767 -47.573  10.875  1.00  0.00     0.051 A 
HETATM   18  C   UNL     1     -42.756 -46.610  10.693  1.00  0.00     0.032 A 
HETATM   19  C   UNL     1     -42.398 -45.264  10.644  1.00  0.00     0.019 A 
HETATM   20  C   UNL     1     -41.055 -44.933  10.721  1.00  0.00     0.088 A 
HETATM   21  N   UNL     1     -40.065 -45.843  10.840  1.00  0.00    -0.373 N 
HETATM   22  C   UNL     1     -40.444 -47.142  10.933  1.00  0.00     0.117 A 
ATOM     23  HN  UNL     1     -39.083 -45.568  10.859  1.00  0.00     0.164 HD
ENDBRANCH   4  17
TORSDOF 3
ENDMDL
MODEL 5
REMARK VINA RESULT:      -5.2      5.387      8.400
REMARK  3 active torsions:
REMARK  status: ('A' for Active; 'I' for Inactive)
REMARK    1  A    between atoms: S_2  and  N_5 
REMARK    2  A    between atoms: C_8  and  N_11 
REMARK       I    between atoms: N_11  and  C_12 
REMARK       I    between atoms: C_12  and  N_14 
REMARK    3  A    between atoms: N_14  and  C_15 
ROOT
HETATM    1  N   UNL     1     -41.297 -52.122  13.982  1.00  0.00    -0.338 N 
HETATM    2  C   UNL     1     -41.532 -51.405  12.826  1.00  0.00     0.321 C 
HETATM    3  O   UNL     1     -41.417 -51.886  11.707  1.00  0.00    -0.247 OA
HETATM    4  N   UNL     1     -41.821 -50.085  13.106  1.00  0.00    -0.308 N 
HETATM    5  H   UNL     1     -41.884 -51.867  14.764  1.00  0.00     0.164 HD
HETATM    6  H   UNL     1     -41.390 -49.750  13.955  1.00  0.00     0.170 HD
ENDROOT
BRANCH   1   7
HETATM    7  C   UNL     1     -40.821 -53.503  13.889  1.00  0.00     0.089 C 
HETATM    8  C   UNL     1     -41.597 -54.448  14.810  1.00  0.00     0.045 C 
HETATM    9  C   UNL     1     -41.185 -54.285  16.266  1.00  0.00     0.137 C 
HETATM   10  N   UNL     1     -39.722 -54.433  16.433  1.00  0.00    -0.311 N 
HETATM   11  C   UNL     1     -38.934 -53.500  15.597  1.00  0.00     0.137 C 
HETATM   12  C   UNL     1     -39.312 -53.603  14.128  1.00  0.00     0.045 C 
BRANCH  10  13
HETATM   13  S   UNL     1     -39.098 -55.988  16.688  1.00  0.00     0.224 S 
HETATM   14  C   UNL     1     -38.608 -55.891  18.399  1.00  0.00     0.186 C 
HETATM   15  O   UNL     1     -37.885 -56.121  15.911  1.00  0.00    -0.206 OA
HETATM   16  O   UNL     1     -40.178 -56.939  16.573  1.00  0.00    -0.206 OA
ENDBRANCH  10  13
ENDBRANCH   1   7
BRANCH   4  17
HETATM   17  C   UNL     1     -42.001 -49.141  12.073  1.00  0.00     0.051 A 
HETATM   18  C   UNL     1     -43.273 -48.621  11.850  1.00  0.00     0.032 A 
HETATM   19  C   UNL     1     -43.443 -47.614  10.902  1.00  0.00     0.019 A 
HETATM   20  C   UNL     1     -42.342 -47.204  10.167  1.00  0.00     0.088 A 
HETATM   21  N   UNL     1     -41.106 -47.726  10.315  1.00  0.00    -0.373 N 
HETATM   22  C   UNL     1     -40.959 -48.670  11.277  1.00  0.00     0.117 A 
ATOM     23  HN  UNL     1     -40.324 -47.426   9.733  1.00  0.00     0.164 HD
ENDBRANCH   4  17
TORSDOF 3
ENDMDL
MODEL 6
REMARK VINA RESULT:      -5.2      3.689      4.032
REMARK  3 active torsions:
REMARK  status: ('A' for Active; 'I' for Inactive)
REMARK    1  A    between atoms: S_2  and  N_5 
REMARK    2  A    between atoms: C_8  and  N_11 
REMARK       I    between atoms: N_11  and  C_12 
REMARK       I    between atoms: C_12  and  N_14 
REMARK    3  A    between atoms: N_14  and  C_15 
ROOT
HETATM    1  N   UNL     1     -40.811 -48.141  12.791  1.00  0.00    -0.338 N 
HETATM    2  C   UNL     1     -40.287 -49.404  12.604  1.00  0.00     0.321 C 
HETATM    3  O   UNL     1     -39.412 -49.649  11.785  1.00  0.00    -0.247 OA
HETATM    4  N   UNL     1     -40.935 -50.335  13.390  1.00  0.00    -0.308 N 
HETATM    5  H   UNL     1     -41.079 -47.931  13.743  1.00  0.00     0.164 HD
HETATM    6  H   UNL     1     -41.896 -50.096  13.588  1.00  0.00     0.170 HD
ENDROOT
BRANCH   1   7
HETATM    7  C   UNL     1     -40.364 -47.041  11.935  1.00  0.00     0.089 C 
HETATM    8  C   UNL     1     -40.120 -45.752  12.723  1.00  0.00     0.045 C 
HETATM    9  C   UNL     1     -41.424 -45.070  13.111  1.00  0.00     0.137 C 
HETATM   10  N   UNL     1     -42.283 -44.836  11.929  1.00  0.00    -0.311 N 
HETATM   11  C   UNL     1     -42.586 -46.068  11.165  1.00  0.00     0.137 C 
HETATM   12  C   UNL     1     -41.320 -46.807  10.762  1.00  0.00     0.045 C 
BRANCH  10  13
HETATM   13  S   UNL     1     -42.075 -43.396  11.059  1.00  0.00     0.224 S 
HETATM   14  C   UNL     1     -42.179 -42.184  12.362  1.00  0.00     0.186 C 
HETATM   15  O   UNL     1     -43.236 -43.207  10.216  1.00  0.00    -0.206 OA
HETATM   16  O   UNL     1     -40.737 -43.377  10.519  1.00  0.00    -0.206 OA
ENDBRANCH  10  13
ENDBRANCH   1   7
BRANCH   4  17
HETATM   17  C   UNL     1     -40.633 -51.711  13.292  1.00  0.00     0.051 A 
HETATM   18  C   UNL     1     -39.811 -52.289  14.256  1.00  0.00     0.032 A 
HETATM   19  C   UNL     1     -39.589 -53.664  14.228  1.00  0.00     0.019 A 
HETATM   20  C   UNL     1     -40.151 -54.405  13.201  1.00  0.00     0.088 A 
HETATM   21  N   UNL     1     -40.905 -53.870  12.217  1.00  0.00    -0.373 N 
HETATM   22  C   UNL     1     -41.145 -52.538  12.295  1.00  0.00     0.117 A 
ATOM     23  HN  UNL     1     -41.275 -54.438  11.456  1.00  0.00     0.164 HD
ENDBRANCH   4  17
TORSDOF 3
ENDMDL
MODEL 7
REMARK VINA RESULT:      -5.0     20.431     22.708
REMARK  3 active torsions:
REMARK  status: ('A' for Active; 'I' for Inactive)
REMARK    1  A    between atoms: S_2  and  N_5 
REMARK    2  A    between atoms: C_8  and  N_11 
REMARK       I    between atoms: N_11  and  C_12 
REMARK       I    between atoms: C_12  and  N_14 
REMARK    3  A    between atoms: N_14  and  C_15 
ROOT
HETATM    1  N   UNL     1     -28.327 -42.659  -1.609  1.00  0.00    -0.338 N 
HETATM    2  C   UNL     1     -27.221 -42.040  -1.064  1.00  0.00     0.321 C 
HETATM    3  O   UNL     1     -26.073 -42.355  -1.346  1.00  0.00    -0.247 OA
HETATM    4  N   UNL     1     -27.587 -41.104  -0.119  1.00  0.00    -0.308 N 
HETATM    5  H   UNL     1     -29.124 -42.053  -1.750  1.00  0.00     0.164 HD
HETATM    6  H   UNL     1     -28.456 -41.319   0.346  1.00  0.00     0.170 HD
ENDROOT
BRANCH   1   7
HETATM    7  C   UNL     1     -28.145 -43.793  -2.518  1.00  0.00     0.089 C 
HETATM    8  C   UNL     1     -29.042 -43.698  -3.753  1.00  0.00     0.045 C 
HETATM    9  C   UNL     1     -30.489 -44.044  -3.432  1.00  0.00     0.137 C 
HETATM   10  N   UNL     1     -30.594 -45.366  -2.776  1.00  0.00    -0.311 N 
HETATM   11  C   UNL     1     -29.780 -45.484  -1.545  1.00  0.00     0.137 C 
HETATM   12  C   UNL     1     -28.322 -45.132  -1.798  1.00  0.00     0.045 C 
BRANCH  10  13
HETATM   13  S   UNL     1     -30.744 -46.739  -3.760  1.00  0.00     0.224 S 
HETATM   14  C   UNL     1     -31.378 -46.021  -5.264  1.00  0.00     0.186 C 
HETATM   15  O   UNL     1     -31.796 -47.571  -3.216  1.00  0.00    -0.206 OA
HETATM   16  O   UNL     1     -29.424 -47.261  -4.021  1.00  0.00    -0.206 OA
ENDBRANCH  10  13
ENDBRANCH   1   7
BRANCH   4  17
HETATM   17  C   UNL     1     -26.617 -40.415   0.641  1.00  0.00     0.051 A 
HETATM   18  C   UNL     1     -26.080 -41.035   1.767  1.00  0.00     0.032 A 
HETATM   19  C   UNL     1     -25.050 -40.407   2.465  1.00  0.00     0.019 A 
HETATM   20  C   UNL     1     -24.633 -39.154   2.046  1.00  0.00     0.088 A 
HETATM   21  N   UNL     1     -25.170 -38.498   0.996  1.00  0.00    -0.373 N 
HETATM   22  C   UNL     1     -26.137 -39.151   0.305  1.00  0.00     0.117 A 
ATOM     23  HN  UNL     1     -24.864 -37.561   0.735  1.00  0.00     0.164 HD
ENDBRANCH   4  17
TORSDOF 3
ENDMDL
MODEL 8
REMARK VINA RESULT:      -5.0     14.693     16.753
REMARK  3 active torsions:
REMARK  status: ('A' for Active; 'I' for Inactive)
REMARK    1  A    between atoms: S_2  and  N_5 
REMARK    2  A    between atoms: C_8  and  N_11 
REMARK       I    between atoms: N_11  and  C_12 
REMARK       I    between atoms: C_12  and  N_14 
REMARK    3  A    between atoms: N_14  and  C_15 
ROOT
HETATM    1  N   UNL     1     -31.124 -53.251  19.008  1.00  0.00    -0.338 N 
HETATM    2  C   UNL     1     -29.969 -52.518  19.190  1.00  0.00     0.321 C 
HETATM    3  O   UNL     1     -28.892 -52.837  18.704  1.00  0.00    -0.247 OA
HETATM    4  N   UNL     1     -30.181 -51.455  20.044  1.00  0.00    -0.308 N 
HETATM    5  H   UNL     1     -31.971 -52.701  18.963  1.00  0.00     0.164 HD
HETATM    6  H   UNL     1     -30.911 -51.621  20.721  1.00  0.00     0.170 HD
ENDROOT
BRANCH   1   7
HETATM    7  C   UNL     1     -31.070 -54.508  18.259  1.00  0.00     0.089 C 
HETATM    8  C   UNL     1     -32.210 -54.631  17.246  1.00  0.00     0.045 C 
HETATM    9  C   UNL     1     -33.534 -54.959  17.920  1.00  0.00     0.137 C 
HETATM   10  N   UNL     1     -33.423 -56.164  18.772  1.00  0.00    -0.311 N 
HETATM   11  C   UNL     1     -32.363 -56.066  19.801  1.00  0.00     0.137 C 
HETATM   12  C   UNL     1     -31.014 -55.722  19.191  1.00  0.00     0.045 C 
BRANCH  10  13
HETATM   13  S   UNL     1     -33.695 -57.678  18.057  1.00  0.00     0.224 S 
HETATM   14  C   UNL     1     -35.309 -58.080  18.698  1.00  0.00     0.186 C 
HETATM   15  O   UNL     1     -32.765 -58.623  18.637  1.00  0.00    -0.206 OA
HETATM   16  O   UNL     1     -33.799 -57.497  16.629  1.00  0.00    -0.206 OA
ENDBRANCH  10  13
ENDBRANCH   1   7
BRANCH   4  17
HETATM   17  C   UNL     1     -29.116 -50.623  20.453  1.00  0.00     0.051 A 
HETATM   18  C   UNL     1     -28.383 -50.977  21.584  1.00  0.00     0.032 A 
HETATM   19  C   UNL     1     -27.268 -50.220  21.938  1.00  0.00     0.019 A 
HETATM   20  C   UNL     1     -26.959 -49.100  21.182  1.00  0.00     0.088 A 
HETATM   21  N   UNL     1     -27.681 -48.695  20.116  1.00  0.00    -0.373 N 
HETATM   22  C   UNL     1     -28.732 -49.476  19.763  1.00  0.00     0.117 A 
ATOM     23  HN  UNL     1     -27.447 -47.846  19.601  1.00  0.00     0.164 HD
ENDBRANCH   4  17
TORSDOF 3
ENDMDL
MODEL 9
REMARK VINA RESULT:      -5.0      3.388      8.216
REMARK  3 active torsions:
REMARK  status: ('A' for Active; 'I' for Inactive)
REMARK    1  A    between atoms: S_2  and  N_5 
REMARK    2  A    between atoms: C_8  and  N_11 
REMARK       I    between atoms: N_11  and  C_12 
REMARK       I    between atoms: C_12  and  N_14 
REMARK    3  A    between atoms: N_14  and  C_15 
ROOT
HETATM    1  N   UNL     1     -43.003 -49.667  13.419  1.00  0.00    -0.338 N 
HETATM    2  C   UNL     1     -42.777 -48.558  12.630  1.00  0.00     0.321 C 
HETATM    3  O   UNL     1     -43.300 -48.400  11.535  1.00  0.00    -0.247 OA
HETATM    4  N   UNL     1     -41.838 -47.722  13.199  1.00  0.00    -0.308 N 
HETATM    5  H   UNL     1     -42.994 -49.487  14.414  1.00  0.00     0.164 HD
HETATM    6  H   UNL     1     -41.168 -48.205  13.779  1.00  0.00     0.170 HD
ENDROOT
BRANCH   1   7
HETATM    7  C   UNL     1     -43.850 -50.750  12.916  1.00  0.00     0.089 C 
HETATM    8  C   UNL     1     -44.993 -51.088  13.876  1.00  0.00     0.045 C 
HETATM    9  C   UNL     1     -44.506 -51.878  15.082  1.00  0.00     0.137 C 
HETATM   10  N   UNL     1     -43.759 -53.088  14.669  1.00  0.00    -0.311 N 
HETATM   11  C   UNL     1     -42.611 -52.799  13.779  1.00  0.00     0.137 C 
HETATM   12  C   UNL     1     -43.032 -51.994  12.560  1.00  0.00     0.045 C 
BRANCH  10  13
HETATM   13  S   UNL     1     -44.632 -54.515  14.397  1.00  0.00     0.224 S 
HETATM   14  C   UNL     1     -46.065 -54.247  15.423  1.00  0.00     0.186 C 
HETATM   15  O   UNL     1     -43.895 -55.613  14.984  1.00  0.00    -0.206 OA
HETATM   16  O   UNL     1     -45.054 -54.538  13.017  1.00  0.00    -0.206 OA
ENDBRANCH  10  13
ENDBRANCH   1   7
BRANCH   4  17
HETATM   17  C   UNL     1     -41.376 -46.573  12.521  1.00  0.00     0.051 A 
HETATM   18  C   UNL     1     -40.291 -46.693  11.657  1.00  0.00     0.032 A 
HETATM   19  C   UNL     1     -39.891 -45.589  10.906  1.00  0.00     0.019 A 
HETATM   20  C   UNL     1     -40.555 -44.387  11.090  1.00  0.00     0.088 A 
HETATM   21  N   UNL     1     -41.573 -44.220  11.961  1.00  0.00    -0.373 N 
HETATM   22  C   UNL     1     -41.974 -45.321  12.644  1.00  0.00     0.117 A 
ATOM     23  HN  UNL     1     -42.018 -43.313  12.098  1.00  0.00     0.164 HD
ENDBRANCH   4  17
TORSDOF 3
ENDMDL
