MODEL 1
REMARK VINA RESULT:      -5.3      0.000      0.000
REMARK  6 active torsions:
REMARK  status: ('A' for Active; 'I' for Inactive)
REMARK    1  A    between atoms: O_2  and  C_3 
REMARK    2  A    between atoms: C_3  and  C_4 
REMARK    3  A    between atoms: C_4  and  N_5 
REMARK    4  A    between atoms: C_6  and  S_7 
REMARK    5  A    between atoms: S_7  and  C_8 
REMARK    6  A    between atoms: C_8  and  C_9 
REMARK       I    between atoms: C_9  and  N_11 
ROOT
HETATM    1  N   UNL     1     -41.344 -46.944  10.588  1.00  0.00    -0.324 N 
HETATM    2  C   UNL     1     -41.474 -48.214  11.105  1.00  0.00     0.148 A 
HETATM    3  N   UNL     1     -42.658 -48.736  10.869  1.00  0.00    -0.335 N 
ATOM      4  HN  UNL     1     -42.982 -49.674  11.103  1.00  0.00     0.168 HD
HETATM    5  C   UNL     1     -43.363 -47.741  10.241  1.00  0.00     0.061 A 
HETATM    6  C   UNL     1     -44.712 -47.726   9.845  1.00  0.00     0.032 A 
HETATM    7  C   UNL     1     -45.230 -46.602   9.193  1.00  0.00     0.002 A 
HETATM    8  C   UNL     1     -44.417 -45.512   8.917  1.00  0.00     0.002 A 
HETATM    9  C   UNL     1     -43.078 -45.504   9.308  1.00  0.00     0.032 A 
HETATM   10  C   UNL     1     -42.562 -46.621   9.998  1.00  0.00     0.063 A 
ENDROOT
BRANCH   2  11
HETATM   11  S   UNL     1     -40.229 -48.995  12.030  1.00  0.00    -0.084 SA
BRANCH  11  12
HETATM   12  C   UNL     1     -41.136 -50.377  12.768  1.00  0.00     0.184 C 
BRANCH  12  13
HETATM   13  C   UNL     1     -40.551 -51.695  12.282  1.00  0.00     0.225 C 
HETATM   14  O   UNL     1     -39.568 -52.232  12.776  1.00  0.00    -0.273 OA
HETATM   15  N   UNL     1     -41.198 -52.260  11.217  1.00  0.00    -0.369 N 
HETATM   16  H   UNL     1     -41.797 -51.697  10.621  1.00  0.00     0.159 HD
HETATM   17  H   UNL     1     -40.768 -53.082  10.813  1.00  0.00     0.159 HD
ENDBRANCH  12  13
ENDBRANCH  11  12
ENDBRANCH   2  11
BRANCH   1  18
HETATM   18  C   UNL     1     -40.142 -46.123  10.710  1.00  0.00     0.157 C 
BRANCH  18  19
HETATM   19  C   UNL     1     -40.333 -44.818  11.462  1.00  0.00     0.187 C 
BRANCH  19  20
HETATM   20  O   UNL     1     -40.381 -43.661  10.626  1.00  0.00    -0.394 OA
HETATM   21  C   UNL     1     -41.219 -42.680  11.242  1.00  0.00     0.201 C 
ENDBRANCH  19  20
ENDBRANCH  18  19
ENDBRANCH   1  18
TORSDOF 6
ENDMDL
MODEL 2
REMARK VINA RESULT:      -5.3      2.845      5.027
REMARK  6 active torsions:
REMARK  status: ('A' for Active; 'I' for Inactive)
REMARK    1  A    between atoms: O_2  and  C_3 
REMARK    2  A    between atoms: C_3  and  C_4 
REMARK    3  A    between atoms: C_4  and  N_5 
REMARK    4  A    between atoms: C_6  and  S_7 
REMARK    5  A    between atoms: S_7  and  C_8 
REMARK    6  A    between atoms: C_8  and  C_9 
REMARK       I    between atoms: C_9  and  N_11 
ROOT
HETATM    1  N   UNL     1     -41.024 -47.078  10.760  1.00  0.00    -0.324 N 
HETATM    2  C   UNL     1     -42.190 -47.668  10.326  1.00  0.00     0.148 A 
HETATM    3  N   UNL     1     -42.314 -48.909  10.744  1.00  0.00    -0.335 N 
ATOM      4  HN  UNL     1     -43.105 -49.537  10.601  1.00  0.00     0.168 HD
HETATM    5  C   UNL     1     -41.147 -49.173  11.416  1.00  0.00     0.061 A 
HETATM    6  C   UNL     1     -40.710 -50.379  11.990  1.00  0.00     0.032 A 
HETATM    7  C   UNL     1     -39.479 -50.424  12.653  1.00  0.00     0.002 A 
HETATM    8  C   UNL     1     -38.697 -49.283  12.764  1.00  0.00     0.002 A 
HETATM    9  C   UNL     1     -39.110 -48.078  12.195  1.00  0.00     0.032 A 
HETATM   10  C   UNL     1     -40.334 -48.038  11.494  1.00  0.00     0.063 A 
ENDROOT
BRANCH   2  11
HETATM   11  S   UNL     1     -43.324 -46.873   9.278  1.00  0.00    -0.084 SA
BRANCH  11  12
HETATM   12  C   UNL     1     -44.904 -47.464   9.934  1.00  0.00     0.184 C 
BRANCH  12  13
HETATM   13  C   UNL     1     -45.885 -47.684   8.793  1.00  0.00     0.225 C 
HETATM   14  O   UNL     1     -47.039 -47.273   8.792  1.00  0.00    -0.273 OA
HETATM   15  N   UNL     1     -45.395 -48.400   7.736  1.00  0.00    -0.369 N 
HETATM   16  H   UNL     1     -44.577 -48.991   7.849  1.00  0.00     0.159 HD
HETATM   17  H   UNL     1     -46.058 -48.645   7.011  1.00  0.00     0.159 HD
ENDBRANCH  12  13
ENDBRANCH  11  12
ENDBRANCH   2  11
BRANCH   1  18
HETATM   18  C   UNL     1     -40.620 -45.712  10.437  1.00  0.00     0.157 C 
BRANCH  18  19
HETATM   19  C   UNL     1     -41.207 -44.641  11.339  1.00  0.00     0.187 C 
BRANCH  19  20
HETATM   20  O   UNL     1     -41.631 -43.464  10.652  1.00  0.00    -0.394 OA
HETATM   21  C   UNL     1     -42.875 -43.027  11.208  1.00  0.00     0.201 C 
ENDBRANCH  19  20
ENDBRANCH  18  19
ENDBRANCH   1  18
TORSDOF 6
ENDMDL
MODEL 3
REMARK VINA RESULT:      -5.1      4.361      7.282
REMARK  6 active torsions:
REMARK  status: ('A' for Active; 'I' for Inactive)
REMARK    1  A    between atoms: O_2  and  C_3 
REMARK    2  A    between atoms: C_3  and  C_4 
REMARK    3  A    between atoms: C_4  and  N_5 
REMARK    4  A    between atoms: C_6  and  S_7 
REMARK    5  A    between atoms: S_7  and  C_8 
REMARK    6  A    between atoms: C_8  and  C_9 
REMARK       I    between atoms: C_9  and  N_11 
ROOT
HETATM    1  N   UNL     1     -42.956 -53.225  13.687  1.00  0.00    -0.324 N 
HETATM    2  C   UNL     1     -42.636 -52.259  12.758  1.00  0.00     0.148 A 
HETATM    3  N   UNL     1     -43.589 -51.365  12.611  1.00  0.00    -0.335 N 
ATOM      4  HN  UNL     1     -43.573 -50.530  12.026  1.00  0.00     0.168 HD
HETATM    5  C   UNL     1     -44.610 -51.802  13.418  1.00  0.00     0.061 A 
HETATM    6  C   UNL     1     -45.903 -51.273  13.574  1.00  0.00     0.032 A 
HETATM    7  C   UNL     1     -46.791 -51.870  14.475  1.00  0.00     0.002 A 
HETATM    8  C   UNL     1     -46.397 -52.967  15.229  1.00  0.00     0.002 A 
HETATM    9  C   UNL     1     -45.121 -53.511  15.083  1.00  0.00     0.032 A 
HETATM   10  C   UNL     1     -44.235 -52.934  14.149  1.00  0.00     0.063 A 
ENDROOT
BRANCH   2  11
HETATM   11  S   UNL     1     -41.165 -52.279  11.836  1.00  0.00    -0.084 SA
BRANCH  11  12
HETATM   12  C   UNL     1     -40.229 -50.938  12.612  1.00  0.00     0.184 C 
BRANCH  12  13
HETATM   13  C   UNL     1     -40.201 -49.728  11.689  1.00  0.00     0.225 C 
HETATM   14  O   UNL     1     -39.958 -48.588  12.061  1.00  0.00    -0.273 OA
HETATM   15  N   UNL     1     -40.484 -49.993  10.377  1.00  0.00    -0.369 N 
HETATM   16  H   UNL     1     -40.974 -50.843  10.117  1.00  0.00     0.159 HD
HETATM   17  H   UNL     1     -40.570 -49.192   9.764  1.00  0.00     0.159 HD
ENDBRANCH  12  13
ENDBRANCH  11  12
ENDBRANCH   2  11
BRANCH   1  18
HETATM   18  C   UNL     1     -42.090 -54.346  14.043  1.00  0.00     0.157 C 
BRANCH  18  19
HETATM   19  C   UNL     1     -41.284 -54.154  15.315  1.00  0.00     0.187 C 
BRANCH  19  20
HETATM   20  O   UNL     1     -39.959 -53.667  15.102  1.00  0.00    -0.394 OA
HETATM   21  C   UNL     1     -39.285 -54.546  14.196  1.00  0.00     0.201 C 
ENDBRANCH  19  20
ENDBRANCH  18  19
ENDBRANCH   1  18
TORSDOF 6
ENDMDL
MODEL 4
REMARK VINA RESULT:      -5.1      2.467      4.197
REMARK  6 active torsions:
REMARK  status: ('A' for Active; 'I' for Inactive)
REMARK    1  A    between atoms: O_2  and  C_3 
REMARK    2  A    between atoms: C_3  and  C_4 
REMARK    3  A    between atoms: C_4  and  N_5 
REMARK    4  A    between atoms: C_6  and  S_7 
REMARK    5  A    between atoms: S_7  and  C_8 
REMARK    6  A    between atoms: C_8  and  C_9 
REMARK       I    between atoms: C_9  and  N_11 
ROOT
HETATM    1  N   UNL     1     -40.836 -47.067  11.373  1.00  0.00    -0.324 N 
HETATM    2  C   UNL     1     -40.002 -47.728  12.247  1.00  0.00     0.148 A 
HETATM    3  N   UNL     1     -39.350 -46.907  13.041  1.00  0.00    -0.335 N 
ATOM      4  HN  UNL     1     -38.716 -47.150  13.801  1.00  0.00     0.168 HD
HETATM    5  C   UNL     1     -39.710 -45.651  12.622  1.00  0.00     0.061 A 
HETATM    6  C   UNL     1     -39.240 -44.401  13.063  1.00  0.00     0.032 A 
HETATM    7  C   UNL     1     -39.763 -43.229  12.507  1.00  0.00     0.002 A 
HETATM    8  C   UNL     1     -40.755 -43.291  11.539  1.00  0.00     0.002 A 
HETATM    9  C   UNL     1     -41.229 -44.521  11.082  1.00  0.00     0.032 A 
HETATM   10  C   UNL     1     -40.679 -45.706  11.615  1.00  0.00     0.063 A 
ENDROOT
BRANCH   2  11
HETATM   11  S   UNL     1     -39.787 -49.451  12.235  1.00  0.00    -0.084 SA
BRANCH  11  12
HETATM   12  C   UNL     1     -38.035 -49.603  12.665  1.00  0.00     0.184 C 
BRANCH  12  13
HETATM   13  C   UNL     1     -37.355 -50.579  11.716  1.00  0.00     0.225 C 
HETATM   14  O   UNL     1     -36.864 -51.645  12.065  1.00  0.00    -0.273 OA
HETATM   15  N   UNL     1     -37.311 -50.180  10.408  1.00  0.00    -0.369 N 
HETATM   16  H   UNL     1     -37.428 -49.202  10.163  1.00  0.00     0.159 HD
HETATM   17  H   UNL     1     -36.776 -50.764   9.777  1.00  0.00     0.159 HD
ENDBRANCH  12  13
ENDBRANCH  11  12
ENDBRANCH   2  11
BRANCH   1  18
HETATM   18  C   UNL     1     -41.671 -47.726  10.371  1.00  0.00     0.157 C 
BRANCH  18  19
HETATM   19  C   UNL     1     -43.165 -47.636  10.624  1.00  0.00     0.187 C 
BRANCH  19  20
HETATM   20  O   UNL     1     -43.955 -47.549   9.438  1.00  0.00    -0.394 OA
HETATM   21  C   UNL     1     -43.768 -46.258   8.852  1.00  0.00     0.201 C 
ENDBRANCH  19  20
ENDBRANCH  18  19
ENDBRANCH   1  18
TORSDOF 6
ENDMDL
MODEL 5
REMARK VINA RESULT:      -5.1      5.724      7.533
REMARK  6 active torsions:
REMARK  status: ('A' for Active; 'I' for Inactive)
REMARK    1  A    between atoms: O_2  and  C_3 
REMARK    2  A    between atoms: C_3  and  C_4 
REMARK    3  A    between atoms: C_4  and  N_5 
REMARK    4  A    between atoms: C_6  and  S_7 
REMARK    5  A    between atoms: S_7  and  C_8 
REMARK    6  A    between atoms: C_8  and  C_9 
REMARK       I    between atoms: C_9  and  N_11 
ROOT
HETATM    1  N   UNL     1     -44.815 -51.432  13.897  1.00  0.00    -0.324 N 
HETATM    2  C   UNL     1     -43.668 -50.720  14.168  1.00  0.00     0.148 A 
HETATM    3  N   UNL     1     -43.675 -50.191  15.372  1.00  0.00    -0.335 N 
ATOM      4  HN  UNL     1     -42.927 -49.665  15.824  1.00  0.00     0.168 HD
HETATM    5  C   UNL     1     -44.909 -50.500  15.886  1.00  0.00     0.061 A 
HETATM    6  C   UNL     1     -45.483 -50.107  17.107  1.00  0.00     0.032 A 
HETATM    7  C   UNL     1     -46.762 -50.558  17.448  1.00  0.00     0.002 A 
HETATM    8  C   UNL     1     -47.458 -51.407  16.599  1.00  0.00     0.002 A 
HETATM    9  C   UNL     1     -46.908 -51.803  15.380  1.00  0.00     0.032 A 
HETATM   10  C   UNL     1     -45.634 -51.321  15.016  1.00  0.00     0.063 A 
ENDROOT
BRANCH   2  11
HETATM   11  S   UNL     1     -42.396 -50.490  13.007  1.00  0.00    -0.084 SA
BRANCH  11  12
HETATM   12  C   UNL     1     -41.136 -51.639  13.615  1.00  0.00     0.184 C 
BRANCH  12  13
HETATM   13  C   UNL     1     -40.831 -52.680  12.548  1.00  0.00     0.225 C 
HETATM   14  O   UNL     1     -40.235 -53.728  12.764  1.00  0.00    -0.273 OA
HETATM   15  N   UNL     1     -41.264 -52.365  11.290  1.00  0.00    -0.369 N 
HETATM   16  H   UNL     1     -41.473 -51.403  11.042  1.00  0.00     0.159 HD
HETATM   17  H   UNL     1     -40.984 -52.993  10.546  1.00  0.00     0.159 HD
ENDBRANCH  12  13
ENDBRANCH  11  12
ENDBRANCH   2  11
BRANCH   1  18
HETATM   18  C   UNL     1     -45.084 -52.115  12.633  1.00  0.00     0.157 C 
BRANCH  18  19
HETATM   19  C   UNL     1     -44.477 -53.501  12.514  1.00  0.00     0.187 C 
BRANCH  19  20
HETATM   20  O   UNL     1     -45.369 -54.562  12.860  1.00  0.00    -0.394 OA
HETATM   21  C   UNL     1     -45.017 -55.058  14.154  1.00  0.00     0.201 C 
ENDBRANCH  19  20
ENDBRANCH  18  19
ENDBRANCH   1  18
TORSDOF 6
ENDMDL
MODEL 6
REMARK VINA RESULT:      -5.1      5.403      8.776
REMARK  6 active torsions:
REMARK  status: ('A' for Active; 'I' for Inactive)
REMARK    1  A    between atoms: O_2  and  C_3 
REMARK    2  A    between atoms: C_3  and  C_4 
REMARK    3  A    between atoms: C_4  and  N_5 
REMARK    4  A    between atoms: C_6  and  S_7 
REMARK    5  A    between atoms: S_7  and  C_8 
REMARK    6  A    between atoms: C_8  and  C_9 
REMARK       I    between atoms: C_9  and  N_11 
ROOT
HETATM    1  N   UNL     1     -42.156 -53.454  13.916  1.00  0.00    -0.324 N 
HETATM    2  C   UNL     1     -41.044 -52.949  13.280  1.00  0.00     0.148 A 
HETATM    3  N   UNL     1     -39.928 -53.506  13.697  1.00  0.00    -0.335 N 
ATOM      4  HN  UNL     1     -38.983 -53.342  13.349  1.00  0.00     0.168 HD
HETATM    5  C   UNL     1     -40.313 -54.356  14.703  1.00  0.00     0.061 A 
HETATM    6  C   UNL     1     -39.514 -55.138  15.556  1.00  0.00     0.032 A 
HETATM    7  C   UNL     1     -40.120 -55.959  16.511  1.00  0.00     0.002 A 
HETATM    8  C   UNL     1     -41.503 -56.023  16.609  1.00  0.00     0.002 A 
HETATM    9  C   UNL     1     -42.313 -55.250  15.777  1.00  0.00     0.032 A 
HETATM   10  C   UNL     1     -41.704 -54.393  14.836  1.00  0.00     0.063 A 
ENDROOT
BRANCH   2  11
HETATM   11  S   UNL     1     -41.117 -51.663  12.115  1.00  0.00    -0.084 SA
BRANCH  11  12
HETATM   12  C   UNL     1     -39.925 -50.483  12.798  1.00  0.00     0.184 C 
BRANCH  12  13
HETATM   13  C   UNL     1     -38.566 -50.689  12.146  1.00  0.00     0.225 C 
HETATM   14  O   UNL     1     -37.705 -51.443  12.580  1.00  0.00    -0.273 OA
HETATM   15  N   UNL     1     -38.348 -49.950  11.016  1.00  0.00    -0.369 N 
HETATM   16  H   UNL     1     -38.904 -49.122  10.825  1.00  0.00     0.159 HD
HETATM   17  H   UNL     1     -37.416 -49.993  10.622  1.00  0.00     0.159 HD
ENDBRANCH  12  13
ENDBRANCH  11  12
ENDBRANCH   2  11
BRANCH   1  18
HETATM   18  C   UNL     1     -43.525 -53.011  13.659  1.00  0.00     0.157 C 
BRANCH  18  19
HETATM   19  C   UNL     1     -44.229 -53.731  12.523  1.00  0.00     0.187 C 
BRANCH  19  20
HETATM   20  O   UNL     1     -45.141 -54.743  12.948  1.00  0.00    -0.394 OA
HETATM   21  C   UNL     1     -45.679 -54.376  14.221  1.00  0.00     0.201 C 
ENDBRANCH  19  20
ENDBRANCH  18  19
ENDBRANCH   1  18
TORSDOF 6
ENDMDL
MODEL 7
REMARK VINA RESULT:      -5.1      1.904      2.107
REMARK  6 active torsions:
REMARK  status: ('A' for Active; 'I' for Inactive)
REMARK    1  A    between atoms: O_2  and  C_3 
REMARK    2  A    between atoms: C_3  and  C_4 
REMARK    3  A    between atoms: C_4  and  N_5 
REMARK    4  A    between atoms: C_6  and  S_7 
REMARK    5  A    between atoms: S_7  and  C_8 
REMARK    6  A    between atoms: C_8  and  C_9 
REMARK       I    between atoms: C_9  and  N_11 
ROOT
HETATM    1  N   UNL     1     -40.734 -47.326  11.663  1.00  0.00    -0.324 N 
HETATM    2  C   UNL     1     -40.582 -48.646  11.300  1.00  0.00     0.148 A 
HETATM    3  N   UNL     1     -41.345 -48.981  10.283  1.00  0.00    -0.335 N 
ATOM      4  HN  UNL     1     -41.378 -49.878   9.801  1.00  0.00     0.168 HD
HETATM    5  C   UNL     1     -42.087 -47.858  10.015  1.00  0.00     0.061 A 
HETATM    6  C   UNL     1     -43.126 -47.686   9.083  1.00  0.00     0.032 A 
HETATM    7  C   UNL     1     -43.742 -46.437   8.957  1.00  0.00     0.002 A 
HETATM    8  C   UNL     1     -43.322 -45.363   9.730  1.00  0.00     0.002 A 
HETATM    9  C   UNL     1     -42.298 -45.516  10.665  1.00  0.00     0.032 A 
HETATM   10  C   UNL     1     -41.699 -46.783  10.820  1.00  0.00     0.063 A 
ENDROOT
BRANCH   2  11
HETATM   11  S   UNL     1     -39.550 -49.752  12.153  1.00  0.00    -0.084 SA
BRANCH  11  12
HETATM   12  C   UNL     1     -40.759 -50.843  12.943  1.00  0.00     0.184 C 
BRANCH  12  13
HETATM   13  C   UNL     1     -40.631 -52.249  12.376  1.00  0.00     0.225 C 
HETATM   14  O   UNL     1     -40.014 -53.155  12.922  1.00  0.00    -0.273 OA
HETATM   15  N   UNL     1     -41.255 -52.449  11.175  1.00  0.00    -0.369 N 
HETATM   16  H   UNL     1     -41.495 -51.661  10.581  1.00  0.00     0.159 HD
HETATM   17  H   UNL     1     -41.099 -53.345  10.730  1.00  0.00     0.159 HD
ENDBRANCH  12  13
ENDBRANCH  11  12
ENDBRANCH   2  11
BRANCH   1  18
HETATM   18  C   UNL     1     -40.021 -46.685  12.766  1.00  0.00     0.157 C 
BRANCH  18  19
HETATM   19  C   UNL     1     -40.771 -46.660  14.085  1.00  0.00     0.187 C 
BRANCH  19  20
HETATM   20  O   UNL     1     -41.792 -45.666  14.159  1.00  0.00    -0.394 OA
HETATM   21  C   UNL     1     -43.061 -46.314  14.281  1.00  0.00     0.201 C 
ENDBRANCH  19  20
ENDBRANCH  18  19
ENDBRANCH   1  18
TORSDOF 6
ENDMDL
MODEL 8
REMARK VINA RESULT:      -5.0      3.314      6.803
REMARK  6 active torsions:
REMARK  status: ('A' for Active; 'I' for Inactive)
REMARK    1  A    between atoms: O_2  and  C_3 
REMARK    2  A    between atoms: C_3  and  C_4 
REMARK    3  A    between atoms: C_4  and  N_5 
REMARK    4  A    between atoms: C_6  and  S_7 
REMARK    5  A    between atoms: S_7  and  C_8 
REMARK    6  A    between atoms: C_8  and  C_9 
REMARK       I    between atoms: C_9  and  N_11 
ROOT
HETATM    1  N   UNL     1     -42.504 -52.156  12.619  1.00  0.00    -0.324 N 
HETATM    2  C   UNL     1     -42.700 -50.793  12.617  1.00  0.00     0.148 A 
HETATM    3  N   UNL     1     -43.899 -50.455  13.041  1.00  0.00    -0.335 N 
ATOM      4  HN  UNL     1     -44.267 -49.514  13.178  1.00  0.00     0.168 HD
HETATM    5  C   UNL     1     -44.545 -51.646  13.256  1.00  0.00     0.061 A 
HETATM    6  C   UNL     1     -45.882 -51.873  13.629  1.00  0.00     0.032 A 
HETATM    7  C   UNL     1     -46.335 -53.182  13.817  1.00  0.00     0.002 A 
HETATM    8  C   UNL     1     -45.471 -54.256  13.658  1.00  0.00     0.002 A 
HETATM    9  C   UNL     1     -44.143 -54.052  13.281  1.00  0.00     0.032 A 
HETATM   10  C   UNL     1     -43.692 -52.735  13.056  1.00  0.00     0.063 A 
ENDROOT
BRANCH   2  11
HETATM   11  S   UNL     1     -41.513 -49.664  12.042  1.00  0.00    -0.084 SA
BRANCH  11  12
HETATM   12  C   UNL     1     -42.542 -48.232  11.629  1.00  0.00     0.184 C 
BRANCH  12  13
HETATM   13  C   UNL     1     -42.125 -47.670  10.278  1.00  0.00     0.225 C 
HETATM   14  O   UNL     1     -42.750 -47.846   9.240  1.00  0.00    -0.273 OA
HETATM   15  N   UNL     1     -40.967 -46.942  10.286  1.00  0.00    -0.369 N 
HETATM   16  H   UNL     1     -40.299 -47.043  11.043  1.00  0.00     0.159 HD
HETATM   17  H   UNL     1     -40.616 -46.644   9.384  1.00  0.00     0.159 HD
ENDBRANCH  12  13
ENDBRANCH  11  12
ENDBRANCH   2  11
BRANCH   1  18
HETATM   18  C   UNL     1     -41.273 -52.813  12.189  1.00  0.00     0.157 C 
BRANCH  18  19
HETATM   19  C   UNL     1     -40.388 -53.317  13.315  1.00  0.00     0.187 C 
BRANCH  19  20
HETATM   20  O   UNL     1     -39.073 -52.762  13.320  1.00  0.00    -0.394 OA
HETATM   21  C   UNL     1     -38.969 -51.830  14.400  1.00  0.00     0.201 C 
ENDBRANCH  19  20
ENDBRANCH  18  19
ENDBRANCH   1  18
TORSDOF 6
ENDMDL
MODEL 9
REMARK VINA RESULT:      -5.0      2.970      7.172
REMARK  6 active torsions:
REMARK  status: ('A' for Active; 'I' for Inactive)
REMARK    1  A    between atoms: O_2  and  C_3 
REMARK    2  A    between atoms: C_3  and  C_4 
REMARK    3  A    between atoms: C_4  and  N_5 
REMARK    4  A    between atoms: C_6  and  S_7 
REMARK    5  A    between atoms: S_7  and  C_8 
REMARK    6  A    between atoms: C_8  and  C_9 
REMARK       I    between atoms: C_9  and  N_11 
ROOT
HETATM    1  N   UNL     1     -41.285 -51.798  13.714  1.00  0.00    -0.324 N 
HETATM    2  C   UNL     1     -41.456 -51.270  12.454  1.00  0.00     0.148 A 
HETATM    3  N   UNL     1     -42.505 -51.768  11.836  1.00  0.00    -0.335 N 
ATOM      4  HN  UNL     1     -42.870 -51.506  10.921  1.00  0.00     0.168 HD
HETATM    5  C   UNL     1     -43.000 -52.719  12.693  1.00  0.00     0.061 A 
HETATM    6  C   UNL     1     -44.061 -53.620  12.498  1.00  0.00     0.032 A 
HETATM    7  C   UNL     1     -44.417 -54.503  13.523  1.00  0.00     0.002 A 
HETATM    8  C   UNL     1     -43.743 -54.482  14.736  1.00  0.00     0.002 A 
HETATM    9  C   UNL     1     -42.682 -53.600  14.946  1.00  0.00     0.032 A 
HETATM   10  C   UNL     1     -42.297 -52.733  13.902  1.00  0.00     0.063 A 
ENDROOT
BRANCH   2  11
HETATM   11  S   UNL     1     -40.355 -50.131  11.744  1.00  0.00    -0.084 SA
BRANCH  11  12
HETATM   12  C   UNL     1     -41.111 -48.553  12.208  1.00  0.00     0.184 C 
BRANCH  12  13
HETATM   13  C   UNL     1     -41.971 -48.037  11.064  1.00  0.00     0.225 C 
HETATM   14  O   UNL     1     -42.898 -47.250  11.204  1.00  0.00    -0.273 OA
HETATM   15  N   UNL     1     -41.647 -48.528   9.829  1.00  0.00    -0.369 N 
HETATM   16  H   UNL     1     -41.108 -49.383   9.738  1.00  0.00     0.159 HD
HETATM   17  H   UNL     1     -42.267 -48.278   9.068  1.00  0.00     0.159 HD
ENDBRANCH  12  13
ENDBRANCH  11  12
ENDBRANCH   2  11
BRANCH   1  18
HETATM   18  C   UNL     1     -40.197 -51.436  14.620  1.00  0.00     0.157 C 
BRANCH  18  19
HETATM   19  C   UNL     1     -39.099 -52.476  14.749  1.00  0.00     0.187 C 
BRANCH  19  20
HETATM   20  O   UNL     1     -38.967 -53.332  13.614  1.00  0.00    -0.394 OA
HETATM   21  C   UNL     1     -39.168 -54.686  14.030  1.00  0.00     0.201 C 
ENDBRANCH  19  20
ENDBRANCH  18  19
ENDBRANCH   1  18
TORSDOF 6
ENDMDL
