MODEL 1
REMARK VINA RESULT:      -5.7      0.000      0.000
REMARK  4 active torsions:
REMARK  status: ('A' for Active; 'I' for Inactive)
REMARK    1  A    between atoms: O_2  and  C_3 
REMARK    2  A    between atoms: C_3  and  C_4 
REMARK       I    between atoms: C_4  and  N_6 
REMARK    3  A    between atoms: N_6  and  C_7 
REMARK    4  A    between atoms: C_10  and  N_14 
ROOT
HETATM    1  C   UNL     1     -42.633 -51.612  13.116  1.00  0.00     0.050 A 
HETATM    2  C   UNL     1     -41.415 -51.555  12.463  1.00  0.00     0.035 A 
HETATM    3  C   UNL     1     -41.078 -50.426  11.718  1.00  0.00     0.051 A 
HETATM    4  C   UNL     1     -41.938 -49.332  11.632  1.00  0.00     0.103 A 
HETATM    5  N   UNL     1     -43.124 -49.368  12.278  1.00  0.00    -0.350 N 
ATOM      6  HN  UNL     1     -43.769 -48.580  12.229  1.00  0.00     0.166 HD
HETATM    7  C   UNL     1     -43.439 -50.484  12.998  1.00  0.00     0.119 A 
ENDROOT
BRANCH   4   8
HETATM    8  N   UNL     1     -41.607 -48.241  10.856  1.00  0.00    -0.362 N 
HETATM    9  C   UNL     1     -40.557 -47.292  11.248  1.00  0.00     0.156 C 
HETATM   10  C   UNL     1     -41.176 -45.919  11.577  1.00  0.00     0.136 C 
HETATM   11  C   UNL     1     -40.083 -44.900  11.875  1.00  0.00     0.041 C 
HETATM   12  O   UNL     1     -41.946 -45.429  10.465  1.00  0.00    -0.378 OA
HETATM   13  C   UNL     1     -43.035 -46.330  10.167  1.00  0.00     0.136 C 
HETATM   14  C   UNL     1     -43.795 -45.728   8.992  1.00  0.00     0.041 C 
HETATM   15  C   UNL     1     -42.521 -47.745   9.821  1.00  0.00     0.156 C 
ENDBRANCH   4   8
BRANCH   1  16
HETATM   16  N   UNL     1     -43.067 -52.739  13.845  1.00  0.00    -0.324 N 
HETATM   17  C   UNL     1     -43.849 -53.777  13.355  1.00  0.00     0.245 C 
HETATM   18  O   UNL     1     -44.295 -53.890  12.216  1.00  0.00    -0.271 OA
HETATM   19  H   UNL     1     -42.898 -52.749  14.847  1.00  0.00     0.169 HD
BRANCH  17  20
HETATM   20  C   UNL     1     -44.162 -54.833  14.415  1.00  0.00     0.270 C 
BRANCH  20  21
HETATM   21  O   UNL     1     -45.475 -55.375  14.308  1.00  0.00    -0.387 OA
HETATM   22  C   UNL     1     -46.458 -54.490  14.839  1.00  0.00     0.202 C 
ENDBRANCH  20  21
ENDBRANCH  17  20
ENDBRANCH   1  16
TORSDOF 4
ENDMDL
MODEL 2
REMARK VINA RESULT:      -5.6      1.818      7.948
REMARK  4 active torsions:
REMARK  status: ('A' for Active; 'I' for Inactive)
REMARK    1  A    between atoms: O_2  and  C_3 
REMARK    2  A    between atoms: C_3  and  C_4 
REMARK       I    between atoms: C_4  and  N_6 
REMARK    3  A    between atoms: N_6  and  C_7 
REMARK    4  A    between atoms: C_10  and  N_14 
ROOT
HETATM    1  C   UNL     1     -41.218 -48.963  11.286  1.00  0.00     0.050 A 
HETATM    2  C   UNL     1     -42.324 -49.168  12.092  1.00  0.00     0.035 A 
HETATM    3  C   UNL     1     -42.639 -50.455  12.526  1.00  0.00     0.051 A 
HETATM    4  C   UNL     1     -41.846 -51.548  12.184  1.00  0.00     0.103 A 
HETATM    5  N   UNL     1     -40.754 -51.360  11.410  1.00  0.00    -0.350 N 
ATOM      6  HN  UNL     1     -40.159 -52.145  11.147  1.00  0.00     0.166 HD
HETATM    7  C   UNL     1     -40.464 -50.094  10.990  1.00  0.00     0.119 A 
ENDROOT
BRANCH   4   8
HETATM    8  N   UNL     1     -42.196 -52.820  12.587  1.00  0.00    -0.362 N 
HETATM    9  C   UNL     1     -43.573 -53.320  12.492  1.00  0.00     0.156 C 
HETATM   10  C   UNL     1     -44.162 -53.527  13.901  1.00  0.00     0.136 C 
HETATM   11  C   UNL     1     -45.549 -54.151  13.811  1.00  0.00     0.041 C 
HETATM   12  O   UNL     1     -43.330 -54.408  14.676  1.00  0.00    -0.378 OA
HETATM   13  C   UNL     1     -42.011 -53.843  14.842  1.00  0.00     0.136 C 
HETATM   14  C   UNL     1     -41.211 -54.835  15.677  1.00  0.00     0.041 C 
HETATM   15  C   UNL     1     -41.326 -53.594  13.480  1.00  0.00     0.156 C 
ENDBRANCH   4   8
BRANCH   1  16
HETATM   16  N   UNL     1     -40.865 -47.701  10.765  1.00  0.00    -0.324 N 
HETATM   17  C   UNL     1     -40.075 -46.749  11.397  1.00  0.00     0.245 C 
HETATM   18  O   UNL     1     -39.554 -46.842  12.506  1.00  0.00    -0.271 OA
HETATM   19  H   UNL     1     -41.316 -47.399   9.905  1.00  0.00     0.169 HD
BRANCH  17  20
HETATM   20  C   UNL     1     -39.906 -45.475  10.569  1.00  0.00     0.270 C 
BRANCH  20  21
HETATM   21  O   UNL     1     -41.141 -44.893  10.162  1.00  0.00    -0.387 OA
HETATM   22  C   UNL     1     -41.768 -44.185  11.229  1.00  0.00     0.202 C 
ENDBRANCH  20  21
ENDBRANCH  17  20
ENDBRANCH   1  16
TORSDOF 4
ENDMDL
MODEL 3
REMARK VINA RESULT:      -5.3      2.561      2.831
REMARK  4 active torsions:
REMARK  status: ('A' for Active; 'I' for Inactive)
REMARK    1  A    between atoms: O_2  and  C_3 
REMARK    2  A    between atoms: C_3  and  C_4 
REMARK       I    between atoms: C_4  and  N_6 
REMARK    3  A    between atoms: N_6  and  C_7 
REMARK    4  A    between atoms: C_10  and  N_14 
ROOT
HETATM    1  C   UNL     1     -41.016 -50.889  13.387  1.00  0.00     0.050 A 
HETATM    2  C   UNL     1     -40.020 -49.931  13.326  1.00  0.00     0.035 A 
HETATM    3  C   UNL     1     -40.121 -48.880  12.415  1.00  0.00     0.051 A 
HETATM    4  C   UNL     1     -41.224 -48.757  11.572  1.00  0.00     0.103 A 
HETATM    5  N   UNL     1     -42.211 -49.677  11.632  1.00  0.00    -0.350 N 
ATOM      6  HN  UNL     1     -43.027 -49.607  11.024  1.00  0.00     0.166 HD
HETATM    7  C   UNL     1     -42.093 -50.702  12.526  1.00  0.00     0.119 A 
ENDROOT
BRANCH   4   8
HETATM    8  N   UNL     1     -41.287 -47.735  10.648  1.00  0.00    -0.362 N 
HETATM    9  C   UNL     1     -40.483 -46.514  10.775  1.00  0.00     0.156 C 
HETATM   10  C   UNL     1     -41.394 -45.302  11.054  1.00  0.00     0.136 C 
HETATM   11  C   UNL     1     -40.578 -44.016  11.076  1.00  0.00     0.041 C 
HETATM   12  O   UNL     1     -42.396 -45.173  10.030  1.00  0.00    -0.378 OA
HETATM   13  C   UNL     1     -43.239 -46.346   9.995  1.00  0.00     0.136 C 
HETATM   14  C   UNL     1     -44.267 -46.115   8.895  1.00  0.00     0.041 C 
HETATM   15  C   UNL     1     -42.419 -47.626   9.720  1.00  0.00     0.156 C 
ENDBRANCH   4   8
BRANCH   1  16
HETATM   16  N   UNL     1     -40.960 -52.007  14.244  1.00  0.00    -0.324 N 
HETATM   17  C   UNL     1     -40.493 -53.272  13.908  1.00  0.00     0.245 C 
HETATM   18  O   UNL     1     -40.055 -53.629  12.817  1.00  0.00    -0.271 OA
HETATM   19  H   UNL     1     -41.405 -51.929  15.155  1.00  0.00     0.169 HD
BRANCH  17  20
HETATM   20  C   UNL     1     -40.594 -54.267  15.064  1.00  0.00     0.270 C 
BRANCH  20  21
HETATM   21  O   UNL     1     -39.466 -55.128  15.173  1.00  0.00    -0.387 OA
HETATM   22  C   UNL     1     -39.447 -55.820  16.419  1.00  0.00     0.202 C 
ENDBRANCH  20  21
ENDBRANCH  17  20
ENDBRANCH   1  16
TORSDOF 4
ENDMDL
MODEL 4
REMARK VINA RESULT:      -5.1      2.857      3.777
REMARK  4 active torsions:
REMARK  status: ('A' for Active; 'I' for Inactive)
REMARK    1  A    between atoms: O_2  and  C_3 
REMARK    2  A    between atoms: C_3  and  C_4 
REMARK       I    between atoms: C_4  and  N_6 
REMARK    3  A    between atoms: N_6  and  C_7 
REMARK    4  A    between atoms: C_10  and  N_14 
ROOT
HETATM    1  C   UNL     1     -41.692 -51.637  13.807  1.00  0.00     0.050 A 
HETATM    2  C   UNL     1     -41.967 -50.524  14.582  1.00  0.00     0.035 A 
HETATM    3  C   UNL     1     -42.266 -49.307  13.970  1.00  0.00     0.051 A 
HETATM    4  C   UNL     1     -42.317 -49.190  12.582  1.00  0.00     0.103 A 
HETATM    5  N   UNL     1     -42.067 -50.273  11.814  1.00  0.00    -0.350 N 
ATOM      6  HN  UNL     1     -42.098 -50.209  10.797  1.00  0.00     0.166 HD
HETATM    7  C   UNL     1     -41.771 -51.454  12.431  1.00  0.00     0.119 A 
ENDROOT
BRANCH   4   8
HETATM    8  N   UNL     1     -42.573 -47.969  11.993  1.00  0.00    -0.362 N 
HETATM    9  C   UNL     1     -43.599 -47.800  10.957  1.00  0.00     0.156 C 
HETATM   10  C   UNL     1     -42.940 -47.464   9.604  1.00  0.00     0.136 C 
HETATM   11  C   UNL     1     -44.003 -47.177   8.551  1.00  0.00     0.041 C 
HETATM   12  O   UNL     1     -42.106 -46.298   9.720  1.00  0.00    -0.378 OA
HETATM   13  C   UNL     1     -41.042 -46.529  10.670  1.00  0.00     0.136 C 
HETATM   14  C   UNL     1     -40.212 -45.252  10.718  1.00  0.00     0.041 C 
HETATM   15  C   UNL     1     -41.597 -46.875  12.069  1.00  0.00     0.156 C 
ENDBRANCH   4   8
BRANCH   1  16
HETATM   16  N   UNL     1     -41.331 -52.887  14.352  1.00  0.00    -0.324 N 
HETATM   17  C   UNL     1     -40.096 -53.509  14.222  1.00  0.00     0.245 C 
HETATM   18  O   UNL     1     -39.117 -53.082  13.616  1.00  0.00    -0.271 OA
HETATM   19  H   UNL     1     -42.064 -53.447  14.780  1.00  0.00     0.169 HD
BRANCH  17  20
HETATM   20  C   UNL     1     -40.044 -54.871  14.913  1.00  0.00     0.270 C 
BRANCH  20  21
HETATM   21  O   UNL     1     -38.758 -55.481  14.872  1.00  0.00    -0.387 OA
HETATM   22  C   UNL     1     -38.174 -55.575  16.169  1.00  0.00     0.202 C 
ENDBRANCH  20  21
ENDBRANCH  17  20
ENDBRANCH   1  16
TORSDOF 4
ENDMDL
MODEL 5
REMARK VINA RESULT:      -5.0      5.655      7.415
REMARK  4 active torsions:
REMARK  status: ('A' for Active; 'I' for Inactive)
REMARK    1  A    between atoms: O_2  and  C_3 
REMARK    2  A    between atoms: C_3  and  C_4 
REMARK       I    between atoms: C_4  and  N_6 
REMARK    3  A    between atoms: N_6  and  C_7 
REMARK    4  A    between atoms: C_10  and  N_14 
ROOT
HETATM    1  C   UNL     1     -41.515 -55.000  15.632  1.00  0.00     0.050 A 
HETATM    2  C   UNL     1     -41.889 -54.571  14.371  1.00  0.00     0.035 A 
HETATM    3  C   UNL     1     -43.184 -54.104  14.152  1.00  0.00     0.051 A 
HETATM    4  C   UNL     1     -44.114 -54.037  15.188  1.00  0.00     0.103 A 
HETATM    5  N   UNL     1     -43.757 -54.437  16.428  1.00  0.00    -0.350 N 
ATOM      6  HN  UNL     1     -44.421 -54.397  17.200  1.00  0.00     0.166 HD
HETATM    7  C   UNL     1     -42.486 -54.897  16.622  1.00  0.00     0.119 A 
ENDROOT
BRANCH   4   8
HETATM    8  N   UNL     1     -45.404 -53.612  14.944  1.00  0.00    -0.362 N 
HETATM    9  C   UNL     1     -45.885 -53.311  13.590  1.00  0.00     0.156 C 
HETATM   10  C   UNL     1     -46.167 -51.802  13.448  1.00  0.00     0.136 C 
HETATM   11  C   UNL     1     -46.773 -51.500  12.083  1.00  0.00     0.041 C 
HETATM   12  O   UNL     1     -47.097 -51.362  14.452  1.00  0.00    -0.378 OA
HETATM   13  C   UNL     1     -46.555 -51.575  15.774  1.00  0.00     0.136 C 
HETATM   14  C   UNL     1     -47.599 -51.073  16.763  1.00  0.00     0.041 C 
HETATM   15  C   UNL     1     -46.235 -53.065  16.022  1.00  0.00     0.156 C 
ENDBRANCH   4   8
BRANCH   1  16
HETATM   16  N   UNL     1     -40.241 -55.533  15.920  1.00  0.00    -0.324 N 
HETATM   17  C   UNL     1     -39.066 -54.806  16.066  1.00  0.00     0.245 C 
HETATM   18  O   UNL     1     -38.936 -53.588  15.969  1.00  0.00    -0.271 OA
HETATM   19  H   UNL     1     -40.136 -56.543  15.907  1.00  0.00     0.169 HD
BRANCH  17  20
HETATM   20  C   UNL     1     -37.854 -55.692  16.351  1.00  0.00     0.270 C 
BRANCH  20  21
HETATM   21  O   UNL     1     -38.044 -56.581  17.446  1.00  0.00    -0.387 OA
HETATM   22  C   UNL     1     -36.903 -56.619  18.301  1.00  0.00     0.202 C 
ENDBRANCH  20  21
ENDBRANCH  17  20
ENDBRANCH   1  16
TORSDOF 4
ENDMDL
MODEL 6
REMARK VINA RESULT:      -4.7      3.473      8.316
REMARK  4 active torsions:
REMARK  status: ('A' for Active; 'I' for Inactive)
REMARK    1  A    between atoms: O_2  and  C_3 
REMARK    2  A    between atoms: C_3  and  C_4 
REMARK       I    between atoms: C_4  and  N_6 
REMARK    3  A    between atoms: N_6  and  C_7 
REMARK    4  A    between atoms: C_10  and  N_14 
ROOT
HETATM    1  C   UNL     1     -40.745 -51.134  12.011  1.00  0.00     0.050 A 
HETATM    2  C   UNL     1     -39.886 -51.108  13.095  1.00  0.00     0.035 A 
HETATM    3  C   UNL     1     -39.770 -52.228  13.917  1.00  0.00     0.051 A 
HETATM    4  C   UNL     1     -40.490 -53.393  13.658  1.00  0.00     0.103 A 
HETATM    5  N   UNL     1     -41.321 -53.437  12.593  1.00  0.00    -0.350 N 
ATOM      6  HN  UNL     1     -41.857 -54.278  12.385  1.00  0.00     0.166 HD
HETATM    7  C   UNL     1     -41.425 -52.329  11.802  1.00  0.00     0.119 A 
ENDROOT
BRANCH   4   8
HETATM    8  N   UNL     1     -40.395 -54.476  14.506  1.00  0.00    -0.362 N 
HETATM    9  C   UNL     1     -41.486 -54.859  15.411  1.00  0.00     0.156 C 
HETATM   10  C   UNL     1     -41.066 -54.633  16.877  1.00  0.00     0.136 C 
HETATM   11  C   UNL     1     -42.150 -55.132  17.824  1.00  0.00     0.041 C 
HETATM   12  O   UNL     1     -39.854 -55.348  17.175  1.00  0.00    -0.378 OA
HETATM   13  C   UNL     1     -38.772 -54.879  16.341  1.00  0.00     0.136 C 
HETATM   14  C   UNL     1     -37.537 -55.682  16.732  1.00  0.00     0.041 C 
HETATM   15  C   UNL     1     -39.092 -55.061  14.841  1.00  0.00     0.156 C 
ENDBRANCH   4   8
BRANCH   1  16
HETATM   16  N   UNL     1     -40.954 -50.025  11.164  1.00  0.00    -0.324 N 
HETATM   17  C   UNL     1     -41.854 -48.989  11.384  1.00  0.00     0.245 C 
HETATM   18  O   UNL     1     -42.613 -48.862  12.340  1.00  0.00    -0.271 OA
HETATM   19  H   UNL     1     -40.500 -50.030  10.255  1.00  0.00     0.169 HD
BRANCH  17  20
HETATM   20  C   UNL     1     -41.851 -47.955  10.258  1.00  0.00     0.270 C 
BRANCH  20  21
HETATM   21  O   UNL     1     -41.159 -46.755  10.588  1.00  0.00    -0.387 OA
HETATM   22  C   UNL     1     -42.034 -45.629  10.610  1.00  0.00     0.202 C 
ENDBRANCH  20  21
ENDBRANCH  17  20
ENDBRANCH   1  16
TORSDOF 4
ENDMDL
MODEL 7
REMARK VINA RESULT:      -4.7      4.843      6.448
REMARK  4 active torsions:
REMARK  status: ('A' for Active; 'I' for Inactive)
REMARK    1  A    between atoms: O_2  and  C_3 
REMARK    2  A    between atoms: C_3  and  C_4 
REMARK       I    between atoms: C_4  and  N_6 
REMARK    3  A    between atoms: N_6  and  C_7 
REMARK    4  A    between atoms: C_10  and  N_14 
ROOT
HETATM    1  C   UNL     1     -39.440 -54.180  15.560  1.00  0.00     0.050 A 
HETATM    2  C   UNL     1     -40.422 -53.376  16.112  1.00  0.00     0.035 A 
HETATM    3  C   UNL     1     -41.381 -52.786  15.290  1.00  0.00     0.051 A 
HETATM    4  C   UNL     1     -41.389 -53.008  13.913  1.00  0.00     0.103 A 
HETATM    5  N   UNL     1     -40.446 -53.804  13.364  1.00  0.00    -0.350 N 
ATOM      6  HN  UNL     1     -40.432 -53.980  12.359  1.00  0.00     0.166 HD
HETATM    7  C   UNL     1     -39.512 -54.368  14.184  1.00  0.00     0.119 A 
ENDROOT
BRANCH   4   8
HETATM    8  N   UNL     1     -42.319 -52.383  13.110  1.00  0.00    -0.362 N 
HETATM    9  C   UNL     1     -41.997 -51.185  12.325  1.00  0.00     0.156 C 
HETATM   10  C   UNL     1     -42.766 -49.966  12.872  1.00  0.00     0.136 C 
HETATM   11  C   UNL     1     -42.522 -48.745  11.994  1.00  0.00     0.041 C 
HETATM   12  O   UNL     1     -44.181 -50.224  12.889  1.00  0.00    -0.378 OA
HETATM   13  C   UNL     1     -44.481 -51.343  13.751  1.00  0.00     0.136 C 
HETATM   14  C   UNL     1     -45.993 -51.533  13.713  1.00  0.00     0.041 C 
HETATM   15  C   UNL     1     -43.756 -52.626  13.289  1.00  0.00     0.156 C 
ENDBRANCH   4   8
BRANCH   1  16
HETATM   16  N   UNL     1     -38.407 -54.769  16.319  1.00  0.00    -0.324 N 
HETATM   17  C   UNL     1     -38.389 -56.072  16.800  1.00  0.00     0.245 C 
HETATM   18  O   UNL     1     -39.260 -56.925  16.651  1.00  0.00    -0.271 OA
HETATM   19  H   UNL     1     -37.659 -54.166  16.649  1.00  0.00     0.169 HD
BRANCH  17  20
HETATM   20  C   UNL     1     -37.131 -56.386  17.610  1.00  0.00     0.270 C 
BRANCH  20  21
HETATM   21  O   UNL     1     -35.921 -56.128  16.904  1.00  0.00    -0.387 OA
HETATM   22  C   UNL     1     -34.840 -55.850  17.791  1.00  0.00     0.202 C 
ENDBRANCH  20  21
ENDBRANCH  17  20
ENDBRANCH   1  16
TORSDOF 4
ENDMDL
MODEL 8
REMARK VINA RESULT:      -4.6     12.454     13.217
REMARK  4 active torsions:
REMARK  status: ('A' for Active; 'I' for Inactive)
REMARK    1  A    between atoms: O_2  and  C_3 
REMARK    2  A    between atoms: C_3  and  C_4 
REMARK       I    between atoms: C_4  and  N_6 
REMARK    3  A    between atoms: N_6  and  C_7 
REMARK    4  A    between atoms: C_10  and  N_14 
ROOT
HETATM    1  C   UNL     1     -50.604 -46.480   1.639  1.00  0.00     0.050 A 
HETATM    2  C   UNL     1     -49.387 -45.967   2.053  1.00  0.00     0.035 A 
HETATM    3  C   UNL     1     -49.343 -44.765   2.757  1.00  0.00     0.051 A 
HETATM    4  C   UNL     1     -50.509 -44.070   3.077  1.00  0.00     0.103 A 
HETATM    5  N   UNL     1     -51.704 -44.568   2.693  1.00  0.00    -0.350 N 
ATOM      6  HN  UNL     1     -52.570 -44.077   2.915  1.00  0.00     0.166 HD
HETATM    7  C   UNL     1     -51.728 -45.744   1.999  1.00  0.00     0.119 A 
ENDROOT
BRANCH   4   8
HETATM    8  N   UNL     1     -50.443 -42.861   3.737  1.00  0.00    -0.362 N 
HETATM    9  C   UNL     1     -49.673 -41.725   3.215  1.00  0.00     0.156 C 
HETATM   10  C   UNL     1     -48.469 -41.432   4.132  1.00  0.00     0.136 C 
HETATM   11  C   UNL     1     -47.731 -40.186   3.658  1.00  0.00     0.041 C 
HETATM   12  O   UNL     1     -48.903 -41.202   5.483  1.00  0.00    -0.378 OA
HETATM   13  C   UNL     1     -49.567 -42.373   6.008  1.00  0.00     0.136 C 
HETATM   14  C   UNL     1     -49.979 -42.040   7.437  1.00  0.00     0.041 C 
HETATM   15  C   UNL     1     -50.798 -42.756   5.157  1.00  0.00     0.156 C 
ENDBRANCH   4   8
BRANCH   1  16
HETATM   16  N   UNL     1     -50.725 -47.662   0.879  1.00  0.00    -0.324 N 
HETATM   17  C   UNL     1     -50.562 -48.958   1.354  1.00  0.00     0.245 C 
HETATM   18  O   UNL     1     -50.285 -49.292   2.503  1.00  0.00    -0.271 OA
HETATM   19  H   UNL     1     -50.826 -47.571  -0.128  1.00  0.00     0.169 HD
BRANCH  17  20
HETATM   20  C   UNL     1     -50.737 -50.014   0.263  1.00  0.00     0.270 C 
BRANCH  20  21
HETATM   21  O   UNL     1     -49.970 -51.193   0.483  1.00  0.00    -0.387 OA
HETATM   22  C   UNL     1     -50.368 -52.253  -0.383  1.00  0.00     0.202 C 
ENDBRANCH  20  21
ENDBRANCH  17  20
ENDBRANCH   1  16
TORSDOF 4
ENDMDL
MODEL 9
REMARK VINA RESULT:      -4.6     14.350     16.640
REMARK  4 active torsions:
REMARK  status: ('A' for Active; 'I' for Inactive)
REMARK    1  A    between atoms: O_2  and  C_3 
REMARK    2  A    between atoms: C_3  and  C_4 
REMARK       I    between atoms: C_4  and  N_6 
REMARK    3  A    between atoms: N_6  and  C_7 
REMARK    4  A    between atoms: C_10  and  N_14 
ROOT
HETATM    1  C   UNL     1     -47.212 -48.887  -1.822  1.00  0.00     0.050 A 
HETATM    2  C   UNL     1     -47.106 -49.972  -2.673  1.00  0.00     0.035 A 
HETATM    3  C   UNL     1     -47.754 -51.167  -2.360  1.00  0.00     0.051 A 
HETATM    4  C   UNL     1     -48.533 -51.288  -1.210  1.00  0.00     0.103 A 
HETATM    5  N   UNL     1     -48.657 -50.231  -0.379  1.00  0.00    -0.350 N 
ATOM      6  HN  UNL     1     -49.221 -50.297   0.468  1.00  0.00     0.166 HD
HETATM    7  C   UNL     1     -48.012 -49.071  -0.698  1.00  0.00     0.119 A 
ENDROOT
BRANCH   4   8
HETATM    8  N   UNL     1     -49.132 -52.489  -0.895  1.00  0.00    -0.362 N 
HETATM    9  C   UNL     1     -48.589 -53.777  -1.347  1.00  0.00     0.156 C 
HETATM   10  C   UNL     1     -49.547 -54.430  -2.363  1.00  0.00     0.136 C 
HETATM   11  C   UNL     1     -49.046 -55.816  -2.752  1.00  0.00     0.041 C 
HETATM   12  O   UNL     1     -50.862 -54.577  -1.801  1.00  0.00    -0.378 OA
HETATM   13  C   UNL     1     -51.414 -53.286  -1.461  1.00  0.00     0.136 C 
HETATM   14  C   UNL     1     -52.802 -53.540  -0.886  1.00  0.00     0.041 C 
HETATM   15  C   UNL     1     -50.526 -52.541  -0.440  1.00  0.00     0.156 C 
ENDBRANCH   4   8
BRANCH   1  16
HETATM   16  N   UNL     1     -46.546 -47.664  -2.043  1.00  0.00    -0.324 N 
HETATM   17  C   UNL     1     -45.184 -47.436  -1.887  1.00  0.00     0.245 C 
HETATM   18  O   UNL     1     -44.337 -48.251  -1.532  1.00  0.00    -0.271 OA
HETATM   19  H   UNL     1     -47.113 -46.839  -2.219  1.00  0.00     0.169 HD
BRANCH  17  20
HETATM   20  C   UNL     1     -44.788 -45.990  -2.184  1.00  0.00     0.270 C 
BRANCH  20  21
HETATM   21  O   UNL     1     -45.819 -45.235  -2.813  1.00  0.00    -0.387 OA
HETATM   22  C   UNL     1     -45.992 -43.961  -2.198  1.00  0.00     0.202 C 
ENDBRANCH  20  21
ENDBRANCH  17  20
ENDBRANCH   1  16
TORSDOF 4
ENDMDL
