MODEL 1
REMARK VINA RESULT:      -6.3      0.000      0.000
REMARK  5 active torsions:
REMARK  status: ('A' for Active; 'I' for Inactive)
REMARK    1  A    between atoms: C_2  and  C_4 
REMARK    2  A    between atoms: C_7  and  N_8 
REMARK       I    between atoms: N_8  and  C_9 
REMARK    3  A    between atoms: C_9  and  C_11 
REMARK    4  A    between atoms: C_11  and  O_12 
REMARK    5  A    between atoms: O_12  and  C_13 
ROOT
HETATM    1  N   UNL     1     -41.583 -50.675  11.642  1.00  0.00    -0.311 N 
HETATM    2  C   UNL     1     -42.507 -51.149  12.568  1.00  0.00     0.246 C 
HETATM    3  O   UNL     1     -43.176 -50.462  13.336  1.00  0.00    -0.271 OA
HETATM    4  H   UNL     1     -41.070 -51.335  11.079  1.00  0.00     0.170 HD
ENDROOT
BRANCH   1   5
HETATM    5  C   UNL     1     -41.378 -49.310  11.396  1.00  0.00     0.107 A 
HETATM    6  C   UNL     1     -40.211 -48.709  11.856  1.00  0.00     0.049 A 
HETATM    7  C   UNL     1     -39.974 -47.364  11.541  1.00  0.00     0.020 A 
HETATM    8  C   UNL     1     -40.908 -46.654  10.782  1.00  0.00     0.025 A 
HETATM    9  C   UNL     1     -42.053 -47.327  10.400  1.00  0.00     0.104 A 
HETATM   10  N   UNL     1     -42.289 -48.621  10.696  1.00  0.00    -0.351 N 
ATOM     11  HN  UNL     1     -43.153 -49.071  10.390  1.00  0.00     0.166 HD
BRANCH   8  12
HETATM   12  C   UNL     1     -40.665 -45.245  10.390  1.00  0.00     0.157 C 
HETATM   13  C   UNL     1     -39.306 -44.867   9.853  1.00  0.00     0.097 C 
HETATM   14  O   UNL     1     -41.564 -44.418  10.510  1.00  0.00    -0.293 OA
ENDBRANCH   8  12
ENDBRANCH   1   5
BRANCH   2  15
HETATM   15  C   UNL     1     -42.629 -52.676  12.581  1.00  0.00     0.271 C 
BRANCH  15  16
HETATM   16  O   UNL     1     -43.694 -53.036  13.450  1.00  0.00    -0.377 OA
BRANCH  16  17
HETATM   17  C   UNL     1     -44.805 -53.706  12.862  1.00  0.00     0.122 C 
HETATM   18  C   UNL     1     -45.857 -52.623  12.573  1.00  0.00     0.032 C 
HETATM   19  C   UNL     1     -46.430 -52.016  13.859  1.00  0.00     0.002 C 
HETATM   20  C   UNL     1     -46.962 -53.086  14.810  1.00  0.00     0.000 C 
HETATM   21  C   UNL     1     -45.921 -54.166  15.086  1.00  0.00     0.002 C 
HETATM   22  C   UNL     1     -45.406 -54.774  13.783  1.00  0.00     0.032 C 
ENDBRANCH  16  17
ENDBRANCH  15  16
ENDBRANCH   2  15
TORSDOF 5
ENDMDL
MODEL 2
REMARK VINA RESULT:      -6.1      1.259      1.559
REMARK  5 active torsions:
REMARK  status: ('A' for Active; 'I' for Inactive)
REMARK    1  A    between atoms: C_2  and  C_4 
REMARK    2  A    between atoms: C_7  and  N_8 
REMARK       I    between atoms: N_8  and  C_9 
REMARK    3  A    between atoms: C_9  and  C_11 
REMARK    4  A    between atoms: C_11  and  O_12 
REMARK    5  A    between atoms: O_12  and  C_13 
ROOT
HETATM    1  N   UNL     1     -42.457 -50.249  11.899  1.00  0.00    -0.311 N 
HETATM    2  C   UNL     1     -41.767 -51.421  12.190  1.00  0.00     0.246 C 
HETATM    3  O   UNL     1     -40.550 -51.579  12.117  1.00  0.00    -0.271 OA
HETATM    4  H   UNL     1     -43.463 -50.241  11.969  1.00  0.00     0.170 HD
ENDROOT
BRANCH   1   5
HETATM    5  C   UNL     1     -41.817 -49.043  11.580  1.00  0.00     0.107 A 
HETATM    6  C   UNL     1     -42.438 -48.159  10.704  1.00  0.00     0.049 A 
HETATM    7  C   UNL     1     -41.831 -46.922  10.448  1.00  0.00     0.020 A 
HETATM    8  C   UNL     1     -40.621 -46.602  11.069  1.00  0.00     0.025 A 
HETATM    9  C   UNL     1     -40.063 -47.557  11.897  1.00  0.00     0.104 A 
HETATM   10  N   UNL     1     -40.640 -48.749  12.150  1.00  0.00    -0.351 N 
ATOM     11  HN  UNL     1     -40.185 -49.421  12.769  1.00  0.00     0.166 HD
BRANCH   8  12
HETATM   12  C   UNL     1     -39.978 -45.282  10.859  1.00  0.00     0.157 C 
HETATM   13  C   UNL     1     -39.437 -44.541  12.057  1.00  0.00     0.097 C 
HETATM   14  O   UNL     1     -39.901 -44.819   9.725  1.00  0.00    -0.293 OA
ENDBRANCH   8  12
ENDBRANCH   1   5
BRANCH   2  15
HETATM   15  C   UNL     1     -42.679 -52.576  12.614  1.00  0.00     0.271 C 
BRANCH  15  16
HETATM   16  O   UNL     1     -43.949 -52.044  12.963  1.00  0.00    -0.377 OA
BRANCH  16  17
HETATM   17  C   UNL     1     -45.092 -52.798  12.572  1.00  0.00     0.122 C 
HETATM   18  C   UNL     1     -46.289 -51.836  12.647  1.00  0.00     0.032 C 
HETATM   19  C   UNL     1     -46.601 -51.414  14.088  1.00  0.00     0.002 C 
HETATM   20  C   UNL     1     -46.780 -52.617  15.011  1.00  0.00     0.000 C 
HETATM   21  C   UNL     1     -45.596 -53.576  14.926  1.00  0.00     0.002 C 
HETATM   22  C   UNL     1     -45.345 -54.005  13.482  1.00  0.00     0.032 C 
ENDBRANCH  16  17
ENDBRANCH  15  16
ENDBRANCH   2  15
TORSDOF 5
ENDMDL
MODEL 3
REMARK VINA RESULT:      -5.6      2.411      7.582
REMARK  5 active torsions:
REMARK  status: ('A' for Active; 'I' for Inactive)
REMARK    1  A    between atoms: C_2  and  C_4 
REMARK    2  A    between atoms: C_7  and  N_8 
REMARK       I    between atoms: N_8  and  C_9 
REMARK    3  A    between atoms: C_9  and  C_11 
REMARK    4  A    between atoms: C_11  and  O_12 
REMARK    5  A    between atoms: O_12  and  C_13 
ROOT
HETATM    1  N   UNL     1     -41.724 -50.892  11.562  1.00  0.00    -0.311 N 
HETATM    2  C   UNL     1     -41.412 -49.632  12.063  1.00  0.00     0.246 C 
HETATM    3  O   UNL     1     -41.441 -49.298  13.245  1.00  0.00    -0.271 OA
HETATM    4  H   UNL     1     -41.691 -51.047  10.567  1.00  0.00     0.170 HD
ENDROOT
BRANCH   1   5
HETATM    5  C   UNL     1     -42.015 -51.991  12.383  1.00  0.00     0.107 A 
HETATM    6  C   UNL     1     -41.109 -53.044  12.449  1.00  0.00     0.049 A 
HETATM    7  C   UNL     1     -41.368 -54.104  13.330  1.00  0.00     0.020 A 
HETATM    8  C   UNL     1     -42.523 -54.087  14.115  1.00  0.00     0.025 A 
HETATM    9  C   UNL     1     -43.380 -53.016  13.955  1.00  0.00     0.104 A 
HETATM   10  N   UNL     1     -43.140 -51.991  13.112  1.00  0.00    -0.351 N 
ATOM     11  HN  UNL     1     -43.807 -51.223  13.031  1.00  0.00     0.166 HD
BRANCH   8  12
HETATM   12  C   UNL     1     -42.801 -55.168  15.092  1.00  0.00     0.157 C 
HETATM   13  C   UNL     1     -41.778 -55.457  16.163  1.00  0.00     0.097 C 
HETATM   14  O   UNL     1     -43.848 -55.804  15.010  1.00  0.00    -0.293 OA
ENDBRANCH   8  12
ENDBRANCH   1   5
BRANCH   2  15
HETATM   15  C   UNL     1     -41.025 -48.623  10.978  1.00  0.00     0.271 C 
BRANCH  15  16
HETATM   16  O   UNL     1     -42.191 -48.287  10.238  1.00  0.00    -0.377 OA
BRANCH  16  17
HETATM   17  C   UNL     1     -43.250 -47.661  10.955  1.00  0.00     0.122 C 
HETATM   18  C   UNL     1     -44.460 -47.644  10.007  1.00  0.00     0.032 C 
HETATM   19  C   UNL     1     -44.237 -46.723   8.802  1.00  0.00     0.002 C 
HETATM   20  C   UNL     1     -43.826 -45.315   9.225  1.00  0.00     0.000 C 
HETATM   21  C   UNL     1     -42.632 -45.335  10.174  1.00  0.00     0.002 C 
HETATM   22  C   UNL     1     -42.910 -46.228  11.382  1.00  0.00     0.032 C 
ENDBRANCH  16  17
ENDBRANCH  15  16
ENDBRANCH   2  15
TORSDOF 5
ENDMDL
MODEL 4
REMARK VINA RESULT:      -5.4      3.758      4.696
REMARK  5 active torsions:
REMARK  status: ('A' for Active; 'I' for Inactive)
REMARK    1  A    between atoms: C_2  and  C_4 
REMARK    2  A    between atoms: C_7  and  N_8 
REMARK       I    between atoms: N_8  and  C_9 
REMARK    3  A    between atoms: C_9  and  C_11 
REMARK    4  A    between atoms: C_11  and  O_12 
REMARK    5  A    between atoms: O_12  and  C_13 
ROOT
HETATM    1  N   UNL     1     -42.603 -52.887  14.829  1.00  0.00    -0.311 N 
HETATM    2  C   UNL     1     -42.587 -53.602  16.022  1.00  0.00     0.246 C 
HETATM    3  O   UNL     1     -41.584 -53.985  16.621  1.00  0.00    -0.271 OA
HETATM    4  H   UNL     1     -43.488 -52.648  14.412  1.00  0.00     0.170 HD
ENDROOT
BRANCH   1   5
HETATM    5  C   UNL     1     -41.439 -52.414  14.205  1.00  0.00     0.107 A 
HETATM    6  C   UNL     1     -41.478 -51.192  13.542  1.00  0.00     0.049 A 
HETATM    7  C   UNL     1     -40.294 -50.687  12.987  1.00  0.00     0.020 A 
HETATM    8  C   UNL     1     -39.108 -51.415  13.103  1.00  0.00     0.025 A 
HETATM    9  C   UNL     1     -39.175 -52.634  13.750  1.00  0.00     0.104 A 
HETATM   10  N   UNL     1     -40.308 -53.128  14.289  1.00  0.00    -0.351 N 
ATOM     11  HN  UNL     1     -40.305 -54.036  14.755  1.00  0.00     0.166 HD
BRANCH   8  12
HETATM   12  C   UNL     1     -37.829 -50.885  12.571  1.00  0.00     0.157 C 
HETATM   13  C   UNL     1     -37.771 -49.445  12.124  1.00  0.00     0.097 C 
HETATM   14  O   UNL     1     -36.850 -51.623  12.501  1.00  0.00    -0.293 OA
ENDBRANCH   8  12
ENDBRANCH   1   5
BRANCH   2  15
HETATM   15  C   UNL     1     -43.984 -53.916  16.564  1.00  0.00     0.271 C 
BRANCH  15  16
HETATM   16  O   UNL     1     -44.888 -52.932  16.080  1.00  0.00    -0.377 OA
BRANCH  16  17
HETATM   17  C   UNL     1     -46.192 -53.377  15.720  1.00  0.00     0.122 C 
HETATM   18  C   UNL     1     -46.023 -54.227  14.450  1.00  0.00     0.032 C 
HETATM   19  C   UNL     1     -45.575 -53.386  13.248  1.00  0.00     0.002 C 
HETATM   20  C   UNL     1     -46.494 -52.189  13.013  1.00  0.00     0.000 C 
HETATM   21  C   UNL     1     -46.670 -51.354  14.278  1.00  0.00     0.002 C 
HETATM   22  C   UNL     1     -47.156 -52.219  15.439  1.00  0.00     0.032 C 
ENDBRANCH  16  17
ENDBRANCH  15  16
ENDBRANCH   2  15
TORSDOF 5
ENDMDL
MODEL 5
REMARK VINA RESULT:      -5.4      3.134      4.153
REMARK  5 active torsions:
REMARK  status: ('A' for Active; 'I' for Inactive)
REMARK    1  A    between atoms: C_2  and  C_4 
REMARK    2  A    between atoms: C_7  and  N_8 
REMARK       I    between atoms: N_8  and  C_9 
REMARK    3  A    between atoms: C_9  and  C_11 
REMARK    4  A    between atoms: C_11  and  O_12 
REMARK    5  A    between atoms: O_12  and  C_13 
ROOT
HETATM    1  N   UNL     1     -40.087 -49.819  12.486  1.00  0.00    -0.311 N 
HETATM    2  C   UNL     1     -38.734 -49.994  12.215  1.00  0.00     0.246 C 
HETATM    3  O   UNL     1     -38.082 -49.386  11.369  1.00  0.00    -0.271 OA
HETATM    4  H   UNL     1     -40.525 -50.394  13.188  1.00  0.00     0.170 HD
ENDROOT
BRANCH   1   5
HETATM    5  C   UNL     1     -40.866 -48.824  11.879  1.00  0.00     0.107 A 
HETATM    6  C   UNL     1     -41.160 -47.667  12.593  1.00  0.00     0.049 A 
HETATM    7  C   UNL     1     -41.873 -46.642  11.955  1.00  0.00     0.020 A 
HETATM    8  C   UNL     1     -42.278 -46.802  10.627  1.00  0.00     0.025 A 
HETATM    9  C   UNL     1     -41.970 -48.001  10.012  1.00  0.00     0.104 A 
HETATM   10  N   UNL     1     -41.283 -48.991  10.616  1.00  0.00    -0.351 N 
ATOM     11  HN  UNL     1     -41.082 -49.858  10.117  1.00  0.00     0.166 HD
BRANCH   8  12
HETATM   12  C   UNL     1     -42.991 -45.718   9.908  1.00  0.00     0.157 C 
HETATM   13  C   UNL     1     -43.948 -46.090   8.803  1.00  0.00     0.097 C 
HETATM   14  O   UNL     1     -42.788 -44.548  10.221  1.00  0.00    -0.293 OA
ENDBRANCH   8  12
ENDBRANCH   1   5
BRANCH   2  15
HETATM   15  C   UNL     1     -38.073 -51.072  13.080  1.00  0.00     0.271 C 
BRANCH  15  16
HETATM   16  O   UNL     1     -38.880 -52.240  13.040  1.00  0.00    -0.377 OA
BRANCH  16  17
HETATM   17  C   UNL     1     -39.019 -52.968  14.257  1.00  0.00     0.122 C 
HETATM   18  C   UNL     1     -39.524 -54.367  13.866  1.00  0.00     0.032 C 
HETATM   19  C   UNL     1     -40.947 -54.328  13.295  1.00  0.00     0.002 C 
HETATM   20  C   UNL     1     -41.919 -53.613  14.229  1.00  0.00     0.000 C 
HETATM   21  C   UNL     1     -41.411 -52.230  14.625  1.00  0.00     0.002 C 
HETATM   22  C   UNL     1     -40.010 -52.316  15.227  1.00  0.00     0.032 C 
ENDBRANCH  16  17
ENDBRANCH  15  16
ENDBRANCH   2  15
TORSDOF 5
ENDMDL
MODEL 6
REMARK VINA RESULT:      -5.2      3.308      8.157
REMARK  5 active torsions:
REMARK  status: ('A' for Active; 'I' for Inactive)
REMARK    1  A    between atoms: C_2  and  C_4 
REMARK    2  A    between atoms: C_7  and  N_8 
REMARK       I    between atoms: N_8  and  C_9 
REMARK    3  A    between atoms: C_9  and  C_11 
REMARK    4  A    between atoms: C_11  and  O_12 
REMARK    5  A    between atoms: O_12  and  C_13 
ROOT
HETATM    1  N   UNL     1     -40.153 -48.647  11.228  1.00  0.00    -0.311 N 
HETATM    2  C   UNL     1     -41.303 -47.895  11.015  1.00  0.00     0.246 C 
HETATM    3  O   UNL     1     -42.459 -48.291  11.142  1.00  0.00    -0.271 OA
HETATM    4  H   UNL     1     -39.253 -48.225  11.067  1.00  0.00     0.170 HD
ENDROOT
BRANCH   1   5
HETATM    5  C   UNL     1     -40.178 -49.957  11.730  1.00  0.00     0.107 A 
HETATM    6  C   UNL     1     -39.286 -50.311  12.737  1.00  0.00     0.049 A 
HETATM    7  C   UNL     1     -39.367 -51.597  13.289  1.00  0.00     0.020 A 
HETATM    8  C   UNL     1     -40.329 -52.495  12.819  1.00  0.00     0.025 A 
HETATM    9  C   UNL     1     -41.147 -52.063  11.792  1.00  0.00     0.104 A 
HETATM   10  N   UNL     1     -41.079 -50.828  11.256  1.00  0.00    -0.351 N 
ATOM     11  HN  UNL     1     -41.707 -50.560  10.498  1.00  0.00     0.166 HD
BRANCH   8  12
HETATM   12  C   UNL     1     -40.473 -53.845  13.415  1.00  0.00     0.157 C 
HETATM   13  C   UNL     1     -39.309 -54.428  14.178  1.00  0.00     0.097 C 
HETATM   14  O   UNL     1     -41.527 -54.459  13.276  1.00  0.00    -0.293 OA
ENDBRANCH   8  12
ENDBRANCH   1   5
BRANCH   2  15
HETATM   15  C   UNL     1     -41.017 -46.458  10.566  1.00  0.00     0.271 C 
BRANCH  15  16
HETATM   16  O   UNL     1     -40.803 -45.659  11.721  1.00  0.00    -0.377 OA
BRANCH  16  17
HETATM   17  C   UNL     1     -39.768 -44.683  11.645  1.00  0.00     0.122 C 
HETATM   18  C   UNL     1     -39.043 -44.719  13.000  1.00  0.00     0.032 C 
HETATM   19  C   UNL     1     -39.934 -44.224  14.146  1.00  0.00     0.002 C 
HETATM   20  C   UNL     1     -40.528 -42.848  13.856  1.00  0.00     0.000 C 
HETATM   21  C   UNL     1     -41.238 -42.811  12.506  1.00  0.00     0.002 C 
HETATM   22  C   UNL     1     -40.305 -43.270  11.387  1.00  0.00     0.032 C 
ENDBRANCH  16  17
ENDBRANCH  15  16
ENDBRANCH   2  15
TORSDOF 5
ENDMDL
MODEL 7
REMARK VINA RESULT:      -5.0      4.969      8.492
REMARK  5 active torsions:
REMARK  status: ('A' for Active; 'I' for Inactive)
REMARK    1  A    between atoms: C_2  and  C_4 
REMARK    2  A    between atoms: C_7  and  N_8 
REMARK       I    between atoms: N_8  and  C_9 
REMARK    3  A    between atoms: C_9  and  C_11 
REMARK    4  A    between atoms: C_11  and  O_12 
REMARK    5  A    between atoms: O_12  and  C_13 
ROOT
HETATM    1  N   UNL     1     -41.971 -54.137  15.155  1.00  0.00    -0.311 N 
HETATM    2  C   UNL     1     -41.859 -54.005  13.775  1.00  0.00     0.246 C 
HETATM    3  O   UNL     1     -41.010 -54.540  13.065  1.00  0.00    -0.271 OA
HETATM    4  H   UNL     1     -42.694 -53.630  15.640  1.00  0.00     0.170 HD
ENDROOT
BRANCH   1   5
HETATM    5  C   UNL     1     -41.167 -55.004  15.909  1.00  0.00     0.107 A 
HETATM    6  C   UNL     1     -41.775 -55.969  16.705  1.00  0.00     0.049 A 
HETATM    7  C   UNL     1     -40.967 -56.883  17.395  1.00  0.00     0.020 A 
HETATM    8  C   UNL     1     -39.577 -56.806  17.278  1.00  0.00     0.025 A 
HETATM    9  C   UNL     1     -39.064 -55.792  16.492  1.00  0.00     0.104 A 
HETATM   10  N   UNL     1     -39.833 -54.909  15.822  1.00  0.00    -0.351 N 
ATOM     11  HN  UNL     1     -39.403 -54.178  15.256  1.00  0.00     0.166 HD
BRANCH   8  12
HETATM   12  C   UNL     1     -38.696 -57.788  17.956  1.00  0.00     0.157 C 
HETATM   13  C   UNL     1     -39.171 -59.214  18.091  1.00  0.00     0.097 C 
HETATM   14  O   UNL     1     -37.607 -57.425  18.392  1.00  0.00    -0.293 OA
ENDBRANCH   8  12
ENDBRANCH   1   5
BRANCH   2  15
HETATM   15  C   UNL     1     -42.916 -53.082  13.163  1.00  0.00     0.271 C 
BRANCH  15  16
HETATM   16  O   UNL     1     -43.687 -52.517  14.215  1.00  0.00    -0.377 OA
BRANCH  16  17
HETATM   17  C   UNL     1     -44.142 -51.180  14.033  1.00  0.00     0.122 C 
HETATM   18  C   UNL     1     -44.547 -50.671  15.426  1.00  0.00     0.032 C 
HETATM   19  C   UNL     1     -45.775 -51.407  15.976  1.00  0.00     0.002 C 
HETATM   20  C   UNL     1     -46.946 -51.378  14.998  1.00  0.00     0.000 C 
HETATM   21  C   UNL     1     -46.539 -51.873  13.613  1.00  0.00     0.002 C 
HETATM   22  C   UNL     1     -45.341 -51.087  13.083  1.00  0.00     0.032 C 
ENDBRANCH  16  17
ENDBRANCH  15  16
ENDBRANCH   2  15
TORSDOF 5
ENDMDL
MODEL 8
REMARK VINA RESULT:      -5.0      3.174      8.002
REMARK  5 active torsions:
REMARK  status: ('A' for Active; 'I' for Inactive)
REMARK    1  A    between atoms: C_2  and  C_4 
REMARK    2  A    between atoms: C_7  and  N_8 
REMARK       I    between atoms: N_8  and  C_9 
REMARK    3  A    between atoms: C_9  and  C_11 
REMARK    4  A    between atoms: C_11  and  O_12 
REMARK    5  A    between atoms: O_12  and  C_13 
ROOT
HETATM    1  N   UNL     1     -41.887 -50.132  11.758  1.00  0.00    -0.311 N 
HETATM    2  C   UNL     1     -41.054 -49.135  11.263  1.00  0.00     0.246 C 
HETATM    3  O   UNL     1     -39.846 -49.034  11.468  1.00  0.00    -0.271 OA
HETATM    4  H   UNL     1     -42.872 -50.100  11.545  1.00  0.00     0.170 HD
ENDROOT
BRANCH   1   5
HETATM    5  C   UNL     1     -41.413 -51.233  12.486  1.00  0.00     0.107 A 
HETATM    6  C   UNL     1     -41.817 -52.512  12.115  1.00  0.00     0.049 A 
HETATM    7  C   UNL     1     -41.280 -53.613  12.796  1.00  0.00     0.020 A 
HETATM    8  C   UNL     1     -40.362 -53.410  13.830  1.00  0.00     0.025 A 
HETATM    9  C   UNL     1     -40.049 -52.102  14.148  1.00  0.00     0.104 A 
HETATM   10  N   UNL     1     -40.558 -51.036  13.498  1.00  0.00    -0.351 N 
ATOM     11  HN  UNL     1     -40.295 -50.090  13.774  1.00  0.00     0.166 HD
BRANCH   8  12
HETATM   12  C   UNL     1     -39.738 -54.555  14.536  1.00  0.00     0.157 C 
HETATM   13  C   UNL     1     -40.104 -54.801  15.980  1.00  0.00     0.097 C 
HETATM   14  O   UNL     1     -38.941 -55.274  13.940  1.00  0.00    -0.293 OA
ENDBRANCH   8  12
ENDBRANCH   1   5
BRANCH   2  15
HETATM   15  C   UNL     1     -41.787 -48.096  10.409  1.00  0.00     0.271 C 
BRANCH  15  16
HETATM   16  O   UNL     1     -41.162 -46.834  10.597  1.00  0.00    -0.377 OA
BRANCH  16  17
HETATM   17  C   UNL     1     -41.747 -45.963  11.559  1.00  0.00     0.122 C 
HETATM   18  C   UNL     1     -41.581 -44.538  11.008  1.00  0.00     0.032 C 
HETATM   19  C   UNL     1     -40.111 -44.103  10.963  1.00  0.00     0.002 C 
HETATM   20  C   UNL     1     -39.422 -44.273  12.315  1.00  0.00     0.000 C 
HETATM   21  C   UNL     1     -39.598 -45.685  12.866  1.00  0.00     0.002 C 
HETATM   22  C   UNL     1     -41.076 -46.063  12.934  1.00  0.00     0.032 C 
ENDBRANCH  16  17
ENDBRANCH  15  16
ENDBRANCH   2  15
TORSDOF 5
ENDMDL
MODEL 9
REMARK VINA RESULT:      -5.0      1.812      2.359
REMARK  5 active torsions:
REMARK  status: ('A' for Active; 'I' for Inactive)
REMARK    1  A    between atoms: C_2  and  C_4 
REMARK    2  A    between atoms: C_7  and  N_8 
REMARK       I    between atoms: N_8  and  C_9 
REMARK    3  A    between atoms: C_9  and  C_11 
REMARK    4  A    between atoms: C_11  and  O_12 
REMARK    5  A    between atoms: O_12  and  C_13 
ROOT
HETATM    1  N   UNL     1     -43.071 -49.441  11.891  1.00  0.00    -0.311 N 
HETATM    2  C   UNL     1     -42.497 -50.144  12.945  1.00  0.00     0.246 C 
HETATM    3  O   UNL     1     -41.650 -49.713  13.724  1.00  0.00    -0.271 OA
HETATM    4  H   UNL     1     -43.740 -49.905  11.297  1.00  0.00     0.170 HD
ENDROOT
BRANCH   1   5
HETATM    5  C   UNL     1     -42.819 -48.082  11.651  1.00  0.00     0.107 A 
HETATM    6  C   UNL     1     -42.593 -47.657  10.346  1.00  0.00     0.049 A 
HETATM    7  C   UNL     1     -42.420 -46.288  10.101  1.00  0.00     0.020 A 
HETATM    8  C   UNL     1     -42.471 -45.382  11.163  1.00  0.00     0.025 A 
HETATM    9  C   UNL     1     -42.665 -45.902  12.428  1.00  0.00     0.104 A 
HETATM   10  N   UNL     1     -42.836 -47.217  12.674  1.00  0.00    -0.351 N 
ATOM     11  HN  UNL     1     -42.975 -47.549  13.629  1.00  0.00     0.166 HD
BRANCH   8  12
HETATM   12  C   UNL     1     -42.340 -43.923  10.932  1.00  0.00     0.157 C 
HETATM   13  C   UNL     1     -41.181 -43.190  11.561  1.00  0.00     0.097 C 
HETATM   14  O   UNL     1     -43.173 -43.342  10.241  1.00  0.00    -0.293 OA
ENDBRANCH   8  12
ENDBRANCH   1   5
BRANCH   2  15
HETATM   15  C   UNL     1     -43.007 -51.583  13.067  1.00  0.00     0.271 C 
BRANCH  15  16
HETATM   16  O   UNL     1     -43.784 -51.687  14.252  1.00  0.00    -0.377 OA
BRANCH  16  17
HETATM   17  C   UNL     1     -45.009 -50.961  14.285  1.00  0.00     0.122 C 
HETATM   18  C   UNL     1     -45.592 -51.164  15.693  1.00  0.00     0.032 C 
HETATM   19  C   UNL     1     -46.017 -52.616  15.938  1.00  0.00     0.002 C 
HETATM   20  C   UNL     1     -46.961 -53.128  14.853  1.00  0.00     0.000 C 
HETATM   21  C   UNL     1     -46.386 -52.915  13.456  1.00  0.00     0.002 C 
HETATM   22  C   UNL     1     -46.014 -51.450  13.236  1.00  0.00     0.032 C 
ENDBRANCH  16  17
ENDBRANCH  15  16
ENDBRANCH   2  15
TORSDOF 5
ENDMDL
