MODEL 1
REMARK VINA RESULT:      -6.4      0.000      0.000
REMARK  8 active torsions:
REMARK  status: ('A' for Active; 'I' for Inactive)
REMARK    1  A    between atoms: C_2  and  N_3 
REMARK    2  A    between atoms: C_2  and  C_14 
REMARK    3  A    between atoms: N_3  and  C_4 
REMARK    4  A    between atoms: C_4  and  C_5 
REMARK    5  A    between atoms: C_5  and  O_6 
REMARK    6  A    between atoms: C_5  and  C_7 
REMARK    7  A    between atoms: C_7  and  N_8 
REMARK    8  A    between atoms: C_14  and  N_16 
ROOT
HETATM    1  N   UNL     1     -41.934 -50.081  11.648  1.00  0.00     0.092 N 
HETATM    2  H   UNL     1     -42.548 -50.490  10.941  1.00  0.00     0.316 HD
ENDROOT
BRANCH   1   3
HETATM    3  C   UNL     1     -41.099 -49.024  11.046  1.00  0.00     0.240 C 
HETATM    4  C   UNL     1     -39.722 -49.012  11.724  1.00  0.00     0.045 C 
BRANCH   3   5
HETATM    5  C   UNL     1     -41.769 -47.609  10.989  1.00  0.00     0.136 C 
HETATM    6  C   UNL     1     -40.775 -46.489  10.657  1.00  0.00     0.036 C 
BRANCH   5   7
HETATM    7  N   UNL     1     -42.897 -47.569  10.059  1.00  0.00    -0.297 N 
HETATM    8  C   UNL     1     -44.205 -47.272  10.346  1.00  0.00     0.118 A 
HETATM    9  C   UNL     1     -44.909 -47.409   9.168  1.00  0.00    -0.028 A 
HETATM   10  C   UNL     1     -46.358 -47.197   8.941  1.00  0.00     0.051 C 
HETATM   11  C   UNL     1     -43.934 -47.803   8.229  1.00  0.00     0.115 A 
HETATM   12  N   UNL     1     -42.715 -47.910   8.763  1.00  0.00    -0.309 N 
ATOM     13  HN  UNL     1     -41.849 -48.186   8.301  1.00  0.00     0.186 HD
ENDBRANCH   5   7
ENDBRANCH   3   5
ENDBRANCH   1   3
BRANCH   1  14
HETATM   14  C   UNL     1     -41.181 -51.145  12.309  1.00  0.00     0.303 C 
BRANCH  14  15
HETATM   15  C   UNL     1     -41.719 -52.563  12.014  1.00  0.00     0.174 C 
BRANCH  15  16
HETATM   16  O   UNL     1     -40.587 -53.343  11.594  1.00  0.00    -0.392 OA
HETATM   17  H   UNL     1     -40.860 -54.278  11.607  1.00  0.00     0.210 HD
ENDBRANCH  15  16
BRANCH  15  18
HETATM   18  C   UNL     1     -42.408 -53.158  13.269  1.00  0.00     0.305 C 
BRANCH  18  19
HETATM   19  N   UNL     1     -43.735 -52.605  13.632  1.00  0.00     0.095 N 
HETATM   20  C   UNL     1     -43.922 -52.670  15.104  1.00  0.00     0.298 C 
HETATM   21  C   UNL     1     -44.148 -54.098  15.643  1.00  0.00     0.198 C 
HETATM   22  O   UNL     1     -45.222 -54.769  14.962  1.00  0.00    -0.388 OA
HETATM   23  C   UNL     1     -45.021 -54.761  13.542  1.00  0.00     0.198 C 
HETATM   24  C   UNL     1     -44.871 -53.322  13.023  1.00  0.00     0.298 C 
ENDBRANCH  18  19
ENDBRANCH  15  18
ENDBRANCH  14  15
ENDBRANCH   1  14
TORSDOF 8
ENDMDL
MODEL 2
REMARK VINA RESULT:      -6.2      2.668      6.824
REMARK  8 active torsions:
REMARK  status: ('A' for Active; 'I' for Inactive)
REMARK    1  A    between atoms: C_2  and  N_3 
REMARK    2  A    between atoms: C_2  and  C_14 
REMARK    3  A    between atoms: N_3  and  C_4 
REMARK    4  A    between atoms: C_4  and  C_5 
REMARK    5  A    between atoms: C_5  and  O_6 
REMARK    6  A    between atoms: C_5  and  C_7 
REMARK    7  A    between atoms: C_7  and  N_8 
REMARK    8  A    between atoms: C_14  and  N_16 
ROOT
HETATM    1  N   UNL     1     -42.266 -50.962  11.799  1.00  0.00     0.092 N 
HETATM    2  H   UNL     1     -43.257 -50.870  11.565  1.00  0.00     0.316 HD
ENDROOT
BRANCH   1   3
HETATM    3  C   UNL     1     -42.076 -52.037  12.792  1.00  0.00     0.240 C 
HETATM    4  C   UNL     1     -40.673 -52.639  12.631  1.00  0.00     0.045 C 
BRANCH   3   5
HETATM    5  C   UNL     1     -43.209 -53.118  12.816  1.00  0.00     0.136 C 
HETATM    6  C   UNL     1     -42.875 -54.316  13.714  1.00  0.00     0.036 C 
BRANCH   5   7
HETATM    7  N   UNL     1     -44.504 -52.553  13.197  1.00  0.00    -0.297 N 
HETATM    8  C   UNL     1     -44.944 -52.255  14.461  1.00  0.00     0.118 A 
HETATM    9  C   UNL     1     -46.237 -51.794  14.331  1.00  0.00    -0.028 A 
HETATM   10  C   UNL     1     -47.155 -51.336  15.401  1.00  0.00     0.051 C 
HETATM   11  C   UNL     1     -46.488 -51.861  12.945  1.00  0.00     0.115 A 
HETATM   12  N   UNL     1     -45.446 -52.329  12.253  1.00  0.00    -0.309 N 
ATOM     13  HN  UNL     1     -45.378 -52.481  11.247  1.00  0.00     0.186 HD
ENDBRANCH   5   7
ENDBRANCH   3   5
ENDBRANCH   1   3
BRANCH   1  14
HETATM   14  C   UNL     1     -41.742 -49.660  12.208  1.00  0.00     0.303 C 
BRANCH  14  15
HETATM   15  C   UNL     1     -40.821 -49.003  11.157  1.00  0.00     0.174 C 
BRANCH  15  16
HETATM   16  O   UNL     1     -40.394 -50.059  10.280  1.00  0.00    -0.392 OA
HETATM   17  H   UNL     1     -40.760 -50.891  10.631  1.00  0.00     0.210 HD
ENDBRANCH  15  16
BRANCH  15  18
HETATM   18  C   UNL     1     -41.571 -47.878  10.398  1.00  0.00     0.305 C 
BRANCH  18  19
HETATM   19  N   UNL     1     -42.824 -47.376  11.012  1.00  0.00     0.095 N 
HETATM   20  C   UNL     1     -43.874 -47.236   9.971  1.00  0.00     0.298 C 
HETATM   21  C   UNL     1     -43.641 -46.058   9.002  1.00  0.00     0.198 C 
HETATM   22  O   UNL     1     -43.445 -44.816   9.699  1.00  0.00    -0.388 OA
HETATM   23  C   UNL     1     -42.394 -44.924  10.668  1.00  0.00     0.198 C 
HETATM   24  C   UNL     1     -42.687 -46.059  11.663  1.00  0.00     0.298 C 
ENDBRANCH  18  19
ENDBRANCH  15  18
ENDBRANCH  14  15
ENDBRANCH   1  14
TORSDOF 8
ENDMDL
MODEL 3
REMARK VINA RESULT:      -5.9      1.678      2.679
REMARK  8 active torsions:
REMARK  status: ('A' for Active; 'I' for Inactive)
REMARK    1  A    between atoms: C_2  and  N_3 
REMARK    2  A    between atoms: C_2  and  C_14 
REMARK    3  A    between atoms: N_3  and  C_4 
REMARK    4  A    between atoms: C_4  and  C_5 
REMARK    5  A    between atoms: C_5  and  O_6 
REMARK    6  A    between atoms: C_5  and  C_7 
REMARK    7  A    between atoms: C_7  and  N_8 
REMARK    8  A    between atoms: C_14  and  N_16 
ROOT
HETATM    1  N   UNL     1     -40.774 -50.393  11.115  1.00  0.00     0.092 N 
HETATM    2  H   UNL     1     -39.941 -50.799  10.685  1.00  0.00     0.316 HD
ENDROOT
BRANCH   1   3
HETATM    3  C   UNL     1     -40.542 -48.970  11.428  1.00  0.00     0.240 C 
HETATM    4  C   UNL     1     -40.480 -48.785  12.951  1.00  0.00     0.045 C 
BRANCH   3   5
HETATM    5  C   UNL     1     -41.526 -47.973  10.727  1.00  0.00     0.136 C 
HETATM    6  C   UNL     1     -42.951 -48.044  11.290  1.00  0.00     0.036 C 
BRANCH   5   7
HETATM    7  N   UNL     1     -41.039 -46.594  10.770  1.00  0.00    -0.297 N 
HETATM    8  C   UNL     1     -41.726 -45.480  11.178  1.00  0.00     0.118 A 
HETATM    9  C   UNL     1     -40.880 -44.406  10.994  1.00  0.00    -0.028 A 
HETATM   10  C   UNL     1     -41.143 -42.976  11.287  1.00  0.00     0.051 C 
HETATM   11  C   UNL     1     -39.707 -44.979  10.461  1.00  0.00     0.115 A 
HETATM   12  N   UNL     1     -39.800 -46.302  10.314  1.00  0.00    -0.309 N 
ATOM     13  HN  UNL     1     -39.099 -46.944   9.943  1.00  0.00     0.186 HD
ENDBRANCH   5   7
ENDBRANCH   3   5
ENDBRANCH   1   3
BRANCH   1  14
HETATM   14  C   UNL     1     -41.175 -51.209  12.260  1.00  0.00     0.303 C 
BRANCH  14  15
HETATM   15  C   UNL     1     -41.732 -52.596  11.871  1.00  0.00     0.174 C 
BRANCH  15  16
HETATM   16  O   UNL     1     -40.606 -53.370  11.423  1.00  0.00    -0.392 OA
HETATM   17  H   UNL     1     -40.556 -53.273  10.456  1.00  0.00     0.210 HD
ENDBRANCH  15  16
BRANCH  15  18
HETATM   18  C   UNL     1     -42.453 -53.253  13.076  1.00  0.00     0.305 C 
BRANCH  18  19
HETATM   19  N   UNL     1     -43.748 -52.659  13.488  1.00  0.00     0.095 N 
HETATM   20  C   UNL     1     -43.848 -52.648  14.969  1.00  0.00     0.298 C 
HETATM   21  C   UNL     1     -44.062 -54.044  15.592  1.00  0.00     0.198 C 
HETATM   22  O   UNL     1     -45.184 -54.729  15.011  1.00  0.00    -0.388 OA
HETATM   23  C   UNL     1     -45.069 -54.795  13.582  1.00  0.00     0.198 C 
HETATM   24  C   UNL     1     -44.929 -53.386  12.983  1.00  0.00     0.298 C 
ENDBRANCH  18  19
ENDBRANCH  15  18
ENDBRANCH  14  15
ENDBRANCH   1  14
TORSDOF 8
ENDMDL
MODEL 4
REMARK VINA RESULT:      -5.8      2.682      3.153
REMARK  8 active torsions:
REMARK  status: ('A' for Active; 'I' for Inactive)
REMARK    1  A    between atoms: C_2  and  N_3 
REMARK    2  A    between atoms: C_2  and  C_14 
REMARK    3  A    between atoms: N_3  and  C_4 
REMARK    4  A    between atoms: C_4  and  C_5 
REMARK    5  A    between atoms: C_5  and  O_6 
REMARK    6  A    between atoms: C_5  and  C_7 
REMARK    7  A    between atoms: C_7  and  N_8 
REMARK    8  A    between atoms: C_14  and  N_16 
ROOT
HETATM    1  N   UNL     1     -40.469 -50.480  11.095  1.00  0.00     0.092 N 
HETATM    2  H   UNL     1     -40.073 -51.218  10.508  1.00  0.00     0.316 HD
ENDROOT
BRANCH   1   3
HETATM    3  C   UNL     1     -39.409 -49.540  11.511  1.00  0.00     0.240 C 
HETATM    4  C   UNL     1     -38.161 -50.331  11.929  1.00  0.00     0.045 C 
BRANCH   3   5
HETATM    5  C   UNL     1     -39.851 -48.481  12.577  1.00  0.00     0.136 C 
HETATM    6  C   UNL     1     -38.969 -48.490  13.831  1.00  0.00     0.036 C 
BRANCH   5   7
HETATM    7  N   UNL     1     -39.914 -47.130  12.019  1.00  0.00    -0.297 N 
HETATM    8  C   UNL     1     -39.912 -45.944  12.706  1.00  0.00     0.118 A 
HETATM    9  C   UNL     1     -40.037 -44.942  11.766  1.00  0.00    -0.028 A 
HETATM   10  C   UNL     1     -40.080 -43.478  11.992  1.00  0.00     0.051 C 
HETATM   11  C   UNL     1     -40.117 -45.632  10.539  1.00  0.00     0.115 A 
HETATM   12  N   UNL     1     -40.053 -46.957  10.685  1.00  0.00    -0.309 N 
ATOM     13  HN  UNL     1     -40.099 -47.672   9.959  1.00  0.00     0.186 HD
ENDBRANCH   5   7
ENDBRANCH   3   5
ENDBRANCH   1   3
BRANCH   1  14
HETATM   14  C   UNL     1     -41.212 -51.084  12.199  1.00  0.00     0.303 C 
BRANCH  14  15
HETATM   15  C   UNL     1     -41.726 -52.509  11.895  1.00  0.00     0.174 C 
BRANCH  15  16
HETATM   16  O   UNL     1     -40.583 -53.265  11.461  1.00  0.00    -0.392 OA
HETATM   17  H   UNL     1     -40.611 -54.122  11.923  1.00  0.00     0.210 HD
ENDBRANCH  15  16
BRANCH  15  18
HETATM   18  C   UNL     1     -42.395 -53.127  13.151  1.00  0.00     0.305 C 
BRANCH  18  19
HETATM   19  N   UNL     1     -43.718 -52.584  13.542  1.00  0.00     0.095 N 
HETATM   20  C   UNL     1     -43.849 -52.596  15.021  1.00  0.00     0.298 C 
HETATM   21  C   UNL     1     -44.028 -54.007  15.621  1.00  0.00     0.198 C 
HETATM   22  O   UNL     1     -45.113 -54.722  15.007  1.00  0.00    -0.388 OA
HETATM   23  C   UNL     1     -44.965 -54.765  13.581  1.00  0.00     0.198 C 
HETATM   24  C   UNL     1     -44.862 -53.344  13.003  1.00  0.00     0.298 C 
ENDBRANCH  18  19
ENDBRANCH  15  18
ENDBRANCH  14  15
ENDBRANCH   1  14
TORSDOF 8
ENDMDL
MODEL 5
REMARK VINA RESULT:      -5.8      1.438      1.639
REMARK  8 active torsions:
REMARK  status: ('A' for Active; 'I' for Inactive)
REMARK    1  A    between atoms: C_2  and  N_3 
REMARK    2  A    between atoms: C_2  and  C_14 
REMARK    3  A    between atoms: N_3  and  C_4 
REMARK    4  A    between atoms: C_4  and  C_5 
REMARK    5  A    between atoms: C_5  and  O_6 
REMARK    6  A    between atoms: C_5  and  C_7 
REMARK    7  A    between atoms: C_7  and  N_8 
REMARK    8  A    between atoms: C_14  and  N_16 
ROOT
HETATM    1  N   UNL     1     -42.130 -49.991  11.794  1.00  0.00     0.092 N 
HETATM    2  H   UNL     1     -42.754 -50.400  11.096  1.00  0.00     0.316 HD
ENDROOT
BRANCH   1   3
HETATM    3  C   UNL     1     -41.254 -48.984  11.164  1.00  0.00     0.240 C 
HETATM    4  C   UNL     1     -39.891 -48.979  11.872  1.00  0.00     0.045 C 
BRANCH   3   5
HETATM    5  C   UNL     1     -41.883 -47.556  11.031  1.00  0.00     0.136 C 
HETATM    6  C   UNL     1     -40.855 -46.482  10.652  1.00  0.00     0.036 C 
BRANCH   5   7
HETATM    7  N   UNL     1     -43.002 -47.531  10.090  1.00  0.00    -0.297 N 
HETATM    8  C   UNL     1     -44.338 -47.438  10.385  1.00  0.00     0.118 A 
HETATM    9  C   UNL     1     -45.014 -47.503   9.184  1.00  0.00    -0.028 A 
HETATM   10  C   UNL     1     -46.477 -47.442   8.956  1.00  0.00     0.051 C 
HETATM   11  C   UNL     1     -43.992 -47.644   8.222  1.00  0.00     0.115 A 
HETATM   12  N   UNL     1     -42.773 -47.671   8.764  1.00  0.00    -0.309 N 
ATOM     13  HN  UNL     1     -41.876 -47.775   8.289  1.00  0.00     0.186 HD
ENDBRANCH   5   7
ENDBRANCH   3   5
ENDBRANCH   1   3
BRANCH   1  14
HETATM   14  C   UNL     1     -41.421 -51.059  12.496  1.00  0.00     0.303 C 
BRANCH  14  15
HETATM   15  C   UNL     1     -41.868 -52.478  12.083  1.00  0.00     0.174 C 
BRANCH  15  16
HETATM   16  O   UNL     1     -41.124 -52.805  10.898  1.00  0.00    -0.392 OA
HETATM   17  H   UNL     1     -41.456 -53.662  10.575  1.00  0.00     0.210 HD
ENDBRANCH  15  16
BRANCH  15  18
HETATM   18  C   UNL     1     -41.614 -53.487  13.232  1.00  0.00     0.305 C 
BRANCH  18  19
HETATM   19  N   UNL     1     -42.028 -53.071  14.594  1.00  0.00     0.095 N 
HETATM   20  C   UNL     1     -40.929 -53.337  15.557  1.00  0.00     0.298 C 
HETATM   21  C   UNL     1     -40.714 -54.834  15.863  1.00  0.00     0.198 C 
HETATM   22  O   UNL     1     -41.928 -55.479  16.284  1.00  0.00    -0.388 OA
HETATM   23  C   UNL     1     -42.981 -55.275  15.332  1.00  0.00     0.198 C 
HETATM   24  C   UNL     1     -43.222 -53.775  15.100  1.00  0.00     0.298 C 
ENDBRANCH  18  19
ENDBRANCH  15  18
ENDBRANCH  14  15
ENDBRANCH   1  14
TORSDOF 8
ENDMDL
MODEL 6
REMARK VINA RESULT:      -5.6      3.599      6.732
REMARK  8 active torsions:
REMARK  status: ('A' for Active; 'I' for Inactive)
REMARK    1  A    between atoms: C_2  and  N_3 
REMARK    2  A    between atoms: C_2  and  C_14 
REMARK    3  A    between atoms: N_3  and  C_4 
REMARK    4  A    between atoms: C_4  and  C_5 
REMARK    5  A    between atoms: C_5  and  O_6 
REMARK    6  A    between atoms: C_5  and  C_7 
REMARK    7  A    between atoms: C_7  and  N_8 
REMARK    8  A    between atoms: C_14  and  N_16 
ROOT
HETATM    1  N   UNL     1     -43.425 -53.203  12.172  1.00  0.00     0.092 N 
HETATM    2  H   UNL     1     -43.891 -53.119  11.266  1.00  0.00     0.316 HD
ENDROOT
BRANCH   1   3
HETATM    3  C   UNL     1     -44.414 -53.102  13.263  1.00  0.00     0.240 C 
HETATM    4  C   UNL     1     -45.226 -54.403  13.338  1.00  0.00     0.045 C 
BRANCH   3   5
HETATM    5  C   UNL     1     -45.310 -51.819  13.223  1.00  0.00     0.136 C 
HETATM    6  C   UNL     1     -46.519 -51.962  12.291  1.00  0.00     0.036 C 
BRANCH   5   7
HETATM    7  N   UNL     1     -45.752 -51.411  14.557  1.00  0.00    -0.297 N 
HETATM    8  C   UNL     1     -44.987 -50.878  15.562  1.00  0.00     0.118 A 
HETATM    9  C   UNL     1     -45.823 -50.702  16.644  1.00  0.00    -0.028 A 
HETATM   10  C   UNL     1     -45.486 -50.151  17.978  1.00  0.00     0.051 C 
HETATM   11  C   UNL     1     -47.074 -51.170  16.191  1.00  0.00     0.115 A 
HETATM   12  N   UNL     1     -47.036 -51.610  14.932  1.00  0.00    -0.309 N 
ATOM     13  HN  UNL     1     -47.799 -52.004  14.381  1.00  0.00     0.186 HD
ENDBRANCH   5   7
ENDBRANCH   3   5
ENDBRANCH   1   3
BRANCH   1  14
HETATM   14  C   UNL     1     -42.336 -52.232  12.249  1.00  0.00     0.303 C 
BRANCH  14  15
HETATM   15  C   UNL     1     -40.946 -52.873  12.462  1.00  0.00     0.174 C 
BRANCH  15  16
HETATM   16  O   UNL     1     -40.564 -53.434  11.195  1.00  0.00    -0.392 OA
HETATM   17  H   UNL     1     -39.879 -52.854  10.817  1.00  0.00     0.210 HD
ENDBRANCH  15  16
BRANCH  15  18
HETATM   18  C   UNL     1     -39.929 -51.816  12.966  1.00  0.00     0.305 C 
BRANCH  18  19
HETATM   19  N   UNL     1     -40.265 -50.392  12.722  1.00  0.00     0.095 N 
HETATM   20  C   UNL     1     -39.475 -49.878  11.574  1.00  0.00     0.298 C 
HETATM   21  C   UNL     1     -37.977 -49.679  11.885  1.00  0.00     0.198 C 
HETATM   22  O   UNL     1     -37.771 -48.864  13.051  1.00  0.00    -0.388 OA
HETATM   23  C   UNL     1     -38.485 -49.385  14.181  1.00  0.00     0.198 C 
HETATM   24  C   UNL     1     -39.985 -49.505  13.867  1.00  0.00     0.298 C 
ENDBRANCH  18  19
ENDBRANCH  15  18
ENDBRANCH  14  15
ENDBRANCH   1  14
TORSDOF 8
ENDMDL
MODEL 7
REMARK VINA RESULT:      -5.6      1.673      2.300
REMARK  8 active torsions:
REMARK  status: ('A' for Active; 'I' for Inactive)
REMARK    1  A    between atoms: C_2  and  N_3 
REMARK    2  A    between atoms: C_2  and  C_14 
REMARK    3  A    between atoms: N_3  and  C_4 
REMARK    4  A    between atoms: C_4  and  C_5 
REMARK    5  A    between atoms: C_5  and  O_6 
REMARK    6  A    between atoms: C_5  and  C_7 
REMARK    7  A    between atoms: C_7  and  N_8 
REMARK    8  A    between atoms: C_14  and  N_16 
ROOT
HETATM    1  N   UNL     1     -39.505 -51.225  12.047  1.00  0.00     0.092 N 
HETATM    2  H   UNL     1     -38.791 -51.503  12.723  1.00  0.00     0.316 HD
ENDROOT
BRANCH   1   3
HETATM    3  C   UNL     1     -39.237 -49.858  11.559  1.00  0.00     0.240 C 
HETATM    4  C   UNL     1     -37.725 -49.593  11.587  1.00  0.00     0.045 C 
BRANCH   3   5
HETATM    5  C   UNL     1     -40.072 -48.733  12.259  1.00  0.00     0.136 C 
HETATM    6  C   UNL     1     -39.197 -47.690  12.965  1.00  0.00     0.036 C 
BRANCH   5   7
HETATM    7  N   UNL     1     -40.992 -48.071  11.335  1.00  0.00    -0.297 N 
HETATM    8  C   UNL     1     -41.481 -46.793  11.417  1.00  0.00     0.118 A 
HETATM    9  C   UNL     1     -42.348 -46.632  10.356  1.00  0.00    -0.028 A 
HETATM   10  C   UNL     1     -43.133 -45.428   9.993  1.00  0.00     0.051 C 
HETATM   11  C   UNL     1     -42.319 -47.879   9.697  1.00  0.00     0.115 A 
HETATM   12  N   UNL     1     -41.508 -48.758  10.289  1.00  0.00    -0.309 N 
ATOM     13  HN  UNL     1     -41.321 -49.722  10.016  1.00  0.00     0.186 HD
ENDBRANCH   5   7
ENDBRANCH   3   5
ENDBRANCH   1   3
BRANCH   1  14
HETATM   14  C   UNL     1     -40.830 -51.410  12.636  1.00  0.00     0.303 C 
BRANCH  14  15
HETATM   15  C   UNL     1     -41.560 -52.676  12.138  1.00  0.00     0.174 C 
BRANCH  15  16
HETATM   16  O   UNL     1     -40.587 -53.441  11.408  1.00  0.00    -0.392 OA
HETATM   17  H   UNL     1     -39.785 -53.489  11.959  1.00  0.00     0.210 HD
ENDBRANCH  15  16
BRANCH  15  18
HETATM   18  C   UNL     1     -42.154 -53.470  13.330  1.00  0.00     0.305 C 
BRANCH  18  19
HETATM   19  N   UNL     1     -43.471 -54.116  13.116  1.00  0.00     0.095 N 
HETATM   20  C   UNL     1     -44.427 -53.134  12.542  1.00  0.00     0.298 C 
HETATM   21  C   UNL     1     -44.893 -52.057  13.543  1.00  0.00     0.198 C 
HETATM   22  O   UNL     1     -45.420 -52.633  14.750  1.00  0.00    -0.388 OA
HETATM   23  C   UNL     1     -44.481 -53.541  15.344  1.00  0.00     0.198 C 
HETATM   24  C   UNL     1     -44.088 -54.644  14.348  1.00  0.00     0.298 C 
ENDBRANCH  18  19
ENDBRANCH  15  18
ENDBRANCH  14  15
ENDBRANCH   1  14
TORSDOF 8
ENDMDL
MODEL 8
REMARK VINA RESULT:      -5.3      3.878      6.557
REMARK  8 active torsions:
REMARK  status: ('A' for Active; 'I' for Inactive)
REMARK    1  A    between atoms: C_2  and  N_3 
REMARK    2  A    between atoms: C_2  and  C_14 
REMARK    3  A    between atoms: N_3  and  C_4 
REMARK    4  A    between atoms: C_4  and  C_5 
REMARK    5  A    between atoms: C_5  and  O_6 
REMARK    6  A    between atoms: C_5  and  C_7 
REMARK    7  A    between atoms: C_7  and  N_8 
REMARK    8  A    between atoms: C_14  and  N_16 
ROOT
HETATM    1  N   UNL     1     -40.688 -52.286  12.445  1.00  0.00     0.092 N 
HETATM    2  H   UNL     1     -40.634 -53.085  11.808  1.00  0.00     0.316 HD
ENDROOT
BRANCH   1   3
HETATM    3  C   UNL     1     -41.335 -52.687  13.709  1.00  0.00     0.240 C 
HETATM    4  C   UNL     1     -40.261 -53.133  14.713  1.00  0.00     0.045 C 
BRANCH   3   5
HETATM    5  C   UNL     1     -42.499 -53.722  13.553  1.00  0.00     0.136 C 
HETATM    6  C   UNL     1     -42.511 -54.782  14.663  1.00  0.00     0.036 C 
BRANCH   5   7
HETATM    7  N   UNL     1     -43.807 -53.074  13.467  1.00  0.00    -0.297 N 
HETATM    8  C   UNL     1     -44.527 -52.508  14.488  1.00  0.00     0.118 A 
HETATM    9  C   UNL     1     -45.714 -52.070  13.940  1.00  0.00    -0.028 A 
HETATM   10  C   UNL     1     -46.837 -51.383  14.622  1.00  0.00     0.051 C 
HETATM   11  C   UNL     1     -45.617 -52.429  12.579  1.00  0.00     0.115 A 
HETATM   12  N   UNL     1     -44.470 -53.045  12.288  1.00  0.00    -0.309 N 
ATOM     13  HN  UNL     1     -44.164 -53.410  11.386  1.00  0.00     0.186 HD
ENDBRANCH   5   7
ENDBRANCH   3   5
ENDBRANCH   1   3
BRANCH   1  14
HETATM   14  C   UNL     1     -41.331 -51.165  11.762  1.00  0.00     0.303 C 
BRANCH  14  15
HETATM   15  C   UNL     1     -40.345 -50.069  11.302  1.00  0.00     0.174 C 
BRANCH  15  16
HETATM   16  O   UNL     1     -41.024 -49.320  10.281  1.00  0.00    -0.392 OA
HETATM   17  H   UNL     1     -41.638 -48.711  10.730  1.00  0.00     0.210 HD
ENDBRANCH  15  16
BRANCH  15  18
HETATM   18  C   UNL     1     -39.920 -49.179  12.499  1.00  0.00     0.305 C 
BRANCH  18  19
HETATM   19  N   UNL     1     -38.512 -48.715  12.522  1.00  0.00     0.095 N 
HETATM   20  C   UNL     1     -37.612 -49.815  12.092  1.00  0.00     0.298 C 
HETATM   21  C   UNL     1     -37.466 -50.946  13.131  1.00  0.00     0.198 C 
HETATM   22  O   UNL     1     -37.079 -50.447  14.422  1.00  0.00    -0.388 OA
HETATM   23  C   UNL     1     -37.976 -49.423  14.873  1.00  0.00     0.198 C 
HETATM   24  C   UNL     1     -38.047 -48.275  13.852  1.00  0.00     0.298 C 
ENDBRANCH  18  19
ENDBRANCH  15  18
ENDBRANCH  14  15
ENDBRANCH   1  14
TORSDOF 8
ENDMDL
MODEL 9
REMARK VINA RESULT:      -5.3      2.779      6.512
REMARK  8 active torsions:
REMARK  status: ('A' for Active; 'I' for Inactive)
REMARK    1  A    between atoms: C_2  and  N_3 
REMARK    2  A    between atoms: C_2  and  C_14 
REMARK    3  A    between atoms: N_3  and  C_4 
REMARK    4  A    between atoms: C_4  and  C_5 
REMARK    5  A    between atoms: C_5  and  O_6 
REMARK    6  A    between atoms: C_5  and  C_7 
REMARK    7  A    between atoms: C_7  and  N_8 
REMARK    8  A    between atoms: C_14  and  N_16 
ROOT
HETATM    1  N   UNL     1     -41.693 -51.508  13.297  1.00  0.00     0.092 N 
HETATM    2  H   UNL     1     -41.210 -50.815  13.873  1.00  0.00     0.316 HD
ENDROOT
BRANCH   1   3
HETATM    3  C   UNL     1     -41.534 -52.853  13.884  1.00  0.00     0.240 C 
HETATM    4  C   UNL     1     -40.210 -53.466  13.406  1.00  0.00     0.045 C 
BRANCH   3   5
HETATM    5  C   UNL     1     -42.760 -53.807  13.684  1.00  0.00     0.136 C 
HETATM    6  C   UNL     1     -42.842 -54.909  14.748  1.00  0.00     0.036 C 
BRANCH   5   7
HETATM    7  N   UNL     1     -44.025 -53.076  13.623  1.00  0.00    -0.297 N 
HETATM    8  C   UNL     1     -44.754 -52.581  14.674  1.00  0.00     0.118 A 
HETATM    9  C   UNL     1     -45.891 -52.016  14.135  1.00  0.00    -0.028 A 
HETATM   10  C   UNL     1     -47.002 -51.342  14.848  1.00  0.00     0.051 C 
HETATM   11  C   UNL     1     -45.757 -52.231  12.747  1.00  0.00     0.115 A 
HETATM   12  N   UNL     1     -44.635 -52.880  12.431  1.00  0.00    -0.309 N 
ATOM     13  HN  UNL     1     -44.312 -53.162  11.506  1.00  0.00     0.186 HD
ENDBRANCH   5   7
ENDBRANCH   3   5
ENDBRANCH   1   3
BRANCH   1  14
HETATM   14  C   UNL     1     -41.237 -51.392  11.913  1.00  0.00     0.303 C 
BRANCH  14  15
HETATM   15  C   UNL     1     -40.326 -50.171  11.660  1.00  0.00     0.174 C 
BRANCH  15  16
HETATM   16  O   UNL     1     -40.116 -50.114  10.239  1.00  0.00    -0.392 OA
HETATM   17  H   UNL     1     -40.974 -49.904   9.829  1.00  0.00     0.210 HD
ENDBRANCH  15  16
BRANCH  15  18
HETATM   18  C   UNL     1     -40.981 -48.877  12.208  1.00  0.00     0.305 C 
BRANCH  18  19
HETATM   19  N   UNL     1     -41.837 -48.110  11.271  1.00  0.00     0.095 N 
HETATM   20  C   UNL     1     -41.157 -46.846  10.888  1.00  0.00     0.298 C 
HETATM   21  C   UNL     1     -41.107 -45.796  12.018  1.00  0.00     0.198 C 
HETATM   22  O   UNL     1     -42.409 -45.528  12.565  1.00  0.00    -0.388 OA
HETATM   23  C   UNL     1     -43.052 -46.738  12.990  1.00  0.00     0.198 C 
HETATM   24  C   UNL     1     -43.153 -47.738  11.827  1.00  0.00     0.298 C 
ENDBRANCH  18  19
ENDBRANCH  15  18
ENDBRANCH  14  15
ENDBRANCH   1  14
TORSDOF 8
ENDMDL
