MODEL 1
REMARK VINA RESULT:      -4.8      0.000      0.000
REMARK  4 active torsions:
REMARK  status: ('A' for Active; 'I' for Inactive)
REMARK    1  A    between atoms: N_6  and  C_7 
REMARK    2  A    between atoms: C_7  and  C_8 
REMARK    3  A    between atoms: C_8  and  O_9 
REMARK    4  A    between atoms: C_8  and  C_10 
ROOT
HETATM    1  C   UNL     3     -44.363 -47.264   8.948  1.00  0.00    -0.013 A 
HETATM    2  C   UNL     3     -45.632 -47.444   9.527  1.00  0.00     0.012 A 
HETATM    3  C   UNL     3     -46.590 -48.234   8.890  1.00  0.00     0.018 A 
HETATM    4  C   UNL     3     -46.276 -48.844   7.672  1.00  0.00     0.087 A 
HETATM    5  N   UNL     3     -45.049 -48.660   7.119  1.00  0.00    -0.375 N 
ATOM      6  HN  UNL     3     -44.834 -49.108   6.228  1.00  0.00     0.164 HD
HETATM    7  C   UNL     3     -44.099 -47.897   7.720  1.00  0.00     0.097 A 
ENDROOT
BRANCH   1   8
HETATM    8  C   UNL     3     -43.291 -46.427   9.619  1.00  0.00     0.180 C 
BRANCH   8   9
HETATM    9  C   UNL     3     -42.564 -47.188  10.746  1.00  0.00     0.305 C 
BRANCH   9  10
HETATM   10  N   UNL     3     -41.410 -47.914  10.201  1.00  0.00     0.082 N 
HETATM   11  C   UNL     3     -41.014 -49.024  11.067  1.00  0.00     0.306 C 
HETATM   12  H   UNL     3     -41.650 -48.305   9.260  1.00  0.00     0.315 HD
ENDBRANCH   9  10
ENDBRANCH   8   9
BRANCH   8  13
HETATM   13  O   UNL     3     -42.380 -45.940   8.664  1.00  0.00    -0.389 OA
HETATM   14  H   UNL     3     -41.496 -45.843   9.106  1.00  0.00     0.210 HD
ENDBRANCH   8  13
ENDBRANCH   1   8
TORSDOF 4
ENDMDL
MODEL 2
REMARK VINA RESULT:      -4.6      7.207      8.781
REMARK  4 active torsions:
REMARK  status: ('A' for Active; 'I' for Inactive)
REMARK    1  A    between atoms: N_6  and  C_7 
REMARK    2  A    between atoms: C_7  and  C_8 
REMARK    3  A    between atoms: C_8  and  O_9 
REMARK    4  A    between atoms: C_8  and  C_10 
ROOT
HETATM    1  C   UNL     3     -43.145 -54.018  13.595  1.00  0.00    -0.013 A 
HETATM    2  C   UNL     3     -41.766 -54.231  13.772  1.00  0.00     0.012 A 
HETATM    3  C   UNL     3     -40.843 -53.583  12.948  1.00  0.00     0.018 A 
HETATM    4  C   UNL     3     -41.304 -52.722  11.949  1.00  0.00     0.087 A 
HETATM    5  N   UNL     3     -42.638 -52.527  11.784  1.00  0.00    -0.375 N 
ATOM      6  HN  UNL     3     -42.961 -51.899  11.048  1.00  0.00     0.164 HD
HETATM    7  C   UNL     3     -43.556 -53.145  12.572  1.00  0.00     0.097 A 
ENDROOT
BRANCH   1   8
HETATM    8  C   UNL     3     -44.175 -54.691  14.481  1.00  0.00     0.180 C 
BRANCH   8   9
HETATM    9  C   UNL     3     -45.426 -55.142  13.700  1.00  0.00     0.305 C 
BRANCH   9  10
HETATM   10  N   UNL     3     -46.641 -54.786  14.444  1.00  0.00     0.082 N 
HETATM   11  C   UNL     3     -46.712 -53.348  14.704  1.00  0.00     0.306 C 
HETATM   12  H   UNL     3     -47.487 -55.059  13.891  1.00  0.00     0.315 HD
ENDBRANCH   9  10
ENDBRANCH   8   9
BRANCH   8  13
HETATM   13  O   UNL     3     -43.596 -55.768  15.176  1.00  0.00    -0.389 OA
HETATM   14  H   UNL     3     -44.012 -55.811  16.077  1.00  0.00     0.210 HD
ENDBRANCH   8  13
ENDBRANCH   1   8
TORSDOF 4
ENDMDL
MODEL 3
REMARK VINA RESULT:      -4.4      7.033      7.724
REMARK  4 active torsions:
REMARK  status: ('A' for Active; 'I' for Inactive)
REMARK    1  A    between atoms: N_6  and  C_7 
REMARK    2  A    between atoms: C_7  and  C_8 
REMARK    3  A    between atoms: C_8  and  O_9 
REMARK    4  A    between atoms: C_8  and  C_10 
ROOT
HETATM    1  C   UNL     3     -45.866 -52.411  14.084  1.00  0.00    -0.013 A 
HETATM    2  C   UNL     3     -46.767 -51.410  14.492  1.00  0.00     0.012 A 
HETATM    3  C   UNL     3     -47.209 -51.360  15.816  1.00  0.00     0.018 A 
HETATM    4  C   UNL     3     -46.747 -52.312  16.728  1.00  0.00     0.087 A 
HETATM    5  N   UNL     3     -45.881 -53.276  16.323  1.00  0.00    -0.375 N 
ATOM      6  HN  UNL     3     -45.555 -53.967  16.999  1.00  0.00     0.164 HD
HETATM    7  C   UNL     3     -45.436 -53.346  15.041  1.00  0.00     0.097 A 
ENDROOT
BRANCH   1   8
HETATM    8  C   UNL     3     -45.351 -52.487  12.660  1.00  0.00     0.180 C 
BRANCH   8   9
HETATM    9  C   UNL     3     -44.257 -53.559  12.481  1.00  0.00     0.305 C 
BRANCH   9  10
HETATM   10  N   UNL     3     -43.068 -52.967  11.855  1.00  0.00     0.082 N 
HETATM   11  C   UNL     3     -42.137 -52.442  12.855  1.00  0.00     0.306 C 
HETATM   12  H   UNL     3     -42.566 -53.692  11.293  1.00  0.00     0.315 HD
ENDBRANCH   9  10
ENDBRANCH   8   9
BRANCH   8  13
HETATM   13  O   UNL     3     -46.416 -52.694  11.764  1.00  0.00    -0.389 OA
HETATM   14  H   UNL     3     -46.212 -52.200  10.926  1.00  0.00     0.210 HD
ENDBRANCH   8  13
ENDBRANCH   1   8
TORSDOF 4
ENDMDL
MODEL 4
REMARK VINA RESULT:      -4.3      5.844      7.229
REMARK  4 active torsions:
REMARK  status: ('A' for Active; 'I' for Inactive)
REMARK    1  A    between atoms: N_6  and  C_7 
REMARK    2  A    between atoms: C_7  and  C_8 
REMARK    3  A    between atoms: C_8  and  O_9 
REMARK    4  A    between atoms: C_8  and  C_10 
ROOT
HETATM    1  C   UNL     3     -42.603 -53.427  12.740  1.00  0.00    -0.013 A 
HETATM    2  C   UNL     3     -42.104 -54.120  13.859  1.00  0.00     0.012 A 
HETATM    3  C   UNL     3     -42.977 -54.788  14.719  1.00  0.00     0.018 A 
HETATM    4  C   UNL     3     -44.349 -54.762  14.457  1.00  0.00     0.087 A 
HETATM    5  N   UNL     3     -44.821 -54.087  13.377  1.00  0.00    -0.375 N 
ATOM      6  HN  UNL     3     -45.826 -54.073  13.201  1.00  0.00     0.164 HD
HETATM    7  C   UNL     3     -43.993 -53.429  12.525  1.00  0.00     0.097 A 
ENDROOT
BRANCH   1   8
HETATM    8  C   UNL     3     -41.684 -52.704  11.775  1.00  0.00     0.180 C 
BRANCH   8   9
HETATM    9  C   UNL     3     -41.344 -51.274  12.238  1.00  0.00     0.305 C 
BRANCH   9  10
HETATM   10  N   UNL     3     -40.733 -50.519  11.137  1.00  0.00     0.082 N 
HETATM   11  C   UNL     3     -39.548 -49.784  11.579  1.00  0.00     0.306 C 
HETATM   12  H   UNL     3     -40.443 -51.175  10.376  1.00  0.00     0.315 HD
ENDBRANCH   9  10
ENDBRANCH   8   9
BRANCH   8  13
HETATM   13  O   UNL     3     -40.517 -53.457  11.552  1.00  0.00    -0.389 OA
HETATM   14  H   UNL     3     -40.722 -54.146  10.867  1.00  0.00     0.210 HD
ENDBRANCH   8  13
ENDBRANCH   1   8
TORSDOF 4
ENDMDL
MODEL 5
REMARK VINA RESULT:      -4.2      5.851      7.305
REMARK  4 active torsions:
REMARK  status: ('A' for Active; 'I' for Inactive)
REMARK    1  A    between atoms: N_6  and  C_7 
REMARK    2  A    between atoms: C_7  and  C_8 
REMARK    3  A    between atoms: C_8  and  O_9 
REMARK    4  A    between atoms: C_8  and  C_10 
ROOT
HETATM    1  C   UNL     3     -42.491 -53.445  12.761  1.00  0.00    -0.013 A 
HETATM    2  C   UNL     3     -43.874 -53.648  12.602  1.00  0.00     0.012 A 
HETATM    3  C   UNL     3     -44.597 -54.351  13.567  1.00  0.00     0.018 A 
HETATM    4  C   UNL     3     -43.934 -54.849  14.692  1.00  0.00     0.087 A 
HETATM    5  N   UNL     3     -42.597 -54.651  14.834  1.00  0.00    -0.375 N 
ATOM      6  HN  UNL     3     -42.125 -55.024  15.658  1.00  0.00     0.164 HD
HETATM    7  C   UNL     3     -41.872 -53.971  13.909  1.00  0.00     0.097 A 
ENDROOT
BRANCH   1   8
HETATM    8  C   UNL     3     -41.676 -52.673  11.743  1.00  0.00     0.180 C 
BRANCH   8   9
HETATM    9  C   UNL     3     -41.338 -51.244  12.213  1.00  0.00     0.305 C 
BRANCH   9  10
HETATM   10  N   UNL     3     -40.685 -50.497  11.131  1.00  0.00     0.082 N 
HETATM   11  C   UNL     3     -39.477 -49.817  11.598  1.00  0.00     0.306 C 
HETATM   12  H   UNL     3     -40.412 -51.153  10.363  1.00  0.00     0.315 HD
ENDBRANCH   9  10
ENDBRANCH   8   9
BRANCH   8  13
HETATM   13  O   UNL     3     -40.510 -53.385  11.405  1.00  0.00    -0.389 OA
HETATM   14  H   UNL     3     -40.534 -54.256  11.880  1.00  0.00     0.210 HD
ENDBRANCH   8  13
ENDBRANCH   1   8
TORSDOF 4
ENDMDL
MODEL 6
REMARK VINA RESULT:      -4.2      7.431      8.196
REMARK  4 active torsions:
REMARK  status: ('A' for Active; 'I' for Inactive)
REMARK    1  A    between atoms: N_6  and  C_7 
REMARK    2  A    between atoms: C_7  and  C_8 
REMARK    3  A    between atoms: C_8  and  O_9 
REMARK    4  A    between atoms: C_8  and  C_10 
ROOT
HETATM    1  C   UNL     3     -42.324 -53.698  13.219  1.00  0.00    -0.013 A 
HETATM    2  C   UNL     3     -43.495 -53.392  12.501  1.00  0.00     0.012 A 
HETATM    3  C   UNL     3     -44.726 -53.906  12.913  1.00  0.00     0.018 A 
HETATM    4  C   UNL     3     -44.783 -54.725  14.043  1.00  0.00     0.087 A 
HETATM    5  N   UNL     3     -43.646 -55.018  14.726  1.00  0.00    -0.375 N 
ATOM      6  HN  UNL     3     -43.701 -55.621  15.546  1.00  0.00     0.164 HD
HETATM    7  C   UNL     3     -42.436 -54.530  14.346  1.00  0.00     0.097 A 
ENDROOT
BRANCH   1   8
HETATM    8  C   UNL     3     -40.973 -53.144  12.812  1.00  0.00     0.180 C 
BRANCH   8   9
HETATM    9  C   UNL     3     -39.921 -53.263  13.933  1.00  0.00     0.305 C 
BRANCH   9  10
HETATM   10  N   UNL     3     -39.087 -54.452  13.719  1.00  0.00     0.082 N 
HETATM   11  C   UNL     3     -38.799 -55.143  14.977  1.00  0.00     0.306 C 
HETATM   12  H   UNL     3     -39.582 -55.122  13.086  1.00  0.00     0.315 HD
ENDBRANCH   9  10
ENDBRANCH   8   9
BRANCH   8  13
HETATM   13  O   UNL     3     -40.526 -53.761  11.629  1.00  0.00    -0.389 OA
HETATM   14  H   UNL     3     -39.813 -53.191  11.236  1.00  0.00     0.210 HD
ENDBRANCH   8  13
ENDBRANCH   1   8
TORSDOF 4
ENDMDL
MODEL 7
REMARK VINA RESULT:      -4.2      6.652      7.365
REMARK  4 active torsions:
REMARK  status: ('A' for Active; 'I' for Inactive)
REMARK    1  A    between atoms: N_6  and  C_7 
REMARK    2  A    between atoms: C_7  and  C_8 
REMARK    3  A    between atoms: C_8  and  O_9 
REMARK    4  A    between atoms: C_8  and  C_10 
ROOT
HETATM    1  C   UNL     3     -45.269 -52.765  13.656  1.00  0.00    -0.013 A 
HETATM    2  C   UNL     3     -46.004 -51.567  13.714  1.00  0.00     0.012 A 
HETATM    3  C   UNL     3     -46.885 -51.333  14.772  1.00  0.00     0.018 A 
HETATM    4  C   UNL     3     -47.028 -52.301  15.770  1.00  0.00     0.087 A 
HETATM    5  N   UNL     3     -46.317 -53.456  15.701  1.00  0.00    -0.375 N 
ATOM      6  HN  UNL     3     -46.435 -54.155  16.434  1.00  0.00     0.164 HD
HETATM    7  C   UNL     3     -45.454 -53.707  14.683  1.00  0.00     0.097 A 
ENDROOT
BRANCH   1   8
HETATM    8  C   UNL     3     -44.291 -53.046  12.532  1.00  0.00     0.180 C 
BRANCH   8   9
HETATM    9  C   UNL     3     -42.851 -52.613  12.876  1.00  0.00     0.305 C 
BRANCH   9  10
HETATM   10  N   UNL     3     -42.089 -52.371  11.645  1.00  0.00     0.082 N 
HETATM   11  C   UNL     3     -40.975 -51.450  11.873  1.00  0.00     0.306 C 
HETATM   12  H   UNL     3     -41.696 -53.274  11.289  1.00  0.00     0.315 HD
ENDBRANCH   9  10
ENDBRANCH   8   9
BRANCH   8  13
HETATM   13  O   UNL     3     -44.339 -54.404  12.167  1.00  0.00    -0.389 OA
HETATM   14  H   UNL     3     -45.193 -54.562  11.686  1.00  0.00     0.210 HD
ENDBRANCH   8  13
ENDBRANCH   1   8
TORSDOF 4
ENDMDL
MODEL 8
REMARK VINA RESULT:      -4.1      7.371      9.070
REMARK  4 active torsions:
REMARK  status: ('A' for Active; 'I' for Inactive)
REMARK    1  A    between atoms: N_6  and  C_7 
REMARK    2  A    between atoms: C_7  and  C_8 
REMARK    3  A    between atoms: C_8  and  O_9 
REMARK    4  A    between atoms: C_8  and  C_10 
ROOT
HETATM    1  C   UNL     3     -40.861 -53.939  13.773  1.00  0.00    -0.013 A 
HETATM    2  C   UNL     3     -41.961 -54.450  14.487  1.00  0.00     0.012 A 
HETATM    3  C   UNL     3     -43.258 -54.271  14.002  1.00  0.00     0.018 A 
HETATM    4  C   UNL     3     -43.452 -53.581  12.802  1.00  0.00     0.087 A 
HETATM    5  N   UNL     3     -42.383 -53.088  12.124  1.00  0.00    -0.375 N 
ATOM      6  HN  UNL     3     -42.540 -52.583  11.251  1.00  0.00     0.164 HD
HETATM    7  C   UNL     3     -41.112 -53.249  12.574  1.00  0.00     0.097 A 
ENDROOT
BRANCH   1   8
HETATM    8  C   UNL     3     -39.438 -54.128  14.260  1.00  0.00     0.180 C 
BRANCH   8   9
HETATM    9  C   UNL     3     -39.360 -54.950  15.562  1.00  0.00     0.305 C 
BRANCH   9  10
HETATM   10  N   UNL     3     -38.084 -55.673  15.627  1.00  0.00     0.082 N 
HETATM   11  C   UNL     3     -37.591 -55.774  17.001  1.00  0.00     0.306 C 
HETATM   12  H   UNL     3     -38.207 -56.642  15.253  1.00  0.00     0.315 HD
ENDBRANCH   9  10
ENDBRANCH   8   9
BRANCH   8  13
HETATM   13  O   UNL     3     -38.646 -54.703  13.248  1.00  0.00    -0.389 OA
HETATM   14  H   UNL     3     -38.644 -55.687  13.383  1.00  0.00     0.210 HD
ENDBRANCH   8  13
ENDBRANCH   1   8
TORSDOF 4
ENDMDL
MODEL 9
REMARK VINA RESULT:      -4.1      1.625      4.621
REMARK  4 active torsions:
REMARK  status: ('A' for Active; 'I' for Inactive)
REMARK    1  A    between atoms: N_6  and  C_7 
REMARK    2  A    between atoms: C_7  and  C_8 
REMARK    3  A    between atoms: C_8  and  O_9 
REMARK    4  A    between atoms: C_8  and  C_10 
ROOT
HETATM    1  C   UNL     3     -42.380 -46.635   9.788  1.00  0.00    -0.013 A 
HETATM    2  C   UNL     3     -41.656 -45.590  10.391  1.00  0.00     0.012 A 
HETATM    3  C   UNL     3     -40.565 -45.875  11.214  1.00  0.00     0.018 A 
HETATM    4  C   UNL     3     -40.200 -47.206  11.432  1.00  0.00     0.087 A 
HETATM    5  N   UNL     3     -40.908 -48.208  10.848  1.00  0.00    -0.375 N 
ATOM      6  HN  UNL     3     -40.634 -49.175  11.019  1.00  0.00     0.164 HD
HETATM    7  C   UNL     3     -41.973 -47.957  10.043  1.00  0.00     0.097 A 
ENDROOT
BRANCH   1   8
HETATM    8  C   UNL     3     -43.559 -46.364   8.874  1.00  0.00     0.180 C 
BRANCH   8   9
HETATM    9  C   UNL     3     -44.344 -47.644   8.523  1.00  0.00     0.305 C 
BRANCH   9  10
HETATM   10  N   UNL     3     -45.406 -47.872   9.511  1.00  0.00     0.082 N 
HETATM   11  C   UNL     3     -46.664 -48.260   8.871  1.00  0.00     0.306 C 
HETATM   12  H   UNL     3     -45.123 -48.639  10.164  1.00  0.00     0.315 HD
ENDBRANCH   9  10
ENDBRANCH   8   9
BRANCH   8  13
HETATM   13  O   UNL     3     -44.403 -45.390   9.438  1.00  0.00    -0.389 OA
HETATM   14  H   UNL     3     -45.329 -45.747   9.435  1.00  0.00     0.210 HD
ENDBRANCH   8  13
ENDBRANCH   1   8
TORSDOF 4
ENDMDL
