MODEL 1
REMARK VINA RESULT:      -6.9      0.000      0.000
REMARK  4 active torsions:
REMARK  status: ('A' for Active; 'I' for Inactive)
REMARK    1  A    between atoms: N_10  and  C_11 
REMARK    2  A    between atoms: C_11  and  C_12 
REMARK    3  A    between atoms: C_12  and  O_13 
REMARK    4  A    between atoms: C_12  and  C_14 
ROOT
HETATM    1  C   UNL     1     -41.237 -55.707  16.722  1.00  0.00     0.181 C 
HETATM    2  N   UNL     1     -41.239 -54.940  15.493  1.00  0.00    -0.261 N 
HETATM    3  N   UNL     1     -40.035 -54.288  15.172  1.00  0.00    -0.306 N 
ATOM      4  HN  UNL     1     -39.216 -54.398  15.768  1.00  0.00     0.186 HD
HETATM    5  C   UNL     1     -39.976 -53.542  14.107  1.00  0.00     0.122 A 
HETATM    6  C   UNL     1     -41.128 -53.365  13.281  1.00  0.00     0.032 A 
HETATM    7  C   UNL     1     -41.404 -52.621  12.130  1.00  0.00     0.122 A 
HETATM    8  N   UNL     1     -42.682 -52.743  11.755  1.00  0.00    -0.308 N 
ATOM      9  HN  UNL     1     -43.146 -52.306  10.959  1.00  0.00     0.186 HD
HETATM   10  N   UNL     1     -43.220 -53.581  12.679  1.00  0.00    -0.284 N 
HETATM   11  C   UNL     1     -42.303 -53.995  13.602  1.00  0.00     0.133 A 
HETATM   12  C   UNL     1     -42.429 -54.862  14.736  1.00  0.00     0.290 A 
HETATM   13  O   UNL     1     -43.466 -55.453  15.027  1.00  0.00    -0.264 OA
ENDROOT
BRANCH  10  14
HETATM   14  C   UNL     1     -44.662 -53.776  12.690  1.00  0.00     0.186 C 
BRANCH  14  15
HETATM   15  C   UNL     1     -45.444 -52.459  12.714  1.00  0.00     0.171 C 
BRANCH  15  16
HETATM   16  O   UNL     1     -46.770 -52.666  12.210  1.00  0.00    -0.389 OA
HETATM   17  H   UNL     1     -47.294 -53.096  12.911  1.00  0.00     0.210 HD
ENDBRANCH  15  16
BRANCH  15  18
HETATM   18  C   UNL     1     -45.583 -51.781  14.074  1.00  0.00    -0.026 A 
HETATM   19  C   UNL     1     -44.461 -51.115  14.605  1.00  0.00     0.010 A 
HETATM   20  C   UNL     1     -44.508 -50.484  15.851  1.00  0.00     0.002 A 
HETATM   21  C   UNL     1     -45.681 -50.509  16.598  1.00  0.00     0.024 A 
HETATM   22  C   UNL     1     -46.801 -51.162  16.090  1.00  0.00     0.034 A 
HETATM   23 CL   UNL     1     -48.253 -51.204  17.014  1.00  0.00    -0.084 Cl
HETATM   24  C   UNL     1     -46.758 -51.794  14.840  1.00  0.00     0.033 A 
ENDBRANCH  15  18
ENDBRANCH  14  15
ENDBRANCH  10  14
TORSDOF 4
ENDMDL
MODEL 2
REMARK VINA RESULT:      -6.7      1.345      1.527
REMARK  4 active torsions:
REMARK  status: ('A' for Active; 'I' for Inactive)
REMARK    1  A    between atoms: N_10  and  C_11 
REMARK    2  A    between atoms: C_11  and  C_12 
REMARK    3  A    between atoms: C_12  and  O_13 
REMARK    4  A    between atoms: C_12  and  C_14 
ROOT
HETATM    1  C   UNL     1     -40.408 -55.081  16.694  1.00  0.00     0.181 C 
HETATM    2  N   UNL     1     -40.575 -54.386  15.433  1.00  0.00    -0.261 N 
HETATM    3  N   UNL     1     -39.504 -53.565  15.036  1.00  0.00    -0.306 N 
ATOM      4  HN  UNL     1     -38.659 -53.511  15.604  1.00  0.00     0.186 HD
HETATM    5  C   UNL     1     -39.601 -52.873  13.938  1.00  0.00     0.122 A 
HETATM    6  C   UNL     1     -40.792 -52.926  13.151  1.00  0.00     0.032 A 
HETATM    7  C   UNL     1     -41.222 -52.295  11.981  1.00  0.00     0.122 A 
HETATM    8  N   UNL     1     -42.475 -52.640  11.662  1.00  0.00    -0.308 N 
ATOM      9  HN  UNL     1     -43.029 -52.325  10.866  1.00  0.00     0.186 HD
HETATM   10  N   UNL     1     -42.839 -53.507  12.642  1.00  0.00    -0.284 N 
HETATM   11  C   UNL     1     -41.838 -53.722  13.546  1.00  0.00     0.133 A 
HETATM   12  C   UNL     1     -41.785 -54.539  14.721  1.00  0.00     0.290 A 
HETATM   13  O   UNL     1     -42.701 -55.276  15.078  1.00  0.00    -0.264 OA
ENDROOT
BRANCH  10  14
HETATM   14  C   UNL     1     -44.228 -53.932  12.718  1.00  0.00     0.186 C 
BRANCH  14  15
HETATM   15  C   UNL     1     -45.204 -52.762  12.883  1.00  0.00     0.171 C 
BRANCH  15  16
HETATM   16  O   UNL     1     -46.298 -52.903  11.967  1.00  0.00    -0.389 OA
HETATM   17  H   UNL     1     -46.543 -52.014  11.653  1.00  0.00     0.210 HD
ENDBRANCH  15  16
BRANCH  15  18
HETATM   18  C   UNL     1     -45.804 -52.574  14.272  1.00  0.00    -0.026 A 
HETATM   19  C   UNL     1     -46.641 -51.463  14.494  1.00  0.00     0.010 A 
HETATM   20  C   UNL     1     -47.214 -51.217  15.744  1.00  0.00     0.002 A 
HETATM   21  C   UNL     1     -46.959 -52.078  16.806  1.00  0.00     0.024 A 
HETATM   22  C   UNL     1     -46.135 -53.182  16.607  1.00  0.00     0.034 A 
HETATM   23 CL   UNL     1     -45.808 -54.247  17.921  1.00  0.00    -0.084 Cl
HETATM   24  C   UNL     1     -45.560 -53.434  15.354  1.00  0.00     0.033 A 
ENDBRANCH  15  18
ENDBRANCH  14  15
ENDBRANCH  10  14
TORSDOF 4
ENDMDL
MODEL 3
REMARK VINA RESULT:      -6.4      3.805      5.002
REMARK  4 active torsions:
REMARK  status: ('A' for Active; 'I' for Inactive)
REMARK    1  A    between atoms: N_10  and  C_11 
REMARK    2  A    between atoms: C_11  and  C_12 
REMARK    3  A    between atoms: C_12  and  O_13 
REMARK    4  A    between atoms: C_12  and  C_14 
ROOT
HETATM    1  C   UNL     1     -39.066 -49.411  16.910  1.00  0.00     0.181 C 
HETATM    2  N   UNL     1     -38.886 -49.503  15.475  1.00  0.00    -0.261 N 
HETATM    3  N   UNL     1     -37.741 -48.872  14.957  1.00  0.00    -0.306 N 
ATOM      4  HN  UNL     1     -37.076 -48.419  15.582  1.00  0.00     0.186 HD
HETATM    5  C   UNL     1     -37.537 -48.872  13.671  1.00  0.00     0.122 A 
HETATM    6  C   UNL     1     -38.478 -49.486  12.788  1.00  0.00     0.032 A 
HETATM    7  C   UNL     1     -38.577 -49.619  11.401  1.00  0.00     0.122 A 
HETATM    8  N   UNL     1     -39.704 -50.244  11.042  1.00  0.00    -0.308 N 
ATOM      9  HN  UNL     1     -40.025 -50.466  10.099  1.00  0.00     0.186 HD
HETATM   10  N   UNL     1     -40.323 -50.515  12.220  1.00  0.00    -0.284 N 
HETATM   11  C   UNL     1     -39.599 -50.092  13.297  1.00  0.00     0.133 A 
HETATM   12  C   UNL     1     -39.867 -50.164  14.703  1.00  0.00     0.290 A 
HETATM   13  O   UNL     1     -40.852 -50.722  15.179  1.00  0.00    -0.264 OA
ENDROOT
BRANCH  10  14
HETATM   14  C   UNL     1     -41.687 -51.020  12.193  1.00  0.00     0.186 C 
BRANCH  14  15
HETATM   15  C   UNL     1     -41.767 -52.513  11.858  1.00  0.00     0.171 C 
BRANCH  15  16
HETATM   16  O   UNL     1     -40.460 -53.019  11.555  1.00  0.00    -0.389 OA
HETATM   17  H   UNL     1     -40.330 -52.956  10.591  1.00  0.00     0.210 HD
ENDBRANCH  15  16
BRANCH  15  18
HETATM   18  C   UNL     1     -42.358 -53.416  12.936  1.00  0.00    -0.026 A 
HETATM   19  C   UNL     1     -41.514 -53.860  13.973  1.00  0.00     0.010 A 
HETATM   20  C   UNL     1     -41.981 -54.700  14.986  1.00  0.00     0.002 A 
HETATM   21  C   UNL     1     -43.307 -55.120  14.983  1.00  0.00     0.024 A 
HETATM   22  C   UNL     1     -44.157 -54.692  13.968  1.00  0.00     0.034 A 
HETATM   23 CL   UNL     1     -45.798 -55.217  13.955  1.00  0.00    -0.084 Cl
HETATM   24  C   UNL     1     -43.693 -53.848  12.951  1.00  0.00     0.033 A 
ENDBRANCH  15  18
ENDBRANCH  14  15
ENDBRANCH  10  14
TORSDOF 4
ENDMDL
MODEL 4
REMARK VINA RESULT:      -6.3      4.517      5.923
REMARK  4 active torsions:
REMARK  status: ('A' for Active; 'I' for Inactive)
REMARK    1  A    between atoms: N_10  and  C_11 
REMARK    2  A    between atoms: C_11  and  C_12 
REMARK    3  A    between atoms: C_12  and  O_13 
REMARK    4  A    between atoms: C_12  and  C_14 
ROOT
HETATM    1  C   UNL     1     -38.317 -47.048  15.442  1.00  0.00     0.181 C 
HETATM    2  N   UNL     1     -38.973 -47.463  14.218  1.00  0.00    -0.261 N 
HETATM    3  N   UNL     1     -39.343 -46.430  13.338  1.00  0.00    -0.306 N 
ATOM      4  HN  UNL     1     -39.115 -45.461  13.557  1.00  0.00     0.186 HD
HETATM    5  C   UNL     1     -39.979 -46.722  12.240  1.00  0.00     0.122 A 
HETATM    6  C   UNL     1     -40.322 -48.076  11.940  1.00  0.00     0.032 A 
HETATM    7  C   UNL     1     -41.017 -48.704  10.903  1.00  0.00     0.122 A 
HETATM    8  N   UNL     1     -41.127 -50.021  11.106  1.00  0.00    -0.308 N 
ATOM      9  HN  UNL     1     -41.587 -50.711  10.511  1.00  0.00     0.186 HD
HETATM   10  N   UNL     1     -40.487 -50.230  12.285  1.00  0.00    -0.284 N 
HETATM   11  C   UNL     1     -39.967 -49.080  12.806  1.00  0.00     0.133 A 
HETATM   12  C   UNL     1     -39.233 -48.835  14.011  1.00  0.00     0.290 A 
HETATM   13  O   UNL     1     -38.886 -49.723  14.786  1.00  0.00    -0.264 OA
ENDROOT
BRANCH  10  14
HETATM   14  C   UNL     1     -40.589 -51.538  12.913  1.00  0.00     0.186 C 
BRANCH  14  15
HETATM   15  C   UNL     1     -41.467 -52.515  12.125  1.00  0.00     0.171 C 
BRANCH  15  16
HETATM   16  O   UNL     1     -40.647 -53.383  11.332  1.00  0.00    -0.389 OA
HETATM   17  H   UNL     1     -39.950 -52.841  10.917  1.00  0.00     0.210 HD
ENDBRANCH  15  16
BRANCH  15  18
HETATM   18  C   UNL     1     -42.395 -53.404  12.947  1.00  0.00    -0.026 A 
HETATM   19  C   UNL     1     -43.757 -53.458  12.591  1.00  0.00     0.010 A 
HETATM   20  C   UNL     1     -44.669 -54.238  13.307  1.00  0.00     0.002 A 
HETATM   21  C   UNL     1     -44.238 -54.980  14.402  1.00  0.00     0.024 A 
HETATM   22  C   UNL     1     -42.896 -54.939  14.769  1.00  0.00     0.034 A 
HETATM   23 CL   UNL     1     -42.359 -55.850  16.130  1.00  0.00    -0.084 Cl
HETATM   24  C   UNL     1     -41.978 -54.161  14.053  1.00  0.00     0.033 A 
ENDBRANCH  15  18
ENDBRANCH  14  15
ENDBRANCH  10  14
TORSDOF 4
ENDMDL
MODEL 5
REMARK VINA RESULT:      -6.2      4.936      6.314
REMARK  4 active torsions:
REMARK  status: ('A' for Active; 'I' for Inactive)
REMARK    1  A    between atoms: N_10  and  C_11 
REMARK    2  A    between atoms: C_11  and  C_12 
REMARK    3  A    between atoms: C_12  and  O_13 
REMARK    4  A    between atoms: C_12  and  C_14 
ROOT
HETATM    1  C   UNL     1     -45.804 -51.306  14.334  1.00  0.00     0.181 C 
HETATM    2  N   UNL     1     -44.592 -51.844  13.749  1.00  0.00    -0.261 N 
HETATM    3  N   UNL     1     -44.537 -53.244  13.625  1.00  0.00    -0.306 N 
ATOM      4  HN  UNL     1     -45.334 -53.816  13.904  1.00  0.00     0.186 HD
HETATM    5  C   UNL     1     -43.462 -53.803  13.151  1.00  0.00     0.122 A 
HETATM    6  C   UNL     1     -42.335 -53.007  12.781  1.00  0.00     0.032 A 
HETATM    7  C   UNL     1     -41.054 -53.287  12.297  1.00  0.00     0.122 A 
HETATM    8  N   UNL     1     -40.323 -52.176  12.155  1.00  0.00    -0.308 N 
ATOM      9  HN  UNL     1     -39.361 -52.096  11.826  1.00  0.00     0.186 HD
HETATM   10  N   UNL     1     -41.156 -51.179  12.549  1.00  0.00    -0.284 N 
HETATM   11  C   UNL     1     -42.388 -51.642  12.912  1.00  0.00     0.133 A 
HETATM   12  C   UNL     1     -43.553 -50.958  13.388  1.00  0.00     0.290 A 
HETATM   13  O   UNL     1     -43.629 -49.736  13.490  1.00  0.00    -0.264 OA
ENDROOT
BRANCH  10  14
HETATM   14  C   UNL     1     -40.614 -49.839  12.713  1.00  0.00     0.186 C 
BRANCH  14  15
HETATM   15  C   UNL     1     -40.230 -49.182  11.383  1.00  0.00     0.171 C 
BRANCH  15  16
HETATM   16  O   UNL     1     -40.489 -50.082  10.297  1.00  0.00    -0.389 OA
HETATM   17  H   UNL     1     -39.888 -50.843  10.389  1.00  0.00     0.210 HD
ENDBRANCH  15  16
BRANCH  15  18
HETATM   18  C   UNL     1     -40.929 -47.867  11.052  1.00  0.00    -0.026 A 
HETATM   19  C   UNL     1     -42.282 -47.911  10.659  1.00  0.00     0.010 A 
HETATM   20  C   UNL     1     -42.984 -46.750  10.327  1.00  0.00     0.002 A 
HETATM   21  C   UNL     1     -42.346 -45.515  10.376  1.00  0.00     0.024 A 
HETATM   22  C   UNL     1     -41.010 -45.451  10.763  1.00  0.00     0.034 A 
HETATM   23 CL   UNL     1     -40.213 -43.924  10.817  1.00  0.00    -0.084 Cl
HETATM   24  C   UNL     1     -40.303 -46.612  11.099  1.00  0.00     0.033 A 
ENDBRANCH  15  18
ENDBRANCH  14  15
ENDBRANCH  10  14
TORSDOF 4
ENDMDL
MODEL 6
REMARK VINA RESULT:      -6.2      4.274      6.117
REMARK  4 active torsions:
REMARK  status: ('A' for Active; 'I' for Inactive)
REMARK    1  A    between atoms: N_10  and  C_11 
REMARK    2  A    between atoms: C_11  and  C_12 
REMARK    3  A    between atoms: C_12  and  O_13 
REMARK    4  A    between atoms: C_12  and  C_14 
ROOT
HETATM    1  C   UNL     1     -43.420 -46.050  15.005  1.00  0.00     0.181 C 
HETATM    2  N   UNL     1     -42.897 -46.581  13.763  1.00  0.00    -0.261 N 
HETATM    3  N   UNL     1     -43.080 -45.777  12.623  1.00  0.00    -0.306 N 
ATOM      4  HN  UNL     1     -43.524 -44.863  12.705  1.00  0.00     0.186 HD
HETATM    5  C   UNL     1     -42.678 -46.209  11.463  1.00  0.00     0.122 A 
HETATM    6  C   UNL     1     -42.076 -47.499  11.339  1.00  0.00     0.032 A 
HETATM    7  C   UNL     1     -41.591 -48.255  10.269  1.00  0.00     0.122 A 
HETATM    8  N   UNL     1     -41.166 -49.460  10.665  1.00  0.00    -0.308 N 
ATOM      9  HN  UNL     1     -40.772 -50.205  10.091  1.00  0.00     0.186 HD
HETATM   10  N   UNL     1     -41.381 -49.463  12.006  1.00  0.00    -0.284 N 
HETATM   11  C   UNL     1     -41.908 -48.285  12.451  1.00  0.00     0.133 A 
HETATM   12  C   UNL     1     -42.290 -47.857  13.764  1.00  0.00     0.290 A 
HETATM   13  O   UNL     1     -42.126 -48.536  14.774  1.00  0.00    -0.264 OA
ENDROOT
BRANCH  10  14
HETATM   14  C   UNL     1     -41.214 -50.709  12.737  1.00  0.00     0.186 C 
BRANCH  14  15
HETATM   15  C   UNL     1     -41.970 -51.882  12.103  1.00  0.00     0.171 C 
BRANCH  15  16
HETATM   16  O   UNL     1     -41.157 -52.505  11.101  1.00  0.00    -0.389 OA
HETATM   17  H   UNL     1     -41.198 -53.469  11.239  1.00  0.00     0.210 HD
ENDBRANCH  15  16
BRANCH  15  18
HETATM   18  C   UNL     1     -42.430 -52.981  13.055  1.00  0.00    -0.026 A 
HETATM   19  C   UNL     1     -41.540 -53.413  14.058  1.00  0.00     0.010 A 
HETATM   20  C   UNL     1     -41.886 -54.425  14.956  1.00  0.00     0.002 A 
HETATM   21  C   UNL     1     -43.133 -55.035  14.868  1.00  0.00     0.024 A 
HETATM   22  C   UNL     1     -44.027 -54.622  13.884  1.00  0.00     0.034 A 
HETATM   23 CL   UNL     1     -45.570 -55.380  13.765  1.00  0.00    -0.084 Cl
HETATM   24  C   UNL     1     -43.685 -53.606  12.983  1.00  0.00     0.033 A 
ENDBRANCH  15  18
ENDBRANCH  14  15
ENDBRANCH  10  14
TORSDOF 4
ENDMDL
MODEL 7
REMARK VINA RESULT:      -6.1      4.426      5.739
REMARK  4 active torsions:
REMARK  status: ('A' for Active; 'I' for Inactive)
REMARK    1  A    between atoms: N_10  and  C_11 
REMARK    2  A    between atoms: C_11  and  C_12 
REMARK    3  A    between atoms: C_12  and  O_13 
REMARK    4  A    between atoms: C_12  and  C_14 
ROOT
HETATM    1  C   UNL     1     -38.540 -49.605  16.767  1.00  0.00     0.181 C 
HETATM    2  N   UNL     1     -38.699 -49.664  15.328  1.00  0.00    -0.261 N 
HETATM    3  N   UNL     1     -37.870 -48.807  14.581  1.00  0.00    -0.306 N 
ATOM      4  HN  UNL     1     -37.182 -48.220  15.051  1.00  0.00     0.186 HD
HETATM    5  C   UNL     1     -37.988 -48.770  13.286  1.00  0.00     0.122 A 
HETATM    6  C   UNL     1     -38.967 -49.573  12.624  1.00  0.00     0.032 A 
HETATM    7  C   UNL     1     -39.370 -49.731  11.296  1.00  0.00     0.122 A 
HETATM    8  N   UNL     1     -40.396 -50.583  11.186  1.00  0.00    -0.308 N 
ATOM      9  HN  UNL     1     -40.883 -50.872  10.337  1.00  0.00     0.186 HD
HETATM   10  N   UNL     1     -40.641 -50.973  12.464  1.00  0.00    -0.284 N 
HETATM   11  C   UNL     1     -39.781 -50.401  13.357  1.00  0.00     0.133 A 
HETATM   12  C   UNL     1     -39.679 -50.521  14.780  1.00  0.00     0.290 A 
HETATM   13  O   UNL     1     -40.382 -51.274  15.450  1.00  0.00    -0.264 OA
ENDROOT
BRANCH  10  14
HETATM   14  C   UNL     1     -41.836 -51.756  12.738  1.00  0.00     0.186 C 
BRANCH  14  15
HETATM   15  C   UNL     1     -41.623 -53.262  12.550  1.00  0.00     0.171 C 
BRANCH  15  16
HETATM   16  O   UNL     1     -40.552 -53.494  11.625  1.00  0.00    -0.389 OA
HETATM   17  H   UNL     1     -40.286 -52.633  11.253  1.00  0.00     0.210 HD
ENDBRANCH  15  16
BRANCH  15  18
HETATM   18  C   UNL     1     -41.308 -54.061  13.809  1.00  0.00    -0.026 A 
HETATM   19  C   UNL     1     -42.381 -54.484  14.618  1.00  0.00     0.010 A 
HETATM   20  C   UNL     1     -42.169 -55.207  15.795  1.00  0.00     0.002 A 
HETATM   21  C   UNL     1     -40.874 -55.522  16.192  1.00  0.00     0.024 A 
HETATM   22  C   UNL     1     -39.800 -55.114  15.406  1.00  0.00     0.034 A 
HETATM   23 CL   UNL     1     -38.193 -55.493  15.899  1.00  0.00    -0.084 Cl
HETATM   24  C   UNL     1     -40.008 -54.390  14.225  1.00  0.00     0.033 A 
ENDBRANCH  15  18
ENDBRANCH  14  15
ENDBRANCH  10  14
TORSDOF 4
ENDMDL
MODEL 8
REMARK VINA RESULT:      -6.0      2.920      5.599
REMARK  4 active torsions:
REMARK  status: ('A' for Active; 'I' for Inactive)
REMARK    1  A    between atoms: N_10  and  C_11 
REMARK    2  A    between atoms: C_11  and  C_12 
REMARK    3  A    between atoms: C_12  and  O_13 
REMARK    4  A    between atoms: C_12  and  C_14 
ROOT
HETATM    1  C   UNL     1     -45.065 -50.069  17.417  1.00  0.00     0.181 C 
HETATM    2  N   UNL     1     -45.266 -50.704  16.129  1.00  0.00    -0.261 N 
HETATM    3  N   UNL     1     -46.569 -51.161  15.866  1.00  0.00    -0.306 N 
ATOM      4  HN  UNL     1     -47.316 -51.007  16.543  1.00  0.00     0.186 HD
HETATM    5  C   UNL     1     -46.816 -51.784  14.750  1.00  0.00     0.122 A 
HETATM    6  C   UNL     1     -45.769 -52.024  13.807  1.00  0.00     0.032 A 
HETATM    7  C   UNL     1     -45.690 -52.678  12.575  1.00  0.00     0.122 A 
HETATM    8  N   UNL     1     -44.442 -52.684  12.095  1.00  0.00    -0.308 N 
ATOM      9  HN  UNL     1     -44.107 -53.095  11.224  1.00  0.00     0.186 HD
HETATM   10  N   UNL     1     -43.722 -52.018  13.035  1.00  0.00    -0.284 N 
HETATM   11  C   UNL     1     -44.496 -51.584  14.072  1.00  0.00     0.133 A 
HETATM   12  C   UNL     1     -44.163 -50.858  15.261  1.00  0.00     0.290 A 
HETATM   13  O   UNL     1     -43.035 -50.436  15.505  1.00  0.00    -0.264 OA
ENDROOT
BRANCH  10  14
HETATM   14  C   UNL     1     -42.271 -52.011  12.929  1.00  0.00     0.186 C 
BRANCH  14  15
HETATM   15  C   UNL     1     -41.682 -53.404  12.680  1.00  0.00     0.171 C 
BRANCH  15  16
HETATM   16  O   UNL     1     -40.662 -53.333  11.675  1.00  0.00    -0.389 OA
HETATM   17  H   UNL     1     -40.207 -54.195  11.649  1.00  0.00     0.210 HD
ENDBRANCH  15  16
BRANCH  15  18
HETATM   18  C   UNL     1     -41.071 -54.104  13.890  1.00  0.00    -0.026 A 
HETATM   19  C   UNL     1     -39.680 -54.324  13.902  1.00  0.00     0.010 A 
HETATM   20  C   UNL     1     -39.052 -54.972  14.969  1.00  0.00     0.002 A 
HETATM   21  C   UNL     1     -39.805 -55.420  16.049  1.00  0.00     0.024 A 
HETATM   22  C   UNL     1     -41.181 -55.211  16.056  1.00  0.00     0.034 A 
HETATM   23 CL   UNL     1     -42.120 -55.771  17.388  1.00  0.00    -0.084 Cl
HETATM   24  C   UNL     1     -41.815 -54.560  14.989  1.00  0.00     0.033 A 
ENDBRANCH  15  18
ENDBRANCH  14  15
ENDBRANCH  10  14
TORSDOF 4
ENDMDL
MODEL 9
REMARK VINA RESULT:      -5.9      4.127      6.323
REMARK  4 active torsions:
REMARK  status: ('A' for Active; 'I' for Inactive)
REMARK    1  A    between atoms: N_10  and  C_11 
REMARK    2  A    between atoms: C_11  and  C_12 
REMARK    3  A    between atoms: C_12  and  O_13 
REMARK    4  A    between atoms: C_12  and  C_14 
ROOT
HETATM    1  C   UNL     1     -42.403 -46.043  10.095  1.00  0.00     0.181 C 
HETATM    2  N   UNL     1     -42.553 -46.731  11.361  1.00  0.00    -0.261 N 
HETATM    3  N   UNL     1     -43.076 -45.966  12.419  1.00  0.00    -0.306 N 
ATOM      4  HN  UNL     1     -43.360 -44.999  12.263  1.00  0.00     0.186 HD
HETATM    5  C   UNL     1     -43.196 -46.501  13.599  1.00  0.00     0.122 A 
HETATM    6  C   UNL     1     -42.778 -47.848  13.829  1.00  0.00     0.032 A 
HETATM    7  C   UNL     1     -42.731 -48.682  14.949  1.00  0.00     0.122 A 
HETATM    8  N   UNL     1     -42.188 -49.870  14.661  1.00  0.00    -0.308 N 
ATOM      9  HN  UNL     1     -42.032 -50.657  15.291  1.00  0.00     0.186 HD
HETATM   10  N   UNL     1     -41.895 -49.788  13.337  1.00  0.00    -0.284 N 
HETATM   11  C   UNL     1     -42.259 -48.589  12.796  1.00  0.00     0.133 A 
HETATM   12  C   UNL     1     -42.136 -48.076  11.465  1.00  0.00     0.290 A 
HETATM   13  O   UNL     1     -41.696 -48.731  10.523  1.00  0.00    -0.264 OA
ENDROOT
BRANCH  10  14
HETATM   14  C   UNL     1     -41.102 -50.847  12.731  1.00  0.00     0.186 C 
BRANCH  14  15
HETATM   15  C   UNL     1     -41.958 -51.958  12.114  1.00  0.00     0.171 C 
BRANCH  15  16
HETATM   16  O   UNL     1     -41.233 -52.609  11.062  1.00  0.00    -0.389 OA
HETATM   17  H   UNL     1     -40.338 -52.224  11.031  1.00  0.00     0.210 HD
ENDBRANCH  15  16
BRANCH  15  18
HETATM   18  C   UNL     1     -42.438 -53.047  13.067  1.00  0.00    -0.026 A 
HETATM   19  C   UNL     1     -41.539 -53.530  14.038  1.00  0.00     0.010 A 
HETATM   20  C   UNL     1     -41.903 -54.537  14.936  1.00  0.00     0.002 A 
HETATM   21  C   UNL     1     -43.179 -55.088  14.879  1.00  0.00     0.024 A 
HETATM   22  C   UNL     1     -44.082 -54.625  13.927  1.00  0.00     0.034 A 
HETATM   23 CL   UNL     1     -45.660 -55.311  13.847  1.00  0.00    -0.084 Cl
HETATM   24  C   UNL     1     -43.722 -53.614  13.027  1.00  0.00     0.033 A 
ENDBRANCH  15  18
ENDBRANCH  14  15
ENDBRANCH  10  14
TORSDOF 4
ENDMDL
