MODEL 1
REMARK VINA RESULT:      -6.7      0.000      0.000
REMARK  7 active torsions:
REMARK  status: ('A' for Active; 'I' for Inactive)
REMARK    1  A    between atoms: N_6  and  C_7 
REMARK    2  A    between atoms: C_7  and  C_8 
REMARK    3  A    between atoms: C_8  and  O_9 
REMARK    4  A    between atoms: C_8  and  C_10 
REMARK    5  A    between atoms: C_10  and  O_11 
REMARK    6  A    between atoms: O_11  and  C_12 
REMARK    7  A    between atoms: C_12  and  C_13 
ROOT
HETATM    1  C   UNL     1     -40.940 -49.002  11.199  1.00  0.00     0.160 C 
ENDROOT
BRANCH   1   2
HETATM    2  C   UNL     1     -41.032 -49.663  12.592  1.00  0.00     0.166 C 
BRANCH   2   3
HETATM    3  N   UNL     1     -42.080 -50.674  12.680  1.00  0.00    -0.307 N 
HETATM    4  C   UNL     1     -41.928 -51.882  12.054  1.00  0.00     0.186 A 
HETATM    5  N   UNL     1     -42.782 -52.847  12.095  1.00  0.00    -0.355 N 
HETATM    6  C   UNL     1     -43.928 -52.648  12.824  1.00  0.00     0.017 A 
ATOM      7  HN  UNL     1     -42.612 -53.726  11.605  1.00  0.00     0.166 HD
HETATM    8  C   UNL     1     -44.861 -53.835  12.852  1.00  0.00     0.069 C 
HETATM    9  C   UNL     1     -44.217 -51.507  13.471  1.00  0.00     0.028 A 
HETATM   10  C   UNL     1     -43.231 -50.396  13.385  1.00  0.00     0.256 A 
HETATM   11  C   UNL     1     -45.460 -51.283  14.279  1.00  0.00     0.056 C 
HETATM   12  O   UNL     1     -43.438 -49.309  13.923  1.00  0.00    -0.267 OA
ENDBRANCH   2   3
ENDBRANCH   1   2
BRANCH   1  13
HETATM   13  O   UNL     1     -40.529 -49.919  10.180  1.00  0.00    -0.392 OA
HETATM   14  H   UNL     1     -40.479 -49.438   9.330  1.00  0.00     0.210 HD
ENDBRANCH   1  13
BRANCH   1  15
HETATM   15  C   UNL     1     -42.296 -48.409  10.800  1.00  0.00     0.201 C 
BRANCH  15  16
HETATM   16  O   UNL     1     -42.129 -47.590   9.648  1.00  0.00    -0.384 OA
BRANCH  16  17
HETATM   17  C   UNL     1     -43.206 -46.670   9.477  1.00  0.00     0.209 C 
BRANCH  17  18
HETATM   18  C   UNL     1     -44.357 -47.429   8.887  1.00  0.00     0.004 A 
HETATM   19  C   UNL     1     -45.587 -47.498   9.560  1.00  0.00     0.012 A 
HETATM   20  C   UNL     1     -46.651 -48.224   9.021  1.00  0.00     0.001 A 
HETATM   21  C   UNL     1     -46.501 -48.884   7.801  1.00  0.00     0.003 A 
HETATM   22  C   UNL     1     -45.286 -48.816   7.120  1.00  0.00     0.043 A 
HETATM   23  C   UNL     1     -44.229 -48.090   7.663  1.00  0.00     0.124 A 
HETATM   24  F   UNL     1     -43.070 -48.041   6.991  1.00  0.00    -0.205 F 
ENDBRANCH  17  18
ENDBRANCH  16  17
ENDBRANCH  15  16
ENDBRANCH   1  15
TORSDOF 7
ENDMDL
MODEL 2
REMARK VINA RESULT:      -6.7      4.198      6.347
REMARK  7 active torsions:
REMARK  status: ('A' for Active; 'I' for Inactive)
REMARK    1  A    between atoms: N_6  and  C_7 
REMARK    2  A    between atoms: C_7  and  C_8 
REMARK    3  A    between atoms: C_8  and  O_9 
REMARK    4  A    between atoms: C_8  and  C_10 
REMARK    5  A    between atoms: C_10  and  O_11 
REMARK    6  A    between atoms: O_11  and  C_12 
REMARK    7  A    between atoms: C_12  and  C_13 
ROOT
HETATM    1  C   UNL     1     -41.035 -52.548  12.332  1.00  0.00     0.160 C 
ENDROOT
BRANCH   1   2
HETATM    2  C   UNL     1     -39.932 -51.574  12.799  1.00  0.00     0.166 C 
BRANCH   2   3
HETATM    3  N   UNL     1     -40.115 -50.216  12.301  1.00  0.00    -0.307 N 
HETATM    4  C   UNL     1     -40.766 -49.998  11.117  1.00  0.00     0.186 A 
HETATM    5  N   UNL     1     -41.001 -48.837  10.606  1.00  0.00    -0.355 N 
HETATM    6  C   UNL     1     -40.567 -47.739  11.306  1.00  0.00     0.017 A 
ATOM      7  HN  UNL     1     -41.491 -48.739   9.717  1.00  0.00     0.166 HD
HETATM    8  C   UNL     1     -40.910 -46.417  10.662  1.00  0.00     0.069 C 
HETATM    9  C   UNL     1     -39.898 -47.805  12.469  1.00  0.00     0.028 A 
HETATM   10  C   UNL     1     -39.612 -49.156  13.024  1.00  0.00     0.256 A 
HETATM   11  C   UNL     1     -39.430 -46.612  13.246  1.00  0.00     0.056 C 
HETATM   12  O   UNL     1     -38.976 -49.301  14.067  1.00  0.00    -0.267 OA
ENDBRANCH   2   3
ENDBRANCH   1   2
BRANCH   1  13
HETATM   13  O   UNL     1     -40.550 -53.532  11.414  1.00  0.00    -0.392 OA
HETATM   14  H   UNL     1     -40.867 -54.411  11.702  1.00  0.00     0.210 HD
ENDBRANCH   1  13
BRANCH   1  15
HETATM   15  C   UNL     1     -41.655 -53.269  13.535  1.00  0.00     0.201 C 
BRANCH  15  16
HETATM   16  O   UNL     1     -42.828 -53.957  13.115  1.00  0.00    -0.384 OA
BRANCH  16  17
HETATM   17  C   UNL     1     -43.745 -53.101  12.436  1.00  0.00     0.209 C 
BRANCH  17  18
HETATM   18  C   UNL     1     -44.895 -52.848  13.364  1.00  0.00     0.004 A 
HETATM   19  C   UNL     1     -45.166 -51.551  13.828  1.00  0.00     0.012 A 
HETATM   20  C   UNL     1     -46.224 -51.319  14.710  1.00  0.00     0.001 A 
HETATM   21  C   UNL     1     -47.026 -52.378  15.133  1.00  0.00     0.003 A 
HETATM   22  C   UNL     1     -46.771 -53.669  14.674  1.00  0.00     0.043 A 
HETATM   23  C   UNL     1     -45.715 -53.893  13.794  1.00  0.00     0.124 A 
HETATM   24  F   UNL     1     -45.488 -55.143  13.366  1.00  0.00    -0.205 F 
ENDBRANCH  17  18
ENDBRANCH  16  17
ENDBRANCH  15  16
ENDBRANCH   1  15
TORSDOF 7
ENDMDL
MODEL 3
REMARK VINA RESULT:      -6.7      3.582      6.269
REMARK  7 active torsions:
REMARK  status: ('A' for Active; 'I' for Inactive)
REMARK    1  A    between atoms: N_6  and  C_7 
REMARK    2  A    between atoms: C_7  and  C_8 
REMARK    3  A    between atoms: C_8  and  O_9 
REMARK    4  A    between atoms: C_8  and  C_10 
REMARK    5  A    between atoms: C_10  and  O_11 
REMARK    6  A    between atoms: O_11  and  C_12 
REMARK    7  A    between atoms: C_12  and  C_13 
ROOT
HETATM    1  C   UNL     1     -41.248 -52.542  12.166  1.00  0.00     0.160 C 
ENDROOT
BRANCH   1   2
HETATM    2  C   UNL     1     -40.386 -51.317  12.543  1.00  0.00     0.166 C 
BRANCH   2   3
HETATM    3  N   UNL     1     -40.970 -50.051  12.114  1.00  0.00    -0.307 N 
HETATM    4  C   UNL     1     -42.329 -49.898  12.068  1.00  0.00     0.186 A 
HETATM    5  N   UNL     1     -42.940 -48.813  11.730  1.00  0.00    -0.355 N 
HETATM    6  C   UNL     1     -42.165 -47.730  11.393  1.00  0.00     0.017 A 
ATOM      7  HN  UNL     1     -43.958 -48.761  11.713  1.00  0.00     0.166 HD
HETATM    8  C   UNL     1     -42.951 -46.490  11.042  1.00  0.00     0.069 C 
HETATM    9  C   UNL     1     -40.823 -47.744  11.374  1.00  0.00     0.028 A 
HETATM   10  C   UNL     1     -40.140 -49.016  11.739  1.00  0.00     0.256 A 
HETATM   11  C   UNL     1     -39.968 -46.565  11.018  1.00  0.00     0.056 C 
HETATM   12  O   UNL     1     -38.914 -49.118  11.715  1.00  0.00    -0.267 OA
ENDBRANCH   2   3
ENDBRANCH   1   2
BRANCH   1  13
HETATM   13  O   UNL     1     -40.568 -53.444  11.288  1.00  0.00    -0.392 OA
HETATM   14  H   UNL     1     -39.741 -53.736  11.720  1.00  0.00     0.210 HD
ENDBRANCH   1  13
BRANCH   1  15
HETATM   15  C   UNL     1     -41.663 -53.310  13.426  1.00  0.00     0.201 C 
BRANCH  15  16
HETATM   16  O   UNL     1     -42.846 -54.051  13.155  1.00  0.00    -0.384 OA
BRANCH  16  17
HETATM   17  C   UNL     1     -43.796 -53.298  12.401  1.00  0.00     0.209 C 
BRANCH  17  18
HETATM   18  C   UNL     1     -44.938 -52.970  13.317  1.00  0.00     0.004 A 
HETATM   19  C   UNL     1     -45.216 -51.638  13.661  1.00  0.00     0.012 A 
HETATM   20  C   UNL     1     -46.265 -51.334  14.531  1.00  0.00     0.001 A 
HETATM   21  C   UNL     1     -47.051 -52.356  15.063  1.00  0.00     0.003 A 
HETATM   22  C   UNL     1     -46.788 -53.682  14.723  1.00  0.00     0.043 A 
HETATM   23  C   UNL     1     -45.741 -53.978  13.854  1.00  0.00     0.124 A 
HETATM   24  F   UNL     1     -45.506 -55.261  13.542  1.00  0.00    -0.205 F 
ENDBRANCH  17  18
ENDBRANCH  16  17
ENDBRANCH  15  16
ENDBRANCH   1  15
TORSDOF 7
ENDMDL
MODEL 4
REMARK VINA RESULT:      -6.6      3.173      5.828
REMARK  7 active torsions:
REMARK  status: ('A' for Active; 'I' for Inactive)
REMARK    1  A    between atoms: N_6  and  C_7 
REMARK    2  A    between atoms: C_7  and  C_8 
REMARK    3  A    between atoms: C_8  and  O_9 
REMARK    4  A    between atoms: C_8  and  C_10 
REMARK    5  A    between atoms: C_10  and  O_11 
REMARK    6  A    between atoms: O_11  and  C_12 
REMARK    7  A    between atoms: C_12  and  C_13 
ROOT
HETATM    1  C   UNL     1     -41.249 -52.759  12.253  1.00  0.00     0.160 C 
ENDROOT
BRANCH   1   2
HETATM    2  C   UNL     1     -40.491 -51.541  12.826  1.00  0.00     0.166 C 
BRANCH   2   3
HETATM    3  N   UNL     1     -40.948 -50.270  12.277  1.00  0.00    -0.307 N 
HETATM    4  C   UNL     1     -40.633 -49.920  10.992  1.00  0.00     0.186 A 
HETATM    5  N   UNL     1     -41.011 -48.834  10.407  1.00  0.00    -0.355 N 
HETATM    6  C   UNL     1     -41.791 -47.966  11.131  1.00  0.00     0.017 A 
ATOM      7  HN  UNL     1     -40.742 -48.629   9.445  1.00  0.00     0.166 HD
HETATM    8  C   UNL     1     -42.221 -46.736  10.369  1.00  0.00     0.069 C 
HETATM    9  C   UNL     1     -42.158 -48.170  12.406  1.00  0.00     0.028 A 
HETATM   10  C   UNL     1     -41.685 -49.416  13.069  1.00  0.00     0.256 A 
HETATM   11  C   UNL     1     -43.018 -47.234  13.201  1.00  0.00     0.056 C 
HETATM   12  O   UNL     1     -41.952 -49.660  14.245  1.00  0.00    -0.267 OA
ENDBRANCH   2   3
ENDBRANCH   1   2
BRANCH   1  13
HETATM   13  O   UNL     1     -40.506 -53.446  11.242  1.00  0.00    -0.392 OA
HETATM   14  H   UNL     1     -39.587 -53.110  11.248  1.00  0.00     0.210 HD
ENDBRANCH   1  13
BRANCH   1  15
HETATM   15  C   UNL     1     -41.583 -53.753  13.372  1.00  0.00     0.201 C 
BRANCH  15  16
HETATM   16  O   UNL     1     -42.929 -54.188  13.226  1.00  0.00    -0.384 OA
BRANCH  16  17
HETATM   17  C   UNL     1     -43.739 -53.226  12.553  1.00  0.00     0.209 C 
BRANCH  17  18
HETATM   18  C   UNL     1     -44.919 -52.938  13.433  1.00  0.00     0.004 A 
HETATM   19  C   UNL     1     -45.594 -53.981  14.086  1.00  0.00     0.012 A 
HETATM   20  C   UNL     1     -46.705 -53.715  14.888  1.00  0.00     0.001 A 
HETATM   21  C   UNL     1     -47.152 -52.404  15.051  1.00  0.00     0.003 A 
HETATM   22  C   UNL     1     -46.486 -51.359  14.414  1.00  0.00     0.043 A 
HETATM   23  C   UNL     1     -45.377 -51.631  13.616  1.00  0.00     0.124 A 
HETATM   24  F   UNL     1     -44.753 -50.610  13.012  1.00  0.00    -0.205 F 
ENDBRANCH  17  18
ENDBRANCH  16  17
ENDBRANCH  15  16
ENDBRANCH   1  15
TORSDOF 7
ENDMDL
MODEL 5
REMARK VINA RESULT:      -6.3      4.344      6.307
REMARK  7 active torsions:
REMARK  status: ('A' for Active; 'I' for Inactive)
REMARK    1  A    between atoms: N_6  and  C_7 
REMARK    2  A    between atoms: C_7  and  C_8 
REMARK    3  A    between atoms: C_8  and  O_9 
REMARK    4  A    between atoms: C_8  and  C_10 
REMARK    5  A    between atoms: C_10  and  O_11 
REMARK    6  A    between atoms: O_11  and  C_12 
REMARK    7  A    between atoms: C_12  and  C_13 
ROOT
HETATM    1  C   UNL     1     -40.966 -52.868  12.441  1.00  0.00     0.160 C 
ENDROOT
BRANCH   1   2
HETATM    2  C   UNL     1     -41.663 -53.891  13.365  1.00  0.00     0.166 C 
BRANCH   2   3
HETATM    3  N   UNL     1     -40.763 -54.485  14.347  1.00  0.00    -0.307 N 
HETATM    4  C   UNL     1     -39.423 -54.582  14.085  1.00  0.00     0.186 A 
HETATM    5  N   UNL     1     -38.544 -55.064  14.897  1.00  0.00    -0.355 N 
HETATM    6  C   UNL     1     -38.989 -55.512  16.116  1.00  0.00     0.017 A 
ATOM      7  HN  UNL     1     -37.557 -55.111  14.643  1.00  0.00     0.166 HD
HETATM    8  C   UNL     1     -37.898 -56.030  17.023  1.00  0.00     0.069 C 
HETATM    9  C   UNL     1     -40.276 -55.498  16.498  1.00  0.00     0.028 A 
HETATM   10  C   UNL     1     -41.276 -54.964  15.533  1.00  0.00     0.256 A 
HETATM   11  C   UNL     1     -40.770 -55.974  17.831  1.00  0.00     0.056 C 
HETATM   12  O   UNL     1     -42.478 -54.946  15.796  1.00  0.00    -0.267 OA
ENDBRANCH   2   3
ENDBRANCH   1   2
BRANCH   1  13
HETATM   13  O   UNL     1     -40.647 -53.413  11.157  1.00  0.00    -0.392 OA
HETATM   14  H   UNL     1     -41.162 -54.234  11.030  1.00  0.00     0.210 HD
ENDBRANCH   1  13
BRANCH   1  15
HETATM   15  C   UNL     1     -41.857 -51.637  12.240  1.00  0.00     0.201 C 
BRANCH  15  16
HETATM   16  O   UNL     1     -43.069 -51.813  12.963  1.00  0.00    -0.384 OA
BRANCH  16  17
HETATM   17  C   UNL     1     -43.720 -50.574  13.239  1.00  0.00     0.209 C 
BRANCH  17  18
HETATM   18  C   UNL     1     -44.768 -50.838  14.279  1.00  0.00     0.004 A 
HETATM   19  C   UNL     1     -44.491 -50.634  15.639  1.00  0.00     0.012 A 
HETATM   20  C   UNL     1     -45.460 -50.901  16.609  1.00  0.00     0.001 A 
HETATM   21  C   UNL     1     -46.717 -51.370  16.230  1.00  0.00     0.003 A 
HETATM   22  C   UNL     1     -47.006 -51.570  14.881  1.00  0.00     0.043 A 
HETATM   23  C   UNL     1     -46.036 -51.301  13.920  1.00  0.00     0.124 A 
HETATM   24  F   UNL     1     -46.337 -51.501  12.628  1.00  0.00    -0.205 F 
ENDBRANCH  17  18
ENDBRANCH  16  17
ENDBRANCH  15  16
ENDBRANCH   1  15
TORSDOF 7
ENDMDL
MODEL 6
REMARK VINA RESULT:      -6.3      4.511      5.970
REMARK  7 active torsions:
REMARK  status: ('A' for Active; 'I' for Inactive)
REMARK    1  A    between atoms: N_6  and  C_7 
REMARK    2  A    between atoms: C_7  and  C_8 
REMARK    3  A    between atoms: C_8  and  O_9 
REMARK    4  A    between atoms: C_8  and  C_10 
REMARK    5  A    between atoms: C_10  and  O_11 
REMARK    6  A    between atoms: O_11  and  C_12 
REMARK    7  A    between atoms: C_12  and  C_13 
ROOT
HETATM    1  C   UNL     1     -40.885 -52.841  12.626  1.00  0.00     0.160 C 
ENDROOT
BRANCH   1   2
HETATM    2  C   UNL     1     -42.131 -51.952  12.422  1.00  0.00     0.166 C 
BRANCH   2   3
HETATM    3  N   UNL     1     -43.341 -52.515  13.011  1.00  0.00    -0.307 N 
HETATM    4  C   UNL     1     -43.453 -53.866  13.197  1.00  0.00     0.186 A 
HETATM    5  N   UNL     1     -44.467 -54.456  13.733  1.00  0.00    -0.355 N 
HETATM    6  C   UNL     1     -45.510 -53.667  14.150  1.00  0.00     0.017 A 
ATOM      7  HN  UNL     1     -44.494 -55.470  13.843  1.00  0.00     0.166 HD
HETATM    8  C   UNL     1     -46.644 -54.426  14.797  1.00  0.00     0.069 C 
HETATM    9  C   UNL     1     -45.544 -52.331  14.012  1.00  0.00     0.028 A 
HETATM   10  C   UNL     1     -44.375 -51.675  13.364  1.00  0.00     0.256 A 
HETATM   11  C   UNL     1     -46.672 -51.459  14.474  1.00  0.00     0.056 C 
HETATM   12  O   UNL     1     -44.344 -50.460  13.172  1.00  0.00    -0.267 OA
ENDBRANCH   2   3
ENDBRANCH   1   2
BRANCH   1  13
HETATM   13  O   UNL     1     -40.415 -53.422  11.406  1.00  0.00    -0.392 OA
HETATM   14  H   UNL     1     -40.713 -54.353  11.369  1.00  0.00     0.210 HD
ENDBRANCH   1  13
BRANCH   1  15
HETATM   15  C   UNL     1     -39.744 -52.026  13.247  1.00  0.00     0.201 C 
BRANCH  15  16
HETATM   16  O   UNL     1     -39.054 -51.327  12.218  1.00  0.00    -0.384 OA
BRANCH  16  17
HETATM   17  C   UNL     1     -37.844 -50.731  12.686  1.00  0.00     0.209 C 
BRANCH  17  18
HETATM   18  C   UNL     1     -38.177 -49.343  13.147  1.00  0.00     0.004 A 
HETATM   19  C   UNL     1     -39.078 -48.547  12.423  1.00  0.00     0.012 A 
HETATM   20  C   UNL     1     -39.370 -47.247  12.840  1.00  0.00     0.001 A 
HETATM   21  C   UNL     1     -38.771 -46.730  13.989  1.00  0.00     0.003 A 
HETATM   22  C   UNL     1     -37.880 -47.514  14.720  1.00  0.00     0.043 A 
HETATM   23  C   UNL     1     -37.593 -48.810  14.298  1.00  0.00     0.124 A 
HETATM   24  F   UNL     1     -36.733 -49.545  15.017  1.00  0.00    -0.205 F 
ENDBRANCH  17  18
ENDBRANCH  16  17
ENDBRANCH  15  16
ENDBRANCH   1  15
TORSDOF 7
ENDMDL
MODEL 7
REMARK VINA RESULT:      -6.2      4.995      7.023
REMARK  7 active torsions:
REMARK  status: ('A' for Active; 'I' for Inactive)
REMARK    1  A    between atoms: N_6  and  C_7 
REMARK    2  A    between atoms: C_7  and  C_8 
REMARK    3  A    between atoms: C_8  and  O_9 
REMARK    4  A    between atoms: C_8  and  C_10 
REMARK    5  A    between atoms: C_10  and  O_11 
REMARK    6  A    between atoms: O_11  and  C_12 
REMARK    7  A    between atoms: C_12  and  C_13 
ROOT
HETATM    1  C   UNL     1     -42.598 -53.204  13.021  1.00  0.00     0.160 C 
ENDROOT
BRANCH   1   2
HETATM    2  C   UNL     1     -41.114 -53.542  12.756  1.00  0.00     0.166 C 
BRANCH   2   3
HETATM    3  N   UNL     1     -40.196 -52.513  13.231  1.00  0.00    -0.307 N 
HETATM    4  C   UNL     1     -39.478 -52.706  14.379  1.00  0.00     0.186 A 
HETATM    5  N   UNL     1     -38.623 -51.871  14.866  1.00  0.00    -0.355 N 
HETATM    6  C   UNL     1     -38.419 -50.702  14.176  1.00  0.00     0.017 A 
ATOM      7  HN  UNL     1     -38.119 -52.072  15.729  1.00  0.00     0.166 HD
HETATM    8  C   UNL     1     -37.381 -49.793  14.789  1.00  0.00     0.069 C 
HETATM    9  C   UNL     1     -39.069 -50.372  13.048  1.00  0.00     0.028 A 
HETATM   10  C   UNL     1     -40.072 -51.338  12.522  1.00  0.00     0.256 A 
HETATM   11  C   UNL     1     -38.845 -49.103  12.281  1.00  0.00     0.056 C 
HETATM   12  O   UNL     1     -40.731 -51.094  11.512  1.00  0.00    -0.267 OA
ENDBRANCH   2   3
ENDBRANCH   1   2
BRANCH   1  13
HETATM   13  O   UNL     1     -43.295 -52.814  11.834  1.00  0.00    -0.392 OA
HETATM   14  H   UNL     1     -43.903 -53.536  11.579  1.00  0.00     0.210 HD
ENDBRANCH   1  13
BRANCH   1  15
HETATM   15  C   UNL     1     -43.318 -54.409  13.635  1.00  0.00     0.201 C 
BRANCH  15  16
HETATM   16  O   UNL     1     -44.537 -54.633  12.936  1.00  0.00    -0.384 OA
BRANCH  16  17
HETATM   17  C   UNL     1     -45.617 -54.942  13.816  1.00  0.00     0.209 C 
BRANCH  17  18
HETATM   18  C   UNL     1     -46.096 -53.651  14.410  1.00  0.00     0.004 A 
HETATM   19  C   UNL     1     -46.415 -52.561  13.586  1.00  0.00     0.012 A 
HETATM   20  C   UNL     1     -46.840 -51.352  14.140  1.00  0.00     0.001 A 
HETATM   21  C   UNL     1     -46.956 -51.220  15.524  1.00  0.00     0.003 A 
HETATM   22  C   UNL     1     -46.649 -52.298  16.352  1.00  0.00     0.043 A 
HETATM   23  C   UNL     1     -46.227 -53.501  15.793  1.00  0.00     0.124 A 
HETATM   24  F   UNL     1     -45.936 -54.524  16.609  1.00  0.00    -0.205 F 
ENDBRANCH  17  18
ENDBRANCH  16  17
ENDBRANCH  15  16
ENDBRANCH   1  15
TORSDOF 7
ENDMDL
MODEL 8
REMARK VINA RESULT:      -6.2      4.724      6.338
REMARK  7 active torsions:
REMARK  status: ('A' for Active; 'I' for Inactive)
REMARK    1  A    between atoms: N_6  and  C_7 
REMARK    2  A    between atoms: C_7  and  C_8 
REMARK    3  A    between atoms: C_8  and  O_9 
REMARK    4  A    between atoms: C_8  and  C_10 
REMARK    5  A    between atoms: C_10  and  O_11 
REMARK    6  A    between atoms: O_11  and  C_12 
REMARK    7  A    between atoms: C_12  and  C_13 
ROOT
HETATM    1  C   UNL     1     -40.755 -54.118  14.574  1.00  0.00     0.160 C 
ENDROOT
BRANCH   1   2
HETATM    2  C   UNL     1     -41.672 -54.433  13.372  1.00  0.00     0.166 C 
BRANCH   2   3
HETATM    3  N   UNL     1     -42.955 -53.742  13.431  1.00  0.00    -0.307 N 
HETATM    4  C   UNL     1     -43.107 -52.515  12.843  1.00  0.00     0.186 A 
HETATM    5  N   UNL     1     -44.204 -51.838  12.818  1.00  0.00    -0.355 N 
HETATM    6  C   UNL     1     -45.303 -52.393  13.425  1.00  0.00     0.017 A 
ATOM      7  HN  UNL     1     -44.254 -50.926  12.364  1.00  0.00     0.166 HD
HETATM    8  C   UNL     1     -46.557 -51.558  13.324  1.00  0.00     0.069 C 
HETATM    9  C   UNL     1     -45.294 -53.578  14.057  1.00  0.00     0.028 A 
HETATM   10  C   UNL     1     -44.009 -54.328  14.100  1.00  0.00     0.256 A 
HETATM   11  C   UNL     1     -46.492 -54.198  14.714  1.00  0.00     0.056 C 
HETATM   12  O   UNL     1     -43.911 -55.404  14.687  1.00  0.00    -0.267 OA
ENDBRANCH   2   3
ENDBRANCH   1   2
BRANCH   1  13
HETATM   13  O   UNL     1     -41.120 -54.846  15.751  1.00  0.00    -0.392 OA
HETATM   14  H   UNL     1     -41.012 -54.260  16.526  1.00  0.00     0.210 HD
ENDBRANCH   1  13
BRANCH   1  15
HETATM   15  C   UNL     1     -39.297 -54.445  14.232  1.00  0.00     0.201 C 
BRANCH  15  16
HETATM   16  O   UNL     1     -38.706 -53.327  13.582  1.00  0.00    -0.384 OA
BRANCH  16  17
HETATM   17  C   UNL     1     -38.735 -52.152  14.391  1.00  0.00     0.209 C 
BRANCH  17  18
HETATM   18  C   UNL     1     -38.835 -50.973  13.469  1.00  0.00     0.004 A 
HETATM   19  C   UNL     1     -39.996 -50.185  13.442  1.00  0.00     0.012 A 
HETATM   20  C   UNL     1     -40.098 -49.101  12.568  1.00  0.00     0.001 A 
HETATM   21  C   UNL     1     -39.040 -48.789  11.714  1.00  0.00     0.003 A 
HETATM   22  C   UNL     1     -37.879 -49.561  11.737  1.00  0.00     0.043 A 
HETATM   23  C   UNL     1     -37.784 -50.640  12.612  1.00  0.00     0.124 A 
HETATM   24  F   UNL     1     -36.659 -51.369  12.615  1.00  0.00    -0.205 F 
ENDBRANCH  17  18
ENDBRANCH  16  17
ENDBRANCH  15  16
ENDBRANCH   1  15
TORSDOF 7
ENDMDL
MODEL 9
REMARK VINA RESULT:      -6.2      3.961      7.041
REMARK  7 active torsions:
REMARK  status: ('A' for Active; 'I' for Inactive)
REMARK    1  A    between atoms: N_6  and  C_7 
REMARK    2  A    between atoms: C_7  and  C_8 
REMARK    3  A    between atoms: C_8  and  O_9 
REMARK    4  A    between atoms: C_8  and  C_10 
REMARK    5  A    between atoms: C_10  and  O_11 
REMARK    6  A    between atoms: O_11  and  C_12 
REMARK    7  A    between atoms: C_12  and  C_13 
ROOT
HETATM    1  C   UNL     1     -40.964 -50.556  11.605  1.00  0.00     0.160 C 
ENDROOT
BRANCH   1   2
HETATM    2  C   UNL     1     -41.749 -49.363  12.192  1.00  0.00     0.166 C 
BRANCH   2   3
HETATM    3  N   UNL     1     -41.191 -48.069  11.818  1.00  0.00    -0.307 N 
HETATM    4  C   UNL     1     -41.431 -47.547  10.575  1.00  0.00     0.186 A 
HETATM    5  N   UNL     1     -41.007 -46.402  10.160  1.00  0.00    -0.355 N 
HETATM    6  C   UNL     1     -40.261 -45.650  11.032  1.00  0.00     0.017 A 
ATOM      7  HN  UNL     1     -41.218 -46.068   9.219  1.00  0.00     0.166 HD
HETATM    8  C   UNL     1     -39.830 -44.310  10.486  1.00  0.00     0.069 C 
HETATM    9  C   UNL     1     -39.931 -46.045  12.273  1.00  0.00     0.028 A 
HETATM   10  C   UNL     1     -40.407 -47.383  12.720  1.00  0.00     0.256 A 
HETATM   11  C   UNL     1     -39.127 -45.226  13.238  1.00  0.00     0.056 C 
HETATM   12  O   UNL     1     -40.120 -47.829  13.830  1.00  0.00    -0.267 OA
ENDBRANCH   2   3
ENDBRANCH   1   2
BRANCH   1  13
HETATM   13  O   UNL     1     -40.229 -50.208  10.427  1.00  0.00    -0.392 OA
HETATM   14  H   UNL     1     -40.863 -50.053   9.699  1.00  0.00     0.210 HD
ENDBRANCH   1  13
BRANCH   1  15
HETATM   15  C   UNL     1     -39.982 -51.112  12.644  1.00  0.00     0.201 C 
BRANCH  15  16
HETATM   16  O   UNL     1     -40.634 -52.111  13.418  1.00  0.00    -0.384 OA
BRANCH  16  17
HETATM   17  C   UNL     1     -40.980 -53.257  12.642  1.00  0.00     0.209 C 
BRANCH  17  18
HETATM   18  C   UNL     1     -42.271 -53.795  13.186  1.00  0.00     0.004 A 
HETATM   19  C   UNL     1     -43.487 -53.516  12.543  1.00  0.00     0.012 A 
HETATM   20  C   UNL     1     -44.691 -53.999  13.062  1.00  0.00     0.001 A 
HETATM   21  C   UNL     1     -44.692 -54.768  14.224  1.00  0.00     0.003 A 
HETATM   22  C   UNL     1     -43.490 -55.058  14.867  1.00  0.00     0.043 A 
HETATM   23  C   UNL     1     -42.293 -54.574  14.344  1.00  0.00     0.124 A 
HETATM   24  F   UNL     1     -41.149 -54.864  14.980  1.00  0.00    -0.205 F 
ENDBRANCH  17  18
ENDBRANCH  16  17
ENDBRANCH  15  16
ENDBRANCH   1  15
TORSDOF 7
ENDMDL
