MODEL 1
REMARK VINA RESULT:      -5.6      0.000      0.000
REMARK  7 active torsions:
REMARK  status: ('A' for Active; 'I' for Inactive)
REMARK    1  A    between atoms: C_2  and  N_3 
REMARK    2  A    between atoms: N_3  and  C_4 
REMARK    3  A    between atoms: N_3  and  S_6 
REMARK    4  A    between atoms: S_6  and  N_9 
REMARK    5  A    between atoms: N_9  and  C_10 
REMARK    6  A    between atoms: C_10  and  C_11 
REMARK    7  A    between atoms: C_16  and  N_18 
ROOT
HETATM    1  C   UNL     1     -40.510 -51.286  12.291  1.00  0.00    -0.039 A 
HETATM    2  C   UNL     1     -39.631 -51.030  13.338  1.00  0.00     0.025 A 
HETATM    3  C   UNL     1     -39.193 -49.728  13.521  1.00  0.00     0.090 A 
HETATM    4  N   UNL     1     -39.568 -48.682  12.748  1.00  0.00    -0.352 N 
ATOM      5  HN  UNL     1     -39.230 -47.740  12.945  1.00  0.00     0.166 HD
HETATM    6  C   UNL     1     -40.399 -48.914  11.713  1.00  0.00     0.103 A 
HETATM    7  C   UNL     1     -40.866 -50.206  11.469  1.00  0.00     0.056 A 
ENDROOT
BRANCH   1   8
HETATM    8  C   UNL     1     -41.085 -52.677  12.104  1.00  0.00     0.144 C 
BRANCH   8   9
HETATM    9  N   UNL     1     -42.503 -52.657  11.699  1.00  0.00    -0.202 NA
HETATM   10  H   UNL     1     -42.755 -51.743  11.324  1.00  0.00     0.141 HD
BRANCH   9  11
HETATM   11  S   UNL     1     -43.636 -52.990  12.875  1.00  0.00     0.281 S 
HETATM   12  O   UNL     1     -42.900 -53.415  14.041  1.00  0.00    -0.194 OA
HETATM   13  O   UNL     1     -44.635 -53.844  12.283  1.00  0.00    -0.194 OA
BRANCH  11  14
HETATM   14  N   UNL     1     -44.333 -51.481  13.189  1.00  0.00    -0.198 NA
BRANCH  14  15
HETATM   15  C   UNL     1     -45.824 -51.553  13.028  1.00  0.00     0.104 C 
HETATM   16  C   UNL     1     -46.588 -51.443  14.336  1.00  0.00     0.021 C 
ENDBRANCH  14  15
BRANCH  14  17
HETATM   17  C   UNL     1     -43.862 -50.734  14.388  1.00  0.00     0.104 C 
HETATM   18  C   UNL     1     -43.247 -49.379  14.094  1.00  0.00     0.021 C 
ENDBRANCH  14  17
ENDBRANCH  11  14
ENDBRANCH   9  11
ENDBRANCH   8   9
ENDBRANCH   1   8
BRANCH   6  19
HETATM   19  N   UNL     1     -40.838 -47.861  10.940  1.00  0.00    -0.363 N 
HETATM   20  C   UNL     1     -40.296 -46.506  11.085  1.00  0.00     0.150 C 
HETATM   21  C   UNL     1     -41.390 -45.523  11.539  1.00  0.00     0.187 C 
HETATM   22  O   UNL     1     -42.557 -45.591  10.708  1.00  0.00    -0.388 OA
HETATM   23  C   UNL     1     -43.112 -46.918  10.748  1.00  0.00     0.187 C 
HETATM   24  C   UNL     1     -42.112 -47.953  10.218  1.00  0.00     0.150 C 
ENDBRANCH   6  19
TORSDOF 7
ENDMDL
MODEL 2
REMARK VINA RESULT:      -5.5      3.334      4.020
REMARK  7 active torsions:
REMARK  status: ('A' for Active; 'I' for Inactive)
REMARK    1  A    between atoms: C_2  and  N_3 
REMARK    2  A    between atoms: N_3  and  C_4 
REMARK    3  A    between atoms: N_3  and  S_6 
REMARK    4  A    between atoms: S_6  and  N_9 
REMARK    5  A    between atoms: N_9  and  C_10 
REMARK    6  A    between atoms: C_10  and  C_11 
REMARK    7  A    between atoms: C_16  and  N_18 
ROOT
HETATM    1  C   UNL     1     -41.407 -52.902  12.931  1.00  0.00    -0.039 A 
HETATM    2  C   UNL     1     -41.205 -54.177  13.451  1.00  0.00     0.025 A 
HETATM    3  C   UNL     1     -40.015 -54.434  14.112  1.00  0.00     0.090 A 
HETATM    4  N   UNL     1     -39.032 -53.521  14.292  1.00  0.00    -0.352 N 
ATOM      5  HN  UNL     1     -38.185 -53.762  14.807  1.00  0.00     0.166 HD
HETATM    6  C   UNL     1     -39.197 -52.288  13.774  1.00  0.00     0.103 A 
HETATM    7  C   UNL     1     -40.369 -51.971  13.087  1.00  0.00     0.056 A 
ENDROOT
BRANCH   1   8
HETATM    8  C   UNL     1     -42.728 -52.548  12.276  1.00  0.00     0.144 C 
BRANCH   8   9
HETATM    9  N   UNL     1     -43.645 -53.700  12.184  1.00  0.00    -0.202 NA
HETATM   10  H   UNL     1     -43.830 -53.933  11.208  1.00  0.00     0.141 HD
BRANCH   9  11
HETATM   11  S   UNL     1     -45.141 -53.543  12.901  1.00  0.00     0.281 S 
HETATM   12  O   UNL     1     -45.504 -54.856  13.377  1.00  0.00    -0.194 OA
HETATM   13  O   UNL     1     -45.991 -52.833  11.978  1.00  0.00    -0.194 OA
BRANCH  11  14
HETATM   14  N   UNL     1     -44.837 -52.545  14.232  1.00  0.00    -0.198 NA
BRANCH  14  15
HETATM   15  C   UNL     1     -45.792 -51.386  14.242  1.00  0.00     0.104 C 
HETATM   16  C   UNL     1     -46.962 -51.562  15.194  1.00  0.00     0.021 C 
ENDBRANCH  14  15
BRANCH  14  17
HETATM   17  C   UNL     1     -44.621 -53.195  15.555  1.00  0.00     0.104 C 
HETATM   18  C   UNL     1     -43.326 -52.815  16.247  1.00  0.00     0.021 C 
ENDBRANCH  14  17
ENDBRANCH  11  14
ENDBRANCH   9  11
ENDBRANCH   8   9
ENDBRANCH   1   8
BRANCH   6  19
HETATM   19  N   UNL     1     -38.234 -51.324  13.986  1.00  0.00    -0.363 N 
HETATM   20  C   UNL     1     -38.167 -50.547  15.229  1.00  0.00     0.150 C 
HETATM   21  C   UNL     1     -38.395 -49.051  14.953  1.00  0.00     0.187 C 
HETATM   22  O   UNL     1     -37.537 -48.556  13.915  1.00  0.00    -0.388 OA
HETATM   23  C   UNL     1     -37.781 -49.271  12.692  1.00  0.00     0.187 C 
HETATM   24  C   UNL     1     -37.484 -50.767  12.857  1.00  0.00     0.150 C 
ENDBRANCH   6  19
TORSDOF 7
ENDMDL
MODEL 3
REMARK VINA RESULT:      -5.4      1.769      2.525
REMARK  7 active torsions:
REMARK  status: ('A' for Active; 'I' for Inactive)
REMARK    1  A    between atoms: C_2  and  N_3 
REMARK    2  A    between atoms: N_3  and  C_4 
REMARK    3  A    between atoms: N_3  and  S_6 
REMARK    4  A    between atoms: S_6  and  N_9 
REMARK    5  A    between atoms: N_9  and  C_10 
REMARK    6  A    between atoms: C_10  and  C_11 
REMARK    7  A    between atoms: C_16  and  N_18 
ROOT
HETATM    1  C   UNL     1     -42.460 -49.967  12.570  1.00  0.00    -0.039 A 
HETATM    2  C   UNL     1     -41.188 -50.532  12.598  1.00  0.00     0.025 A 
HETATM    3  C   UNL     1     -40.215 -49.994  11.770  1.00  0.00     0.090 A 
HETATM    4  N   UNL     1     -40.418 -48.949  10.935  1.00  0.00    -0.352 N 
ATOM      5  HN  UNL     1     -39.657 -48.581  10.365  1.00  0.00     0.166 HD
HETATM    6  C   UNL     1     -41.650 -48.404  10.875  1.00  0.00     0.103 A 
HETATM    7  C   UNL     1     -42.675 -48.908  11.675  1.00  0.00     0.056 A 
ENDROOT
BRANCH   1   8
HETATM    8  C   UNL     1     -43.533 -50.464  13.520  1.00  0.00     0.144 C 
BRANCH   8   9
HETATM    9  N   UNL     1     -44.768 -50.867  12.822  1.00  0.00    -0.202 NA
HETATM   10  H   UNL     1     -45.586 -50.472  13.285  1.00  0.00     0.141 HD
BRANCH   9  11
HETATM   11  S   UNL     1     -45.070 -52.500  12.690  1.00  0.00     0.281 S 
HETATM   12  O   UNL     1     -43.824 -53.115  12.298  1.00  0.00    -0.194 OA
HETATM   13  O   UNL     1     -46.254 -52.657  11.882  1.00  0.00    -0.194 OA
BRANCH  11  14
HETATM   14  N   UNL     1     -45.433 -52.963  14.276  1.00  0.00    -0.198 NA
BRANCH  14  15
HETATM   15  C   UNL     1     -46.841 -52.574  14.623  1.00  0.00     0.104 C 
HETATM   16  C   UNL     1     -46.935 -51.466  15.657  1.00  0.00     0.021 C 
ENDBRANCH  14  15
BRANCH  14  17
HETATM   17  C   UNL     1     -45.031 -54.331  14.710  1.00  0.00     0.104 C 
HETATM   18  C   UNL     1     -45.600 -55.458  13.871  1.00  0.00     0.021 C 
ENDBRANCH  14  17
ENDBRANCH  11  14
ENDBRANCH   9  11
ENDBRANCH   8   9
ENDBRANCH   1   8
BRANCH   6  19
HETATM   19  N   UNL     1     -41.872 -47.306  10.072  1.00  0.00    -0.363 N 
HETATM   20  C   UNL     1     -41.388 -45.968  10.425  1.00  0.00     0.150 C 
HETATM   21  C   UNL     1     -42.563 -44.996  10.630  1.00  0.00     0.187 C 
HETATM   22  O   UNL     1     -43.471 -45.005   9.520  1.00  0.00    -0.388 OA
HETATM   23  C   UNL     1     -44.017 -46.325   9.343  1.00  0.00     0.187 C 
HETATM   24  C   UNL     1     -42.913 -47.344   9.039  1.00  0.00     0.150 C 
ENDBRANCH   6  19
TORSDOF 7
ENDMDL
MODEL 4
REMARK VINA RESULT:      -5.3      3.249      6.772
REMARK  7 active torsions:
REMARK  status: ('A' for Active; 'I' for Inactive)
REMARK    1  A    between atoms: C_2  and  N_3 
REMARK    2  A    between atoms: N_3  and  C_4 
REMARK    3  A    between atoms: N_3  and  S_6 
REMARK    4  A    between atoms: S_6  and  N_9 
REMARK    5  A    between atoms: N_9  and  C_10 
REMARK    6  A    between atoms: C_10  and  C_11 
REMARK    7  A    between atoms: C_16  and  N_18 
ROOT
HETATM    1  C   UNL     1     -41.362 -52.162  12.499  1.00  0.00    -0.039 A 
HETATM    2  C   UNL     1     -40.590 -53.181  13.049  1.00  0.00     0.025 A 
HETATM    3  C   UNL     1     -41.243 -54.271  13.603  1.00  0.00     0.090 A 
HETATM    4  N   UNL     1     -42.588 -54.414  13.641  1.00  0.00    -0.352 N 
ATOM      5  HN  UNL     1     -43.013 -55.250  14.043  1.00  0.00     0.166 HD
HETATM    6  C   UNL     1     -43.354 -53.426  13.137  1.00  0.00     0.103 A 
HETATM    7  C   UNL     1     -42.757 -52.297  12.576  1.00  0.00     0.056 A 
ENDROOT
BRANCH   1   8
HETATM    8  C   UNL     1     -40.693 -50.992  11.805  1.00  0.00     0.144 C 
BRANCH   8   9
HETATM    9  N   UNL     1     -39.224 -51.116  11.767  1.00  0.00    -0.202 NA
HETATM   10  H   UNL     1     -38.892 -51.677  12.552  1.00  0.00     0.141 HD
BRANCH   9  11
HETATM   11  S   UNL     1     -38.339 -49.705  11.815  1.00  0.00     0.281 S 
HETATM   12  O   UNL     1     -39.279 -48.627  11.623  1.00  0.00    -0.194 OA
HETATM   13  O   UNL     1     -37.215 -49.869  10.927  1.00  0.00    -0.194 OA
BRANCH  11  14
HETATM   14  N   UNL     1     -37.767 -49.653  13.406  1.00  0.00    -0.198 NA
BRANCH  14  15
HETATM   15  C   UNL     1     -38.191 -48.375  14.070  1.00  0.00     0.104 C 
HETATM   16  C   UNL     1     -37.039 -47.569  14.644  1.00  0.00     0.021 C 
ENDBRANCH  14  15
BRANCH  14  17
HETATM   17  C   UNL     1     -37.918 -50.878  14.240  1.00  0.00     0.104 C 
HETATM   18  C   UNL     1     -38.911 -50.753  15.380  1.00  0.00     0.021 C 
ENDBRANCH  14  17
ENDBRANCH  11  14
ENDBRANCH   9  11
ENDBRANCH   8   9
ENDBRANCH   1   8
BRANCH   6  19
HETATM   19  N   UNL     1     -44.725 -53.568  13.116  1.00  0.00    -0.363 N 
HETATM   20  C   UNL     1     -45.624 -52.440  12.854  1.00  0.00     0.150 C 
HETATM   21  C   UNL     1     -46.521 -52.159  14.072  1.00  0.00     0.187 C 
HETATM   22  O   UNL     1     -47.196 -53.339  14.530  1.00  0.00    -0.388 OA
HETATM   23  C   UNL     1     -46.234 -54.338  14.912  1.00  0.00     0.187 C 
HETATM   24  C   UNL     1     -45.357 -54.745  13.722  1.00  0.00     0.150 C 
ENDBRANCH   6  19
TORSDOF 7
ENDMDL
MODEL 5
REMARK VINA RESULT:      -5.3      2.878      4.216
REMARK  7 active torsions:
REMARK  status: ('A' for Active; 'I' for Inactive)
REMARK    1  A    between atoms: C_2  and  N_3 
REMARK    2  A    between atoms: N_3  and  C_4 
REMARK    3  A    between atoms: N_3  and  S_6 
REMARK    4  A    between atoms: S_6  and  N_9 
REMARK    5  A    between atoms: N_9  and  C_10 
REMARK    6  A    between atoms: C_10  and  C_11 
REMARK    7  A    between atoms: C_16  and  N_18 
ROOT
HETATM    1  C   UNL     1     -41.759 -53.583  14.963  1.00  0.00    -0.039 A 
HETATM    2  C   UNL     1     -40.905 -54.676  15.073  1.00  0.00     0.025 A 
HETATM    3  C   UNL     1     -39.583 -54.514  14.688  1.00  0.00     0.090 A 
HETATM    4  N   UNL     1     -39.064 -53.358  14.214  1.00  0.00    -0.352 N 
ATOM      5  HN  UNL     1     -38.076 -53.292  13.968  1.00  0.00     0.166 HD
HETATM    6  C   UNL     1     -39.881 -52.295  14.076  1.00  0.00     0.103 A 
HETATM    7  C   UNL     1     -41.225 -52.398  14.435  1.00  0.00     0.056 A 
ENDROOT
BRANCH   1   8
HETATM    8  C   UNL     1     -43.191 -53.685  15.452  1.00  0.00     0.144 C 
BRANCH   8   9
HETATM    9  N   UNL     1     -43.902 -54.849  14.891  1.00  0.00    -0.202 NA
HETATM   10  H   UNL     1     -43.250 -55.472  14.414  1.00  0.00     0.141 HD
BRANCH   9  11
HETATM   11  S   UNL     1     -45.118 -54.543  13.793  1.00  0.00     0.281 S 
HETATM   12  O   UNL     1     -46.166 -55.497  14.070  1.00  0.00    -0.194 OA
HETATM   13  O   UNL     1     -44.513 -54.472  12.487  1.00  0.00    -0.194 OA
BRANCH  11  14
HETATM   14  N   UNL     1     -45.658 -52.999  14.223  1.00  0.00    -0.198 NA
BRANCH  14  15
HETATM   15  C   UNL     1     -45.512 -52.056  13.065  1.00  0.00     0.104 C 
HETATM   16  C   UNL     1     -44.535 -50.920  13.317  1.00  0.00     0.021 C 
ENDBRANCH  14  15
BRANCH  14  17
HETATM   17  C   UNL     1     -46.947 -52.894  14.963  1.00  0.00     0.104 C 
HETATM   18  C   UNL     1     -47.134 -51.602  15.734  1.00  0.00     0.021 C 
ENDBRANCH  14  17
ENDBRANCH  11  14
ENDBRANCH   9  11
ENDBRANCH   8   9
ENDBRANCH   1   8
BRANCH   6  19
HETATM   19  N   UNL     1     -39.368 -51.091  13.644  1.00  0.00    -0.363 N 
HETATM   20  C   UNL     1     -40.192 -50.092  12.957  1.00  0.00     0.150 C 
HETATM   21  C   UNL     1     -39.685 -49.855  11.524  1.00  0.00     0.187 C 
HETATM   22  O   UNL     1     -38.280 -49.566  11.488  1.00  0.00    -0.388 OA
HETATM   23  C   UNL     1     -37.538 -50.668  12.041  1.00  0.00     0.187 C 
HETATM   24  C   UNL     1     -37.919 -50.911  13.507  1.00  0.00     0.150 C 
ENDBRANCH   6  19
TORSDOF 7
ENDMDL
MODEL 6
REMARK VINA RESULT:      -5.1      2.428      6.273
REMARK  7 active torsions:
REMARK  status: ('A' for Active; 'I' for Inactive)
REMARK    1  A    between atoms: C_2  and  N_3 
REMARK    2  A    between atoms: N_3  and  C_4 
REMARK    3  A    between atoms: N_3  and  S_6 
REMARK    4  A    between atoms: S_6  and  N_9 
REMARK    5  A    between atoms: N_9  and  C_10 
REMARK    6  A    between atoms: C_10  and  C_11 
REMARK    7  A    between atoms: C_16  and  N_18 
ROOT
HETATM    1  C   UNL     1     -41.434 -52.005  12.426  1.00  0.00    -0.039 A 
HETATM    2  C   UNL     1     -40.600 -53.018  12.890  1.00  0.00     0.025 A 
HETATM    3  C   UNL     1     -41.184 -54.162  13.408  1.00  0.00     0.090 A 
HETATM    4  N   UNL     1     -42.520 -54.365  13.490  1.00  0.00    -0.352 N 
ATOM      5  HN  UNL     1     -42.893 -55.239  13.862  1.00  0.00     0.166 HD
HETATM    6  C   UNL     1     -43.346 -53.386  13.070  1.00  0.00     0.103 A 
HETATM    7  C   UNL     1     -42.818 -52.204  12.549  1.00  0.00     0.056 A 
ENDROOT
BRANCH   1   8
HETATM    8  C   UNL     1     -40.843 -50.772  11.771  1.00  0.00     0.144 C 
BRANCH   8   9
HETATM    9  N   UNL     1     -41.873 -49.818  11.319  1.00  0.00    -0.202 NA
HETATM   10  H   UNL     1     -41.880 -49.753  10.301  1.00  0.00     0.141 HD
BRANCH   9  11
HETATM   11  S   UNL     1     -41.754 -48.250  11.870  1.00  0.00     0.281 S 
HETATM   12  O   UNL     1     -40.400 -48.086  12.341  1.00  0.00    -0.194 OA
HETATM   13  O   UNL     1     -42.873 -48.014  12.749  1.00  0.00    -0.194 OA
BRANCH  11  14
HETATM   14  N   UNL     1     -41.962 -47.324  10.470  1.00  0.00    -0.198 NA
BRANCH  14  15
HETATM   15  C   UNL     1     -43.371 -47.450   9.968  1.00  0.00     0.104 C 
HETATM   16  C   UNL     1     -43.475 -47.609   8.461  1.00  0.00     0.021 C 
ENDBRANCH  14  15
BRANCH  14  17
HETATM   17  C   UNL     1     -41.412 -45.940  10.463  1.00  0.00     0.104 C 
HETATM   18  C   UNL     1     -42.380 -44.867  10.923  1.00  0.00     0.021 C 
ENDBRANCH  14  17
ENDBRANCH  11  14
ENDBRANCH   9  11
ENDBRANCH   8   9
ENDBRANCH   1   8
BRANCH   6  19
HETATM   19  N   UNL     1     -44.709 -53.586  13.095  1.00  0.00    -0.363 N 
HETATM   20  C   UNL     1     -45.662 -52.518  12.772  1.00  0.00     0.150 C 
HETATM   21  C   UNL     1     -46.543 -52.183  13.987  1.00  0.00     0.187 C 
HETATM   22  O   UNL     1     -47.156 -53.351  14.549  1.00  0.00    -0.388 OA
HETATM   23  C   UNL     1     -46.144 -54.278  14.981  1.00  0.00     0.187 C 
HETATM   24  C   UNL     1     -45.276 -54.738  13.804  1.00  0.00     0.150 C 
ENDBRANCH   6  19
TORSDOF 7
ENDMDL
MODEL 7
REMARK VINA RESULT:      -5.1      3.783      6.774
REMARK  7 active torsions:
REMARK  status: ('A' for Active; 'I' for Inactive)
REMARK    1  A    between atoms: C_2  and  N_3 
REMARK    2  A    between atoms: N_3  and  C_4 
REMARK    3  A    between atoms: N_3  and  S_6 
REMARK    4  A    between atoms: S_6  and  N_9 
REMARK    5  A    between atoms: N_9  and  C_10 
REMARK    6  A    between atoms: C_10  and  C_11 
REMARK    7  A    between atoms: C_16  and  N_18 
ROOT
HETATM    1  C   UNL     1     -40.401 -54.373  14.645  1.00  0.00    -0.039 A 
HETATM    2  C   UNL     1     -40.540 -55.069  15.842  1.00  0.00     0.025 A 
HETATM    3  C   UNL     1     -41.811 -55.469  16.222  1.00  0.00     0.090 A 
HETATM    4  N   UNL     1     -42.932 -55.231  15.502  1.00  0.00    -0.352 N 
ATOM      5  HN  UNL     1     -43.839 -55.570  15.822  1.00  0.00     0.166 HD
HETATM    6  C   UNL     1     -42.823 -54.537  14.353  1.00  0.00     0.103 A 
HETATM    7  C   UNL     1     -41.571 -54.096  13.921  1.00  0.00     0.056 A 
ENDROOT
BRANCH   1   8
HETATM    8  C   UNL     1     -39.023 -53.990  14.143  1.00  0.00     0.144 C 
BRANCH   8   9
HETATM    9  N   UNL     1     -39.000 -52.667  13.493  1.00  0.00    -0.202 NA
HETATM   10  H   UNL     1     -38.196 -52.587  12.871  1.00  0.00     0.141 HD
BRANCH   9  11
HETATM   11  S   UNL     1     -38.936 -51.330  14.487  1.00  0.00     0.281 S 
HETATM   12  O   UNL     1     -38.395 -51.785  15.746  1.00  0.00    -0.194 OA
HETATM   13  O   UNL     1     -40.225 -50.686  14.429  1.00  0.00    -0.194 OA
BRANCH  11  14
HETATM   14  N   UNL     1     -37.798 -50.332  13.732  1.00  0.00    -0.198 NA
BRANCH  14  15
HETATM   15  C   UNL     1     -37.342 -50.947  12.441  1.00  0.00     0.104 C 
HETATM   16  C   UNL     1     -37.422 -50.008  11.250  1.00  0.00     0.021 C 
ENDBRANCH  14  15
BRANCH  14  17
HETATM   17  C   UNL     1     -38.087 -48.872  13.667  1.00  0.00     0.104 C 
HETATM   18  C   UNL     1     -37.280 -48.021  14.628  1.00  0.00     0.021 C 
ENDBRANCH  14  17
ENDBRANCH  11  14
ENDBRANCH   9  11
ENDBRANCH   8   9
ENDBRANCH   1   8
BRANCH   6  19
HETATM   19  N   UNL     1     -43.940 -54.324  13.574  1.00  0.00    -0.363 N 
HETATM   20  C   UNL     1     -44.003 -53.254  12.573  1.00  0.00     0.150 C 
HETATM   21  C   UNL     1     -45.100 -52.236  12.929  1.00  0.00     0.187 C 
HETATM   22  O   UNL     1     -46.364 -52.867  13.178  1.00  0.00    -0.388 OA
HETATM   23  C   UNL     1     -46.244 -53.788  14.277  1.00  0.00     0.187 C 
HETATM   24  C   UNL     1     -45.233 -54.897  13.963  1.00  0.00     0.150 C 
ENDBRANCH   6  19
TORSDOF 7
ENDMDL
MODEL 8
REMARK VINA RESULT:      -5.1      1.848      2.677
REMARK  7 active torsions:
REMARK  status: ('A' for Active; 'I' for Inactive)
REMARK    1  A    between atoms: C_2  and  N_3 
REMARK    2  A    between atoms: N_3  and  C_4 
REMARK    3  A    between atoms: N_3  and  S_6 
REMARK    4  A    between atoms: S_6  and  N_9 
REMARK    5  A    between atoms: N_9  and  C_10 
REMARK    6  A    between atoms: C_10  and  C_11 
REMARK    7  A    between atoms: C_16  and  N_18 
ROOT
HETATM    1  C   UNL     1     -40.740 -53.236  13.303  1.00  0.00    -0.039 A 
HETATM    2  C   UNL     1     -39.936 -53.413  14.425  1.00  0.00     0.025 A 
HETATM    3  C   UNL     1     -38.979 -52.450  14.702  1.00  0.00     0.090 A 
HETATM    4  N   UNL     1     -38.776 -51.340  13.953  1.00  0.00    -0.352 N 
ATOM      5  HN  UNL     1     -38.070 -50.654  14.220  1.00  0.00     0.166 HD
HETATM    6  C   UNL     1     -39.527 -51.164  12.849  1.00  0.00     0.103 A 
HETATM    7  C   UNL     1     -40.500 -52.105  12.509  1.00  0.00     0.056 A 
ENDROOT
BRANCH   1   8
HETATM    8  C   UNL     1     -41.858 -54.217  13.007  1.00  0.00     0.144 C 
BRANCH   8   9
HETATM    9  N   UNL     1     -42.753 -54.426  14.161  1.00  0.00    -0.202 NA
HETATM   10  H   UNL     1     -42.682 -55.386  14.499  1.00  0.00     0.141 HD
BRANCH   9  11
HETATM   11  S   UNL     1     -44.379 -54.150  13.925  1.00  0.00     0.281 S 
HETATM   12  O   UNL     1     -45.077 -55.014  14.847  1.00  0.00    -0.194 OA
HETATM   13  O   UNL     1     -44.630 -54.232  12.507  1.00  0.00    -0.194 OA
BRANCH  11  14
HETATM   14  N   UNL     1     -44.582 -52.546  14.418  1.00  0.00    -0.198 NA
BRANCH  14  15
HETATM   15  C   UNL     1     -44.586 -51.631  13.227  1.00  0.00     0.104 C 
HETATM   16  C   UNL     1     -43.636 -50.453  13.354  1.00  0.00     0.021 C 
ENDBRANCH  14  15
BRANCH  14  17
HETATM   17  C   UNL     1     -45.631 -52.258  15.437  1.00  0.00     0.104 C 
HETATM   18  C   UNL     1     -46.858 -51.546  14.903  1.00  0.00     0.021 C 
ENDBRANCH  14  17
ENDBRANCH  11  14
ENDBRANCH   9  11
ENDBRANCH   8   9
ENDBRANCH   1   8
BRANCH   6  19
HETATM   19  N   UNL     1     -39.377 -50.019  12.096  1.00  0.00    -0.363 N 
HETATM   20  C   UNL     1     -38.544 -48.896  12.539  1.00  0.00     0.150 C 
HETATM   21  C   UNL     1     -39.395 -47.631  12.748  1.00  0.00     0.187 C 
HETATM   22  O   UNL     1     -40.206 -47.330  11.604  1.00  0.00    -0.388 OA
HETATM   23  C   UNL     1     -41.101 -48.424  11.335  1.00  0.00     0.187 C 
HETATM   24  C   UNL     1     -40.326 -49.709  11.022  1.00  0.00     0.150 C 
ENDBRANCH   6  19
TORSDOF 7
ENDMDL
MODEL 9
REMARK VINA RESULT:      -5.0      2.822      7.076
REMARK  7 active torsions:
REMARK  status: ('A' for Active; 'I' for Inactive)
REMARK    1  A    between atoms: C_2  and  N_3 
REMARK    2  A    between atoms: N_3  and  C_4 
REMARK    3  A    between atoms: N_3  and  S_6 
REMARK    4  A    between atoms: S_6  and  N_9 
REMARK    5  A    between atoms: N_9  and  C_10 
REMARK    6  A    between atoms: C_10  and  C_11 
REMARK    7  A    between atoms: C_16  and  N_18 
ROOT
HETATM    1  C   UNL     1     -40.510 -48.914  11.584  1.00  0.00    -0.039 A 
HETATM    2  C   UNL     1     -39.161 -48.963  11.922  1.00  0.00     0.025 A 
HETATM    3  C   UNL     1     -38.652 -50.156  12.410  1.00  0.00     0.090 A 
HETATM    4  N   UNL     1     -39.381 -51.284  12.575  1.00  0.00    -0.352 N 
ATOM      5  HN  UNL     1     -38.946 -52.141  12.917  1.00  0.00     0.166 HD
HETATM    6  C   UNL     1     -40.695 -51.250  12.277  1.00  0.00     0.103 A 
HETATM    7  C   UNL     1     -41.270 -50.075  11.793  1.00  0.00     0.056 A 
ENDROOT
BRANCH   1   8
HETATM    8  C   UNL     1     -41.093 -47.658  10.965  1.00  0.00     0.144 C 
BRANCH   8   9
HETATM    9  N   UNL     1     -40.063 -46.661  10.621  1.00  0.00    -0.202 NA
HETATM   10  H   UNL     1     -39.346 -46.622  11.346  1.00  0.00     0.141 HD
BRANCH   9  11
HETATM   11  S   UNL     1     -40.567 -45.088  10.400  1.00  0.00     0.281 S 
HETATM   12  O   UNL     1     -41.941 -45.159   9.964  1.00  0.00    -0.194 OA
HETATM   13  O   UNL     1     -39.572 -44.424   9.595  1.00  0.00    -0.194 OA
BRANCH  11  14
HETATM   14  N   UNL     1     -40.522 -44.437  11.961  1.00  0.00    -0.198 NA
BRANCH  14  15
HETATM   15  C   UNL     1     -39.124 -44.488  12.505  1.00  0.00     0.104 C 
HETATM   16  C   UNL     1     -38.991 -45.294  13.785  1.00  0.00     0.021 C 
ENDBRANCH  14  15
BRANCH  14  17
HETATM   17  C   UNL     1     -41.247 -43.159  12.203  1.00  0.00     0.104 C 
HETATM   18  C   UNL     1     -40.377 -41.918  12.171  1.00  0.00     0.021 C 
ENDBRANCH  14  17
ENDBRANCH  11  14
ENDBRANCH   9  11
ENDBRANCH   8   9
ENDBRANCH   1   8
BRANCH   6  19
HETATM   19  N   UNL     1     -41.450 -52.398  12.387  1.00  0.00    -0.363 N 
HETATM   20  C   UNL     1     -42.906 -52.362  12.560  1.00  0.00     0.150 C 
HETATM   21  C   UNL     1     -43.313 -52.979  13.909  1.00  0.00     0.187 C 
HETATM   22  O   UNL     1     -42.742 -54.281  14.102  1.00  0.00    -0.388 OA
HETATM   23  C   UNL     1     -41.306 -54.197  14.072  1.00  0.00     0.187 C 
HETATM   24  C   UNL     1     -40.811 -53.676  12.717  1.00  0.00     0.150 C 
ENDBRANCH   6  19
TORSDOF 7
ENDMDL
