MODEL 1
REMARK VINA RESULT:      -6.2      0.000      0.000
REMARK  5 active torsions:
REMARK  status: ('A' for Active; 'I' for Inactive)
REMARK    1  A    between atoms: C_2  and  N_3 
REMARK    2  A    between atoms: C_2  and  C_12 
REMARK    3  A    between atoms: N_3  and  C_4 
REMARK    4  A    between atoms: C_4  and  C_5 
REMARK    5  A    between atoms: C_5  and  N_6 
REMARK       I    between atoms: C_12  and  N_14 
REMARK       I    between atoms: N_17  and  C_20 
ROOT
HETATM    1  C   UNL     1     -39.460 -50.751  13.118  1.00  0.00     0.053 C 
HETATM    2  C   UNL     1     -40.789 -50.914  12.380  1.00  0.00     0.307 C 
ENDROOT
BRANCH   2   3
HETATM    3  N   UNL     1     -40.790 -50.349  11.005  1.00  0.00     0.098 N 
HETATM    4  H   UNL     1     -41.588 -50.754  10.512  1.00  0.00     0.317 HD
BRANCH   3   5
HETATM    5  C   UNL     1     -40.934 -48.878  10.952  1.00  0.00     0.292 C 
BRANCH   5   6
HETATM    6  C   UNL     1     -42.374 -48.463  11.280  1.00  0.00     0.178 C 
BRANCH   6   7
HETATM    7  N   UNL     1     -43.073 -47.928  10.127  1.00  0.00    -0.302 N 
HETATM    8  C   UNL     1     -44.146 -47.084  10.137  1.00  0.00     0.111 A 
HETATM    9  C   UNL     1     -44.423 -46.800   8.820  1.00  0.00     0.037 A 
HETATM   10  C   UNL     1     -43.455 -47.515   8.092  1.00  0.00     0.108 A 
HETATM   11  N   UNL     1     -42.629 -48.207   8.883  1.00  0.00    -0.310 N 
ATOM     12  HN  UNL     1     -41.849 -48.804   8.611  1.00  0.00     0.186 HD
ENDBRANCH   6   7
ENDBRANCH   5   6
ENDBRANCH   3   5
ENDBRANCH   2   3
BRANCH   2  13
HETATM   13  C   UNL     1     -41.258 -52.390  12.421  1.00  0.00     0.253 C 
HETATM   14  O   UNL     1     -40.459 -53.306  12.200  1.00  0.00    -0.271 OA
HETATM   15  N   UNL     1     -42.576 -52.653  12.773  1.00  0.00    -0.347 N 
HETATM   16  C   UNL     1     -43.654 -51.663  12.914  1.00  0.00     0.145 C 
HETATM   17  C   UNL     1     -42.950 -54.008  13.209  1.00  0.00     0.145 C 
HETATM   18  C   UNL     1     -44.166 -51.628  14.365  1.00  0.00     0.145 C 
HETATM   19  N   UNL     1     -44.553 -52.979  14.805  1.00  0.00    -0.349 N 
HETATM   20  C   UNL     1     -43.476 -53.976  14.659  1.00  0.00     0.145 C 
HETATM   21  C   UNL     1     -45.805 -53.408  15.201  1.00  0.00     0.215 C 
HETATM   22  O   UNL     1     -46.019 -54.583  15.514  1.00  0.00    -0.274 OA
HETATM   23  C   UNL     1     -46.956 -52.435  15.262  1.00  0.00     0.117 C 
ENDBRANCH   2  13
TORSDOF 5
ENDMDL
MODEL 2
REMARK VINA RESULT:      -6.0      3.307      4.969
REMARK  5 active torsions:
REMARK  status: ('A' for Active; 'I' for Inactive)
REMARK    1  A    between atoms: C_2  and  N_3 
REMARK    2  A    between atoms: C_2  and  C_12 
REMARK    3  A    between atoms: N_3  and  C_4 
REMARK    4  A    between atoms: C_4  and  C_5 
REMARK    5  A    between atoms: C_5  and  N_6 
REMARK       I    between atoms: C_12  and  N_14 
REMARK       I    between atoms: N_17  and  C_20 
ROOT
HETATM    1  C   UNL     1     -42.433 -45.696  12.318  1.00  0.00     0.053 C 
HETATM    2  C   UNL     1     -41.868 -46.579  11.204  1.00  0.00     0.307 C 
ENDROOT
BRANCH   2   3
HETATM    3  N   UNL     1     -41.932 -45.964   9.853  1.00  0.00     0.098 N 
HETATM    4  H   UNL     1     -41.315 -46.506   9.244  1.00  0.00     0.317 HD
BRANCH   3   5
HETATM    5  C   UNL     1     -43.279 -45.973   9.244  1.00  0.00     0.292 C 
BRANCH   5   6
HETATM    6  C   UNL     1     -43.444 -47.181   8.311  1.00  0.00     0.178 C 
BRANCH   6   7
HETATM    7  N   UNL     1     -44.760 -47.782   8.412  1.00  0.00    -0.302 N 
HETATM    8  C   UNL     1     -45.650 -47.642   9.438  1.00  0.00     0.111 A 
HETATM    9  C   UNL     1     -46.777 -48.336   9.067  1.00  0.00     0.037 A 
HETATM   10  C   UNL     1     -46.471 -48.855   7.795  1.00  0.00     0.108 A 
HETATM   11  N   UNL     1     -45.241 -48.522   7.391  1.00  0.00    -0.310 N 
ATOM     12  HN  UNL     1     -44.777 -48.769   6.517  1.00  0.00     0.186 HD
ENDBRANCH   6   7
ENDBRANCH   5   6
ENDBRANCH   3   5
ENDBRANCH   2   3
BRANCH   2  13
HETATM   13  C   UNL     1     -40.446 -47.073  11.571  1.00  0.00     0.253 C 
HETATM   14  O   UNL     1     -39.567 -46.267  11.890  1.00  0.00    -0.271 OA
HETATM   15  N   UNL     1     -40.209 -48.443  11.592  1.00  0.00    -0.347 N 
HETATM   16  C   UNL     1     -41.114 -49.490  11.096  1.00  0.00     0.145 C 
HETATM   17  C   UNL     1     -39.031 -48.961  12.304  1.00  0.00     0.145 C 
HETATM   18  C   UNL     1     -41.556 -50.409  12.249  1.00  0.00     0.145 C 
HETATM   19  N   UNL     1     -40.381 -50.940  12.960  1.00  0.00    -0.349 N 
HETATM   20  C   UNL     1     -39.468 -49.892  13.453  1.00  0.00     0.145 C 
HETATM   21  C   UNL     1     -40.005 -52.263  13.091  1.00  0.00     0.215 C 
HETATM   22  O   UNL     1     -38.971 -52.587  13.683  1.00  0.00    -0.274 OA
HETATM   23  C   UNL     1     -40.864 -53.358  12.508  1.00  0.00     0.117 C 
ENDBRANCH   2  13
TORSDOF 5
ENDMDL
MODEL 3
REMARK VINA RESULT:      -5.9      1.590      1.833
REMARK  5 active torsions:
REMARK  status: ('A' for Active; 'I' for Inactive)
REMARK    1  A    between atoms: C_2  and  N_3 
REMARK    2  A    between atoms: C_2  and  C_12 
REMARK    3  A    between atoms: N_3  and  C_4 
REMARK    4  A    between atoms: C_4  and  C_5 
REMARK    5  A    between atoms: C_5  and  N_6 
REMARK       I    between atoms: C_12  and  N_14 
REMARK       I    between atoms: N_17  and  C_20 
ROOT
HETATM    1  C   UNL     1     -39.191 -49.167  13.915  1.00  0.00     0.053 C 
HETATM    2  C   UNL     1     -39.936 -49.981  12.856  1.00  0.00     0.307 C 
ENDROOT
BRANCH   2   3
HETATM    3  N   UNL     1     -39.739 -49.490  11.467  1.00  0.00     0.098 N 
HETATM    4  H   UNL     1     -39.272 -50.234  10.946  1.00  0.00     0.317 HD
BRANCH   3   5
HETATM    5  C   UNL     1     -40.993 -49.167  10.753  1.00  0.00     0.292 C 
BRANCH   5   6
HETATM    6  C   UNL     1     -41.291 -47.663  10.834  1.00  0.00     0.178 C 
BRANCH   6   7
HETATM    7  N   UNL     1     -42.337 -47.256   9.916  1.00  0.00    -0.302 N 
HETATM    8  C   UNL     1     -42.978 -46.050   9.886  1.00  0.00     0.111 A 
HETATM    9  C   UNL     1     -43.838 -46.100   8.814  1.00  0.00     0.037 A 
HETATM   10  C   UNL     1     -43.636 -47.376   8.256  1.00  0.00     0.108 A 
HETATM   11  N   UNL     1     -42.723 -48.086   8.925  1.00  0.00    -0.310 N 
ATOM     12  HN  UNL     1     -42.396 -49.032   8.731  1.00  0.00     0.186 HD
ENDBRANCH   6   7
ENDBRANCH   5   6
ENDBRANCH   3   5
ENDBRANCH   2   3
BRANCH   2  13
HETATM   13  C   UNL     1     -39.620 -51.490  13.008  1.00  0.00     0.253 C 
HETATM   14  O   UNL     1     -38.455 -51.874  13.150  1.00  0.00    -0.271 OA
HETATM   15  N   UNL     1     -40.683 -52.385  13.043  1.00  0.00    -0.347 N 
HETATM   16  C   UNL     1     -42.088 -52.080  12.741  1.00  0.00     0.145 C 
HETATM   17  C   UNL     1     -40.468 -53.740  13.576  1.00  0.00     0.145 C 
HETATM   18  C   UNL     1     -42.968 -52.303  13.985  1.00  0.00     0.145 C 
HETATM   19  N   UNL     1     -42.766 -53.660  14.518  1.00  0.00    -0.349 N 
HETATM   20  C   UNL     1     -41.356 -53.972  14.816  1.00  0.00     0.145 C 
HETATM   21  C   UNL     1     -43.708 -54.665  14.638  1.00  0.00     0.215 C 
HETATM   22  O   UNL     1     -43.411 -55.783  15.067  1.00  0.00    -0.274 OA
HETATM   23  C   UNL     1     -45.142 -54.412  14.243  1.00  0.00     0.117 C 
ENDBRANCH   2  13
TORSDOF 5
ENDMDL
MODEL 4
REMARK VINA RESULT:      -5.8      2.042      2.827
REMARK  5 active torsions:
REMARK  status: ('A' for Active; 'I' for Inactive)
REMARK    1  A    between atoms: C_2  and  N_3 
REMARK    2  A    between atoms: C_2  and  C_12 
REMARK    3  A    between atoms: N_3  and  C_4 
REMARK    4  A    between atoms: C_4  and  C_5 
REMARK    5  A    between atoms: C_5  and  N_6 
REMARK       I    between atoms: C_12  and  N_14 
REMARK       I    between atoms: N_17  and  C_20 
ROOT
HETATM    1  C   UNL     1     -39.453 -51.073  15.713  1.00  0.00     0.053 C 
HETATM    2  C   UNL     1     -39.268 -51.158  14.197  1.00  0.00     0.307 C 
ENDROOT
BRANCH   2   3
HETATM    3  N   UNL     1     -37.932 -50.711  13.725  1.00  0.00     0.098 N 
HETATM    4  H   UNL     1     -37.554 -51.455  13.135  1.00  0.00     0.317 HD
BRANCH   3   5
HETATM    5  C   UNL     1     -37.955 -49.471  12.918  1.00  0.00     0.292 C 
BRANCH   5   6
HETATM    6  C   UNL     1     -38.625 -49.721  11.561  1.00  0.00     0.178 C 
BRANCH   6   7
HETATM    7  N   UNL     1     -39.808 -48.904  11.369  1.00  0.00    -0.302 N 
HETATM    8  C   UNL     1     -40.077 -47.700  11.953  1.00  0.00     0.111 A 
HETATM    9  C   UNL     1     -41.274 -47.275  11.425  1.00  0.00     0.037 A 
HETATM   10  C   UNL     1     -41.644 -48.291  10.524  1.00  0.00     0.108 A 
HETATM   11  N   UNL     1     -40.755 -49.288  10.487  1.00  0.00    -0.310 N 
ATOM     12  HN  UNL     1     -40.784 -50.138   9.924  1.00  0.00     0.186 HD
ENDBRANCH   6   7
ENDBRANCH   5   6
ENDBRANCH   3   5
ENDBRANCH   2   3
BRANCH   2  13
HETATM   13  C   UNL     1     -39.643 -52.570  13.682  1.00  0.00     0.253 C 
HETATM   14  O   UNL     1     -38.851 -53.509  13.798  1.00  0.00    -0.271 OA
HETATM   15  N   UNL     1     -40.913 -52.760  13.148  1.00  0.00    -0.347 N 
HETATM   16  C   UNL     1     -41.886 -51.708  12.820  1.00  0.00     0.145 C 
HETATM   17  C   UNL     1     -41.446 -54.125  13.023  1.00  0.00     0.145 C 
HETATM   18  C   UNL     1     -43.153 -51.860  13.681  1.00  0.00     0.145 C 
HETATM   19  N   UNL     1     -43.699 -53.222  13.552  1.00  0.00    -0.349 N 
HETATM   20  C   UNL     1     -42.723 -54.279  13.874  1.00  0.00     0.145 C 
HETATM   21  C   UNL     1     -44.937 -53.588  13.060  1.00  0.00     0.215 C 
HETATM   22  O   UNL     1     -45.272 -54.773  12.965  1.00  0.00    -0.274 OA
HETATM   23  C   UNL     1     -45.922 -52.533  12.623  1.00  0.00     0.117 C 
ENDBRANCH   2  13
TORSDOF 5
ENDMDL
MODEL 5
REMARK VINA RESULT:      -5.8      3.174      6.732
REMARK  5 active torsions:
REMARK  status: ('A' for Active; 'I' for Inactive)
REMARK    1  A    between atoms: C_2  and  N_3 
REMARK    2  A    between atoms: C_2  and  C_12 
REMARK    3  A    between atoms: N_3  and  C_4 
REMARK    4  A    between atoms: C_4  and  C_5 
REMARK    5  A    between atoms: C_5  and  N_6 
REMARK       I    between atoms: C_12  and  N_14 
REMARK       I    between atoms: N_17  and  C_20 
ROOT
HETATM    1  C   UNL     1     -37.508 -50.357  11.435  1.00  0.00     0.053 C 
HETATM    2  C   UNL     1     -38.780 -50.279  12.281  1.00  0.00     0.307 C 
ENDROOT
BRANCH   2   3
HETATM    3  N   UNL     1     -38.816 -51.245  13.410  1.00  0.00     0.098 N 
HETATM    4  H   UNL     1     -38.495 -50.748  14.244  1.00  0.00     0.317 HD
BRANCH   3   5
HETATM    5  C   UNL     1     -40.160 -51.787  13.705  1.00  0.00     0.292 C 
BRANCH   5   6
HETATM    6  C   UNL     1     -40.754 -52.465  12.463  1.00  0.00     0.178 C 
BRANCH   6   7
HETATM    7  N   UNL     1     -42.030 -53.099  12.736  1.00  0.00    -0.302 N 
HETATM    8  C   UNL     1     -42.341 -53.890  13.805  1.00  0.00     0.111 A 
HETATM    9  C   UNL     1     -43.672 -54.207  13.674  1.00  0.00     0.037 A 
HETATM   10  C   UNL     1     -44.078 -53.552  12.496  1.00  0.00     0.108 A 
HETATM   11  N   UNL     1     -43.080 -52.876  11.918  1.00  0.00    -0.310 N 
ATOM     12  HN  UNL     1     -43.106 -52.323  11.062  1.00  0.00     0.186 HD
ENDBRANCH   6   7
ENDBRANCH   5   6
ENDBRANCH   3   5
ENDBRANCH   2   3
BRANCH   2  13
HETATM   13  C   UNL     1     -39.044 -48.821  12.732  1.00  0.00     0.253 C 
HETATM   14  O   UNL     1     -38.190 -48.200  13.372  1.00  0.00    -0.271 OA
HETATM   15  N   UNL     1     -40.234 -48.216  12.343  1.00  0.00    -0.347 N 
HETATM   16  C   UNL     1     -41.384 -48.882  11.715  1.00  0.00     0.145 C 
HETATM   17  C   UNL     1     -40.350 -46.751  12.397  1.00  0.00     0.145 C 
HETATM   18  C   UNL     1     -41.626 -48.320  10.302  1.00  0.00     0.145 C 
HETATM   19  N   UNL     1     -41.754 -46.854  10.350  1.00  0.00    -0.349 N 
HETATM   20  C   UNL     1     -40.605 -46.183  10.985  1.00  0.00     0.145 C 
HETATM   21  C   UNL     1     -42.851 -46.094   9.991  1.00  0.00     0.215 C 
HETATM   22  O   UNL     1     -42.855 -44.865  10.111  1.00  0.00    -0.274 OA
HETATM   23  C   UNL     1     -44.085 -46.758   9.433  1.00  0.00     0.117 C 
ENDBRANCH   2  13
TORSDOF 5
ENDMDL
MODEL 6
REMARK VINA RESULT:      -5.8      3.192      4.647
REMARK  5 active torsions:
REMARK  status: ('A' for Active; 'I' for Inactive)
REMARK    1  A    between atoms: C_2  and  N_3 
REMARK    2  A    between atoms: C_2  and  C_12 
REMARK    3  A    between atoms: N_3  and  C_4 
REMARK    4  A    between atoms: C_4  and  C_5 
REMARK    5  A    between atoms: C_5  and  N_6 
REMARK       I    between atoms: C_12  and  N_14 
REMARK       I    between atoms: N_17  and  C_20 
ROOT
HETATM    1  C   UNL     1     -43.195 -54.209  13.729  1.00  0.00     0.053 C 
HETATM    2  C   UNL     1     -43.361 -52.839  13.069  1.00  0.00     0.307 C 
ENDROOT
BRANCH   2   3
HETATM    3  N   UNL     1     -42.680 -52.715  11.754  1.00  0.00     0.098 N 
HETATM    4  H   UNL     1     -43.149 -51.967  11.239  1.00  0.00     0.317 HD
BRANCH   3   5
HETATM    5  C   UNL     1     -41.246 -52.363  11.842  1.00  0.00     0.292 C 
BRANCH   5   6
HETATM    6  C   UNL     1     -41.073 -50.877  12.183  1.00  0.00     0.178 C 
BRANCH   6   7
HETATM    7  N   UNL     1     -39.684 -50.462  12.162  1.00  0.00    -0.302 N 
HETATM    8  C   UNL     1     -38.822 -50.425  13.220  1.00  0.00     0.111 A 
HETATM    9  C   UNL     1     -37.607 -50.032  12.713  1.00  0.00     0.037 A 
HETATM   10  C   UNL     1     -37.836 -49.862  11.335  1.00  0.00     0.108 A 
HETATM   11  N   UNL     1     -39.101 -50.121  10.993  1.00  0.00    -0.310 N 
ATOM     12  HN  UNL     1     -39.526 -50.074  10.067  1.00  0.00     0.186 HD
ENDBRANCH   6   7
ENDBRANCH   5   6
ENDBRANCH   3   5
ENDBRANCH   2   3
BRANCH   2  13
HETATM   13  C   UNL     1     -44.857 -52.442  13.008  1.00  0.00     0.253 C 
HETATM   14  O   UNL     1     -45.600 -52.930  12.150  1.00  0.00    -0.271 OA
HETATM   15  N   UNL     1     -45.349 -51.577  13.979  1.00  0.00    -0.347 N 
HETATM   16  C   UNL     1     -44.553 -50.818  14.953  1.00  0.00     0.145 C 
HETATM   17  C   UNL     1     -46.802 -51.492  14.201  1.00  0.00     0.145 C 
HETATM   18  C   UNL     1     -44.893 -51.260  16.388  1.00  0.00     0.145 C 
HETATM   19  N   UNL     1     -46.344 -51.168  16.621  1.00  0.00    -0.349 N 
HETATM   20  C   UNL     1     -47.147 -51.922  15.641  1.00  0.00     0.145 C 
HETATM   21  C   UNL     1     -46.999 -50.376  17.546  1.00  0.00     0.215 C 
HETATM   22  O   UNL     1     -48.230 -50.354  17.624  1.00  0.00    -0.274 OA
HETATM   23  C   UNL     1     -46.210 -49.511  18.497  1.00  0.00     0.117 C 
ENDBRANCH   2  13
TORSDOF 5
ENDMDL
MODEL 7
REMARK VINA RESULT:      -5.7      2.724      3.081
REMARK  5 active torsions:
REMARK  status: ('A' for Active; 'I' for Inactive)
REMARK    1  A    between atoms: C_2  and  N_3 
REMARK    2  A    between atoms: C_2  and  C_12 
REMARK    3  A    between atoms: N_3  and  C_4 
REMARK    4  A    between atoms: C_4  and  C_5 
REMARK    5  A    between atoms: C_5  and  N_6 
REMARK       I    between atoms: C_12  and  N_14 
REMARK       I    between atoms: N_17  and  C_20 
ROOT
HETATM    1  C   UNL     1     -39.321 -50.196  15.354  1.00  0.00     0.053 C 
HETATM    2  C   UNL     1     -39.503 -50.138  13.836  1.00  0.00     0.307 C 
ENDROOT
BRANCH   2   3
HETATM    3  N   UNL     1     -38.450 -49.362  13.130  1.00  0.00     0.098 N 
HETATM    4  H   UNL     1     -37.654 -49.988  12.992  1.00  0.00     0.317 HD
BRANCH   3   5
HETATM    5  C   UNL     1     -38.855 -48.857  11.800  1.00  0.00     0.292 C 
BRANCH   5   6
HETATM    6  C   UNL     1     -40.162 -48.058  11.900  1.00  0.00     0.178 C 
BRANCH   6   7
HETATM    7  N   UNL     1     -39.973 -46.650  11.608  1.00  0.00    -0.302 N 
HETATM    8  C   UNL     1     -39.752 -45.648  12.509  1.00  0.00     0.111 A 
HETATM    9  C   UNL     1     -39.572 -44.502  11.772  1.00  0.00     0.037 A 
HETATM   10  C   UNL     1     -39.695 -44.918  10.433  1.00  0.00     0.108 A 
HETATM   11  N   UNL     1     -39.942 -46.227  10.327  1.00  0.00    -0.310 N 
ATOM     12  HN  UNL     1     -40.074 -46.776   9.478  1.00  0.00     0.186 HD
ENDBRANCH   6   7
ENDBRANCH   5   6
ENDBRANCH   3   5
ENDBRANCH   2   3
BRANCH   2  13
HETATM   13  C   UNL     1     -39.688 -51.562  13.256  1.00  0.00     0.253 C 
HETATM   14  O   UNL     1     -38.757 -52.373  13.278  1.00  0.00    -0.271 OA
HETATM   15  N   UNL     1     -40.942 -51.918  12.771  1.00  0.00    -0.347 N 
HETATM   16  C   UNL     1     -42.079 -51.014  12.552  1.00  0.00     0.145 C 
HETATM   17  C   UNL     1     -41.268 -53.341  12.590  1.00  0.00     0.145 C 
HETATM   18  C   UNL     1     -43.260 -51.404  13.460  1.00  0.00     0.145 C 
HETATM   19  N   UNL     1     -43.599 -52.825  13.277  1.00  0.00    -0.349 N 
HETATM   20  C   UNL     1     -42.458 -53.735  13.489  1.00  0.00     0.145 C 
HETATM   21  C   UNL     1     -44.792 -53.352  12.821  1.00  0.00     0.215 C 
HETATM   22  O   UNL     1     -44.948 -54.568  12.671  1.00  0.00    -0.274 OA
HETATM   23  C   UNL     1     -45.949 -52.441  12.495  1.00  0.00     0.117 C 
ENDBRANCH   2  13
TORSDOF 5
ENDMDL
MODEL 8
REMARK VINA RESULT:      -5.2      2.892      6.992
REMARK  5 active torsions:
REMARK  status: ('A' for Active; 'I' for Inactive)
REMARK    1  A    between atoms: C_2  and  N_3 
REMARK    2  A    between atoms: C_2  and  C_12 
REMARK    3  A    between atoms: N_3  and  C_4 
REMARK    4  A    between atoms: C_4  and  C_5 
REMARK    5  A    between atoms: C_5  and  N_6 
REMARK       I    between atoms: C_12  and  N_14 
REMARK       I    between atoms: N_17  and  C_20 
ROOT
HETATM    1  C   UNL     1     -41.314 -49.967  15.660  1.00  0.00     0.053 C 
HETATM    2  C   UNL     1     -40.853 -50.492  14.299  1.00  0.00     0.307 C 
ENDROOT
BRANCH   2   3
HETATM    3  N   UNL     1     -40.494 -51.934  14.297  1.00  0.00     0.098 N 
HETATM    4  H   UNL     1     -41.220 -52.428  14.819  1.00  0.00     0.317 HD
BRANCH   3   5
HETATM    5  C   UNL     1     -40.423 -52.541  12.950  1.00  0.00     0.292 C 
BRANCH   5   6
HETATM    6  C   UNL     1     -40.915 -53.994  12.985  1.00  0.00     0.178 C 
BRANCH   6   7
HETATM    7  N   UNL     1     -42.350 -54.088  13.171  1.00  0.00    -0.302 N 
HETATM    8  C   UNL     1     -43.004 -54.602  14.254  1.00  0.00     0.111 A 
HETATM    9  C   UNL     1     -44.346 -54.422  14.013  1.00  0.00     0.037 A 
HETATM   10  C   UNL     1     -44.398 -53.783  12.760  1.00  0.00     0.108 A 
HETATM   11  N   UNL     1     -43.184 -53.578  12.241  1.00  0.00    -0.310 N 
ATOM     12  HN  UNL     1     -42.945 -53.140  11.352  1.00  0.00     0.186 HD
ENDBRANCH   6   7
ENDBRANCH   5   6
ENDBRANCH   3   5
ENDBRANCH   2   3
BRANCH   2  13
HETATM   13  C   UNL     1     -41.881 -50.129  13.199  1.00  0.00     0.253 C 
HETATM   14  O   UNL     1     -43.015 -50.619  13.217  1.00  0.00    -0.271 OA
HETATM   15  N   UNL     1     -41.515 -49.195  12.237  1.00  0.00    -0.347 N 
HETATM   16  C   UNL     1     -40.167 -48.654  12.019  1.00  0.00     0.145 C 
HETATM   17  C   UNL     1     -42.559 -48.535  11.438  1.00  0.00     0.145 C 
HETATM   18  C   UNL     1     -40.146 -47.136  12.276  1.00  0.00     0.145 C 
HETATM   19  N   UNL     1     -41.182 -46.467  11.471  1.00  0.00    -0.349 N 
HETATM   20  C   UNL     1     -42.536 -47.011  11.683  1.00  0.00     0.145 C 
HETATM   21  C   UNL     1     -40.998 -45.512  10.489  1.00  0.00     0.215 C 
HETATM   22  O   UNL     1     -41.947 -45.047   9.851  1.00  0.00    -0.274 OA
HETATM   23  C   UNL     1     -39.612 -45.006  10.173  1.00  0.00     0.117 C 
ENDBRANCH   2  13
TORSDOF 5
ENDMDL
MODEL 9
REMARK VINA RESULT:      -5.2      2.882      3.913
REMARK  5 active torsions:
REMARK  status: ('A' for Active; 'I' for Inactive)
REMARK    1  A    between atoms: C_2  and  N_3 
REMARK    2  A    between atoms: C_2  and  C_12 
REMARK    3  A    between atoms: N_3  and  C_4 
REMARK    4  A    between atoms: C_4  and  C_5 
REMARK    5  A    between atoms: C_5  and  N_6 
REMARK       I    between atoms: C_12  and  N_14 
REMARK       I    between atoms: N_17  and  C_20 
ROOT
HETATM    1  C   UNL     1     -39.833 -50.091  11.901  1.00  0.00     0.053 C 
HETATM    2  C   UNL     1     -41.219 -50.506  12.399  1.00  0.00     0.307 C 
ENDROOT
BRANCH   2   3
HETATM    3  N   UNL     1     -42.341 -49.821  11.706  1.00  0.00     0.098 N 
HETATM    4  H   UNL     1     -43.057 -50.525  11.520  1.00  0.00     0.317 HD
BRANCH   3   5
HETATM    5  C   UNL     1     -42.973 -48.740  12.493  1.00  0.00     0.292 C 
BRANCH   5   6
HETATM    6  C   UNL     1     -42.887 -47.403  11.744  1.00  0.00     0.178 C 
BRANCH   6   7
HETATM    7  N   UNL     1     -43.496 -47.465  10.429  1.00  0.00    -0.302 N 
HETATM    8  C   UNL     1     -42.853 -47.426   9.225  1.00  0.00     0.111 A 
HETATM    9  C   UNL     1     -43.826 -47.579   8.266  1.00  0.00     0.037 A 
HETATM   10  C   UNL     1     -45.024 -47.712   8.993  1.00  0.00     0.108 A 
HETATM   11  N   UNL     1     -44.829 -47.641  10.313  1.00  0.00    -0.310 N 
ATOM     12  HN  UNL     1     -45.524 -47.706  11.057  1.00  0.00     0.186 HD
ENDBRANCH   6   7
ENDBRANCH   5   6
ENDBRANCH   3   5
ENDBRANCH   2   3
BRANCH   2  13
HETATM   13  C   UNL     1     -41.361 -52.048  12.389  1.00  0.00     0.253 C 
HETATM   14  O   UNL     1     -41.715 -52.637  11.362  1.00  0.00    -0.271 OA
HETATM   15  N   UNL     1     -41.021 -52.749  13.540  1.00  0.00    -0.347 N 
HETATM   16  C   UNL     1     -40.732 -52.169  14.858  1.00  0.00     0.145 C 
HETATM   17  C   UNL     1     -40.758 -54.195  13.454  1.00  0.00     0.145 C 
HETATM   18  C   UNL     1     -39.278 -52.466  15.271  1.00  0.00     0.145 C 
HETATM   19  N   UNL     1     -39.011 -53.912  15.198  1.00  0.00    -0.349 N 
HETATM   20  C   UNL     1     -39.306 -54.499  13.878  1.00  0.00     0.145 C 
HETATM   21  C   UNL     1     -38.651 -54.754  16.233  1.00  0.00     0.215 C 
HETATM   22  O   UNL     1     -38.489 -55.965  16.057  1.00  0.00    -0.274 OA
HETATM   23  C   UNL     1     -38.441 -54.203  17.621  1.00  0.00     0.117 C 
ENDBRANCH   2  13
TORSDOF 5
ENDMDL
