MODEL 1
REMARK VINA RESULT:      -6.2      0.000      0.000
REMARK  5 active torsions:
REMARK  status: ('A' for Active; 'I' for Inactive)
REMARK    1  A    between atoms: O_1  and  C_2 
REMARK    2  A    between atoms: C_2  and  C_3 
REMARK    3  A    between atoms: C_3  and  N_4 
REMARK    4  A    between atoms: C_5  and  C_6 
REMARK    5  A    between atoms: C_6  and  C_7 
ROOT
HETATM    1  N   UNL     1     -40.784 -52.236  13.170  1.00  0.00    -0.332 N 
HETATM    2  C   UNL     1     -41.957 -51.995  12.476  1.00  0.00     0.088 A 
HETATM    3  N   UNL     1     -41.864 -50.865  11.800  1.00  0.00    -0.344 N 
ATOM      4  HN  UNL     1     -42.598 -50.416  11.252  1.00  0.00     0.167 HD
HETATM    5  C   UNL     1     -40.587 -50.417  11.983  1.00  0.00     0.060 A 
HETATM    6  C   UNL     1     -39.973 -49.264  11.474  1.00  0.00     0.032 A 
HETATM    7  C   UNL     1     -38.622 -49.040  11.759  1.00  0.00     0.002 A 
HETATM    8  C   UNL     1     -37.896 -49.950  12.529  1.00  0.00     0.002 A 
HETATM    9  C   UNL     1     -38.501 -51.090  13.072  1.00  0.00     0.032 A 
HETATM   10  C   UNL     1     -39.861 -51.284  12.790  1.00  0.00     0.062 A 
ENDROOT
BRANCH   2  11
HETATM   11  C   UNL     1     -43.171 -52.880  12.498  1.00  0.00     0.115 C 
BRANCH  11  12
HETATM   12  C   UNL     1     -44.421 -52.290  13.136  1.00  0.00    -0.051 A 
HETATM   13  C   UNL     1     -45.687 -52.312  12.533  1.00  0.00     0.007 A 
HETATM   14  C   UNL     1     -46.815 -51.851  13.219  1.00  0.00     0.001 A 
HETATM   15  C   UNL     1     -46.691 -51.337  14.507  1.00  0.00     0.000 A 
HETATM   16  C   UNL     1     -45.433 -51.249  15.098  1.00  0.00     0.001 A 
HETATM   17  C   UNL     1     -44.307 -51.717  14.416  1.00  0.00     0.007 A 
ENDBRANCH  11  12
ENDBRANCH   2  11
BRANCH   1  18
HETATM   18  C   UNL     1     -40.549 -53.257  14.179  1.00  0.00     0.156 C 
BRANCH  18  19
HETATM   19  C   UNL     1     -40.065 -54.566  13.555  1.00  0.00     0.184 C 
BRANCH  19  20
HETATM   20  O   UNL     1     -38.643 -54.586  13.470  1.00  0.00    -0.399 OA
HETATM   21  H   UNL     1     -38.310 -55.019  14.278  1.00  0.00     0.209 HD
ENDBRANCH  19  20
ENDBRANCH  18  19
ENDBRANCH   1  18
TORSDOF 5
ENDMDL
MODEL 2
REMARK VINA RESULT:      -6.0      2.867      4.190
REMARK  5 active torsions:
REMARK  status: ('A' for Active; 'I' for Inactive)
REMARK    1  A    between atoms: O_1  and  C_2 
REMARK    2  A    between atoms: C_2  and  C_3 
REMARK    3  A    between atoms: C_3  and  N_4 
REMARK    4  A    between atoms: C_5  and  C_6 
REMARK    5  A    between atoms: C_6  and  C_7 
ROOT
HETATM    1  N   UNL     1     -44.316 -53.123  13.963  1.00  0.00    -0.332 N 
HETATM    2  C   UNL     1     -44.959 -51.927  13.693  1.00  0.00     0.088 A 
HETATM    3  N   UNL     1     -44.134 -51.089  13.096  1.00  0.00    -0.344 N 
ATOM      4  HN  UNL     1     -44.323 -50.121  12.838  1.00  0.00     0.167 HD
HETATM    5  C   UNL     1     -42.973 -51.779  12.892  1.00  0.00     0.060 A 
HETATM    6  C   UNL     1     -41.783 -51.350  12.289  1.00  0.00     0.032 A 
HETATM    7  C   UNL     1     -40.734 -52.264  12.145  1.00  0.00     0.002 A 
HETATM    8  C   UNL     1     -40.871 -53.581  12.586  1.00  0.00     0.002 A 
HETATM    9  C   UNL     1     -42.040 -54.019  13.219  1.00  0.00     0.032 A 
HETATM   10  C   UNL     1     -43.071 -53.080  13.371  1.00  0.00     0.062 A 
ENDROOT
BRANCH   2  11
HETATM   11  C   UNL     1     -46.388 -51.616  14.043  1.00  0.00     0.115 C 
BRANCH  11  12
HETATM   12  C   UNL     1     -46.654 -51.218  15.488  1.00  0.00    -0.051 A 
HETATM   13  C   UNL     1     -47.889 -51.395  16.129  1.00  0.00     0.007 A 
HETATM   14  C   UNL     1     -48.036 -51.110  17.489  1.00  0.00     0.001 A 
HETATM   15  C   UNL     1     -46.960 -50.619  18.224  1.00  0.00     0.000 A 
HETATM   16  C   UNL     1     -45.744 -50.378  17.591  1.00  0.00     0.001 A 
HETATM   17  C   UNL     1     -45.594 -50.671  16.234  1.00  0.00     0.007 A 
ENDBRANCH  11  12
ENDBRANCH   2  11
BRANCH   1  18
HETATM   18  C   UNL     1     -44.805 -54.224  14.779  1.00  0.00     0.156 C 
BRANCH  18  19
HETATM   19  C   UNL     1     -45.623 -55.217  13.954  1.00  0.00     0.184 C 
BRANCH  19  20
HETATM   20  O   UNL     1     -46.929 -55.369  14.502  1.00  0.00    -0.399 OA
HETATM   21  H   UNL     1     -47.342 -56.135  14.062  1.00  0.00     0.209 HD
ENDBRANCH  19  20
ENDBRANCH  18  19
ENDBRANCH   1  18
TORSDOF 5
ENDMDL
MODEL 3
REMARK VINA RESULT:      -5.6      2.131      3.133
REMARK  5 active torsions:
REMARK  status: ('A' for Active; 'I' for Inactive)
REMARK    1  A    between atoms: O_1  and  C_2 
REMARK    2  A    between atoms: C_2  and  C_3 
REMARK    3  A    between atoms: C_3  and  N_4 
REMARK    4  A    between atoms: C_5  and  C_6 
REMARK    5  A    between atoms: C_6  and  C_7 
ROOT
HETATM    1  N   UNL     1     -39.919 -50.563  12.446  1.00  0.00    -0.332 N 
HETATM    2  C   UNL     1     -40.977 -51.409  12.159  1.00  0.00     0.088 A 
HETATM    3  N   UNL     1     -42.026 -50.712  11.765  1.00  0.00    -0.344 N 
ATOM      4  HN  UNL     1     -42.955 -51.072  11.548  1.00  0.00     0.167 HD
HETATM    5  C   UNL     1     -41.617 -49.410  11.708  1.00  0.00     0.060 A 
HETATM    6  C   UNL     1     -42.344 -48.270  11.340  1.00  0.00     0.032 A 
HETATM    7  C   UNL     1     -41.689 -47.035  11.307  1.00  0.00     0.002 A 
HETATM    8  C   UNL     1     -40.333 -46.940  11.627  1.00  0.00     0.002 A 
HETATM    9  C   UNL     1     -39.599 -48.062  12.027  1.00  0.00     0.032 A 
HETATM   10  C   UNL     1     -40.282 -49.287  12.073  1.00  0.00     0.062 A 
ENDROOT
BRANCH   2  11
HETATM   11  C   UNL     1     -40.946 -52.906  12.290  1.00  0.00     0.115 C 
BRANCH  11  12
HETATM   12  C   UNL     1     -42.117 -53.540  13.027  1.00  0.00    -0.051 A 
HETATM   13  C   UNL     1     -43.438 -53.517  12.556  1.00  0.00     0.007 A 
HETATM   14  C   UNL     1     -44.449 -54.212  13.225  1.00  0.00     0.001 A 
HETATM   15  C   UNL     1     -44.162 -54.919  14.390  1.00  0.00     0.000 A 
HETATM   16  C   UNL     1     -42.870 -54.902  14.908  1.00  0.00     0.001 A 
HETATM   17  C   UNL     1     -41.857 -54.214  14.234  1.00  0.00     0.007 A 
ENDBRANCH  11  12
ENDBRANCH   2  11
BRANCH   1  18
HETATM   18  C   UNL     1     -38.663 -50.909  13.092  1.00  0.00     0.156 C 
BRANCH  18  19
HETATM   19  C   UNL     1     -37.480 -50.778  12.133  1.00  0.00     0.184 C 
BRANCH  19  20
HETATM   20  O   UNL     1     -36.737 -51.992  12.083  1.00  0.00    -0.399 OA
HETATM   21  H   UNL     1     -36.377 -52.150  12.975  1.00  0.00     0.209 HD
ENDBRANCH  19  20
ENDBRANCH  18  19
ENDBRANCH   1  18
TORSDOF 5
ENDMDL
MODEL 4
REMARK VINA RESULT:      -5.6      3.641      6.955
REMARK  5 active torsions:
REMARK  status: ('A' for Active; 'I' for Inactive)
REMARK    1  A    between atoms: O_1  and  C_2 
REMARK    2  A    between atoms: C_2  and  C_3 
REMARK    3  A    between atoms: C_3  and  N_4 
REMARK    4  A    between atoms: C_5  and  C_6 
REMARK    5  A    between atoms: C_6  and  C_7 
ROOT
HETATM    1  N   UNL     1     -45.220 -53.760  14.947  1.00  0.00    -0.332 N 
HETATM    2  C   UNL     1     -44.144 -54.130  15.734  1.00  0.00     0.088 A 
HETATM    3  N   UNL     1     -44.083 -53.371  16.812  1.00  0.00    -0.344 N 
ATOM      4  HN  UNL     1     -43.361 -53.385  17.532  1.00  0.00     0.167 HD
HETATM    5  C   UNL     1     -45.184 -52.564  16.770  1.00  0.00     0.060 A 
HETATM    6  C   UNL     1     -45.594 -51.580  17.680  1.00  0.00     0.032 A 
HETATM    7  C   UNL     1     -46.800 -50.910  17.449  1.00  0.00     0.002 A 
HETATM    8  C   UNL     1     -47.584 -51.219  16.336  1.00  0.00     0.002 A 
HETATM    9  C   UNL     1     -47.174 -52.176  15.400  1.00  0.00     0.032 A 
HETATM   10  C   UNL     1     -45.953 -52.820  15.641  1.00  0.00     0.062 A 
ENDROOT
BRANCH   2  11
HETATM   11  C   UNL     1     -43.170 -55.227  15.406  1.00  0.00     0.115 C 
BRANCH  11  12
HETATM   12  C   UNL     1     -41.777 -54.785  14.982  1.00  0.00    -0.051 A 
HETATM   13  C   UNL     1     -40.627 -54.980  15.761  1.00  0.00     0.007 A 
HETATM   14  C   UNL     1     -39.362 -54.648  15.267  1.00  0.00     0.001 A 
HETATM   15  C   UNL     1     -39.229 -54.092  13.997  1.00  0.00     0.000 A 
HETATM   16  C   UNL     1     -40.364 -53.833  13.234  1.00  0.00     0.001 A 
HETATM   17  C   UNL     1     -41.627 -54.172  13.724  1.00  0.00     0.007 A 
ENDBRANCH  11  12
ENDBRANCH   2  11
BRANCH   1  18
HETATM   18  C   UNL     1     -45.520 -54.206  13.595  1.00  0.00     0.156 C 
BRANCH  18  19
HETATM   19  C   UNL     1     -45.068 -53.184  12.551  1.00  0.00     0.184 C 
BRANCH  19  20
HETATM   20  O   UNL     1     -46.184 -52.696  11.812  1.00  0.00    -0.399 OA
HETATM   21  H   UNL     1     -46.989 -52.952  12.297  1.00  0.00     0.209 HD
ENDBRANCH  19  20
ENDBRANCH  18  19
ENDBRANCH   1  18
TORSDOF 5
ENDMDL
MODEL 5
REMARK VINA RESULT:      -5.6      2.942      3.853
REMARK  5 active torsions:
REMARK  status: ('A' for Active; 'I' for Inactive)
REMARK    1  A    between atoms: O_1  and  C_2 
REMARK    2  A    between atoms: C_2  and  C_3 
REMARK    3  A    between atoms: C_3  and  N_4 
REMARK    4  A    between atoms: C_5  and  C_6 
REMARK    5  A    between atoms: C_6  and  C_7 
ROOT
HETATM    1  N   UNL     1     -42.819 -52.812  13.557  1.00  0.00    -0.332 N 
HETATM    2  C   UNL     1     -42.974 -51.569  14.146  1.00  0.00     0.088 A 
HETATM    3  N   UNL     1     -41.894 -51.252  14.836  1.00  0.00    -0.344 N 
ATOM      4  HN  UNL     1     -41.759 -50.425  15.417  1.00  0.00     0.167 HD
HETATM    5  C   UNL     1     -40.995 -52.256  14.616  1.00  0.00     0.060 A 
HETATM    6  C   UNL     1     -39.692 -52.401  15.112  1.00  0.00     0.032 A 
HETATM    7  C   UNL     1     -38.933 -53.502  14.701  1.00  0.00     0.002 A 
HETATM    8  C   UNL     1     -39.461 -54.436  13.808  1.00  0.00     0.002 A 
HETATM    9  C   UNL     1     -40.772 -54.326  13.329  1.00  0.00     0.032 A 
HETATM   10  C   UNL     1     -41.520 -53.225  13.770  1.00  0.00     0.062 A 
ENDROOT
BRANCH   2  11
HETATM   11  C   UNL     1     -44.200 -50.706  14.034  1.00  0.00     0.115 C 
BRANCH  11  12
HETATM   12  C   UNL     1     -45.242 -50.876  15.129  1.00  0.00    -0.051 A 
HETATM   13  C   UNL     1     -45.063 -50.436  16.449  1.00  0.00     0.007 A 
HETATM   14  C   UNL     1     -46.103 -50.523  17.380  1.00  0.00     0.001 A 
HETATM   15  C   UNL     1     -47.328 -51.075  17.015  1.00  0.00     0.000 A 
HETATM   16  C   UNL     1     -47.503 -51.575  15.727  1.00  0.00     0.001 A 
HETATM   17  C   UNL     1     -46.468 -51.480  14.794  1.00  0.00     0.007 A 
ENDBRANCH  11  12
ENDBRANCH   2  11
BRANCH   1  18
HETATM   18  C   UNL     1     -43.838 -53.604  12.886  1.00  0.00     0.156 C 
BRANCH  18  19
HETATM   19  C   UNL     1     -44.545 -54.551  13.856  1.00  0.00     0.184 C 
BRANCH  19  20
HETATM   20  O   UNL     1     -45.818 -54.933  13.346  1.00  0.00    -0.399 OA
HETATM   21  H   UNL     1     -45.931 -55.884  13.526  1.00  0.00     0.209 HD
ENDBRANCH  19  20
ENDBRANCH  18  19
ENDBRANCH   1  18
TORSDOF 5
ENDMDL
MODEL 6
REMARK VINA RESULT:      -5.5      2.086      2.797
REMARK  5 active torsions:
REMARK  status: ('A' for Active; 'I' for Inactive)
REMARK    1  A    between atoms: O_1  and  C_2 
REMARK    2  A    between atoms: C_2  and  C_3 
REMARK    3  A    between atoms: C_3  and  N_4 
REMARK    4  A    between atoms: C_5  and  C_6 
REMARK    5  A    between atoms: C_6  and  C_7 
ROOT
HETATM    1  N   UNL     1     -41.204 -49.606  12.662  1.00  0.00    -0.332 N 
HETATM    2  C   UNL     1     -42.525 -50.008  12.558  1.00  0.00     0.088 A 
HETATM    3  N   UNL     1     -43.243 -49.071  11.968  1.00  0.00    -0.344 N 
ATOM      4  HN  UNL     1     -44.251 -49.075  11.815  1.00  0.00     0.167 HD
HETATM    5  C   UNL     1     -42.363 -48.092  11.602  1.00  0.00     0.060 A 
HETATM    6  C   UNL     1     -42.610 -46.883  10.938  1.00  0.00     0.032 A 
HETATM    7  C   UNL     1     -41.529 -46.055  10.622  1.00  0.00     0.002 A 
HETATM    8  C   UNL     1     -40.225 -46.428  10.954  1.00  0.00     0.002 A 
HETATM    9  C   UNL     1     -39.962 -47.616  11.646  1.00  0.00     0.032 A 
HETATM   10  C   UNL     1     -41.064 -48.421  11.970  1.00  0.00     0.062 A 
ENDROOT
BRANCH   2  11
HETATM   11  C   UNL     1     -43.072 -51.315  13.058  1.00  0.00     0.115 C 
BRANCH  11  12
HETATM   12  C   UNL     1     -44.390 -51.246  13.816  1.00  0.00    -0.051 A 
HETATM   13  C   UNL     1     -45.641 -51.474  13.224  1.00  0.00     0.007 A 
HETATM   14  C   UNL     1     -46.805 -51.503  13.998  1.00  0.00     0.001 A 
HETATM   15  C   UNL     1     -46.740 -51.278  15.371  1.00  0.00     0.000 A 
HETATM   16  C   UNL     1     -45.516 -50.988  15.966  1.00  0.00     0.001 A 
HETATM   17  C   UNL     1     -44.352 -50.967  15.194  1.00  0.00     0.007 A 
ENDBRANCH  11  12
ENDBRANCH   2  11
BRANCH   1  18
HETATM   18  C   UNL     1     -40.142 -50.252  13.416  1.00  0.00     0.156 C 
BRANCH  18  19
HETATM   19  C   UNL     1     -39.571 -51.457  12.668  1.00  0.00     0.184 C 
BRANCH  19  20
HETATM   20  O   UNL     1     -38.508 -51.056  11.809  1.00  0.00    -0.399 OA
HETATM   21  H   UNL     1     -38.543 -51.625  11.018  1.00  0.00     0.209 HD
ENDBRANCH  19  20
ENDBRANCH  18  19
ENDBRANCH   1  18
TORSDOF 5
ENDMDL
MODEL 7
REMARK VINA RESULT:      -5.3      1.828      5.842
REMARK  5 active torsions:
REMARK  status: ('A' for Active; 'I' for Inactive)
REMARK    1  A    between atoms: O_1  and  C_2 
REMARK    2  A    between atoms: C_2  and  C_3 
REMARK    3  A    between atoms: C_3  and  N_4 
REMARK    4  A    between atoms: C_5  and  C_6 
REMARK    5  A    between atoms: C_6  and  C_7 
ROOT
HETATM    1  N   UNL     1     -42.999 -52.897  14.448  1.00  0.00    -0.332 N 
HETATM    2  C   UNL     1     -42.574 -52.748  13.139  1.00  0.00     0.088 A 
HETATM    3  N   UNL     1     -43.562 -52.306  12.385  1.00  0.00    -0.344 N 
ATOM      4  HN  UNL     1     -43.546 -52.164  11.375  1.00  0.00     0.167 HD
HETATM    5  C   UNL     1     -44.611 -52.078  13.229  1.00  0.00     0.060 A 
HETATM    6  C   UNL     1     -45.895 -51.597  12.934  1.00  0.00     0.032 A 
HETATM    7  C   UNL     1     -46.795 -51.394  13.986  1.00  0.00     0.002 A 
HETATM    8  C   UNL     1     -46.420 -51.656  15.305  1.00  0.00     0.002 A 
HETATM    9  C   UNL     1     -45.154 -52.167  15.614  1.00  0.00     0.032 A 
HETATM   10  C   UNL     1     -44.275 -52.382  14.542  1.00  0.00     0.062 A 
ENDROOT
BRANCH   2  11
HETATM   11  C   UNL     1     -41.191 -53.059  12.639  1.00  0.00     0.115 C 
BRANCH  11  12
HETATM   12  C   UNL     1     -40.151 -51.962  12.815  1.00  0.00    -0.051 A 
HETATM   13  C   UNL     1     -39.082 -52.040  13.721  1.00  0.00     0.007 A 
HETATM   14  C   UNL     1     -38.099 -51.047  13.756  1.00  0.00     0.001 A 
HETATM   15  C   UNL     1     -38.182 -49.948  12.906  1.00  0.00     0.000 A 
HETATM   16  C   UNL     1     -39.268 -49.821  12.044  1.00  0.00     0.001 A 
HETATM   17  C   UNL     1     -40.246 -50.817  12.002  1.00  0.00     0.007 A 
ENDBRANCH  11  12
ENDBRANCH   2  11
BRANCH   1  18
HETATM   18  C   UNL     1     -42.286 -53.540  15.540  1.00  0.00     0.156 C 
BRANCH  18  19
HETATM   19  C   UNL     1     -42.278 -55.061  15.390  1.00  0.00     0.184 C 
BRANCH  19  20
HETATM   20  O   UNL     1     -43.588 -55.544  15.107  1.00  0.00    -0.399 OA
HETATM   21  H   UNL     1     -44.189 -54.777  15.116  1.00  0.00     0.209 HD
ENDBRANCH  19  20
ENDBRANCH  18  19
ENDBRANCH   1  18
TORSDOF 5
ENDMDL
MODEL 8
REMARK VINA RESULT:      -5.3      2.200      4.868
REMARK  5 active torsions:
REMARK  status: ('A' for Active; 'I' for Inactive)
REMARK    1  A    between atoms: O_1  and  C_2 
REMARK    2  A    between atoms: C_2  and  C_3 
REMARK    3  A    between atoms: C_3  and  N_4 
REMARK    4  A    between atoms: C_5  and  C_6 
REMARK    5  A    between atoms: C_6  and  C_7 
ROOT
HETATM    1  N   UNL     1     -41.430 -52.442  13.637  1.00  0.00    -0.332 N 
HETATM    2  C   UNL     1     -41.676 -51.838  12.416  1.00  0.00     0.088 A 
HETATM    3  N   UNL     1     -42.742 -52.371  11.849  1.00  0.00    -0.344 N 
ATOM      4  HN  UNL     1     -43.114 -52.160  10.924  1.00  0.00     0.167 HD
HETATM    5  C   UNL     1     -43.245 -53.264  12.751  1.00  0.00     0.060 A 
HETATM    6  C   UNL     1     -44.373 -54.090  12.644  1.00  0.00     0.032 A 
HETATM    7  C   UNL     1     -44.726 -54.893  13.733  1.00  0.00     0.002 A 
HETATM    8  C   UNL     1     -43.974 -54.868  14.909  1.00  0.00     0.002 A 
HETATM    9  C   UNL     1     -42.826 -54.075  15.023  1.00  0.00     0.032 A 
HETATM   10  C   UNL     1     -42.480 -53.293  13.911  1.00  0.00     0.062 A 
ENDROOT
BRANCH   2  11
HETATM   11  C   UNL     1     -40.843 -50.743  11.811  1.00  0.00     0.115 C 
BRANCH  11  12
HETATM   12  C   UNL     1     -41.483 -49.363  11.759  1.00  0.00    -0.051 A 
HETATM   13  C   UNL     1     -41.442 -48.527  10.633  1.00  0.00     0.007 A 
HETATM   14  C   UNL     1     -42.142 -47.318  10.613  1.00  0.00     0.001 A 
HETATM   15  C   UNL     1     -42.873 -46.912  11.727  1.00  0.00     0.000 A 
HETATM   16  C   UNL     1     -42.874 -47.697  12.876  1.00  0.00     0.001 A 
HETATM   17  C   UNL     1     -42.181 -48.910  12.894  1.00  0.00     0.007 A 
ENDBRANCH  11  12
ENDBRANCH   2  11
BRANCH   1  18
HETATM   18  C   UNL     1     -40.252 -52.288  14.477  1.00  0.00     0.156 C 
BRANCH  18  19
HETATM   19  C   UNL     1     -39.033 -52.983  13.872  1.00  0.00     0.184 C 
BRANCH  19  20
HETATM   20  O   UNL     1     -39.393 -54.254  13.339  1.00  0.00    -0.399 OA
HETATM   21  H   UNL     1     -38.569 -54.707  13.084  1.00  0.00     0.209 HD
ENDBRANCH  19  20
ENDBRANCH  18  19
ENDBRANCH   1  18
TORSDOF 5
ENDMDL
MODEL 9
REMARK VINA RESULT:      -5.3      4.455      6.854
REMARK  5 active torsions:
REMARK  status: ('A' for Active; 'I' for Inactive)
REMARK    1  A    between atoms: O_1  and  C_2 
REMARK    2  A    between atoms: C_2  and  C_3 
REMARK    3  A    between atoms: C_3  and  N_4 
REMARK    4  A    between atoms: C_5  and  C_6 
REMARK    5  A    between atoms: C_6  and  C_7 
ROOT
HETATM    1  N   UNL     1     -42.076 -47.043  11.139  1.00  0.00    -0.332 N 
HETATM    2  C   UNL     1     -40.915 -47.775  10.958  1.00  0.00     0.088 A 
HETATM    3  N   UNL     1     -39.889 -46.967  10.770  1.00  0.00    -0.344 N 
ATOM      4  HN  UNL     1     -38.929 -47.234  10.554  1.00  0.00     0.167 HD
HETATM    5  C   UNL     1     -40.373 -45.699  10.922  1.00  0.00     0.060 A 
HETATM    6  C   UNL     1     -39.693 -44.476  10.831  1.00  0.00     0.032 A 
HETATM    7  C   UNL     1     -40.397 -43.294  11.081  1.00  0.00     0.002 A 
HETATM    8  C   UNL     1     -41.750 -43.330  11.423  1.00  0.00     0.002 A 
HETATM    9  C   UNL     1     -42.453 -44.539  11.487  1.00  0.00     0.032 A 
HETATM   10  C   UNL     1     -41.731 -45.710  11.213  1.00  0.00     0.062 A 
ENDROOT
BRANCH   2  11
HETATM   11  C   UNL     1     -40.831 -49.276  10.959  1.00  0.00     0.115 C 
BRANCH  11  12
HETATM   12  C   UNL     1     -39.732 -49.887  11.816  1.00  0.00    -0.051 A 
HETATM   13  C   UNL     1     -38.398 -50.012  11.399  1.00  0.00     0.007 A 
HETATM   14  C   UNL     1     -37.415 -50.482  12.275  1.00  0.00     0.001 A 
HETATM   15  C   UNL     1     -37.754 -50.860  13.572  1.00  0.00     0.000 A 
HETATM   16  C   UNL     1     -39.082 -50.802  13.983  1.00  0.00     0.001 A 
HETATM   17  C   UNL     1     -40.064 -50.325  13.111  1.00  0.00     0.007 A 
ENDBRANCH  11  12
ENDBRANCH   2  11
BRANCH   1  18
HETATM   18  C   UNL     1     -43.440 -47.547  11.177  1.00  0.00     0.156 C 
BRANCH  18  19
HETATM   19  C   UNL     1     -44.129 -47.411   9.819  1.00  0.00     0.184 C 
BRANCH  19  20
HETATM   20  O   UNL     1     -45.345 -48.153   9.797  1.00  0.00    -0.399 OA
HETATM   21  H   UNL     1     -46.077 -47.516   9.894  1.00  0.00     0.209 HD
ENDBRANCH  19  20
ENDBRANCH  18  19
ENDBRANCH   1  18
TORSDOF 5
ENDMDL
