MODEL 1
REMARK VINA RESULT:      -6.8      0.000      0.000
REMARK  7 active torsions:
REMARK  status: ('A' for Active; 'I' for Inactive)
REMARK    1  A    between atoms: N_2  and  C_3 
REMARK    2  A    between atoms: N_13  and  C_14 
REMARK    3  A    between atoms: C_14  and  C_15 
REMARK    4  A    between atoms: C_15  and  O_16 
REMARK    5  A    between atoms: C_15  and  C_17 
REMARK    6  A    between atoms: C_17  and  O_18 
REMARK    7  A    between atoms: O_18  and  C_19 
ROOT
HETATM    1  C   UNL     1     -39.657 -50.086  11.305  1.00  0.00     0.112 A 
HETATM    2  N   UNL     1     -38.448 -49.714  10.827  1.00  0.00    -0.341 N 
ATOM      3  HN  UNL     1     -38.377 -49.141   9.987  1.00  0.00     0.167 HD
HETATM    4  C   UNL     1     -37.338 -50.115  11.480  1.00  0.00     0.183 A 
HETATM    5  N   UNL     1     -37.254 -50.865  12.583  1.00  0.00    -0.337 N 
ATOM      6  HN  UNL     1     -36.373 -51.129  13.024  1.00  0.00     0.168 HD
HETATM    7  C   UNL     1     -38.461 -51.232  13.046  1.00  0.00     0.137 A 
HETATM    8  N   UNL     1     -38.672 -51.998  14.160  1.00  0.00    -0.336 N 
ATOM      9  HN  UNL     1     -37.969 -52.393  14.785  1.00  0.00     0.168 HD
HETATM   10  C   UNL     1     -39.974 -52.112  14.249  1.00  0.00     0.185 A 
HETATM   11  N   UNL     1     -40.613 -51.430  13.244  1.00  0.00    -0.335 N 
HETATM   12  C   UNL     1     -39.654 -50.867  12.446  1.00  0.00     0.118 A 
ENDROOT
BRANCH  11  13
HETATM   13  C   UNL     1     -42.051 -51.277  13.135  1.00  0.00     0.164 C 
BRANCH  13  14
HETATM   14  C   UNL     1     -42.706 -52.348  12.259  1.00  0.00     0.160 C 
BRANCH  14  15
HETATM   15  O   UNL     1     -41.758 -52.771  11.265  1.00  0.00    -0.392 OA
HETATM   16  H   UNL     1     -41.862 -52.224  10.468  1.00  0.00     0.210 HD
ENDBRANCH  14  15
BRANCH  14  17
HETATM   17  C   UNL     1     -43.128 -53.532  13.146  1.00  0.00     0.209 C 
BRANCH  17  18
HETATM   18  O   UNL     1     -44.543 -53.580  13.248  1.00  0.00    -0.347 OA
BRANCH  18  19
HETATM   19  C   UNL     1     -45.173 -52.929  14.279  1.00  0.00     0.080 A 
HETATM   20  C   UNL     1     -46.167 -52.014  13.857  1.00  0.00    -0.028 A 
HETATM   21  C   UNL     1     -46.391 -51.662  12.407  1.00  0.00     0.051 C 
HETATM   22  C   UNL     1     -46.973 -51.362  14.804  1.00  0.00     0.009 A 
HETATM   23  C   UNL     1     -46.824 -51.622  16.158  1.00  0.00     0.001 A 
HETATM   24  C   UNL     1     -45.845 -52.514  16.578  1.00  0.00     0.009 A 
HETATM   25  C   UNL     1     -44.997 -53.171  15.660  1.00  0.00    -0.028 A 
HETATM   26  C   UNL     1     -43.995 -54.114  16.261  1.00  0.00     0.051 C 
ENDBRANCH  18  19
ENDBRANCH  17  18
ENDBRANCH  14  17
ENDBRANCH  13  14
ENDBRANCH  11  13
BRANCH   1  27
HETATM   27  N   UNL     1     -40.842 -49.751  10.631  1.00  0.00    -0.281 NA
HETATM   28  C   UNL     1     -41.274 -48.385  10.914  1.00  0.00     0.114 C 
HETATM   29  H   UNL     1     -40.604 -49.806   9.639  1.00  0.00     0.128 HD
ENDBRANCH   1  27
TORSDOF 7
ENDMDL
MODEL 2
REMARK VINA RESULT:      -6.6      2.956      4.546
REMARK  7 active torsions:
REMARK  status: ('A' for Active; 'I' for Inactive)
REMARK    1  A    between atoms: N_2  and  C_3 
REMARK    2  A    between atoms: N_13  and  C_14 
REMARK    3  A    between atoms: C_14  and  C_15 
REMARK    4  A    between atoms: C_15  and  O_16 
REMARK    5  A    between atoms: C_15  and  C_17 
REMARK    6  A    between atoms: C_17  and  O_18 
REMARK    7  A    between atoms: O_18  and  C_19 
ROOT
HETATM    1  C   UNL     1     -41.495 -47.139  10.377  1.00  0.00     0.112 A 
HETATM    2  N   UNL     1     -41.176 -45.917   9.896  1.00  0.00    -0.341 N 
ATOM      3  HN  UNL     1     -41.545 -45.600   8.999  1.00  0.00     0.167 HD
HETATM    4  C   UNL     1     -40.361 -45.123  10.621  1.00  0.00     0.183 A 
HETATM    5  N   UNL     1     -39.793 -45.383  11.803  1.00  0.00    -0.337 N 
ATOM      6  HN  UNL     1     -39.185 -44.729  12.296  1.00  0.00     0.168 HD
HETATM    7  C   UNL     1     -40.114 -46.602  12.269  1.00  0.00     0.137 A 
HETATM    8  N   UNL     1     -39.676 -47.126  13.455  1.00  0.00    -0.336 N 
ATOM      9  HN  UNL     1     -39.062 -46.687  14.140  1.00  0.00     0.168 HD
HETATM   10  C   UNL     1     -40.221 -48.316  13.518  1.00  0.00     0.185 A 
HETATM   11  N   UNL     1     -41.011 -48.572  12.425  1.00  0.00    -0.335 N 
HETATM   12  C   UNL     1     -40.944 -47.483  11.597  1.00  0.00     0.118 A 
ENDROOT
BRANCH  11  13
HETATM   13  C   UNL     1     -41.831 -49.756  12.258  1.00  0.00     0.164 C 
BRANCH  13  14
HETATM   14  C   UNL     1     -41.107 -50.893  11.532  1.00  0.00     0.160 C 
BRANCH  14  15
HETATM   15  O   UNL     1     -40.235 -50.322  10.541  1.00  0.00    -0.392 OA
HETATM   16  H   UNL     1     -40.000 -49.416  10.803  1.00  0.00     0.210 HD
ENDBRANCH  14  15
BRANCH  14  17
HETATM   17  C   UNL     1     -40.302 -51.710  12.557  1.00  0.00     0.209 C 
BRANCH  17  18
HETATM   18  O   UNL     1     -40.551 -53.096  12.374  1.00  0.00    -0.347 OA
BRANCH  18  19
HETATM   19  C   UNL     1     -41.287 -53.784  13.306  1.00  0.00     0.080 A 
HETATM   20  C   UNL     1     -40.512 -54.336  14.354  1.00  0.00    -0.028 A 
HETATM   21  C   UNL     1     -39.003 -54.317  14.352  1.00  0.00     0.051 C 
HETATM   22  C   UNL     1     -41.140 -54.968  15.439  1.00  0.00     0.009 A 
HETATM   23  C   UNL     1     -42.524 -55.037  15.512  1.00  0.00     0.001 A 
HETATM   24  C   UNL     1     -43.289 -54.503  14.482  1.00  0.00     0.009 A 
HETATM   25  C   UNL     1     -42.695 -53.883  13.361  1.00  0.00    -0.028 A 
HETATM   26  C   UNL     1     -43.650 -53.344  12.335  1.00  0.00     0.051 C 
ENDBRANCH  18  19
ENDBRANCH  17  18
ENDBRANCH  14  17
ENDBRANCH  13  14
ENDBRANCH  11  13
BRANCH   1  27
HETATM   27  N   UNL     1     -42.287 -48.030   9.635  1.00  0.00    -0.281 NA
HETATM   28  C   UNL     1     -43.570 -47.447   9.254  1.00  0.00     0.114 C 
HETATM   29  H   UNL     1     -41.754 -48.206   8.782  1.00  0.00     0.128 HD
ENDBRANCH   1  27
TORSDOF 7
ENDMDL
MODEL 3
REMARK VINA RESULT:      -6.5      2.749      4.816
REMARK  7 active torsions:
REMARK  status: ('A' for Active; 'I' for Inactive)
REMARK    1  A    between atoms: N_2  and  C_3 
REMARK    2  A    between atoms: N_13  and  C_14 
REMARK    3  A    between atoms: C_14  and  C_15 
REMARK    4  A    between atoms: C_15  and  O_16 
REMARK    5  A    between atoms: C_15  and  C_17 
REMARK    6  A    between atoms: C_17  and  O_18 
REMARK    7  A    between atoms: O_18  and  C_19 
ROOT
HETATM    1  C   UNL     1     -40.773 -49.523  11.006  1.00  0.00     0.112 A 
HETATM    2  N   UNL     1     -41.215 -48.556  10.171  1.00  0.00    -0.341 N 
ATOM      3  HN  UNL     1     -40.639 -48.246   9.387  1.00  0.00     0.167 HD
HETATM    4  C   UNL     1     -42.428 -48.008  10.389  1.00  0.00     0.183 A 
HETATM    5  N   UNL     1     -43.299 -48.293  11.362  1.00  0.00    -0.337 N 
ATOM      6  HN  UNL     1     -44.204 -47.836  11.465  1.00  0.00     0.168 HD
HETATM    7  C   UNL     1     -42.848 -49.252  12.189  1.00  0.00     0.137 A 
HETATM    8  N   UNL     1     -43.535 -49.741  13.267  1.00  0.00    -0.336 N 
ATOM      9  HN  UNL     1     -44.459 -49.462  13.595  1.00  0.00     0.168 HD
HETATM   10  C   UNL     1     -42.744 -50.648  13.785  1.00  0.00     0.185 A 
HETATM   11  N   UNL     1     -41.580 -50.778  13.070  1.00  0.00    -0.335 N 
HETATM   12  C   UNL     1     -41.620 -49.873  12.042  1.00  0.00     0.118 A 
ENDROOT
BRANCH  11  13
HETATM   13  C   UNL     1     -40.558 -51.772  13.329  1.00  0.00     0.164 C 
BRANCH  13  14
HETATM   14  C   UNL     1     -40.889 -53.145  12.739  1.00  0.00     0.160 C 
BRANCH  14  15
HETATM   15  O   UNL     1     -40.479 -53.164  11.361  1.00  0.00    -0.392 OA
HETATM   16  H   UNL     1     -41.246 -53.369  10.800  1.00  0.00     0.210 HD
ENDBRANCH  14  15
BRANCH  14  17
HETATM   17  C   UNL     1     -40.145 -54.227  13.541  1.00  0.00     0.209 C 
BRANCH  17  18
HETATM   18  O   UNL     1     -40.244 -53.953  14.930  1.00  0.00    -0.347 OA
BRANCH  18  19
HETATM   19  C   UNL     1     -40.410 -54.987  15.818  1.00  0.00     0.080 A 
HETATM   20  C   UNL     1     -41.764 -55.295  16.093  1.00  0.00    -0.028 A 
HETATM   21  C   UNL     1     -42.911 -54.453  15.593  1.00  0.00     0.051 C 
HETATM   22  C   UNL     1     -42.087 -56.403  16.893  1.00  0.00     0.009 A 
HETATM   23  C   UNL     1     -41.089 -57.222  17.401  1.00  0.00     0.001 A 
HETATM   24  C   UNL     1     -39.759 -56.921  17.139  1.00  0.00     0.009 A 
HETATM   25  C   UNL     1     -39.391 -55.801  16.362  1.00  0.00    -0.028 A 
HETATM   26  C   UNL     1     -37.916 -55.609  16.156  1.00  0.00     0.051 C 
ENDBRANCH  18  19
ENDBRANCH  17  18
ENDBRANCH  14  17
ENDBRANCH  13  14
ENDBRANCH  11  13
BRANCH   1  27
HETATM   27  N   UNL     1     -39.494 -50.082  10.863  1.00  0.00    -0.281 NA
HETATM   28  C   UNL     1     -38.488 -49.377  11.653  1.00  0.00     0.114 C 
HETATM   29  H   UNL     1     -39.579 -51.029  11.236  1.00  0.00     0.128 HD
ENDBRANCH   1  27
TORSDOF 7
ENDMDL
MODEL 4
REMARK VINA RESULT:      -6.5      2.243      3.316
REMARK  7 active torsions:
REMARK  status: ('A' for Active; 'I' for Inactive)
REMARK    1  A    between atoms: N_2  and  C_3 
REMARK    2  A    between atoms: N_13  and  C_14 
REMARK    3  A    between atoms: C_14  and  C_15 
REMARK    4  A    between atoms: C_15  and  O_16 
REMARK    5  A    between atoms: C_15  and  C_17 
REMARK    6  A    between atoms: C_17  and  O_18 
REMARK    7  A    between atoms: O_18  and  C_19 
ROOT
HETATM    1  C   UNL     1     -41.479 -50.817  13.993  1.00  0.00     0.112 A 
HETATM    2  N   UNL     1     -41.370 -49.779  13.133  1.00  0.00    -0.341 N 
ATOM      3  HN  UNL     1     -41.506 -48.822  13.457  1.00  0.00     0.167 HD
HETATM    4  C   UNL     1     -41.078 -50.031  11.841  1.00  0.00     0.183 A 
HETATM    5  N   UNL     1     -40.875 -51.215  11.256  1.00  0.00    -0.337 N 
ATOM      6  HN  UNL     1     -40.656 -51.330  10.266  1.00  0.00     0.168 HD
HETATM    7  C   UNL     1     -40.990 -52.239  12.119  1.00  0.00     0.137 A 
HETATM    8  N   UNL     1     -40.829 -53.559  11.792  1.00  0.00    -0.336 N 
ATOM      9  HN  UNL     1     -40.605 -53.951  10.878  1.00  0.00     0.168 HD
HETATM   10  C   UNL     1     -41.023 -54.208  12.914  1.00  0.00     0.185 A 
HETATM   11  N   UNL     1     -41.284 -53.356  13.957  1.00  0.00    -0.335 N 
HETATM   12  C   UNL     1     -41.282 -52.079  13.462  1.00  0.00     0.118 A 
ENDROOT
BRANCH  11  13
HETATM   13  C   UNL     1     -41.433 -53.764  15.339  1.00  0.00     0.164 C 
BRANCH  13  14
HETATM   14  C   UNL     1     -42.399 -54.938  15.520  1.00  0.00     0.160 C 
BRANCH  14  15
HETATM   15  O   UNL     1     -41.704 -56.005  16.189  1.00  0.00    -0.392 OA
HETATM   16  H   UNL     1     -41.239 -56.548  15.531  1.00  0.00     0.210 HD
ENDBRANCH  14  15
BRANCH  14  17
HETATM   17  C   UNL     1     -43.605 -54.471  16.352  1.00  0.00     0.209 C 
BRANCH  17  18
HETATM   18  O   UNL     1     -44.795 -54.583  15.585  1.00  0.00    -0.347 OA
BRANCH  18  19
HETATM   19  C   UNL     1     -45.419 -53.448  15.129  1.00  0.00     0.080 A 
HETATM   20  C   UNL     1     -45.381 -53.298  13.722  1.00  0.00    -0.028 A 
HETATM   21  C   UNL     1     -44.579 -54.208  12.825  1.00  0.00     0.051 C 
HETATM   22  C   UNL     1     -46.077 -52.246  13.106  1.00  0.00     0.009 A 
HETATM   23  C   UNL     1     -46.829 -51.358  13.861  1.00  0.00     0.001 A 
HETATM   24  C   UNL     1     -46.865 -51.497  15.243  1.00  0.00     0.009 A 
HETATM   25  C   UNL     1     -46.158 -52.526  15.904  1.00  0.00    -0.028 A 
HETATM   26  C   UNL     1     -46.301 -52.556  17.398  1.00  0.00     0.051 C 
ENDBRANCH  18  19
ENDBRANCH  17  18
ENDBRANCH  14  17
ENDBRANCH  13  14
ENDBRANCH  11  13
BRANCH   1  27
HETATM   27  N   UNL     1     -41.842 -50.618  15.334  1.00  0.00    -0.281 NA
HETATM   28  C   UNL     1     -43.265 -50.329  15.486  1.00  0.00     0.114 C 
HETATM   29  H   UNL     1     -41.651 -51.510  15.793  1.00  0.00     0.128 HD
ENDBRANCH   1  27
TORSDOF 7
ENDMDL
MODEL 5
REMARK VINA RESULT:      -6.4      1.814      2.614
REMARK  7 active torsions:
REMARK  status: ('A' for Active; 'I' for Inactive)
REMARK    1  A    between atoms: N_2  and  C_3 
REMARK    2  A    between atoms: N_13  and  C_14 
REMARK    3  A    between atoms: C_14  and  C_15 
REMARK    4  A    between atoms: C_15  and  O_16 
REMARK    5  A    between atoms: C_15  and  C_17 
REMARK    6  A    between atoms: C_17  and  O_18 
REMARK    7  A    between atoms: O_18  and  C_19 
ROOT
HETATM    1  C   UNL     1     -38.307 -51.106  13.467  1.00  0.00     0.112 A 
HETATM    2  N   UNL     1     -37.494 -50.196  14.049  1.00  0.00    -0.341 N 
ATOM      3  HN  UNL     1     -36.961 -49.539  13.480  1.00  0.00     0.167 HD
HETATM    4  C   UNL     1     -37.400 -50.172  15.394  1.00  0.00     0.183 A 
HETATM    5  N   UNL     1     -38.021 -50.957  16.280  1.00  0.00    -0.337 N 
ATOM      6  HN  UNL     1     -37.901 -50.880  17.289  1.00  0.00     0.168 HD
HETATM    7  C   UNL     1     -38.822 -51.861  15.690  1.00  0.00     0.137 A 
HETATM    8  N   UNL     1     -39.580 -52.787  16.355  1.00  0.00    -0.336 N 
ATOM      9  HN  UNL     1     -39.647 -52.927  17.363  1.00  0.00     0.168 HD
HETATM   10  C   UNL     1     -40.199 -53.453  15.412  1.00  0.00     0.185 A 
HETATM   11  N   UNL     1     -39.886 -52.979  14.163  1.00  0.00    -0.335 N 
HETATM   12  C   UNL     1     -38.985 -51.959  14.319  1.00  0.00     0.118 A 
ENDROOT
BRANCH  11  13
HETATM   13  C   UNL     1     -40.494 -53.436  12.930  1.00  0.00     0.164 C 
BRANCH  13  14
HETATM   14  C   UNL     1     -41.560 -52.479  12.391  1.00  0.00     0.160 C 
BRANCH  14  15
HETATM   15  O   UNL     1     -41.227 -52.135  11.036  1.00  0.00    -0.392 OA
HETATM   16  H   UNL     1     -41.948 -51.611  10.650  1.00  0.00     0.210 HD
ENDBRANCH  14  15
BRANCH  14  17
HETATM   17  C   UNL     1     -42.932 -53.172  12.454  1.00  0.00     0.209 C 
BRANCH  17  18
HETATM   18  O   UNL     1     -43.348 -53.301  13.806  1.00  0.00    -0.347 OA
BRANCH  18  19
HETATM   19  C   UNL     1     -44.564 -52.796  14.195  1.00  0.00     0.080 A 
HETATM   20  C   UNL     1     -45.590 -53.768  14.273  1.00  0.00    -0.028 A 
HETATM   21  C   UNL     1     -45.406 -55.190  13.806  1.00  0.00     0.051 C 
HETATM   22  C   UNL     1     -46.857 -53.418  14.768  1.00  0.00     0.009 A 
HETATM   23  C   UNL     1     -47.111 -52.127  15.208  1.00  0.00     0.001 A 
HETATM   24  C   UNL     1     -46.110 -51.168  15.126  1.00  0.00     0.009 A 
HETATM   25  C   UNL     1     -44.831 -51.473  14.611  1.00  0.00    -0.028 A 
HETATM   26  C   UNL     1     -43.849 -50.337  14.596  1.00  0.00     0.051 C 
ENDBRANCH  18  19
ENDBRANCH  17  18
ENDBRANCH  14  17
ENDBRANCH  13  14
ENDBRANCH  11  13
BRANCH   1  27
HETATM   27  N   UNL     1     -38.395 -51.218  12.070  1.00  0.00    -0.281 NA
HETATM   28  C   UNL     1     -37.542 -50.254  11.382  1.00  0.00     0.114 C 
HETATM   29  H   UNL     1     -38.046 -52.154  11.860  1.00  0.00     0.128 HD
ENDBRANCH   1  27
TORSDOF 7
ENDMDL
MODEL 6
REMARK VINA RESULT:      -6.4      2.340      3.736
REMARK  7 active torsions:
REMARK  status: ('A' for Active; 'I' for Inactive)
REMARK    1  A    between atoms: N_2  and  C_3 
REMARK    2  A    between atoms: N_13  and  C_14 
REMARK    3  A    between atoms: C_14  and  C_15 
REMARK    4  A    between atoms: C_15  and  O_16 
REMARK    5  A    between atoms: C_15  and  C_17 
REMARK    6  A    between atoms: C_17  and  O_18 
REMARK    7  A    between atoms: O_18  and  C_19 
ROOT
HETATM    1  C   UNL     1     -42.135 -50.895  13.792  1.00  0.00     0.112 A 
HETATM    2  N   UNL     1     -41.941 -49.805  13.015  1.00  0.00    -0.341 N 
ATOM      3  HN  UNL     1     -42.236 -48.882  13.334  1.00  0.00     0.167 HD
HETATM    4  C   UNL     1     -41.351 -49.959  11.812  1.00  0.00     0.183 A 
HETATM    5  N   UNL     1     -40.911 -51.087  11.246  1.00  0.00    -0.337 N 
ATOM      6  HN  UNL     1     -40.472 -51.127  10.327  1.00  0.00     0.168 HD
HETATM    7  C   UNL     1     -41.114 -52.163  12.025  1.00  0.00     0.137 A 
HETATM    8  N   UNL     1     -40.759 -53.444  11.697  1.00  0.00    -0.336 N 
ATOM      9  HN  UNL     1     -40.305 -53.764  10.842  1.00  0.00     0.168 HD
HETATM   10  C   UNL     1     -41.132 -54.169  12.723  1.00  0.00     0.185 A 
HETATM   11  N   UNL     1     -41.695 -53.401  13.711  1.00  0.00    -0.335 N 
HETATM   12  C   UNL     1     -41.707 -52.103  13.274  1.00  0.00     0.118 A 
ENDROOT
BRANCH  11  13
HETATM   13  C   UNL     1     -42.104 -53.897  15.010  1.00  0.00     0.164 C 
BRANCH  13  14
HETATM   14  C   UNL     1     -43.196 -54.967  14.931  1.00  0.00     0.160 C 
BRANCH  14  15
HETATM   15  O   UNL     1     -43.080 -55.826  16.078  1.00  0.00    -0.392 OA
HETATM   16  H   UNL     1     -43.307 -56.736  15.822  1.00  0.00     0.210 HD
ENDBRANCH  14  15
BRANCH  14  17
HETATM   17  C   UNL     1     -44.571 -54.278  14.905  1.00  0.00     0.209 C 
BRANCH  17  18
HETATM   18  O   UNL     1     -44.529 -53.085  15.674  1.00  0.00    -0.347 OA
BRANCH  18  19
HETATM   19  C   UNL     1     -45.685 -52.592  16.226  1.00  0.00     0.080 A 
HETATM   20  C   UNL     1     -45.816 -52.854  17.611  1.00  0.00    -0.028 A 
HETATM   21  C   UNL     1     -44.860 -53.741  18.369  1.00  0.00     0.051 C 
HETATM   22  C   UNL     1     -46.890 -52.311  18.334  1.00  0.00     0.009 A 
HETATM   23  C   UNL     1     -47.820 -51.493  17.708  1.00  0.00     0.001 A 
HETATM   24  C   UNL     1     -47.700 -51.238  16.348  1.00  0.00     0.009 A 
HETATM   25  C   UNL     1     -46.649 -51.786  15.580  1.00  0.00    -0.028 A 
HETATM   26  C   UNL     1     -46.643 -51.414  14.126  1.00  0.00     0.051 C 
ENDBRANCH  18  19
ENDBRANCH  17  18
ENDBRANCH  14  17
ENDBRANCH  13  14
ENDBRANCH  11  13
BRANCH   1  27
HETATM   27  N   UNL     1     -42.801 -50.802  15.025  1.00  0.00    -0.281 NA
HETATM   28  C   UNL     1     -41.940 -50.279  16.082  1.00  0.00     0.114 C 
HETATM   29  H   UNL     1     -43.551 -50.128  14.868  1.00  0.00     0.128 HD
ENDBRANCH   1  27
TORSDOF 7
ENDMDL
MODEL 7
REMARK VINA RESULT:      -6.3      2.918      4.080
REMARK  7 active torsions:
REMARK  status: ('A' for Active; 'I' for Inactive)
REMARK    1  A    between atoms: N_2  and  C_3 
REMARK    2  A    between atoms: N_13  and  C_14 
REMARK    3  A    between atoms: C_14  and  C_15 
REMARK    4  A    between atoms: C_15  and  O_16 
REMARK    5  A    between atoms: C_15  and  C_17 
REMARK    6  A    between atoms: C_17  and  O_18 
REMARK    7  A    between atoms: O_18  and  C_19 
ROOT
HETATM    1  C   UNL     1     -41.353 -47.229  10.554  1.00  0.00     0.112 A 
HETATM    2  N   UNL     1     -40.974 -45.997  10.147  1.00  0.00    -0.341 N 
ATOM      3  HN  UNL     1     -41.279 -45.633   9.245  1.00  0.00     0.167 HD
HETATM    4  C   UNL     1     -40.186 -45.257  10.954  1.00  0.00     0.183 A 
HETATM    5  N   UNL     1     -39.698 -45.582  12.155  1.00  0.00    -0.337 N 
ATOM      6  HN  UNL     1     -39.105 -44.967  12.712  1.00  0.00     0.168 HD
HETATM    7  C   UNL     1     -40.077 -46.810  12.547  1.00  0.00     0.137 A 
HETATM    8  N   UNL     1     -39.727 -47.396  13.734  1.00  0.00    -0.336 N 
ATOM      9  HN  UNL     1     -39.144 -47.003  14.473  1.00  0.00     0.168 HD
HETATM   10  C   UNL     1     -40.304 -48.572  13.712  1.00  0.00     0.185 A 
HETATM   11  N   UNL     1     -41.031 -48.760  12.564  1.00  0.00    -0.335 N 
HETATM   12  C   UNL     1     -40.886 -47.639  11.790  1.00  0.00     0.118 A 
ENDROOT
BRANCH  11  13
HETATM   13  C   UNL     1     -41.869 -49.912  12.296  1.00  0.00     0.164 C 
BRANCH  13  14
HETATM   14  C   UNL     1     -41.144 -51.018  11.525  1.00  0.00     0.160 C 
BRANCH  14  15
HETATM   15  O   UNL     1     -40.219 -50.408  10.609  1.00  0.00    -0.392 OA
HETATM   16  H   UNL     1     -40.708 -50.050   9.849  1.00  0.00     0.210 HD
ENDBRANCH  14  15
BRANCH  14  17
HETATM   17  C   UNL     1     -40.401 -51.922  12.525  1.00  0.00     0.209 C 
BRANCH  17  18
HETATM   18  O   UNL     1     -40.914 -53.244  12.455  1.00  0.00    -0.347 OA
BRANCH  18  19
HETATM   19  C   UNL     1     -41.411 -53.841  13.587  1.00  0.00     0.080 A 
HETATM   20  C   UNL     1     -42.814 -54.033  13.565  1.00  0.00    -0.028 A 
HETATM   21  C   UNL     1     -43.697 -53.475  12.477  1.00  0.00     0.051 C 
HETATM   22  C   UNL     1     -43.446 -54.735  14.604  1.00  0.00     0.009 A 
HETATM   23  C   UNL     1     -42.706 -55.269  15.648  1.00  0.00     0.001 A 
HETATM   24  C   UNL     1     -41.330 -55.078  15.677  1.00  0.00     0.009 A 
HETATM   25  C   UNL     1     -40.659 -54.357  14.666  1.00  0.00    -0.028 A 
HETATM   26  C   UNL     1     -39.171 -54.242  14.828  1.00  0.00     0.051 C 
ENDBRANCH  18  19
ENDBRANCH  17  18
ENDBRANCH  14  17
ENDBRANCH  13  14
ENDBRANCH  11  13
BRANCH   1  27
HETATM   27  N   UNL     1     -42.119 -48.066   9.728  1.00  0.00    -0.281 NA
HETATM   28  C   UNL     1     -43.406 -47.472   9.378  1.00  0.00     0.114 C 
HETATM   29  H   UNL     1     -41.573 -48.161   8.871  1.00  0.00     0.128 HD
ENDBRANCH   1  27
TORSDOF 7
ENDMDL
MODEL 8
REMARK VINA RESULT:      -6.3      2.343      3.363
REMARK  7 active torsions:
REMARK  status: ('A' for Active; 'I' for Inactive)
REMARK    1  A    between atoms: N_2  and  C_3 
REMARK    2  A    between atoms: N_13  and  C_14 
REMARK    3  A    between atoms: C_14  and  C_15 
REMARK    4  A    between atoms: C_15  and  O_16 
REMARK    5  A    between atoms: C_15  and  C_17 
REMARK    6  A    between atoms: C_17  and  O_18 
REMARK    7  A    between atoms: O_18  and  C_19 
ROOT
HETATM    1  C   UNL     1     -41.548 -47.332  10.390  1.00  0.00     0.112 A 
HETATM    2  N   UNL     1     -41.451 -46.027  10.050  1.00  0.00    -0.341 N 
ATOM      3  HN  UNL     1     -42.012 -45.648   9.287  1.00  0.00     0.167 HD
HETATM    4  C   UNL     1     -40.600 -45.236  10.735  1.00  0.00     0.183 A 
HETATM    5  N   UNL     1     -39.797 -45.572  11.750  1.00  0.00    -0.337 N 
ATOM      6  HN  UNL     1     -39.177 -44.915  12.223  1.00  0.00     0.168 HD
HETATM    7  C   UNL     1     -39.899 -46.871  12.076  1.00  0.00     0.137 A 
HETATM    8  N   UNL     1     -39.195 -47.484  13.078  1.00  0.00    -0.336 N 
ATOM      9  HN  UNL     1     -38.511 -47.062  13.705  1.00  0.00     0.168 HD
HETATM   10  C   UNL     1     -39.594 -48.731  13.054  1.00  0.00     0.185 A 
HETATM   11  N   UNL     1     -40.544 -48.944  12.087  1.00  0.00    -0.335 N 
HETATM   12  C   UNL     1     -40.745 -47.757  11.433  1.00  0.00     0.118 A 
ENDROOT
BRANCH  11  13
HETATM   13  C   UNL     1     -41.256 -50.190  11.888  1.00  0.00     0.164 C 
BRANCH  13  14
HETATM   14  C   UNL     1     -42.481 -50.337  12.795  1.00  0.00     0.160 C 
BRANCH  14  15
HETATM   15  O   UNL     1     -43.581 -49.630  12.197  1.00  0.00    -0.392 OA
HETATM   16  H   UNL     1     -44.415 -49.950  12.580  1.00  0.00     0.210 HD
ENDBRANCH  14  15
BRANCH  14  17
HETATM   17  C   UNL     1     -42.814 -51.831  12.948  1.00  0.00     0.209 C 
BRANCH  17  18
HETATM   18  O   UNL     1     -43.140 -52.117  14.300  1.00  0.00    -0.347 OA
BRANCH  18  19
HETATM   19  C   UNL     1     -44.455 -52.268  14.666  1.00  0.00     0.080 A 
HETATM   20  C   UNL     1     -44.962 -51.196  15.438  1.00  0.00    -0.028 A 
HETATM   21  C   UNL     1     -44.090 -50.079  15.956  1.00  0.00     0.051 C 
HETATM   22  C   UNL     1     -46.322 -51.158  15.786  1.00  0.00     0.009 A 
HETATM   23  C   UNL     1     -47.188 -52.153  15.359  1.00  0.00     0.001 A 
HETATM   24  C   UNL     1     -46.694 -53.211  14.606  1.00  0.00     0.009 A 
HETATM   25  C   UNL     1     -45.329 -53.300  14.257  1.00  0.00    -0.028 A 
HETATM   26  C   UNL     1     -44.945 -54.495  13.432  1.00  0.00     0.051 C 
ENDBRANCH  18  19
ENDBRANCH  17  18
ENDBRANCH  14  17
ENDBRANCH  13  14
ENDBRANCH  11  13
BRANCH   1  27
HETATM   27  N   UNL     1     -42.369 -48.214   9.670  1.00  0.00    -0.281 NA
HETATM   28  C   UNL     1     -43.350 -47.512   8.848  1.00  0.00     0.114 C 
HETATM   29  H   UNL     1     -41.735 -48.714   9.046  1.00  0.00     0.128 HD
ENDBRANCH   1  27
TORSDOF 7
ENDMDL
MODEL 9
REMARK VINA RESULT:      -6.3      2.925      6.898
REMARK  7 active torsions:
REMARK  status: ('A' for Active; 'I' for Inactive)
REMARK    1  A    between atoms: N_2  and  C_3 
REMARK    2  A    between atoms: N_13  and  C_14 
REMARK    3  A    between atoms: C_14  and  C_15 
REMARK    4  A    between atoms: C_15  and  O_16 
REMARK    5  A    between atoms: C_15  and  C_17 
REMARK    6  A    between atoms: C_17  and  O_18 
REMARK    7  A    between atoms: O_18  and  C_19 
ROOT
HETATM    1  C   UNL     1     -45.496 -53.264  13.255  1.00  0.00     0.112 A 
HETATM    2  N   UNL     1     -46.534 -53.792  13.942  1.00  0.00    -0.341 N 
ATOM      3  HN  UNL     1     -47.452 -53.880  13.507  1.00  0.00     0.167 HD
HETATM    4  C   UNL     1     -46.335 -54.200  15.212  1.00  0.00     0.183 A 
HETATM    5  N   UNL     1     -45.207 -54.153  15.927  1.00  0.00    -0.337 N 
ATOM      6  HN  UNL     1     -45.131 -54.483  16.889  1.00  0.00     0.168 HD
HETATM    7  C   UNL     1     -44.184 -53.622  15.236  1.00  0.00     0.137 A 
HETATM    8  N   UNL     1     -42.914 -53.457  15.721  1.00  0.00    -0.336 N 
ATOM      9  HN  UNL     1     -42.566 -53.702  16.648  1.00  0.00     0.168 HD
HETATM   10  C   UNL     1     -42.245 -52.916  14.733  1.00  0.00     0.185 A 
HETATM   11  N   UNL     1     -43.030 -52.744  13.621  1.00  0.00    -0.335 N 
HETATM   12  C   UNL     1     -44.291 -53.180  13.929  1.00  0.00     0.118 A 
ENDROOT
BRANCH  11  13
HETATM   13  C   UNL     1     -42.551 -52.272  12.337  1.00  0.00     0.164 C 
BRANCH  13  14
HETATM   14  C   UNL     1     -41.024 -52.192  12.255  1.00  0.00     0.160 C 
BRANCH  14  15
HETATM   15  O   UNL     1     -40.556 -53.234  11.383  1.00  0.00    -0.392 OA
HETATM   16  H   UNL     1     -39.618 -53.086  11.180  1.00  0.00     0.210 HD
ENDBRANCH  14  15
BRANCH  14  17
HETATM   17  C   UNL     1     -40.624 -50.809  11.713  1.00  0.00     0.209 C 
BRANCH  17  18
HETATM   18  O   UNL     1     -41.289 -49.791  12.446  1.00  0.00    -0.347 OA
BRANCH  18  19
HETATM   19  C   UNL     1     -40.924 -48.479  12.272  1.00  0.00     0.080 A 
HETATM   20  C   UNL     1     -40.029 -47.997  13.258  1.00  0.00    -0.028 A 
HETATM   21  C   UNL     1     -39.651 -48.798  14.479  1.00  0.00     0.051 C 
HETATM   22  C   UNL     1     -39.480 -46.710  13.144  1.00  0.00     0.009 A 
HETATM   23  C   UNL     1     -39.786 -45.906  12.056  1.00  0.00     0.001 A 
HETATM   24  C   UNL     1     -40.669 -46.370  11.090  1.00  0.00     0.009 A 
HETATM   25  C   UNL     1     -41.263 -47.648  11.180  1.00  0.00    -0.028 A 
HETATM   26  C   UNL     1     -42.187 -48.017  10.056  1.00  0.00     0.051 C 
ENDBRANCH  18  19
ENDBRANCH  17  18
ENDBRANCH  14  17
ENDBRANCH  13  14
ENDBRANCH  11  13
BRANCH   1  27
HETATM   27  N   UNL     1     -45.661 -52.766  11.953  1.00  0.00    -0.281 NA
HETATM   28  C   UNL     1     -46.790 -51.846  11.850  1.00  0.00     0.114 C 
HETATM   29  H   UNL     1     -44.808 -52.239  11.763  1.00  0.00     0.128 HD
ENDBRANCH   1  27
TORSDOF 7
ENDMDL
