MODEL 1
REMARK VINA RESULT:      -6.4      0.000      0.000
REMARK  5 active torsions:
REMARK  status: ('A' for Active; 'I' for Inactive)
REMARK    1  A    between atoms: C_2  and  C_5 
REMARK    2  A    between atoms: C_7  and  N_8 
REMARK       I    between atoms: N_8  and  C_9 
REMARK       I    between atoms: C_9  and  N_11 
REMARK    3  A    between atoms: N_11  and  C_12 
REMARK    4  A    between atoms: C_12  and  C_13 
REMARK    5  A    between atoms: C_17  and  O_18 
ROOT
HETATM    1  N   UNL     1     -42.886 -53.892  12.587  1.00  0.00    -0.293 N 
HETATM    2  C   UNL     1     -44.241 -53.734  12.609  1.00  0.00     0.321 C 
HETATM    3  O   UNL     1     -44.964 -54.720  12.745  1.00  0.00    -0.247 OA
HETATM    4  N   UNL     1     -44.714 -52.467  12.450  1.00  0.00    -0.342 N 
HETATM    5  H   UNL     1     -42.582 -54.852  12.654  1.00  0.00     0.172 HD
HETATM    6  H   UNL     1     -44.025 -51.735  12.594  1.00  0.00     0.164 HD
ENDROOT
BRANCH   1   7
HETATM    7  C   UNL     1     -41.924 -52.910  12.500  1.00  0.00     0.132 A 
HETATM    8  C   UNL     1     -41.332 -52.268  13.607  1.00  0.00     0.086 A 
HETATM    9  C   UNL     1     -40.445 -51.368  13.060  1.00  0.00     0.087 A 
HETATM   10  O   UNL     1     -40.507 -51.466  11.706  1.00  0.00    -0.240 OA
HETATM   11  N   UNL     1     -41.429 -52.422  11.355  1.00  0.00    -0.245 N 
ATOM     12  HN  UNL     1     -41.686 -52.704  10.409  1.00  0.00     0.196 HD
BRANCH   9  13
HETATM   13  C   UNL     1     -39.494 -50.362  13.639  1.00  0.00     0.000 C 
HETATM   14  C   UNL     1     -38.119 -50.522  12.967  1.00  0.00     0.021 C 
HETATM   15  C   UNL     1     -39.364 -50.605  15.152  1.00  0.00     0.021 C 
HETATM   16  C   UNL     1     -39.984 -48.918  13.414  1.00  0.00     0.021 C 
ENDBRANCH   9  13
ENDBRANCH   1   7
BRANCH   4  17
HETATM   17  C   UNL     1     -46.107 -52.121  12.605  1.00  0.00     0.131 C 
BRANCH  17  18
HETATM   18  C   UNL     1     -46.356 -51.388  13.920  1.00  0.00     0.032 C 
HETATM   19  C   UNL     1     -45.079 -50.921  14.639  1.00  0.00     0.009 C 
HETATM   20  C   UNL     1     -45.390 -50.983  16.137  1.00  0.00     0.003 C 
HETATM   21  C   UNL     1     -46.819 -51.507  16.261  1.00  0.00     0.032 C 
HETATM   22  C   UNL     1     -47.069 -52.252  14.958  1.00  0.00     0.123 C 
BRANCH  22  23
HETATM   23  O   UNL     1     -46.524 -53.564  15.029  1.00  0.00    -0.395 OA
HETATM   24  H   UNL     1     -46.079 -53.676  15.886  1.00  0.00     0.210 HD
ENDBRANCH  22  23
ENDBRANCH  17  18
ENDBRANCH   4  17
TORSDOF 5
ENDMDL
MODEL 2
REMARK VINA RESULT:      -6.3      2.628      3.919
REMARK  5 active torsions:
REMARK  status: ('A' for Active; 'I' for Inactive)
REMARK    1  A    between atoms: C_2  and  C_5 
REMARK    2  A    between atoms: C_7  and  N_8 
REMARK       I    between atoms: N_8  and  C_9 
REMARK       I    between atoms: C_9  and  N_11 
REMARK    3  A    between atoms: N_11  and  C_12 
REMARK    4  A    between atoms: C_12  and  C_13 
REMARK    5  A    between atoms: C_17  and  O_18 
ROOT
HETATM    1  N   UNL     1     -40.175 -50.740  11.400  1.00  0.00    -0.293 N 
HETATM    2  C   UNL     1     -40.980 -51.718  11.908  1.00  0.00     0.321 C 
HETATM    3  O   UNL     1     -40.512 -52.832  12.130  1.00  0.00    -0.247 OA
HETATM    4  N   UNL     1     -42.287 -51.391  12.115  1.00  0.00    -0.342 N 
HETATM    5  H   UNL     1     -39.230 -51.040  11.212  1.00  0.00     0.172 HD
HETATM    6  H   UNL     1     -42.479 -50.394  12.123  1.00  0.00     0.164 HD
ENDROOT
BRANCH   1   7
HETATM    7  C   UNL     1     -40.504 -49.428  11.140  1.00  0.00     0.132 A 
HETATM    8  C   UNL     1     -39.981 -48.317  11.835  1.00  0.00     0.086 A 
HETATM    9  C   UNL     1     -40.582 -47.222  11.255  1.00  0.00     0.087 A 
HETATM   10  O   UNL     1     -41.416 -47.655  10.274  1.00  0.00    -0.240 OA
HETATM   11  N   UNL     1     -41.372 -49.026  10.203  1.00  0.00    -0.245 N 
ATOM     12  HN  UNL     1     -41.898 -49.622   9.563  1.00  0.00     0.196 HD
BRANCH   9  13
HETATM   13  C   UNL     1     -40.499 -45.743  11.493  1.00  0.00     0.000 C 
HETATM   14  C   UNL     1     -39.640 -45.101  10.390  1.00  0.00     0.021 C 
HETATM   15  C   UNL     1     -39.856 -45.490  12.867  1.00  0.00     0.021 C 
HETATM   16  C   UNL     1     -41.893 -45.085  11.475  1.00  0.00     0.021 C 
ENDBRANCH   9  13
ENDBRANCH   1   7
BRANCH   4  17
HETATM   17  C   UNL     1     -43.219 -52.264  12.786  1.00  0.00     0.131 C 
BRANCH  17  18
HETATM   18  C   UNL     1     -44.495 -51.522  13.175  1.00  0.00     0.032 C 
HETATM   19  C   UNL     1     -44.748 -51.445  14.690  1.00  0.00     0.009 C 
HETATM   20  C   UNL     1     -46.269 -51.454  14.867  1.00  0.00     0.003 C 
HETATM   21  C   UNL     1     -46.866 -51.562  13.466  1.00  0.00     0.032 C 
HETATM   22  C   UNL     1     -45.758 -52.178  12.622  1.00  0.00     0.123 C 
BRANCH  22  23
HETATM   23  O   UNL     1     -45.744 -53.591  12.785  1.00  0.00    -0.395 OA
HETATM   24  H   UNL     1     -45.260 -53.811  13.598  1.00  0.00     0.210 HD
ENDBRANCH  22  23
ENDBRANCH  17  18
ENDBRANCH   4  17
TORSDOF 5
ENDMDL
MODEL 3
REMARK VINA RESULT:      -6.3      3.547      6.385
REMARK  5 active torsions:
REMARK  status: ('A' for Active; 'I' for Inactive)
REMARK    1  A    between atoms: C_2  and  C_5 
REMARK    2  A    between atoms: C_7  and  N_8 
REMARK       I    between atoms: N_8  and  C_9 
REMARK       I    between atoms: C_9  and  N_11 
REMARK    3  A    between atoms: N_11  and  C_12 
REMARK    4  A    between atoms: C_12  and  C_13 
REMARK    5  A    between atoms: C_17  and  O_18 
ROOT
HETATM    1  N   UNL     1     -41.158 -51.044  12.439  1.00  0.00    -0.293 N 
HETATM    2  C   UNL     1     -40.816 -49.897  11.784  1.00  0.00     0.321 C 
HETATM    3  O   UNL     1     -39.646 -49.518  11.795  1.00  0.00    -0.247 OA
HETATM    4  N   UNL     1     -41.824 -49.218  11.168  1.00  0.00    -0.342 N 
HETATM    5  H   UNL     1     -40.391 -51.485  12.925  1.00  0.00     0.172 HD
HETATM    6  H   UNL     1     -42.675 -49.755  11.029  1.00  0.00     0.164 HD
ENDROOT
BRANCH   1   7
HETATM    7  C   UNL     1     -42.394 -51.649  12.491  1.00  0.00     0.132 A 
HETATM    8  C   UNL     1     -43.473 -51.202  13.283  1.00  0.00     0.086 A 
HETATM    9  C   UNL     1     -44.490 -52.096  13.031  1.00  0.00     0.087 A 
HETATM   10  O   UNL     1     -44.042 -53.023  12.144  1.00  0.00    -0.240 OA
HETATM   11  N   UNL     1     -42.738 -52.749  11.810  1.00  0.00    -0.245 N 
ATOM     12  HN  UNL     1     -42.148 -53.280  11.169  1.00  0.00     0.196 HD
BRANCH   9  13
HETATM   13  C   UNL     1     -45.900 -52.233  13.525  1.00  0.00     0.000 C 
HETATM   14  C   UNL     1     -46.149 -53.692  13.943  1.00  0.00     0.021 C 
HETATM   15  C   UNL     1     -46.869 -51.843  12.395  1.00  0.00     0.021 C 
HETATM   16  C   UNL     1     -46.170 -51.321  14.738  1.00  0.00     0.021 C 
ENDBRANCH   9  13
ENDBRANCH   1   7
BRANCH   4  17
HETATM   17  C   UNL     1     -41.598 -48.079  10.312  1.00  0.00     0.131 C 
BRANCH  17  18
HETATM   18  C   UNL     1     -42.871 -47.257  10.131  1.00  0.00     0.032 C 
HETATM   19  C   UNL     1     -44.147 -47.938  10.653  1.00  0.00     0.009 C 
HETATM   20  C   UNL     1     -45.283 -47.463   9.744  1.00  0.00     0.003 C 
HETATM   21  C   UNL     1     -44.649 -46.544   8.702  1.00  0.00     0.032 C 
HETATM   22  C   UNL     1     -43.184 -46.958   8.666  1.00  0.00     0.123 C 
BRANCH  22  23
HETATM   23  O   UNL     1     -43.017 -48.103   7.838  1.00  0.00    -0.395 OA
HETATM   24  H   UNL     1     -42.922 -47.814   6.915  1.00  0.00     0.210 HD
ENDBRANCH  22  23
ENDBRANCH  17  18
ENDBRANCH   4  17
TORSDOF 5
ENDMDL
MODEL 4
REMARK VINA RESULT:      -6.2      2.586      3.653
REMARK  5 active torsions:
REMARK  status: ('A' for Active; 'I' for Inactive)
REMARK    1  A    between atoms: C_2  and  C_5 
REMARK    2  A    between atoms: C_7  and  N_8 
REMARK       I    between atoms: N_8  and  C_9 
REMARK       I    between atoms: C_9  and  N_11 
REMARK    3  A    between atoms: N_11  and  C_12 
REMARK    4  A    between atoms: C_12  and  C_13 
REMARK    5  A    between atoms: C_17  and  O_18 
ROOT
HETATM    1  N   UNL     1     -40.665 -51.794  11.979  1.00  0.00    -0.293 N 
HETATM    2  C   UNL     1     -41.519 -52.817  12.272  1.00  0.00     0.321 C 
HETATM    3  O   UNL     1     -41.071 -53.872  12.717  1.00  0.00    -0.247 OA
HETATM    4  N   UNL     1     -42.842 -52.604  12.023  1.00  0.00    -0.342 N 
HETATM    5  H   UNL     1     -39.692 -52.014  12.129  1.00  0.00     0.172 HD
HETATM    6  H   UNL     1     -43.098 -51.630  11.894  1.00  0.00     0.164 HD
ENDROOT
BRANCH   1   7
HETATM    7  C   UNL     1     -40.985 -50.532  11.529  1.00  0.00     0.132 A 
HETATM    8  C   UNL     1     -41.834 -49.631  12.205  1.00  0.00     0.086 A 
HETATM    9  C   UNL     1     -41.873 -48.513  11.401  1.00  0.00     0.087 A 
HETATM   10  O   UNL     1     -41.095 -48.736  10.309  1.00  0.00    -0.240 OA
HETATM   11  N   UNL     1     -40.545 -49.993  10.385  1.00  0.00    -0.245 N 
ATOM     12  HN  UNL     1     -39.924 -50.429   9.703  1.00  0.00     0.196 HD
BRANCH   9  13
HETATM   13  C   UNL     1     -42.572 -47.189  11.495  1.00  0.00     0.000 C 
HETATM   14  C   UNL     1     -43.801 -47.199  10.569  1.00  0.00     0.021 C 
HETATM   15  C   UNL     1     -41.603 -46.076  11.061  1.00  0.00     0.021 C 
HETATM   16  C   UNL     1     -43.044 -46.894  12.933  1.00  0.00     0.021 C 
ENDBRANCH   9  13
ENDBRANCH   1   7
BRANCH   4  17
HETATM   17  C   UNL     1     -43.877 -53.526  12.421  1.00  0.00     0.131 C 
BRANCH  17  18
HETATM   18  C   UNL     1     -44.656 -53.003  13.624  1.00  0.00     0.032 C 
HETATM   19  C   UNL     1     -45.830 -53.897  14.059  1.00  0.00     0.009 C 
HETATM   20  C   UNL     1     -46.895 -52.952  14.622  1.00  0.00     0.003 C 
HETATM   21  C   UNL     1     -46.338 -51.537  14.481  1.00  0.00     0.032 C 
HETATM   22  C   UNL     1     -45.301 -51.642  13.371  1.00  0.00     0.123 C 
BRANCH  22  23
HETATM   23  O   UNL     1     -45.934 -51.578  12.099  1.00  0.00    -0.395 OA
HETATM   24  H   UNL     1     -45.491 -50.903  11.558  1.00  0.00     0.210 HD
ENDBRANCH  22  23
ENDBRANCH  17  18
ENDBRANCH   4  17
TORSDOF 5
ENDMDL
MODEL 5
REMARK VINA RESULT:      -6.0      1.684      6.006
REMARK  5 active torsions:
REMARK  status: ('A' for Active; 'I' for Inactive)
REMARK    1  A    between atoms: C_2  and  C_5 
REMARK    2  A    between atoms: C_7  and  N_8 
REMARK       I    between atoms: N_8  and  C_9 
REMARK       I    between atoms: C_9  and  N_11 
REMARK    3  A    between atoms: N_11  and  C_12 
REMARK    4  A    between atoms: C_12  and  C_13 
REMARK    5  A    between atoms: C_17  and  O_18 
ROOT
HETATM    1  N   UNL     1     -41.496 -54.163  13.481  1.00  0.00    -0.293 N 
HETATM    2  C   UNL     1     -40.351 -53.428  13.376  1.00  0.00     0.321 C 
HETATM    3  O   UNL     1     -39.262 -53.976  13.536  1.00  0.00    -0.247 OA
HETATM    4  N   UNL     1     -40.497 -52.098  13.119  1.00  0.00    -0.342 N 
HETATM    5  H   UNL     1     -41.344 -55.131  13.725  1.00  0.00     0.172 HD
HETATM    6  H   UNL     1     -41.413 -51.830  12.773  1.00  0.00     0.164 HD
ENDROOT
BRANCH   1   7
HETATM    7  C   UNL     1     -42.791 -53.739  13.283  1.00  0.00     0.132 A 
HETATM    8  C   UNL     1     -43.579 -53.085  14.254  1.00  0.00     0.086 A 
HETATM    9  C   UNL     1     -44.786 -52.856  13.632  1.00  0.00     0.087 A 
HETATM   10  O   UNL     1     -44.723 -53.347  12.367  1.00  0.00    -0.240 OA
HETATM   11  N   UNL     1     -43.485 -53.901  12.149  1.00  0.00    -0.245 N 
ATOM     12  HN  UNL     1     -43.158 -54.346  11.291  1.00  0.00     0.196 HD
BRANCH   9  13
HETATM   13  C   UNL     1     -46.073 -52.216  14.065  1.00  0.00     0.000 C 
HETATM   14  C   UNL     1     -45.771 -51.130  15.111  1.00  0.00     0.021 C 
HETATM   15  C   UNL     1     -46.987 -53.291  14.680  1.00  0.00     0.021 C 
HETATM   16  C   UNL     1     -46.812 -51.565  12.879  1.00  0.00     0.021 C 
ENDBRANCH   9  13
ENDBRANCH   1   7
BRANCH   4  17
HETATM   17  C   UNL     1     -39.385 -51.226  12.829  1.00  0.00     0.131 C 
BRANCH  17  18
HETATM   18  C   UNL     1     -39.828 -49.768  12.742  1.00  0.00     0.032 C 
HETATM   19  C   UNL     1     -41.253 -49.506  13.258  1.00  0.00     0.009 C 
HETATM   20  C   UNL     1     -41.801 -48.349  12.418  1.00  0.00     0.003 C 
HETATM   21  C   UNL     1     -40.705 -47.981  11.420  1.00  0.00     0.032 C 
HETATM   22  C   UNL     1     -39.849 -49.236  11.311  1.00  0.00     0.123 C 
BRANCH  22  23
HETATM   23  O   UNL     1     -40.441 -50.158  10.405  1.00  0.00    -0.395 OA
HETATM   24  H   UNL     1     -39.972 -50.111   9.554  1.00  0.00     0.210 HD
ENDBRANCH  22  23
ENDBRANCH  17  18
ENDBRANCH   4  17
TORSDOF 5
ENDMDL
MODEL 6
REMARK VINA RESULT:      -5.9      1.875      6.603
REMARK  5 active torsions:
REMARK  status: ('A' for Active; 'I' for Inactive)
REMARK    1  A    between atoms: C_2  and  C_5 
REMARK    2  A    between atoms: C_7  and  N_8 
REMARK       I    between atoms: N_8  and  C_9 
REMARK       I    between atoms: C_9  and  N_11 
REMARK    3  A    between atoms: N_11  and  C_12 
REMARK    4  A    between atoms: C_12  and  C_13 
REMARK    5  A    between atoms: C_17  and  O_18 
ROOT
HETATM    1  N   UNL     1     -41.184 -54.178  13.173  1.00  0.00    -0.293 N 
HETATM    2  C   UNL     1     -40.049 -53.652  13.717  1.00  0.00     0.321 C 
HETATM    3  O   UNL     1     -39.009 -54.307  13.699  1.00  0.00    -0.247 OA
HETATM    4  N   UNL     1     -40.153 -52.416  14.280  1.00  0.00    -0.342 N 
HETATM    5  H   UNL     1     -41.074 -55.116  12.816  1.00  0.00     0.172 HD
HETATM    6  H   UNL     1     -40.984 -51.897  14.014  1.00  0.00     0.164 HD
ENDROOT
BRANCH   1   7
HETATM    7  C   UNL     1     -42.417 -53.577  13.052  1.00  0.00     0.132 A 
HETATM    8  C   UNL     1     -43.403 -53.559  14.061  1.00  0.00     0.086 A 
HETATM    9  C   UNL     1     -44.459 -52.867  13.511  1.00  0.00     0.087 A 
HETATM   10  O   UNL     1     -44.123 -52.496  12.247  1.00  0.00    -0.240 OA
HETATM   11  N   UNL     1     -42.856 -52.940  11.959  1.00  0.00    -0.245 N 
ATOM     12  HN  UNL     1     -42.348 -52.810  11.083  1.00  0.00     0.196 HD
BRANCH   9  13
HETATM   13  C   UNL     1     -45.820 -52.478  14.009  1.00  0.00     0.000 C 
HETATM   14  C   UNL     1     -46.500 -53.709  14.632  1.00  0.00     0.021 C 
HETATM   15  C   UNL     1     -46.660 -51.963  12.827  1.00  0.00     0.021 C 
HETATM   16  C   UNL     1     -45.742 -51.368  15.075  1.00  0.00     0.021 C 
ENDBRANCH   9  13
ENDBRANCH   1   7
BRANCH   4  17
HETATM   17  C   UNL     1     -39.014 -51.668  14.755  1.00  0.00     0.131 C 
BRANCH  17  18
HETATM   18  C   UNL     1     -38.700 -50.490  13.838  1.00  0.00     0.032 C 
HETATM   19  C   UNL     1     -39.731 -50.263  12.719  1.00  0.00     0.009 C 
HETATM   20  C   UNL     1     -38.948 -49.698  11.531  1.00  0.00     0.003 C 
HETATM   21  C   UNL     1     -37.486 -49.632  11.967  1.00  0.00     0.032 C 
HETATM   22  C   UNL     1     -37.376 -50.649  13.094  1.00  0.00     0.123 C 
BRANCH  22  23
HETATM   23  O   UNL     1     -37.215 -51.958  12.561  1.00  0.00    -0.395 OA
HETATM   24  H   UNL     1     -37.836 -52.078  11.823  1.00  0.00     0.210 HD
ENDBRANCH  22  23
ENDBRANCH  17  18
ENDBRANCH   4  17
TORSDOF 5
ENDMDL
MODEL 7
REMARK VINA RESULT:      -5.9      2.354      3.192
REMARK  5 active torsions:
REMARK  status: ('A' for Active; 'I' for Inactive)
REMARK    1  A    between atoms: C_2  and  C_5 
REMARK    2  A    between atoms: C_7  and  N_8 
REMARK       I    between atoms: N_8  and  C_9 
REMARK       I    between atoms: C_9  and  N_11 
REMARK    3  A    between atoms: N_11  and  C_12 
REMARK    4  A    between atoms: C_12  and  C_13 
REMARK    5  A    between atoms: C_17  and  O_18 
ROOT
HETATM    1  N   UNL     1     -41.275 -52.099  12.931  1.00  0.00    -0.293 N 
HETATM    2  C   UNL     1     -42.207 -53.093  13.004  1.00  0.00     0.321 C 
HETATM    3  O   UNL     1     -41.987 -54.078  13.705  1.00  0.00    -0.247 OA
HETATM    4  N   UNL     1     -43.335 -52.934  12.257  1.00  0.00    -0.342 N 
HETATM    5  H   UNL     1     -40.434 -52.282  13.457  1.00  0.00     0.172 HD
HETATM    6  H   UNL     1     -43.496 -51.986  11.927  1.00  0.00     0.164 HD
ENDROOT
BRANCH   1   7
HETATM    7  C   UNL     1     -41.367 -50.906  12.248  1.00  0.00     0.132 A 
HETATM    8  C   UNL     1     -42.157 -49.809  12.654  1.00  0.00     0.086 A 
HETATM    9  C   UNL     1     -41.953 -48.851  11.686  1.00  0.00     0.087 A 
HETATM   10  O   UNL     1     -41.095 -49.349  10.756  1.00  0.00    -0.240 OA
HETATM   11  N   UNL     1     -40.733 -50.628  11.102  1.00  0.00    -0.245 N 
ATOM     12  HN  UNL     1     -40.104 -51.244  10.587  1.00  0.00     0.196 HD
BRANCH   9  13
HETATM   13  C   UNL     1     -42.471 -47.458  11.475  1.00  0.00     0.000 C 
HETATM   14  C   UNL     1     -43.066 -46.936  12.794  1.00  0.00     0.021 C 
HETATM   15  C   UNL     1     -43.561 -47.487  10.389  1.00  0.00     0.021 C 
HETATM   16  C   UNL     1     -41.355 -46.496  11.024  1.00  0.00     0.021 C 
ENDBRANCH   9  13
ENDBRANCH   1   7
BRANCH   4  17
HETATM   17  C   UNL     1     -44.471 -53.818  12.348  1.00  0.00     0.131 C 
BRANCH  17  18
HETATM   18  C   UNL     1     -45.665 -53.126  12.998  1.00  0.00     0.032 C 
HETATM   19  C   UNL     1     -45.513 -51.603  13.148  1.00  0.00     0.009 C 
HETATM   20  C   UNL     1     -46.277 -51.224  14.420  1.00  0.00     0.003 C 
HETATM   21  C   UNL     1     -46.832 -52.525  14.996  1.00  0.00     0.032 C 
HETATM   22  C   UNL     1     -45.934 -53.613  14.421  1.00  0.00     0.123 C 
BRANCH  22  23
HETATM   23  O   UNL     1     -44.740 -53.720  15.185  1.00  0.00    -0.395 OA
HETATM   24  H   UNL     1     -43.984 -53.809  14.581  1.00  0.00     0.210 HD
ENDBRANCH  22  23
ENDBRANCH  17  18
ENDBRANCH   4  17
TORSDOF 5
ENDMDL
MODEL 8
REMARK VINA RESULT:      -5.9      3.713      4.738
REMARK  5 active torsions:
REMARK  status: ('A' for Active; 'I' for Inactive)
REMARK    1  A    between atoms: C_2  and  C_5 
REMARK    2  A    between atoms: C_7  and  N_8 
REMARK       I    between atoms: N_8  and  C_9 
REMARK       I    between atoms: C_9  and  N_11 
REMARK    3  A    between atoms: N_11  and  C_12 
REMARK    4  A    between atoms: C_12  and  C_13 
REMARK    5  A    between atoms: C_17  and  O_18 
ROOT
HETATM    1  N   UNL     1     -41.871 -49.543  13.006  1.00  0.00    -0.293 N 
HETATM    2  C   UNL     1     -42.205 -50.804  13.408  1.00  0.00     0.321 C 
HETATM    3  O   UNL     1     -41.960 -51.157  14.560  1.00  0.00    -0.247 OA
HETATM    4  N   UNL     1     -42.779 -51.613  12.475  1.00  0.00    -0.342 N 
HETATM    5  H   UNL     1     -41.400 -48.996  13.712  1.00  0.00     0.172 HD
HETATM    6  H   UNL     1     -43.142 -51.130  11.659  1.00  0.00     0.164 HD
ENDROOT
BRANCH   1   7
HETATM    7  C   UNL     1     -42.114 -48.955  11.785  1.00  0.00     0.132 A 
HETATM    8  C   UNL     1     -43.327 -48.334  11.421  1.00  0.00     0.086 A 
HETATM    9  C   UNL     1     -43.127 -47.899  10.130  1.00  0.00     0.087 A 
HETATM   10  O   UNL     1     -41.870 -48.244   9.745  1.00  0.00    -0.240 OA
HETATM   11  N   UNL     1     -41.240 -48.904  10.772  1.00  0.00    -0.245 N 
ATOM     12  HN  UNL     1     -40.292 -49.281  10.763  1.00  0.00     0.196 HD
BRANCH   9  13
HETATM   13  C   UNL     1     -43.982 -47.173   9.133  1.00  0.00     0.000 C 
HETATM   14  C   UNL     1     -45.464 -47.445   9.445  1.00  0.00     0.021 C 
HETATM   15  C   UNL     1     -43.647 -47.679   7.719  1.00  0.00     0.021 C 
HETATM   16  C   UNL     1     -43.743 -45.651   9.178  1.00  0.00     0.021 C 
ENDBRANCH   9  13
ENDBRANCH   1   7
BRANCH   4  17
HETATM   17  C   UNL     1     -43.325 -52.912  12.788  1.00  0.00     0.131 C 
BRANCH  17  18
HETATM   18  C   UNL     1     -44.828 -52.838  13.042  1.00  0.00     0.032 C 
HETATM   19  C   UNL     1     -45.414 -51.417  12.979  1.00  0.00     0.009 C 
HETATM   20  C   UNL     1     -46.576 -51.393  13.975  1.00  0.00     0.003 C 
HETATM   21  C   UNL     1     -46.628 -52.780  14.613  1.00  0.00     0.032 C 
HETATM   22  C   UNL     1     -45.224 -53.339  14.429  1.00  0.00     0.123 C 
BRANCH  22  23
HETATM   23  O   UNL     1     -44.360 -52.843  15.445  1.00  0.00    -0.395 OA
HETATM   24  H   UNL     1     -43.898 -53.591  15.861  1.00  0.00     0.210 HD
ENDBRANCH  22  23
ENDBRANCH  17  18
ENDBRANCH   4  17
TORSDOF 5
ENDMDL
MODEL 9
REMARK VINA RESULT:      -5.7      1.717      1.984
REMARK  5 active torsions:
REMARK  status: ('A' for Active; 'I' for Inactive)
REMARK    1  A    between atoms: C_2  and  C_5 
REMARK    2  A    between atoms: C_7  and  N_8 
REMARK       I    between atoms: N_8  and  C_9 
REMARK       I    between atoms: C_9  and  N_11 
REMARK    3  A    between atoms: N_11  and  C_12 
REMARK    4  A    between atoms: C_12  and  C_13 
REMARK    5  A    between atoms: C_17  and  O_18 
ROOT
HETATM    1  N   UNL     1     -41.760 -54.561  14.854  1.00  0.00    -0.293 N 
HETATM    2  C   UNL     1     -43.063 -54.963  14.805  1.00  0.00     0.321 C 
HETATM    3  O   UNL     1     -43.505 -55.696  15.688  1.00  0.00    -0.247 OA
HETATM    4  N   UNL     1     -43.797 -54.536  13.740  1.00  0.00    -0.342 N 
HETATM    5  H   UNL     1     -41.239 -54.944  15.629  1.00  0.00     0.172 HD
HETATM    6  H   UNL     1     -43.392 -53.756  13.230  1.00  0.00     0.164 HD
ENDROOT
BRANCH   1   7
HETATM    7  C   UNL     1     -41.108 -53.706  13.994  1.00  0.00     0.132 A 
HETATM    8  C   UNL     1     -40.961 -52.318  14.202  1.00  0.00     0.086 A 
HETATM    9  C   UNL     1     -40.261 -51.869  13.104  1.00  0.00     0.087 A 
HETATM   10  O   UNL     1     -40.008 -52.926  12.289  1.00  0.00    -0.240 OA
HETATM   11  N   UNL     1     -40.538 -54.068  12.838  1.00  0.00    -0.245 N 
ATOM     12  HN  UNL     1     -40.503 -55.009  12.443  1.00  0.00     0.196 HD
BRANCH   9  13
HETATM   13  C   UNL     1     -39.765 -50.522  12.667  1.00  0.00     0.000 C 
HETATM   14  C   UNL     1     -38.277 -50.628  12.291  1.00  0.00     0.021 C 
HETATM   15  C   UNL     1     -39.939 -49.522  13.823  1.00  0.00     0.021 C 
HETATM   16  C   UNL     1     -40.545 -49.998  11.444  1.00  0.00     0.021 C 
ENDBRANCH   9  13
ENDBRANCH   1   7
BRANCH   4  17
HETATM   17  C   UNL     1     -45.220 -54.748  13.628  1.00  0.00     0.131 C 
BRANCH  17  18
HETATM   18  C   UNL     1     -45.991 -53.439  13.770  1.00  0.00     0.032 C 
HETATM   19  C   UNL     1     -45.123 -52.175  13.654  1.00  0.00     0.009 C 
HETATM   20  C   UNL     1     -45.777 -51.128  14.560  1.00  0.00     0.003 C 
HETATM   21  C   UNL     1     -46.986 -51.805  15.202  1.00  0.00     0.032 C 
HETATM   22  C   UNL     1     -46.676 -53.294  15.126  1.00  0.00     0.123 C 
BRANCH  22  23
HETATM   23  O   UNL     1     -45.825 -53.674  16.200  1.00  0.00    -0.395 OA
HETATM   24  H   UNL     1     -45.955 -53.058  16.941  1.00  0.00     0.210 HD
ENDBRANCH  22  23
ENDBRANCH  17  18
ENDBRANCH   4  17
TORSDOF 5
ENDMDL
