MODEL 1
REMARK VINA RESULT:      -5.7      0.000      0.000
REMARK  5 active torsions:
REMARK  status: ('A' for Active; 'I' for Inactive)
REMARK    1  A    between atoms: C_2  and  C_3 
REMARK    2  A    between atoms: C_2  and  N_10 
REMARK    3  A    between atoms: C_3  and  N_4 
REMARK       I    between atoms: N_10  and  C_11 
REMARK    4  A    between atoms: C_11  and  C_13 
REMARK    5  A    between atoms: N_15  and  C_16 
ROOT
HETATM    1  N   UNL     1     -42.210 -49.511  11.880  1.00  0.00    -0.355 N 
HETATM    2  C   UNL     1     -41.974 -50.828  12.214  1.00  0.00     0.224 C 
HETATM    3  O   UNL     1     -41.057 -51.472  11.722  1.00  0.00    -0.273 OA
HETATM    4  H   UNL     1     -42.914 -48.984  12.385  1.00  0.00     0.162 HD
ENDROOT
BRANCH   1   5
HETATM    5  C   UNL     1     -41.397 -48.796  10.881  1.00  0.00     0.100 C 
HETATM    6  C   UNL     1     -42.312 -47.889  10.058  1.00  0.00     0.034 C 
BRANCH   5   7
HETATM    7  C   UNL     1     -40.240 -48.022  11.544  1.00  0.00     0.172 C 
BRANCH   7   8
HETATM    8  N   UNL     1     -39.118 -48.867  11.906  1.00  0.00    -0.302 N 
HETATM    9  C   UNL     1     -38.485 -48.923  13.114  1.00  0.00     0.111 A 
HETATM   10  C   UNL     1     -37.506 -49.881  12.989  1.00  0.00     0.037 A 
HETATM   11  C   UNL     1     -37.617 -50.332  11.661  1.00  0.00     0.108 A 
HETATM   12  N   UNL     1     -38.585 -49.704  10.991  1.00  0.00    -0.310 N 
ATOM     13  HN  UNL     1     -38.859 -49.828  10.016  1.00  0.00     0.186 HD
ENDBRANCH   7   8
ENDBRANCH   5   7
ENDBRANCH   1   5
BRANCH   2  14
HETATM   14  C   UNL     1     -42.888 -51.377  13.293  1.00  0.00     0.104 C 
HETATM   15  C   UNL     1     -43.516 -52.707  12.886  1.00  0.00     0.141 C 
HETATM   16  N   UNL     1     -44.791 -52.719  13.555  1.00  0.00    -0.347 N 
HETATM   17  C   UNL     1     -45.183 -51.444  13.950  1.00  0.00     0.221 C 
HETATM   18  O   UNL     1     -46.242 -51.125  14.467  1.00  0.00    -0.273 OA
HETATM   19  C   UNL     1     -44.090 -50.480  13.577  1.00  0.00     0.118 C 
BRANCH  16  20
HETATM   20  C   UNL     1     -45.717 -53.805  13.480  1.00  0.00     0.087 A 
HETATM   21  C   UNL     1     -46.335 -54.504  14.660  1.00  0.00     0.027 A 
HETATM   22  C   UNL     1     -45.260 -55.189  13.870  1.00  0.00     0.027 A 
ENDBRANCH  16  20
ENDBRANCH   2  14
TORSDOF 5
ENDMDL
MODEL 2
REMARK VINA RESULT:      -5.6      1.679      2.217
REMARK  5 active torsions:
REMARK  status: ('A' for Active; 'I' for Inactive)
REMARK    1  A    between atoms: C_2  and  C_3 
REMARK    2  A    between atoms: C_2  and  N_10 
REMARK    3  A    between atoms: C_3  and  N_4 
REMARK       I    between atoms: N_10  and  C_11 
REMARK    4  A    between atoms: C_11  and  C_13 
REMARK    5  A    between atoms: N_15  and  C_16 
ROOT
HETATM    1  N   UNL     1     -42.433 -50.910  12.108  1.00  0.00    -0.355 N 
HETATM    2  C   UNL     1     -42.161 -52.261  12.096  1.00  0.00     0.224 C 
HETATM    3  O   UNL     1     -41.067 -52.705  11.776  1.00  0.00    -0.273 OA
HETATM    4  H   UNL     1     -43.317 -50.579  12.477  1.00  0.00     0.162 HD
ENDROOT
BRANCH   1   5
HETATM    5  C   UNL     1     -41.435 -49.905  11.701  1.00  0.00     0.100 C 
HETATM    6  C   UNL     1     -42.165 -48.633  11.269  1.00  0.00     0.034 C 
BRANCH   5   7
HETATM    7  C   UNL     1     -40.408 -49.644  12.820  1.00  0.00     0.172 C 
BRANCH   7   8
HETATM    8  N   UNL     1     -39.071 -50.100  12.488  1.00  0.00    -0.302 N 
HETATM    9  C   UNL     1     -38.205 -50.775  13.299  1.00  0.00     0.111 A 
HETATM   10  C   UNL     1     -37.080 -51.012  12.545  1.00  0.00     0.037 A 
HETATM   11  C   UNL     1     -37.357 -50.424  11.298  1.00  0.00     0.108 A 
HETATM   12  N   UNL     1     -38.562 -49.850  11.263  1.00  0.00    -0.310 N 
ATOM     13  HN  UNL     1     -38.996 -49.343  10.492  1.00  0.00     0.186 HD
ENDBRANCH   7   8
ENDBRANCH   5   7
ENDBRANCH   1   5
BRANCH   2  14
HETATM   14  C   UNL     1     -43.299 -53.136  12.590  1.00  0.00     0.104 C 
HETATM   15  C   UNL     1     -44.467 -52.308  13.116  1.00  0.00     0.141 C 
HETATM   16  N   UNL     1     -45.055 -53.133  14.140  1.00  0.00    -0.347 N 
HETATM   17  C   UNL     1     -44.179 -54.120  14.579  1.00  0.00     0.221 C 
HETATM   18  O   UNL     1     -44.362 -54.916  15.486  1.00  0.00    -0.273 OA
HETATM   19  C   UNL     1     -42.911 -54.014  13.777  1.00  0.00     0.118 C 
BRANCH  16  20
HETATM   20  C   UNL     1     -46.214 -52.760  14.891  1.00  0.00     0.087 A 
HETATM   21  C   UNL     1     -46.908 -51.427  14.814  1.00  0.00     0.027 A 
HETATM   22  C   UNL     1     -46.072 -51.763  16.014  1.00  0.00     0.027 A 
ENDBRANCH  16  20
ENDBRANCH   2  14
TORSDOF 5
ENDMDL
MODEL 3
REMARK VINA RESULT:      -5.4      3.182      5.692
REMARK  5 active torsions:
REMARK  status: ('A' for Active; 'I' for Inactive)
REMARK    1  A    between atoms: C_2  and  C_3 
REMARK    2  A    between atoms: C_2  and  N_10 
REMARK    3  A    between atoms: C_3  and  N_4 
REMARK       I    between atoms: N_10  and  C_11 
REMARK    4  A    between atoms: C_11  and  C_13 
REMARK    5  A    between atoms: N_15  and  C_16 
ROOT
HETATM    1  N   UNL     1     -43.153 -49.680  12.223  1.00  0.00    -0.355 N 
HETATM    2  C   UNL     1     -42.435 -48.508  12.115  1.00  0.00     0.224 C 
HETATM    3  O   UNL     1     -41.482 -48.256  12.838  1.00  0.00    -0.273 OA
HETATM    4  H   UNL     1     -43.869 -49.895  11.539  1.00  0.00     0.162 HD
ENDROOT
BRANCH   1   5
HETATM    5  C   UNL     1     -42.844 -50.698  13.243  1.00  0.00     0.100 C 
HETATM    6  C   UNL     1     -43.978 -50.727  14.268  1.00  0.00     0.034 C 
BRANCH   5   7
HETATM    7  C   UNL     1     -42.589 -52.077  12.605  1.00  0.00     0.172 C 
BRANCH   7   8
HETATM    8  N   UNL     1     -41.405 -52.738  13.122  1.00  0.00    -0.302 N 
HETATM    9  C   UNL     1     -41.122 -54.072  13.080  1.00  0.00     0.111 A 
HETATM   10  C   UNL     1     -39.887 -54.220  13.666  1.00  0.00     0.037 A 
HETATM   11  C   UNL     1     -39.516 -52.917  14.046  1.00  0.00     0.108 A 
HETATM   12  N   UNL     1     -40.446 -52.012  13.734  1.00  0.00    -0.310 N 
ATOM     13  HN  UNL     1     -40.434 -51.009  13.915  1.00  0.00     0.186 HD
ENDBRANCH   7   8
ENDBRANCH   5   7
ENDBRANCH   1   5
BRANCH   2  14
HETATM   14  C   UNL     1     -42.875 -47.605  10.977  1.00  0.00     0.104 C 
HETATM   15  C   UNL     1     -44.378 -47.686  10.733  1.00  0.00     0.141 C 
HETATM   16  N   UNL     1     -44.525 -47.435   9.322  1.00  0.00    -0.347 N 
HETATM   17  C   UNL     1     -43.332 -47.630   8.634  1.00  0.00     0.221 C 
HETATM   18  O   UNL     1     -43.160 -47.571   7.426  1.00  0.00    -0.273 OA
HETATM   19  C   UNL     1     -42.267 -47.993   9.631  1.00  0.00     0.118 C 
BRANCH  16  20
HETATM   20  C   UNL     1     -45.786 -47.385   8.652  1.00  0.00     0.087 A 
HETATM   21  C   UNL     1     -47.117 -47.700   9.279  1.00  0.00     0.027 A 
HETATM   22  C   UNL     1     -46.496 -48.675   8.324  1.00  0.00     0.027 A 
ENDBRANCH  16  20
ENDBRANCH   2  14
TORSDOF 5
ENDMDL
MODEL 4
REMARK VINA RESULT:      -5.3      1.966      3.329
REMARK  5 active torsions:
REMARK  status: ('A' for Active; 'I' for Inactive)
REMARK    1  A    between atoms: C_2  and  C_3 
REMARK    2  A    between atoms: C_2  and  N_10 
REMARK    3  A    between atoms: C_3  and  N_4 
REMARK       I    between atoms: N_10  and  C_11 
REMARK    4  A    between atoms: C_11  and  C_13 
REMARK    5  A    between atoms: N_15  and  C_16 
ROOT
HETATM    1  N   UNL     1     -39.985 -51.587  12.458  1.00  0.00    -0.355 N 
HETATM    2  C   UNL     1     -40.858 -51.929  13.470  1.00  0.00     0.224 C 
HETATM    3  O   UNL     1     -40.835 -51.384  14.565  1.00  0.00    -0.273 OA
HETATM    4  H   UNL     1     -40.105 -51.989  11.535  1.00  0.00     0.162 HD
ENDROOT
BRANCH   1   5
HETATM    5  C   UNL     1     -38.939 -50.565  12.637  1.00  0.00     0.100 C 
HETATM    6  C   UNL     1     -37.577 -51.259  12.682  1.00  0.00     0.034 C 
BRANCH   5   7
HETATM    7  C   UNL     1     -39.013 -49.483  11.543  1.00  0.00     0.172 C 
BRANCH   7   8
HETATM    8  N   UNL     1     -40.309 -48.834  11.465  1.00  0.00    -0.302 N 
HETATM    9  C   UNL     1     -40.908 -48.073  12.427  1.00  0.00     0.111 A 
HETATM   10  C   UNL     1     -42.105 -47.656  11.894  1.00  0.00     0.037 A 
HETATM   11  C   UNL     1     -42.145 -48.235  10.612  1.00  0.00     0.108 A 
HETATM   12  N   UNL     1     -41.061 -48.969  10.353  1.00  0.00    -0.310 N 
ATOM     13  HN  UNL     1     -40.850 -49.506   9.512  1.00  0.00     0.186 HD
ENDBRANCH   7   8
ENDBRANCH   5   7
ENDBRANCH   1   5
BRANCH   2  14
HETATM   14  C   UNL     1     -41.893 -52.969  13.082  1.00  0.00     0.104 C 
HETATM   15  C   UNL     1     -43.260 -52.344  12.822  1.00  0.00     0.141 C 
HETATM   16  N   UNL     1     -44.198 -53.372  13.194  1.00  0.00    -0.347 N 
HETATM   17  C   UNL     1     -43.617 -54.334  14.013  1.00  0.00     0.221 C 
HETATM   18  O   UNL     1     -44.174 -55.279  14.549  1.00  0.00    -0.273 OA
HETATM   19  C   UNL     1     -42.163 -53.988  14.187  1.00  0.00     0.118 C 
BRANCH  16  20
HETATM   20  C   UNL     1     -45.616 -53.229  13.083  1.00  0.00     0.087 A 
HETATM   21  C   UNL     1     -46.329 -52.022  12.536  1.00  0.00     0.027 A 
HETATM   22  C   UNL     1     -46.336 -52.284  14.013  1.00  0.00     0.027 A 
ENDBRANCH  16  20
ENDBRANCH   2  14
TORSDOF 5
ENDMDL
MODEL 5
REMARK VINA RESULT:      -5.3      1.773      2.015
REMARK  5 active torsions:
REMARK  status: ('A' for Active; 'I' for Inactive)
REMARK    1  A    between atoms: C_2  and  C_3 
REMARK    2  A    between atoms: C_2  and  N_10 
REMARK    3  A    between atoms: C_3  and  N_4 
REMARK       I    between atoms: N_10  and  C_11 
REMARK    4  A    between atoms: C_11  and  C_13 
REMARK    5  A    between atoms: N_15  and  C_16 
ROOT
HETATM    1  N   UNL     1     -42.256 -49.964  11.863  1.00  0.00    -0.355 N 
HETATM    2  C   UNL     1     -42.052 -51.282  12.215  1.00  0.00     0.224 C 
HETATM    3  O   UNL     1     -41.012 -51.873  11.961  1.00  0.00    -0.273 OA
HETATM    4  H   UNL     1     -43.088 -49.482  12.182  1.00  0.00     0.162 HD
ENDROOT
BRANCH   1   5
HETATM    5  C   UNL     1     -41.247 -49.185  11.123  1.00  0.00     0.100 C 
HETATM    6  C   UNL     1     -41.963 -48.137  10.271  1.00  0.00     0.034 C 
BRANCH   5   7
HETATM    7  C   UNL     1     -40.206 -48.562  12.073  1.00  0.00     0.172 C 
BRANCH   7   8
HETATM    8  N   UNL     1     -39.025 -49.387  12.250  1.00  0.00    -0.302 N 
HETATM    9  C   UNL     1     -38.380 -49.660  13.421  1.00  0.00     0.111 A 
HETATM   10  C   UNL     1     -37.339 -50.498  13.097  1.00  0.00     0.037 A 
HETATM   11  C   UNL     1     -37.430 -50.656  11.702  1.00  0.00     0.108 A 
HETATM   12  N   UNL     1     -38.445 -49.966  11.178  1.00  0.00    -0.310 N 
ATOM     13  HN  UNL     1     -38.718 -49.894  10.198  1.00  0.00     0.186 HD
ENDBRANCH   7   8
ENDBRANCH   5   7
ENDBRANCH   1   5
BRANCH   2  14
HETATM   14  C   UNL     1     -43.186 -51.902  13.011  1.00  0.00     0.104 C 
HETATM   15  C   UNL     1     -42.680 -52.626  14.255  1.00  0.00     0.141 C 
HETATM   16  N   UNL     1     -43.627 -53.692  14.456  1.00  0.00    -0.347 N 
HETATM   17  C   UNL     1     -44.361 -53.959  13.306  1.00  0.00     0.221 C 
HETATM   18  O   UNL     1     -45.179 -54.852  13.144  1.00  0.00    -0.273 OA
HETATM   19  C   UNL     1     -43.938 -52.985  12.241  1.00  0.00     0.118 C 
BRANCH  16  20
HETATM   20  C   UNL     1     -43.559 -54.619  15.543  1.00  0.00     0.087 A 
HETATM   21  C   UNL     1     -42.785 -54.410  16.816  1.00  0.00     0.027 A 
HETATM   22  C   UNL     1     -42.277 -55.374  15.786  1.00  0.00     0.027 A 
ENDBRANCH  16  20
ENDBRANCH   2  14
TORSDOF 5
ENDMDL
MODEL 6
REMARK VINA RESULT:      -5.3      2.283      2.942
REMARK  5 active torsions:
REMARK  status: ('A' for Active; 'I' for Inactive)
REMARK    1  A    between atoms: C_2  and  C_3 
REMARK    2  A    between atoms: C_2  and  N_10 
REMARK    3  A    between atoms: C_3  and  N_4 
REMARK       I    between atoms: N_10  and  C_11 
REMARK    4  A    between atoms: C_11  and  C_13 
REMARK    5  A    between atoms: N_15  and  C_16 
ROOT
HETATM    1  N   UNL     1     -41.247 -51.520  12.430  1.00  0.00    -0.355 N 
HETATM    2  C   UNL     1     -41.070 -52.827  12.832  1.00  0.00     0.224 C 
HETATM    3  O   UNL     1     -39.980 -53.264  13.174  1.00  0.00    -0.273 OA
HETATM    4  H   UNL     1     -42.182 -51.172  12.253  1.00  0.00     0.162 HD
ENDROOT
BRANCH   1   5
HETATM    5  C   UNL     1     -40.128 -50.565  12.351  1.00  0.00     0.100 C 
HETATM    6  C   UNL     1     -40.272 -49.743  11.069  1.00  0.00     0.034 C 
BRANCH   5   7
HETATM    7  C   UNL     1     -40.047 -49.683  13.611  1.00  0.00     0.172 C 
BRANCH   7   8
HETATM    8  N   UNL     1     -38.962 -50.052  14.501  1.00  0.00    -0.302 N 
HETATM    9  C   UNL     1     -37.727 -49.477  14.577  1.00  0.00     0.111 A 
HETATM   10  C   UNL     1     -37.056 -50.143  15.576  1.00  0.00     0.037 A 
HETATM   11  C   UNL     1     -37.966 -51.115  16.029  1.00  0.00     0.108 A 
HETATM   12  N   UNL     1     -39.123 -51.077  15.365  1.00  0.00    -0.310 N 
ATOM     13  HN  UNL     1     -39.936 -51.681  15.482  1.00  0.00     0.186 HD
ENDBRANCH   7   8
ENDBRANCH   5   7
ENDBRANCH   1   5
BRANCH   2  14
HETATM   14  C   UNL     1     -42.347 -53.645  12.891  1.00  0.00     0.104 C 
HETATM   15  C   UNL     1     -43.581 -52.797  12.597  1.00  0.00     0.141 C 
HETATM   16  N   UNL     1     -44.631 -53.420  13.361  1.00  0.00    -0.347 N 
HETATM   17  C   UNL     1     -44.127 -54.236  14.368  1.00  0.00     0.221 C 
HETATM   18  O   UNL     1     -44.765 -54.831  15.223  1.00  0.00    -0.273 OA
HETATM   19  C   UNL     1     -42.626 -54.225  14.275  1.00  0.00     0.118 C 
BRANCH  16  20
HETATM   20  C   UNL     1     -45.988 -52.968  13.361  1.00  0.00     0.087 A 
HETATM   21  C   UNL     1     -46.499 -51.755  12.634  1.00  0.00     0.027 A 
HETATM   22  C   UNL     1     -46.346 -51.718  14.125  1.00  0.00     0.027 A 
ENDBRANCH  16  20
ENDBRANCH   2  14
TORSDOF 5
ENDMDL
MODEL 7
REMARK VINA RESULT:      -5.1      5.583      9.388
REMARK  5 active torsions:
REMARK  status: ('A' for Active; 'I' for Inactive)
REMARK    1  A    between atoms: C_2  and  C_3 
REMARK    2  A    between atoms: C_2  and  N_10 
REMARK    3  A    between atoms: C_3  and  N_4 
REMARK       I    between atoms: N_10  and  C_11 
REMARK    4  A    between atoms: C_11  and  C_13 
REMARK    5  A    between atoms: N_15  and  C_16 
ROOT
HETATM    1  N   UNL     1     -40.790 -46.144  11.878  1.00  0.00    -0.355 N 
HETATM    2  C   UNL     1     -40.658 -44.934  11.230  1.00  0.00     0.224 C 
HETATM    3  O   UNL     1     -40.460 -44.857  10.025  1.00  0.00    -0.273 OA
HETATM    4  H   UNL     1     -41.055 -46.163  12.856  1.00  0.00     0.162 HD
ENDROOT
BRANCH   1   5
HETATM    5  C   UNL     1     -40.666 -47.431  11.171  1.00  0.00     0.100 C 
HETATM    6  C   UNL     1     -39.576 -48.262  11.849  1.00  0.00     0.034 C 
BRANCH   5   7
HETATM    7  C   UNL     1     -42.016 -48.171  11.103  1.00  0.00     0.172 C 
BRANCH   7   8
HETATM    8  N   UNL     1     -42.939 -47.593  10.144  1.00  0.00    -0.302 N 
HETATM    9  C   UNL     1     -44.300 -47.539  10.240  1.00  0.00     0.111 A 
HETATM   10  C   UNL     1     -44.736 -46.881   9.114  1.00  0.00     0.037 A 
HETATM   11  C   UNL     1     -43.564 -46.595   8.391  1.00  0.00     0.108 A 
HETATM   12  N   UNL     1     -42.467 -47.044   9.005  1.00  0.00    -0.310 N 
ATOM     13  HN  UNL     1     -41.500 -46.985   8.688  1.00  0.00     0.186 HD
ENDBRANCH   7   8
ENDBRANCH   5   7
ENDBRANCH   1   5
BRANCH   2  14
HETATM   14  C   UNL     1     -40.861 -43.720  12.117  1.00  0.00     0.104 C 
HETATM   15  C   UNL     1     -41.292 -42.495  11.317  1.00  0.00     0.141 C 
HETATM   16  N   UNL     1     -40.751 -41.381  12.053  1.00  0.00    -0.347 N 
HETATM   17  C   UNL     1     -39.733 -41.774  12.916  1.00  0.00     0.221 C 
HETATM   18  O   UNL     1     -39.035 -41.050  13.609  1.00  0.00    -0.273 OA
HETATM   19  C   UNL     1     -39.583 -43.267  12.817  1.00  0.00     0.118 C 
BRANCH  16  20
HETATM   20  C   UNL     1     -40.939 -40.015  11.676  1.00  0.00     0.087 A 
HETATM   21  C   UNL     1     -41.426 -38.921  12.587  1.00  0.00     0.027 A 
HETATM   22  C   UNL     1     -42.341 -39.477  11.536  1.00  0.00     0.027 A 
ENDBRANCH  16  20
ENDBRANCH   2  14
TORSDOF 5
ENDMDL
MODEL 8
REMARK VINA RESULT:      -5.1      2.267      6.680
REMARK  5 active torsions:
REMARK  status: ('A' for Active; 'I' for Inactive)
REMARK    1  A    between atoms: C_2  and  C_3 
REMARK    2  A    between atoms: C_2  and  N_10 
REMARK    3  A    between atoms: C_3  and  N_4 
REMARK       I    between atoms: N_10  and  C_11 
REMARK    4  A    between atoms: C_11  and  C_13 
REMARK    5  A    between atoms: N_15  and  C_16 
ROOT
HETATM    1  N   UNL     1     -42.470 -52.562  13.410  1.00  0.00    -0.355 N 
HETATM    2  C   UNL     1     -41.308 -52.051  12.872  1.00  0.00     0.224 C 
HETATM    3  O   UNL     1     -40.498 -52.751  12.281  1.00  0.00    -0.273 OA
HETATM    4  H   UNL     1     -43.161 -51.932  13.800  1.00  0.00     0.162 HD
ENDROOT
BRANCH   1   5
HETATM    5  C   UNL     1     -42.802 -53.995  13.341  1.00  0.00     0.100 C 
HETATM    6  C   UNL     1     -42.646 -54.604  14.735  1.00  0.00     0.034 C 
BRANCH   5   7
HETATM    7  C   UNL     1     -44.208 -54.222  12.752  1.00  0.00     0.172 C 
BRANCH   7   8
HETATM    8  N   UNL     1     -45.140 -53.155  13.065  1.00  0.00    -0.302 N 
HETATM    9  C   UNL     1     -45.669 -52.855  14.287  1.00  0.00     0.111 A 
HETATM   10  C   UNL     1     -46.474 -51.757  14.096  1.00  0.00     0.037 A 
HETATM   11  C   UNL     1     -46.380 -51.482  12.720  1.00  0.00     0.108 A 
HETATM   12  N   UNL     1     -45.583 -52.342  12.083  1.00  0.00    -0.310 N 
ATOM     13  HN  UNL     1     -45.360 -52.376  11.089  1.00  0.00     0.186 HD
ENDBRANCH   7   8
ENDBRANCH   5   7
ENDBRANCH   1   5
BRANCH   2  14
HETATM   14  C   UNL     1     -41.162 -50.546  13.003  1.00  0.00     0.104 C 
HETATM   15  C   UNL     1     -42.256 -49.799  12.246  1.00  0.00     0.141 C 
HETATM   16  N   UNL     1     -41.633 -48.565  11.844  1.00  0.00    -0.347 N 
HETATM   17  C   UNL     1     -40.245 -48.647  11.884  1.00  0.00     0.221 C 
HETATM   18  O   UNL     1     -39.446 -47.795  11.528  1.00  0.00    -0.273 OA
HETATM   19  C   UNL     1     -39.869 -50.011  12.394  1.00  0.00     0.118 C 
BRANCH  16  20
HETATM   20  C   UNL     1     -42.309 -47.531  11.124  1.00  0.00     0.087 A 
HETATM   21  C   UNL     1     -43.758 -47.560  10.718  1.00  0.00     0.027 A 
HETATM   22  C   UNL     1     -42.691 -47.767   9.684  1.00  0.00     0.027 A 
ENDBRANCH  16  20
ENDBRANCH   2  14
TORSDOF 5
ENDMDL
MODEL 9
REMARK VINA RESULT:      -5.1      3.733      4.946
REMARK  5 active torsions:
REMARK  status: ('A' for Active; 'I' for Inactive)
REMARK    1  A    between atoms: C_2  and  C_3 
REMARK    2  A    between atoms: C_2  and  N_10 
REMARK    3  A    between atoms: C_3  and  N_4 
REMARK       I    between atoms: N_10  and  C_11 
REMARK    4  A    between atoms: C_11  and  C_13 
REMARK    5  A    between atoms: N_15  and  C_16 
ROOT
HETATM    1  N   UNL     1     -42.517 -48.664  10.768  1.00  0.00    -0.355 N 
HETATM    2  C   UNL     1     -41.371 -49.088  11.405  1.00  0.00     0.224 C 
HETATM    3  O   UNL     1     -40.306 -48.495  11.299  1.00  0.00    -0.273 OA
HETATM    4  H   UNL     1     -43.400 -49.123  10.963  1.00  0.00     0.162 HD
ENDROOT
BRANCH   1   5
HETATM    5  C   UNL     1     -42.534 -47.484   9.885  1.00  0.00     0.100 C 
HETATM    6  C   UNL     1     -43.578 -47.703   8.790  1.00  0.00     0.034 C 
BRANCH   5   7
HETATM    7  C   UNL     1     -42.775 -46.186  10.680  1.00  0.00     0.172 C 
BRANCH   7   8
HETATM    8  N   UNL     1     -41.619 -45.310  10.713  1.00  0.00    -0.302 N 
HETATM    9  C   UNL     1     -41.522 -44.097  11.331  1.00  0.00     0.111 A 
HETATM   10  C   UNL     1     -40.238 -43.657  11.110  1.00  0.00     0.037 A 
HETATM   11  C   UNL     1     -39.644 -44.668  10.333  1.00  0.00     0.108 A 
HETATM   12  N   UNL     1     -40.487 -45.669  10.072  1.00  0.00    -0.310 N 
ATOM     13  HN  UNL     1     -40.316 -46.508   9.518  1.00  0.00     0.186 HD
ENDBRANCH   7   8
ENDBRANCH   5   7
ENDBRANCH   1   5
BRANCH   2  14
HETATM   14  C   UNL     1     -41.562 -50.295  12.305  1.00  0.00     0.104 C 
HETATM   15  C   UNL     1     -40.922 -50.092  13.675  1.00  0.00     0.141 C 
HETATM   16  N   UNL     1     -40.534 -51.416  14.087  1.00  0.00    -0.347 N 
HETATM   17  C   UNL     1     -40.470 -52.297  13.013  1.00  0.00     0.221 C 
HETATM   18  O   UNL     1     -40.098 -53.459  13.035  1.00  0.00    -0.273 OA
HETATM   19  C   UNL     1     -40.886 -51.556  11.772  1.00  0.00     0.118 C 
BRANCH  16  20
HETATM   20  C   UNL     1     -39.915 -51.707  15.343  1.00  0.00     0.087 A 
HETATM   21  C   UNL     1     -39.499 -50.684  16.365  1.00  0.00     0.027 A 
HETATM   22  C   UNL     1     -38.456 -51.375  15.537  1.00  0.00     0.027 A 
ENDBRANCH  16  20
ENDBRANCH   2  14
TORSDOF 5
ENDMDL
