MODEL 1
REMARK VINA RESULT:      -6.1      0.000      0.000
REMARK  6 active torsions:
REMARK  status: ('A' for Active; 'I' for Inactive)
REMARK    1  A    between atoms: O_2  and  C_3 
REMARK    2  A    between atoms: C_3  and  C_4 
REMARK    3  A    between atoms: C_4  and  C_5 
REMARK    4  A    between atoms: C_5  and  N_6 
REMARK       I    between atoms: N_6  and  C_7 
REMARK    5  A    between atoms: C_7  and  C_9 
REMARK    6  A    between atoms: C_12  and  N_18 
ROOT
HETATM    1  C   UNL     1     -40.782 -50.528  11.785  1.00  0.00     0.139 A 
HETATM    2  N   UNL     1     -41.583 -49.635  11.118  1.00  0.00    -0.184 N 
ATOM      3  HN  UNL     1     -42.507 -49.902  10.778  1.00  0.00     0.184 HD
HETATM    4  C   UNL     1     -41.102 -48.394  10.933  1.00  0.00     0.680 A 
HETATM    5  N   UNL     1     -39.871 -48.035  11.327  1.00  0.00    -0.200 N 
ATOM      6  HN  UNL     1     -39.520 -47.095  11.148  1.00  0.00     0.183 HD
HETATM    7  C   UNL     1     -39.110 -48.946  11.964  1.00  0.00     0.132 A 
HETATM    8  C   UNL     1     -39.515 -50.223  12.244  1.00  0.00     0.082 A 
HETATM    9 CL   UNL     1     -38.439 -51.234  13.119  1.00  0.00    -0.080 Cl
ENDROOT
BRANCH   1  10
HETATM   10  C   UNL     1     -41.387 -51.889  12.002  1.00  0.00     0.270 C 
HETATM   11  N   UNL     1     -42.727 -51.921  12.350  1.00  0.00    -0.356 N 
HETATM   12  H   UNL     1     -43.207 -51.034  12.467  1.00  0.00     0.162 HD
HETATM   13  O   UNL     1     -40.736 -52.921  11.871  1.00  0.00    -0.266 OA
BRANCH  11  14
HETATM   14  C   UNL     1     -43.424 -53.184  12.529  1.00  0.00     0.125 C 
BRANCH  14  15
HETATM   15  C   UNL     1     -44.327 -53.181  13.764  1.00  0.00     0.046 C 
BRANCH  15  16
HETATM   16  C   UNL     1     -45.807 -53.089  13.392  1.00  0.00     0.168 C 
BRANCH  16  17
HETATM   17  O   UNL     1     -45.929 -52.782  12.006  1.00  0.00    -0.396 OA
HETATM   18  C   UNL     1     -46.901 -51.775  11.758  1.00  0.00     0.201 C 
ENDBRANCH  16  17
ENDBRANCH  15  16
ENDBRANCH  14  15
ENDBRANCH  11  14
ENDBRANCH   1  10
BRANCH   4  19
HETATM   19  N   UNL     1     -41.924 -47.411  10.439  1.00  0.00    -0.214 N 
HETATM   20  C   UNL     1     -41.444 -46.022  10.438  1.00  0.00     0.167 C 
HETATM   21  C   UNL     1     -42.665 -45.090  10.470  1.00  0.00     0.188 C 
HETATM   22  O   UNL     1     -43.546 -45.346   9.362  1.00  0.00    -0.388 OA
HETATM   23  C   UNL     1     -44.008 -46.709   9.390  1.00  0.00     0.188 C 
HETATM   24  C   UNL     1     -42.841 -47.713   9.339  1.00  0.00     0.167 C 
ENDBRANCH   4  19
TORSDOF 6
ENDMDL
MODEL 2
REMARK VINA RESULT:      -5.9      3.671      7.552
REMARK  6 active torsions:
REMARK  status: ('A' for Active; 'I' for Inactive)
REMARK    1  A    between atoms: O_2  and  C_3 
REMARK    2  A    between atoms: C_3  and  C_4 
REMARK    3  A    between atoms: C_4  and  C_5 
REMARK    4  A    between atoms: C_5  and  N_6 
REMARK       I    between atoms: N_6  and  C_7 
REMARK    5  A    between atoms: C_7  and  C_9 
REMARK    6  A    between atoms: C_12  and  N_18 
ROOT
HETATM    1  C   UNL     1     -41.109 -46.341  10.508  1.00  0.00     0.139 A 
HETATM    2  N   UNL     1     -40.276 -47.319  10.992  1.00  0.00    -0.184 N 
ATOM      3  HN  UNL     1     -39.328 -47.105  11.300  1.00  0.00     0.184 HD
HETATM    4  C   UNL     1     -40.762 -48.572  11.043  1.00  0.00     0.680 A 
HETATM    5  N   UNL     1     -41.987 -48.885  10.598  1.00  0.00    -0.200 N 
ATOM      6  HN  UNL     1     -42.320 -49.849  10.622  1.00  0.00     0.183 HD
HETATM    7  C   UNL     1     -42.767 -47.899  10.117  1.00  0.00     0.132 A 
HETATM    8  C   UNL     1     -42.392 -46.583  10.057  1.00  0.00     0.082 A 
HETATM    9 CL   UNL     1     -43.536 -45.447   9.470  1.00  0.00    -0.080 Cl
ENDROOT
BRANCH   1  10
HETATM   10  C   UNL     1     -40.530 -44.952  10.513  1.00  0.00     0.270 C 
HETATM   11  N   UNL     1     -40.996 -44.090  11.491  1.00  0.00    -0.356 N 
HETATM   12  H   UNL     1     -41.715 -44.434  12.120  1.00  0.00     0.162 HD
HETATM   13  O   UNL     1     -39.682 -44.596   9.699  1.00  0.00    -0.266 OA
BRANCH  11  14
HETATM   14  C   UNL     1     -40.463 -42.744  11.620  1.00  0.00     0.125 C 
BRANCH  14  15
HETATM   15  C   UNL     1     -39.952 -42.452  13.032  1.00  0.00     0.046 C 
BRANCH  15  16
HETATM   16  C   UNL     1     -39.972 -43.698  13.918  1.00  0.00     0.168 C 
BRANCH  16  17
HETATM   17  O   UNL     1     -38.811 -44.482  13.659  1.00  0.00    -0.396 OA
HETATM   18  C   UNL     1     -38.964 -45.831  14.081  1.00  0.00     0.201 C 
ENDBRANCH  16  17
ENDBRANCH  15  16
ENDBRANCH  14  15
ENDBRANCH  11  14
ENDBRANCH   1  10
BRANCH   4  19
HETATM   19  N   UNL     1     -40.046 -49.554  11.684  1.00  0.00    -0.214 N 
HETATM   20  C   UNL     1     -40.671 -50.869  11.879  1.00  0.00     0.167 C 
HETATM   21  C   UNL     1     -40.016 -51.538  13.098  1.00  0.00     0.188 C 
HETATM   22  O   UNL     1     -38.592 -51.647  12.932  1.00  0.00    -0.388 OA
HETATM   23  C   UNL     1     -38.003 -50.345  12.750  1.00  0.00     0.188 C 
HETATM   24  C   UNL     1     -38.593 -49.614  11.529  1.00  0.00     0.167 C 
ENDBRANCH   4  19
TORSDOF 6
ENDMDL
MODEL 3
REMARK VINA RESULT:      -5.8      1.979      5.878
REMARK  6 active torsions:
REMARK  status: ('A' for Active; 'I' for Inactive)
REMARK    1  A    between atoms: O_2  and  C_3 
REMARK    2  A    between atoms: C_3  and  C_4 
REMARK    3  A    between atoms: C_4  and  C_5 
REMARK    4  A    between atoms: C_5  and  N_6 
REMARK       I    between atoms: N_6  and  C_7 
REMARK    5  A    between atoms: C_7  and  C_9 
REMARK    6  A    between atoms: C_12  and  N_18 
ROOT
HETATM    1  C   UNL     1     -41.342 -49.758  11.705  1.00  0.00     0.139 A 
HETATM    2  N   UNL     1     -42.519 -50.338  12.110  1.00  0.00    -0.184 N 
ATOM      3  HN  UNL     1     -43.413 -49.864  11.988  1.00  0.00     0.184 HD
HETATM    4  C   UNL     1     -42.443 -51.555  12.675  1.00  0.00     0.680 A 
HETATM    5  N   UNL     1     -41.275 -52.175  12.892  1.00  0.00    -0.200 N 
ATOM      6  HN  UNL     1     -41.244 -53.086  13.349  1.00  0.00     0.183 HD
HETATM    7  C   UNL     1     -40.142 -51.566  12.493  1.00  0.00     0.132 A 
HETATM    8  C   UNL     1     -40.104 -50.347  11.869  1.00  0.00     0.082 A 
HETATM    9 CL   UNL     1     -38.575 -49.746  11.372  1.00  0.00    -0.080 Cl
ENDROOT
BRANCH   1  10
HETATM   10  C   UNL     1     -41.489 -48.416  11.041  1.00  0.00     0.270 C 
HETATM   11  N   UNL     1     -42.507 -48.293  10.111  1.00  0.00    -0.356 N 
HETATM   12  H   UNL     1     -43.068 -49.117   9.912  1.00  0.00     0.162 HD
HETATM   13  O   UNL     1     -40.753 -47.471  11.310  1.00  0.00    -0.266 OA
BRANCH  11  14
HETATM   14  C   UNL     1     -42.772 -47.025   9.451  1.00  0.00     0.125 C 
BRANCH  14  15
HETATM   15  C   UNL     1     -43.490 -47.203   8.112  1.00  0.00     0.046 C 
BRANCH  15  16
HETATM   16  C   UNL     1     -44.798 -47.980   8.262  1.00  0.00     0.168 C 
BRANCH  16  17
HETATM   17  O   UNL     1     -45.486 -47.530   9.427  1.00  0.00    -0.396 OA
HETATM   18  C   UNL     1     -46.839 -47.188   9.158  1.00  0.00     0.201 C 
ENDBRANCH  16  17
ENDBRANCH  15  16
ENDBRANCH  14  15
ENDBRANCH  11  14
ENDBRANCH   1  10
BRANCH   4  19
HETATM   19  N   UNL     1     -43.595 -52.259  12.933  1.00  0.00    -0.214 N 
HETATM   20  C   UNL     1     -43.491 -53.560  13.608  1.00  0.00     0.167 C 
HETATM   21  C   UNL     1     -44.718 -54.402  13.222  1.00  0.00     0.188 C 
HETATM   22  O   UNL     1     -45.942 -53.726  13.560  1.00  0.00    -0.388 OA
HETATM   23  C   UNL     1     -46.022 -52.459  12.881  1.00  0.00     0.188 C 
HETATM   24  C   UNL     1     -44.835 -51.543  13.231  1.00  0.00     0.167 C 
ENDBRANCH   4  19
TORSDOF 6
ENDMDL
MODEL 4
REMARK VINA RESULT:      -5.8      1.701      2.118
REMARK  6 active torsions:
REMARK  status: ('A' for Active; 'I' for Inactive)
REMARK    1  A    between atoms: O_2  and  C_3 
REMARK    2  A    between atoms: C_3  and  C_4 
REMARK    3  A    between atoms: C_4  and  C_5 
REMARK    4  A    between atoms: C_5  and  N_6 
REMARK       I    between atoms: N_6  and  C_7 
REMARK    5  A    between atoms: C_7  and  C_9 
REMARK    6  A    between atoms: C_12  and  N_18 
ROOT
HETATM    1  C   UNL     1     -42.021 -50.380  12.271  1.00  0.00     0.139 A 
HETATM    2  N   UNL     1     -42.635 -49.354  11.597  1.00  0.00    -0.184 N 
ATOM      3  HN  UNL     1     -43.644 -49.216  11.644  1.00  0.00     0.184 HD
HETATM    4  C   UNL     1     -41.850 -48.538  10.871  1.00  0.00     0.680 A 
HETATM    5  N   UNL     1     -40.529 -48.730  10.754  1.00  0.00    -0.200 N 
ATOM      6  HN  UNL     1     -39.961 -48.112  10.174  1.00  0.00     0.183 HD
HETATM    7  C   UNL     1     -39.968 -49.758  11.419  1.00  0.00     0.132 A 
HETATM    8  C   UNL     1     -40.662 -50.624  12.221  1.00  0.00     0.082 A 
HETATM    9 CL   UNL     1     -39.778 -51.843  13.044  1.00  0.00    -0.080 Cl
ENDROOT
BRANCH   1  10
HETATM   10  C   UNL     1     -42.940 -51.236  13.101  1.00  0.00     0.270 C 
HETATM   11  N   UNL     1     -43.979 -51.858  12.430  1.00  0.00    -0.356 N 
HETATM   12  H   UNL     1     -44.076 -51.677  11.436  1.00  0.00     0.162 HD
HETATM   13  O   UNL     1     -42.778 -51.386  14.309  1.00  0.00    -0.266 OA
BRANCH  11  14
HETATM   14  C   UNL     1     -44.892 -52.751  13.126  1.00  0.00     0.125 C 
BRANCH  14  15
HETATM   15  C   UNL     1     -44.468 -54.217  13.020  1.00  0.00     0.046 C 
BRANCH  15  16
HETATM   16  C   UNL     1     -45.132 -55.085  14.089  1.00  0.00     0.168 C 
BRANCH  16  17
HETATM   17  O   UNL     1     -44.141 -55.565  14.993  1.00  0.00    -0.396 OA
HETATM   18  C   UNL     1     -42.871 -54.964  14.774  1.00  0.00     0.201 C 
ENDBRANCH  16  17
ENDBRANCH  15  16
ENDBRANCH  14  15
ENDBRANCH  11  14
ENDBRANCH   1  10
BRANCH   4  19
HETATM   19  N   UNL     1     -42.379 -47.393  10.326  1.00  0.00    -0.214 N 
HETATM   20  C   UNL     1     -41.647 -46.130  10.491  1.00  0.00     0.167 C 
HETATM   21  C   UNL     1     -42.655 -44.973  10.402  1.00  0.00     0.188 C 
HETATM   22  O   UNL     1     -43.380 -45.007   9.160  1.00  0.00    -0.388 OA
HETATM   23  C   UNL     1     -44.094 -46.251   9.026  1.00  0.00     0.188 C 
HETATM   24  C   UNL     1     -43.148 -47.465   9.084  1.00  0.00     0.167 C 
ENDBRANCH   4  19
TORSDOF 6
ENDMDL
MODEL 5
REMARK VINA RESULT:      -5.6      2.086      2.324
REMARK  6 active torsions:
REMARK  status: ('A' for Active; 'I' for Inactive)
REMARK    1  A    between atoms: O_2  and  C_3 
REMARK    2  A    between atoms: C_3  and  C_4 
REMARK    3  A    between atoms: C_4  and  C_5 
REMARK    4  A    between atoms: C_5  and  N_6 
REMARK       I    between atoms: N_6  and  C_7 
REMARK    5  A    between atoms: C_7  and  C_9 
REMARK    6  A    between atoms: C_12  and  N_18 
ROOT
HETATM    1  C   UNL     1     -42.215 -50.274  12.391  1.00  0.00     0.139 A 
HETATM    2  N   UNL     1     -42.819 -49.232  11.732  1.00  0.00    -0.184 N 
ATOM      3  HN  UNL     1     -43.787 -48.974  11.922  1.00  0.00     0.184 HD
HETATM    4  C   UNL     1     -42.081 -48.565  10.828  1.00  0.00     0.680 A 
HETATM    5  N   UNL     1     -40.823 -48.918  10.527  1.00  0.00    -0.200 N 
ATOM      6  HN  UNL     1     -40.295 -48.412   9.816  1.00  0.00     0.183 HD
HETATM    7  C   UNL     1     -40.273 -49.956  11.185  1.00  0.00     0.132 A 
HETATM    8  C   UNL     1     -40.915 -50.678  12.155  1.00  0.00     0.082 A 
HETATM    9 CL   UNL     1     -40.042 -51.932  12.935  1.00  0.00    -0.080 Cl
ENDROOT
BRANCH   1  10
HETATM   10  C   UNL     1     -43.072 -50.958  13.422  1.00  0.00     0.270 C 
HETATM   11  N   UNL     1     -44.227 -51.567  12.962  1.00  0.00    -0.356 N 
HETATM   12  H   UNL     1     -44.440 -51.490  11.971  1.00  0.00     0.162 HD
HETATM   13  O   UNL     1     -42.766 -50.985  14.611  1.00  0.00    -0.266 OA
BRANCH  11  14
HETATM   14  C   UNL     1     -45.098 -52.302  13.864  1.00  0.00     0.125 C 
BRANCH  14  15
HETATM   15  C   UNL     1     -46.260 -51.449  14.377  1.00  0.00     0.046 C 
BRANCH  15  16
HETATM   16  C   UNL     1     -47.183 -52.238  15.305  1.00  0.00     0.168 C 
BRANCH  16  17
HETATM   17  O   UNL     1     -47.626 -51.393  16.364  1.00  0.00    -0.396 OA
HETATM   18  C   UNL     1     -46.547 -50.771  17.048  1.00  0.00     0.201 C 
ENDBRANCH  16  17
ENDBRANCH  15  16
ENDBRANCH  14  15
ENDBRANCH  11  14
ENDBRANCH   1  10
BRANCH   4  19
HETATM   19  N   UNL     1     -42.567 -47.406  10.273  1.00  0.00    -0.214 N 
HETATM   20  C   UNL     1     -41.812 -46.160  10.465  1.00  0.00     0.167 C 
HETATM   21  C   UNL     1     -42.791 -44.981  10.351  1.00  0.00     0.188 C 
HETATM   22  O   UNL     1     -43.481 -44.994   9.090  1.00  0.00    -0.388 OA
HETATM   23  C   UNL     1     -44.218 -46.221   8.930  1.00  0.00     0.188 C 
HETATM   24  C   UNL     1     -43.302 -47.456   9.009  1.00  0.00     0.167 C 
ENDBRANCH   4  19
TORSDOF 6
ENDMDL
MODEL 6
REMARK VINA RESULT:      -5.1      2.119      2.308
REMARK  6 active torsions:
REMARK  status: ('A' for Active; 'I' for Inactive)
REMARK    1  A    between atoms: O_2  and  C_3 
REMARK    2  A    between atoms: C_3  and  C_4 
REMARK    3  A    between atoms: C_4  and  C_5 
REMARK    4  A    between atoms: C_5  and  N_6 
REMARK       I    between atoms: N_6  and  C_7 
REMARK    5  A    between atoms: C_7  and  C_9 
REMARK    6  A    between atoms: C_12  and  N_18 
ROOT
HETATM    1  C   UNL     1     -42.549 -49.681  13.187  1.00  0.00     0.139 A 
HETATM    2  N   UNL     1     -42.551 -49.092  11.947  1.00  0.00    -0.184 N 
ATOM      3  HN  UNL     1     -42.380 -49.635  11.101  1.00  0.00     0.184 HD
HETATM    4  C   UNL     1     -42.788 -47.770  11.893  1.00  0.00     0.680 A 
HETATM    5  N   UNL     1     -42.965 -47.027  12.994  1.00  0.00    -0.200 N 
ATOM      6  HN  UNL     1     -43.115 -46.020  12.926  1.00  0.00     0.183 HD
HETATM    7  C   UNL     1     -42.941 -47.640  14.193  1.00  0.00     0.132 A 
HETATM    8  C   UNL     1     -42.751 -48.985  14.363  1.00  0.00     0.082 A 
HETATM    9 CL   UNL     1     -42.810 -49.609  15.961  1.00  0.00    -0.080 Cl
ENDROOT
BRANCH   1  10
HETATM   10  C   UNL     1     -42.321 -51.168  13.186  1.00  0.00     0.270 C 
HETATM   11  N   UNL     1     -43.318 -51.946  12.623  1.00  0.00    -0.356 N 
HETATM   12  H   UNL     1     -44.148 -51.474  12.277  1.00  0.00     0.162 HD
HETATM   13  O   UNL     1     -41.303 -51.672  13.651  1.00  0.00    -0.266 OA
BRANCH  11  14
HETATM   14  C   UNL     1     -43.175 -53.389  12.520  1.00  0.00     0.125 C 
BRANCH  14  15
HETATM   15  C   UNL     1     -44.428 -54.134  12.987  1.00  0.00     0.046 C 
BRANCH  15  16
HETATM   16  C   UNL     1     -45.616 -53.192  13.180  1.00  0.00     0.168 C 
BRANCH  16  17
HETATM   17  O   UNL     1     -46.171 -52.863  11.909  1.00  0.00    -0.396 OA
HETATM   18  C   UNL     1     -46.895 -51.640  11.935  1.00  0.00     0.201 C 
ENDBRANCH  16  17
ENDBRANCH  15  16
ENDBRANCH  14  15
ENDBRANCH  11  14
ENDBRANCH   1  10
BRANCH   4  19
HETATM   19  N   UNL     1     -42.983 -47.162  10.676  1.00  0.00    -0.214 N 
HETATM   20  C   UNL     1     -42.786 -45.710  10.573  1.00  0.00     0.167 C 
HETATM   21  C   UNL     1     -43.635 -45.190   9.402  1.00  0.00     0.188 C 
HETATM   22  O   UNL     1     -43.298 -45.860   8.174  1.00  0.00    -0.388 OA
HETATM   23  C   UNL     1     -43.507 -47.279   8.300  1.00  0.00     0.188 C 
HETATM   24  C   UNL     1     -42.671 -47.884   9.443  1.00  0.00     0.167 C 
ENDBRANCH   4  19
TORSDOF 6
ENDMDL
MODEL 7
REMARK VINA RESULT:      -5.1      1.890      2.518
REMARK  6 active torsions:
REMARK  status: ('A' for Active; 'I' for Inactive)
REMARK    1  A    between atoms: O_2  and  C_3 
REMARK    2  A    between atoms: C_3  and  C_4 
REMARK    3  A    between atoms: C_4  and  C_5 
REMARK    4  A    between atoms: C_5  and  N_6 
REMARK       I    between atoms: N_6  and  C_7 
REMARK    5  A    between atoms: C_7  and  C_9 
REMARK    6  A    between atoms: C_12  and  N_18 
ROOT
HETATM    1  C   UNL     1     -42.340 -50.266  12.902  1.00  0.00     0.139 A 
HETATM    2  N   UNL     1     -42.835 -49.172  12.236  1.00  0.00    -0.184 N 
ATOM      3  HN  UNL     1     -43.689 -48.706  12.542  1.00  0.00     0.184 HD
HETATM    4  C   UNL     1     -42.148 -48.739  11.165  1.00  0.00     0.680 A 
HETATM    5  N   UNL     1     -41.051 -49.365  10.715  1.00  0.00    -0.200 N 
ATOM      6  HN  UNL     1     -40.565 -49.033   9.882  1.00  0.00     0.183 HD
HETATM    7  C   UNL     1     -40.606 -50.444  11.387  1.00  0.00     0.132 A 
HETATM    8  C   UNL     1     -41.202 -50.945  12.514  1.00  0.00     0.082 A 
HETATM    9 CL   UNL     1     -40.465 -52.293  13.280  1.00  0.00    -0.080 Cl
ENDROOT
BRANCH   1  10
HETATM   10  C   UNL     1     -43.124 -50.680  14.117  1.00  0.00     0.270 C 
HETATM   11  N   UNL     1     -44.491 -50.829  13.950  1.00  0.00    -0.356 N 
HETATM   12  H   UNL     1     -44.881 -50.621  13.036  1.00  0.00     0.162 HD
HETATM   13  O   UNL     1     -42.587 -50.886  15.202  1.00  0.00    -0.266 OA
BRANCH  11  14
HETATM   14  C   UNL     1     -45.335 -51.280  15.045  1.00  0.00     0.125 C 
BRANCH  14  15
HETATM   15  C   UNL     1     -46.753 -51.624  14.584  1.00  0.00     0.046 C 
BRANCH  15  16
HETATM   16  C   UNL     1     -46.779 -52.862  13.688  1.00  0.00     0.168 C 
BRANCH  16  17
HETATM   17  O   UNL     1     -46.455 -54.014  14.461  1.00  0.00    -0.396 OA
HETATM   18  C   UNL     1     -45.447 -54.810  13.851  1.00  0.00     0.201 C 
ENDBRANCH  16  17
ENDBRANCH  15  16
ENDBRANCH  14  15
ENDBRANCH  11  14
ENDBRANCH   1  10
BRANCH   4  19
HETATM   19  N   UNL     1     -42.489 -47.548  10.572  1.00  0.00    -0.214 N 
HETATM   20  C   UNL     1     -43.690 -47.499   9.727  1.00  0.00     0.167 C 
HETATM   21  C   UNL     1     -43.521 -46.354   8.715  1.00  0.00     0.188 C 
HETATM   22  O   UNL     1     -43.289 -45.100   9.380  1.00  0.00    -0.388 OA
HETATM   23  C   UNL     1     -42.104 -45.172  10.195  1.00  0.00     0.188 C 
HETATM   24  C   UNL     1     -42.202 -46.286  11.254  1.00  0.00     0.167 C 
ENDBRANCH   4  19
TORSDOF 6
ENDMDL
MODEL 8
REMARK VINA RESULT:      -5.0      2.217      3.397
REMARK  6 active torsions:
REMARK  status: ('A' for Active; 'I' for Inactive)
REMARK    1  A    between atoms: O_2  and  C_3 
REMARK    2  A    between atoms: C_3  and  C_4 
REMARK    3  A    between atoms: C_4  and  C_5 
REMARK    4  A    between atoms: C_5  and  N_6 
REMARK       I    between atoms: N_6  and  C_7 
REMARK    5  A    between atoms: C_7  and  C_9 
REMARK    6  A    between atoms: C_12  and  N_18 
ROOT
HETATM    1  C   UNL     1     -42.693 -52.158  12.573  1.00  0.00     0.139 A 
HETATM    2  N   UNL     1     -42.626 -50.887  12.059  1.00  0.00    -0.184 N 
ATOM      3  HN  UNL     1     -43.470 -50.366  11.819  1.00  0.00     0.184 HD
HETATM    4  C   UNL     1     -41.404 -50.357  11.884  1.00  0.00     0.680 A 
HETATM    5  N   UNL     1     -40.281 -51.041  12.144  1.00  0.00    -0.200 N 
ATOM      6  HN  UNL     1     -39.365 -50.624  11.975  1.00  0.00     0.183 HD
HETATM    7  C   UNL     1     -40.389 -52.291  12.633  1.00  0.00     0.132 A 
HETATM    8  C   UNL     1     -41.581 -52.913  12.891  1.00  0.00     0.082 A 
HETATM    9 CL   UNL     1     -41.535 -54.488  13.572  1.00  0.00    -0.080 Cl
ENDROOT
BRANCH   1  10
HETATM   10  C   UNL     1     -44.086 -52.685  12.788  1.00  0.00     0.270 C 
HETATM   11  N   UNL     1     -44.913 -51.934  13.605  1.00  0.00    -0.356 N 
HETATM   12  H   UNL     1     -44.524 -51.098  14.031  1.00  0.00     0.162 HD
HETATM   13  O   UNL     1     -44.478 -53.724  12.264  1.00  0.00    -0.266 OA
BRANCH  11  14
HETATM   14  C   UNL     1     -46.295 -52.323  13.836  1.00  0.00     0.125 C 
BRANCH  14  15
HETATM   15  C   UNL     1     -46.478 -53.069  15.159  1.00  0.00     0.046 C 
BRANCH  15  16
HETATM   16  C   UNL     1     -45.782 -52.357  16.319  1.00  0.00     0.168 C 
BRANCH  16  17
HETATM   17  O   UNL     1     -44.400 -52.706  16.330  1.00  0.00    -0.396 OA
HETATM   18  C   UNL     1     -44.198 -54.112  16.371  1.00  0.00     0.201 C 
ENDBRANCH  16  17
ENDBRANCH  15  16
ENDBRANCH  14  15
ENDBRANCH  11  14
ENDBRANCH   1  10
BRANCH   4  19
HETATM   19  N   UNL     1     -41.278 -49.030  11.547  1.00  0.00    -0.214 N 
HETATM   20  C   UNL     1     -42.474 -48.296  11.113  1.00  0.00     0.167 C 
HETATM   21  C   UNL     1     -42.024 -47.127  10.221  1.00  0.00     0.188 C 
HETATM   22  O   UNL     1     -41.097 -46.271  10.911  1.00  0.00    -0.388 OA
HETATM   23  C   UNL     1     -39.932 -47.012  11.319  1.00  0.00     0.188 C 
HETATM   24  C   UNL     1     -40.296 -48.194  12.238  1.00  0.00     0.167 C 
ENDBRANCH   4  19
TORSDOF 6
ENDMDL
MODEL 9
REMARK VINA RESULT:      -5.0      3.400      4.963
REMARK  6 active torsions:
REMARK  status: ('A' for Active; 'I' for Inactive)
REMARK    1  A    between atoms: O_2  and  C_3 
REMARK    2  A    between atoms: C_3  and  C_4 
REMARK    3  A    between atoms: C_4  and  C_5 
REMARK    4  A    between atoms: C_5  and  N_6 
REMARK       I    between atoms: N_6  and  C_7 
REMARK    5  A    between atoms: C_7  and  C_9 
REMARK    6  A    between atoms: C_12  and  N_18 
ROOT
HETATM    1  C   UNL     1     -42.637 -53.265  13.561  1.00  0.00     0.139 A 
HETATM    2  N   UNL     1     -41.951 -52.247  12.947  1.00  0.00    -0.184 N 
ATOM      3  HN  UNL     1     -42.426 -51.572  12.349  1.00  0.00     0.184 HD
HETATM    4  C   UNL     1     -40.627 -52.177  13.168  1.00  0.00     0.680 A 
HETATM    5  N   UNL     1     -39.973 -53.082  13.910  1.00  0.00    -0.200 N 
ATOM      6  HN  UNL     1     -38.963 -53.021  14.038  1.00  0.00     0.183 HD
HETATM    7  C   UNL     1     -40.681 -54.074  14.482  1.00  0.00     0.132 A 
HETATM    8  C   UNL     1     -42.038 -54.218  14.361  1.00  0.00     0.082 A 
HETATM    9 CL   UNL     1     -42.788 -55.508  15.209  1.00  0.00    -0.080 Cl
ENDROOT
BRANCH   1  10
HETATM   10  C   UNL     1     -44.122 -53.272  13.314  1.00  0.00     0.270 C 
HETATM   11  N   UNL     1     -44.928 -52.906  14.379  1.00  0.00    -0.356 N 
HETATM   12  H   UNL     1     -44.475 -52.688  15.261  1.00  0.00     0.162 HD
HETATM   13  O   UNL     1     -44.601 -53.577  12.225  1.00  0.00    -0.266 OA
BRANCH  11  14
HETATM   14  C   UNL     1     -46.372 -52.825  14.233  1.00  0.00     0.125 C 
BRANCH  14  15
HETATM   15  C   UNL     1     -46.926 -51.466  14.666  1.00  0.00     0.046 C 
BRANCH  15  16
HETATM   16  C   UNL     1     -46.725 -51.216  16.161  1.00  0.00     0.168 C 
BRANCH  16  17
HETATM   17  O   UNL     1     -46.732 -52.461  16.855  1.00  0.00    -0.396 OA
HETATM   18  C   UNL     1     -45.943 -52.426  18.036  1.00  0.00     0.201 C 
ENDBRANCH  16  17
ENDBRANCH  15  16
ENDBRANCH  14  15
ENDBRANCH  11  14
ENDBRANCH   1  10
BRANCH   4  19
HETATM   19  N   UNL     1     -39.921 -51.081  12.732  1.00  0.00    -0.214 N 
HETATM   20  C   UNL     1     -38.456 -51.093  12.847  1.00  0.00     0.167 C 
HETATM   21  C   UNL     1     -37.967 -49.639  12.924  1.00  0.00     0.188 C 
HETATM   22  O   UNL     1     -38.402 -48.880  11.782  1.00  0.00    -0.388 OA
HETATM   23  C   UNL     1     -39.840 -48.877  11.697  1.00  0.00     0.188 C 
HETATM   24  C   UNL     1     -40.412 -50.304  11.594  1.00  0.00     0.167 C 
ENDBRANCH   4  19
TORSDOF 6
ENDMDL
