MODEL 1
REMARK VINA RESULT:      -6.2      0.000      0.000
REMARK  3 active torsions:
REMARK  status: ('A' for Active; 'I' for Inactive)
REMARK       I    between atoms: C_2  and  N_3 
REMARK       I    between atoms: C_2  and  N_13 
REMARK    1  A    between atoms: N_3  and  C_4 
REMARK    2  A    between atoms: C_4  and  C_5 
REMARK    3  A    between atoms: C_5  and  C_6 
ROOT
HETATM    1  O   UNL     1     -42.671 -54.201  13.248  1.00  0.00    -0.247 OA
HETATM    2  C   UNL     1     -43.489 -53.347  12.920  1.00  0.00     0.318 C 
HETATM    3  N   UNL     1     -43.112 -52.121  12.451  1.00  0.00    -0.343 N 
HETATM    4  N   UNL     1     -44.871 -53.520  13.016  1.00  0.00    -0.334 N 
HETATM    5  C   UNL     1     -45.370 -54.709  13.704  1.00  0.00     0.127 C 
HETATM    6  C   UNL     1     -46.158 -54.407  14.982  1.00  0.00     0.020 C 
HETATM    7  C   UNL     1     -45.514 -53.350  15.882  1.00  0.00     0.002 C 
HETATM    8  C   UNL     1     -46.129 -51.948  15.786  1.00  0.00     0.000 C 
HETATM    9  C   UNL     1     -46.009 -51.187  14.460  1.00  0.00     0.002 C 
HETATM   10  C   UNL     1     -46.727 -51.821  13.268  1.00  0.00     0.020 C 
HETATM   11  C   UNL     1     -45.857 -52.675  12.342  1.00  0.00     0.127 C 
HETATM   12  H   UNL     1     -43.775 -51.380  12.590  1.00  0.00     0.164 HD
ENDROOT
BRANCH   3  13
HETATM   13  C   UNL     1     -41.725 -51.715  12.278  1.00  0.00     0.130 C 
BRANCH  13  14
HETATM   14  C   UNL     1     -41.463 -50.420  13.043  1.00  0.00     0.076 C 
BRANCH  14  15
HETATM   15  C   UNL     1     -41.966 -49.201  12.327  1.00  0.00     0.010 A 
HETATM   16  C   UNL     1     -42.608 -48.184  13.026  1.00  0.00     0.025 A 
HETATM   17  C   UNL     1     -43.103 -47.094  12.317  1.00  0.00     0.003 A 
HETATM   18  C   UNL     1     -42.941 -47.047  10.939  1.00  0.00     0.017 A 
HETATM   19  C   UNL     1     -42.280 -48.095  10.323  1.00  0.00     0.088 A 
HETATM   20  N   UNL     1     -41.789 -49.166  10.984  1.00  0.00    -0.369 N 
ATOM     21  HN  UNL     1     -41.306 -49.917  10.492  1.00  0.00     0.165 HD
ENDBRANCH  14  15
ENDBRANCH  13  14
ENDBRANCH   3  13
TORSDOF 3
ENDMDL
MODEL 2
REMARK VINA RESULT:      -6.1      1.715      2.458
REMARK  3 active torsions:
REMARK  status: ('A' for Active; 'I' for Inactive)
REMARK       I    between atoms: C_2  and  N_3 
REMARK       I    between atoms: C_2  and  N_13 
REMARK    1  A    between atoms: N_3  and  C_4 
REMARK    2  A    between atoms: C_4  and  C_5 
REMARK    3  A    between atoms: C_5  and  C_6 
ROOT
HETATM    1  O   UNL     1     -41.852 -50.877  14.377  1.00  0.00    -0.247 OA
HETATM    2  C   UNL     1     -42.643 -51.259  13.520  1.00  0.00     0.318 C 
HETATM    3  N   UNL     1     -42.789 -50.613  12.326  1.00  0.00    -0.343 N 
HETATM    4  N   UNL     1     -43.490 -52.356  13.681  1.00  0.00    -0.334 N 
HETATM    5  C   UNL     1     -43.564 -52.982  15.001  1.00  0.00     0.127 C 
HETATM    6  C   UNL     1     -44.941 -52.879  15.664  1.00  0.00     0.020 C 
HETATM    7  C   UNL     1     -45.589 -51.497  15.554  1.00  0.00     0.002 C 
HETATM    8  C   UNL     1     -46.670 -51.367  14.474  1.00  0.00     0.000 C 
HETATM    9  C   UNL     1     -46.257 -51.514  13.005  1.00  0.00     0.002 C 
HETATM   10  C   UNL     1     -45.716 -52.889  12.607  1.00  0.00     0.020 C 
HETATM   11  C   UNL     1     -44.192 -53.025  12.586  1.00  0.00     0.127 C 
HETATM   12  H   UNL     1     -43.683 -50.719  11.880  1.00  0.00     0.164 HD
ENDROOT
BRANCH   3  13
HETATM   13  C   UNL     1     -42.020 -49.438  11.944  1.00  0.00     0.130 C 
BRANCH  13  14
HETATM   14  C   UNL     1     -42.815 -48.172  12.255  1.00  0.00     0.076 C 
BRANCH  14  15
HETATM   15  C   UNL     1     -43.384 -47.519  11.029  1.00  0.00     0.010 A 
HETATM   16  C   UNL     1     -42.812 -46.360  10.514  1.00  0.00     0.025 A 
HETATM   17  C   UNL     1     -43.400 -45.760   9.406  1.00  0.00     0.003 A 
HETATM   18  C   UNL     1     -44.533 -46.332   8.842  1.00  0.00     0.017 A 
HETATM   19  C   UNL     1     -45.031 -47.492   9.409  1.00  0.00     0.088 A 
HETATM   20  N   UNL     1     -44.482 -48.097  10.484  1.00  0.00    -0.369 N 
ATOM     21  HN  UNL     1     -44.879 -48.953  10.871  1.00  0.00     0.165 HD
ENDBRANCH  14  15
ENDBRANCH  13  14
ENDBRANCH   3  13
TORSDOF 3
ENDMDL
MODEL 3
REMARK VINA RESULT:      -6.1      1.975      2.936
REMARK  3 active torsions:
REMARK  status: ('A' for Active; 'I' for Inactive)
REMARK       I    between atoms: C_2  and  N_3 
REMARK       I    between atoms: C_2  and  N_13 
REMARK    1  A    between atoms: N_3  and  C_4 
REMARK    2  A    between atoms: C_4  and  C_5 
REMARK    3  A    between atoms: C_5  and  C_6 
ROOT
HETATM    1  O   UNL     1     -42.412 -53.033  13.577  1.00  0.00    -0.247 OA
HETATM    2  C   UNL     1     -43.382 -52.407  13.162  1.00  0.00     0.318 C 
HETATM    3  N   UNL     1     -43.334 -51.061  12.931  1.00  0.00    -0.343 N 
HETATM    4  N   UNL     1     -44.629 -52.983  12.916  1.00  0.00    -0.334 N 
HETATM    5  C   UNL     1     -44.843 -54.367  13.334  1.00  0.00     0.127 C 
HETATM    6  C   UNL     1     -45.911 -54.533  14.419  1.00  0.00     0.020 C 
HETATM    7  C   UNL     1     -45.818 -53.511  15.554  1.00  0.00     0.002 C 
HETATM    8  C   UNL     1     -46.818 -52.350  15.471  1.00  0.00     0.000 C 
HETATM    9  C   UNL     1     -46.700 -51.367  14.302  1.00  0.00     0.002 C 
HETATM   10  C   UNL     1     -46.942 -51.961  12.913  1.00  0.00     0.020 C 
HETATM   11  C   UNL     1     -45.689 -52.353  12.127  1.00  0.00     0.127 C 
HETATM   12  H   UNL     1     -44.213 -50.578  12.993  1.00  0.00     0.164 HD
ENDROOT
BRANCH   3  13
HETATM   13  C   UNL     1     -42.143 -50.250  13.131  1.00  0.00     0.130 C 
BRANCH  13  14
HETATM   14  C   UNL     1     -41.343 -50.172  11.832  1.00  0.00     0.076 C 
BRANCH  14  15
HETATM   15  C   UNL     1     -39.878 -50.432  12.027  1.00  0.00     0.010 A 
HETATM   16  C   UNL     1     -39.425 -51.124  13.146  1.00  0.00     0.025 A 
HETATM   17  C   UNL     1     -38.055 -51.301  13.313  1.00  0.00     0.003 A 
HETATM   18  C   UNL     1     -37.181 -50.792  12.362  1.00  0.00     0.017 A 
HETATM   19  C   UNL     1     -37.716 -50.127  11.272  1.00  0.00     0.088 A 
HETATM   20  N   UNL     1     -39.040 -49.939  11.084  1.00  0.00    -0.369 N 
ATOM     21  HN  UNL     1     -39.394 -49.445  10.265  1.00  0.00     0.165 HD
ENDBRANCH  14  15
ENDBRANCH  13  14
ENDBRANCH   3  13
TORSDOF 3
ENDMDL
MODEL 4
REMARK VINA RESULT:      -5.9      2.253      3.106
REMARK  3 active torsions:
REMARK  status: ('A' for Active; 'I' for Inactive)
REMARK       I    between atoms: C_2  and  N_3 
REMARK       I    between atoms: C_2  and  N_13 
REMARK    1  A    between atoms: N_3  and  C_4 
REMARK    2  A    between atoms: C_4  and  C_5 
REMARK    3  A    between atoms: C_5  and  C_6 
ROOT
HETATM    1  O   UNL     1     -42.206 -50.175  14.456  1.00  0.00    -0.247 OA
HETATM    2  C   UNL     1     -42.917 -50.676  13.591  1.00  0.00     0.318 C 
HETATM    3  N   UNL     1     -43.160 -50.053  12.400  1.00  0.00    -0.343 N 
HETATM    4  N   UNL     1     -43.570 -51.901  13.736  1.00  0.00    -0.334 N 
HETATM    5  C   UNL     1     -43.547 -52.542  15.050  1.00  0.00     0.127 C 
HETATM    6  C   UNL     1     -44.926 -52.676  15.702  1.00  0.00     0.020 C 
HETATM    7  C   UNL     1     -45.796 -51.421  15.598  1.00  0.00     0.002 C 
HETATM    8  C   UNL     1     -46.876 -51.464  14.510  1.00  0.00     0.000 C 
HETATM    9  C   UNL     1     -46.434 -51.527  13.043  1.00  0.00     0.002 C 
HETATM   10  C   UNL     1     -45.668 -52.788  12.639  1.00  0.00     0.020 C 
HETATM   11  C   UNL     1     -44.142 -52.668  12.629  1.00  0.00     0.127 C 
HETATM   12  H   UNL     1     -44.021 -50.302  11.946  1.00  0.00     0.164 HD
ENDROOT
BRANCH   3  13
HETATM   13  C   UNL     1     -42.596 -48.762  12.034  1.00  0.00     0.130 C 
BRANCH  13  14
HETATM   14  C   UNL     1     -41.486 -48.953  11.003  1.00  0.00     0.076 C 
BRANCH  14  15
HETATM   15  C   UNL     1     -40.130 -49.127  11.624  1.00  0.00     0.010 A 
HETATM   16  C   UNL     1     -39.807 -48.479  12.812  1.00  0.00     0.025 A 
HETATM   17  C   UNL     1     -38.523 -48.629  13.327  1.00  0.00     0.003 A 
HETATM   18  C   UNL     1     -37.605 -49.421  12.650  1.00  0.00     0.017 A 
HETATM   19  C   UNL     1     -38.012 -50.040  11.481  1.00  0.00     0.088 A 
HETATM   20  N   UNL     1     -39.250 -49.913  10.957  1.00  0.00    -0.369 N 
ATOM     21  HN  UNL     1     -39.512 -50.389  10.093  1.00  0.00     0.165 HD
ENDBRANCH  14  15
ENDBRANCH  13  14
ENDBRANCH   3  13
TORSDOF 3
ENDMDL
MODEL 5
REMARK VINA RESULT:      -5.7      2.502      3.280
REMARK  3 active torsions:
REMARK  status: ('A' for Active; 'I' for Inactive)
REMARK       I    between atoms: C_2  and  N_3 
REMARK       I    between atoms: C_2  and  N_13 
REMARK    1  A    between atoms: N_3  and  C_4 
REMARK    2  A    between atoms: C_4  and  C_5 
REMARK    3  A    between atoms: C_5  and  C_6 
ROOT
HETATM    1  O   UNL     1     -42.956 -48.866  14.320  1.00  0.00    -0.247 OA
HETATM    2  C   UNL     1     -43.214 -49.752  13.512  1.00  0.00     0.318 C 
HETATM    3  N   UNL     1     -43.353 -49.500  12.177  1.00  0.00    -0.343 N 
HETATM    4  N   UNL     1     -43.420 -51.087  13.864  1.00  0.00    -0.334 N 
HETATM    5  C   UNL     1     -43.505 -51.419  15.285  1.00  0.00     0.127 C 
HETATM    6  C   UNL     1     -44.870 -51.963  15.719  1.00  0.00     0.020 C 
HETATM    7  C   UNL     1     -46.063 -51.189  15.152  1.00  0.00     0.002 C 
HETATM    8  C   UNL     1     -46.757 -51.846  13.953  1.00  0.00     0.000 C 
HETATM    9  C   UNL     1     -45.972 -51.994  12.645  1.00  0.00     0.002 C 
HETATM   10  C   UNL     1     -44.745 -52.906  12.711  1.00  0.00     0.020 C 
HETATM   11  C   UNL     1     -43.402 -52.202  12.917  1.00  0.00     0.127 C 
HETATM   12  H   UNL     1     -43.935 -50.144  11.671  1.00  0.00     0.164 HD
ENDROOT
BRANCH   3  13
HETATM   13  C   UNL     1     -43.195 -48.180  11.584  1.00  0.00     0.130 C 
BRANCH  13  14
HETATM   14  C   UNL     1     -41.906 -48.128  10.767  1.00  0.00     0.076 C 
BRANCH  14  15
HETATM   15  C   UNL     1     -41.037 -46.954  11.112  1.00  0.00     0.010 A 
HETATM   16  C   UNL     1     -40.697 -46.689  12.435  1.00  0.00     0.025 A 
HETATM   17  C   UNL     1     -39.931 -45.563  12.716  1.00  0.00     0.003 A 
HETATM   18  C   UNL     1     -39.523 -44.739  11.675  1.00  0.00     0.017 A 
HETATM   19  C   UNL     1     -39.894 -45.082  10.386  1.00  0.00     0.088 A 
HETATM   20  N   UNL     1     -40.637 -46.168  10.083  1.00  0.00    -0.369 N 
ATOM     21  HN  UNL     1     -40.888 -46.387   9.119  1.00  0.00     0.165 HD
ENDBRANCH  14  15
ENDBRANCH  13  14
ENDBRANCH   3  13
TORSDOF 3
ENDMDL
MODEL 6
REMARK VINA RESULT:      -5.5      1.834      2.678
REMARK  3 active torsions:
REMARK  status: ('A' for Active; 'I' for Inactive)
REMARK       I    between atoms: C_2  and  N_3 
REMARK       I    between atoms: C_2  and  N_13 
REMARK    1  A    between atoms: N_3  and  C_4 
REMARK    2  A    between atoms: C_4  and  C_5 
REMARK    3  A    between atoms: C_5  and  C_6 
ROOT
HETATM    1  O   UNL     1     -42.889 -50.299  15.344  1.00  0.00    -0.247 OA
HETATM    2  C   UNL     1     -42.882 -51.398  14.799  1.00  0.00     0.318 C 
HETATM    3  N   UNL     1     -41.925 -51.753  13.892  1.00  0.00    -0.343 N 
HETATM    4  N   UNL     1     -43.851 -52.378  15.019  1.00  0.00    -0.334 N 
HETATM    5  C   UNL     1     -45.029 -52.018  15.805  1.00  0.00     0.127 C 
HETATM    6  C   UNL     1     -46.345 -52.078  15.021  1.00  0.00     0.020 C 
HETATM    7  C   UNL     1     -46.272 -51.458  13.624  1.00  0.00     0.002 C 
HETATM    8  C   UNL     1     -46.136 -52.460  12.471  1.00  0.00     0.000 C 
HETATM    9  C   UNL     1     -44.861 -53.306  12.384  1.00  0.00     0.002 C 
HETATM   10  C   UNL     1     -44.633 -54.277  13.544  1.00  0.00     0.020 C 
HETATM   11  C   UNL     1     -43.698 -53.787  14.651  1.00  0.00     0.127 C 
HETATM   12  H   UNL     1     -42.198 -52.451  13.223  1.00  0.00     0.164 HD
ENDROOT
BRANCH   3  13
HETATM   13  C   UNL     1     -40.825 -50.886  13.499  1.00  0.00     0.130 C 
BRANCH  13  14
HETATM   14  C   UNL     1     -40.782 -50.757  11.978  1.00  0.00     0.076 C 
BRANCH  14  15
HETATM   15  C   UNL     1     -40.875 -49.335  11.506  1.00  0.00     0.010 A 
HETATM   16  C   UNL     1     -39.882 -48.415  11.828  1.00  0.00     0.025 A 
HETATM   17  C   UNL     1     -40.032 -47.096  11.412  1.00  0.00     0.003 A 
HETATM   18  C   UNL     1     -41.159 -46.734  10.686  1.00  0.00     0.017 A 
HETATM   19  C   UNL     1     -42.093 -47.715  10.397  1.00  0.00     0.088 A 
HETATM   20  N   UNL     1     -41.975 -49.002  10.788  1.00  0.00    -0.369 N 
ATOM     21  HN  UNL     1     -42.686 -49.695  10.552  1.00  0.00     0.165 HD
ENDBRANCH  14  15
ENDBRANCH  13  14
ENDBRANCH   3  13
TORSDOF 3
ENDMDL
MODEL 7
REMARK VINA RESULT:      -5.5      2.826      3.697
REMARK  3 active torsions:
REMARK  status: ('A' for Active; 'I' for Inactive)
REMARK       I    between atoms: C_2  and  N_3 
REMARK       I    between atoms: C_2  and  N_13 
REMARK    1  A    between atoms: N_3  and  C_4 
REMARK    2  A    between atoms: C_4  and  C_5 
REMARK    3  A    between atoms: C_5  and  C_6 
ROOT
HETATM    1  O   UNL     1     -42.670 -51.310  15.777  1.00  0.00    -0.247 OA
HETATM    2  C   UNL     1     -43.049 -52.396  15.349  1.00  0.00     0.318 C 
HETATM    3  N   UNL     1     -42.220 -53.237  14.663  1.00  0.00    -0.343 N 
HETATM    4  N   UNL     1     -44.355 -52.869  15.484  1.00  0.00    -0.334 N 
HETATM    5  C   UNL     1     -45.368 -51.956  16.010  1.00  0.00     0.127 C 
HETATM    6  C   UNL     1     -46.482 -51.618  15.014  1.00  0.00     0.020 C 
HETATM    7  C   UNL     1     -45.987 -51.306  13.600  1.00  0.00     0.002 C 
HETATM    8  C   UNL     1     -46.134 -52.450  12.589  1.00  0.00     0.000 C 
HETATM    9  C   UNL     1     -45.322 -53.730  12.810  1.00  0.00     0.002 C 
HETATM   10  C   UNL     1     -45.661 -54.516  14.079  1.00  0.00     0.020 C 
HETATM   11  C   UNL     1     -44.753 -54.263  15.284  1.00  0.00     0.127 C 
HETATM   12  H   UNL     1     -42.671 -53.868  14.025  1.00  0.00     0.164 HD
ENDROOT
BRANCH   3  13
HETATM   13  C   UNL     1     -40.820 -52.946  14.393  1.00  0.00     0.130 C 
BRANCH  13  14
HETATM   14  C   UNL     1     -40.653 -52.493  12.944  1.00  0.00     0.076 C 
BRANCH  14  15
HETATM   15  C   UNL     1     -39.569 -51.469  12.769  1.00  0.00     0.010 A 
HETATM   16  C   UNL     1     -38.556 -51.342  13.714  1.00  0.00     0.025 A 
HETATM   17  C   UNL     1     -37.599 -50.347  13.539  1.00  0.00     0.003 A 
HETATM   18  C   UNL     1     -37.676 -49.516  12.429  1.00  0.00     0.017 A 
HETATM   19  C   UNL     1     -38.709 -49.718  11.531  1.00  0.00     0.088 A 
HETATM   20  N   UNL     1     -39.652 -50.674  11.675  1.00  0.00    -0.369 N 
ATOM     21  HN  UNL     1     -40.397 -50.792  10.988  1.00  0.00     0.165 HD
ENDBRANCH  14  15
ENDBRANCH  13  14
ENDBRANCH   3  13
TORSDOF 3
ENDMDL
MODEL 8
REMARK VINA RESULT:      -5.5      2.542      6.252
REMARK  3 active torsions:
REMARK  status: ('A' for Active; 'I' for Inactive)
REMARK       I    between atoms: C_2  and  N_3 
REMARK       I    between atoms: C_2  and  N_13 
REMARK    1  A    between atoms: N_3  and  C_4 
REMARK    2  A    between atoms: C_4  and  C_5 
REMARK    3  A    between atoms: C_5  and  C_6 
ROOT
HETATM    1  O   UNL     1     -39.535 -53.507  14.417  1.00  0.00    -0.247 OA
HETATM    2  C   UNL     1     -40.116 -52.480  14.082  1.00  0.00     0.318 C 
HETATM    3  N   UNL     1     -41.300 -52.504  13.401  1.00  0.00    -0.343 N 
HETATM    4  N   UNL     1     -39.625 -51.196  14.326  1.00  0.00    -0.334 N 
HETATM    5  C   UNL     1     -38.269 -51.066  14.855  1.00  0.00     0.127 C 
HETATM    6  C   UNL     1     -37.295 -50.355  13.909  1.00  0.00     0.020 C 
HETATM    7  C   UNL     1     -37.392 -50.808  12.451  1.00  0.00     0.002 C 
HETATM    8  C   UNL     1     -38.173 -49.867  11.525  1.00  0.00     0.000 C 
HETATM    9  C   UNL     1     -39.672 -49.673  11.776  1.00  0.00     0.002 C 
HETATM   10  C   UNL     1     -40.038 -49.018  13.110  1.00  0.00     0.020 C 
HETATM   11  C   UNL     1     -40.427 -49.975  14.238  1.00  0.00     0.127 C 
HETATM   12  H   UNL     1     -41.491 -51.698  12.833  1.00  0.00     0.164 HD
ENDROOT
BRANCH   3  13
HETATM   13  C   UNL     1     -41.991 -53.728  13.028  1.00  0.00     0.130 C 
BRANCH  13  14
HETATM   14  C   UNL     1     -43.130 -54.002  14.007  1.00  0.00     0.076 C 
BRANCH  14  15
HETATM   15  C   UNL     1     -44.306 -53.090  13.811  1.00  0.00     0.010 A 
HETATM   16  C   UNL     1     -44.675 -52.187  14.804  1.00  0.00     0.025 A 
HETATM   17  C   UNL     1     -45.800 -51.395  14.603  1.00  0.00     0.003 A 
HETATM   18  C   UNL     1     -46.519 -51.519  13.422  1.00  0.00     0.017 A 
HETATM   19  C   UNL     1     -46.076 -52.432  12.480  1.00  0.00     0.088 A 
HETATM   20  N   UNL     1     -44.989 -53.215  12.648  1.00  0.00    -0.369 N 
ATOM     21  HN  UNL     1     -44.695 -53.875  11.928  1.00  0.00     0.165 HD
ENDBRANCH  14  15
ENDBRANCH  13  14
ENDBRANCH   3  13
TORSDOF 3
ENDMDL
MODEL 9
REMARK VINA RESULT:      -5.4      2.689      6.776
REMARK  3 active torsions:
REMARK  status: ('A' for Active; 'I' for Inactive)
REMARK       I    between atoms: C_2  and  N_3 
REMARK       I    between atoms: C_2  and  N_13 
REMARK    1  A    between atoms: N_3  and  C_4 
REMARK    2  A    between atoms: C_4  and  C_5 
REMARK    3  A    between atoms: C_5  and  C_6 
ROOT
HETATM    1  O   UNL     1     -41.778 -50.720  14.322  1.00  0.00    -0.247 OA
HETATM    2  C   UNL     1     -40.832 -50.802  13.544  1.00  0.00     0.318 C 
HETATM    3  N   UNL     1     -40.076 -51.934  13.436  1.00  0.00    -0.343 N 
HETATM    4  N   UNL     1     -40.412 -49.755  12.722  1.00  0.00    -0.334 N 
HETATM    5  C   UNL     1     -41.018 -48.440  12.917  1.00  0.00     0.127 C 
HETATM    6  C   UNL     1     -40.033 -47.362  13.381  1.00  0.00     0.020 C 
HETATM    7  C   UNL     1     -39.078 -47.817  14.487  1.00  0.00     0.002 C 
HETATM    8  C   UNL     1     -37.663 -48.181  14.020  1.00  0.00     0.000 C 
HETATM    9  C   UNL     1     -37.488 -49.387  13.091  1.00  0.00     0.002 C 
HETATM   10  C   UNL     1     -38.145 -49.262  11.715  1.00  0.00     0.020 C 
HETATM   11  C   UNL     1     -39.521 -49.916  11.572  1.00  0.00     0.127 C 
HETATM   12  H   UNL     1     -39.134 -51.799  13.115  1.00  0.00     0.164 HD
ENDROOT
BRANCH   3  13
HETATM   13  C   UNL     1     -40.322 -53.145  14.204  1.00  0.00     0.130 C 
BRANCH  13  14
HETATM   14  C   UNL     1     -41.008 -54.189  13.326  1.00  0.00     0.076 C 
BRANCH  14  15
HETATM   15  C   UNL     1     -42.506 -54.131  13.405  1.00  0.00     0.010 A 
HETATM   16  C   UNL     1     -43.186 -54.776  14.433  1.00  0.00     0.025 A 
HETATM   17  C   UNL     1     -44.577 -54.740  14.441  1.00  0.00     0.003 A 
HETATM   18  C   UNL     1     -45.246 -54.059  13.432  1.00  0.00     0.017 A 
HETATM   19  C   UNL     1     -44.493 -53.434  12.454  1.00  0.00     0.088 A 
HETATM   20  N   UNL     1     -43.143 -53.453  12.419  1.00  0.00    -0.369 N 
ATOM     21  HN  UNL     1     -42.624 -52.977  11.681  1.00  0.00     0.165 HD
ENDBRANCH  14  15
ENDBRANCH  13  14
ENDBRANCH   3  13
TORSDOF 3
ENDMDL
