MODEL 1
REMARK VINA RESULT:      -5.3      0.000      0.000
REMARK  3 active torsions:
REMARK  status: ('A' for Active; 'I' for Inactive)
REMARK    1  A    between atoms: N_11  and  C_12 
REMARK    2  A    between atoms: C_12  and  C_13 
REMARK    3  A    between atoms: C_13  and  O_14 
ROOT
HETATM    1  C   UNL     1     -40.367 -55.228  16.058  1.00  0.00     0.164 C 
HETATM    2  N   UNL     1     -41.106 -54.564  15.002  1.00  0.00    -0.269 N 
HETATM    3  C   UNL     1     -40.426 -53.628  14.198  1.00  0.00     0.332 A 
HETATM    4  O   UNL     1     -39.232 -53.373  14.375  1.00  0.00    -0.246 OA
HETATM    5  N   UNL     1     -41.165 -53.000  13.192  1.00  0.00    -0.287 N 
HETATM    6  C   UNL     1     -40.542 -52.022  12.318  1.00  0.00     0.163 C 
HETATM    7  C   UNL     1     -42.490 -53.321  13.029  1.00  0.00     0.145 A 
HETATM    8  N   UNL     1     -43.333 -52.795  12.097  1.00  0.00    -0.336 N 
ATOM      9  HN  UNL     1     -43.122 -52.089  11.392  1.00  0.00     0.168 HD
HETATM   10  C   UNL     1     -44.481 -53.404  12.311  1.00  0.00     0.185 A 
HETATM   11  N   UNL     1     -44.399 -54.288  13.358  1.00  0.00    -0.333 N 
HETATM   12  C   UNL     1     -43.115 -54.234  13.824  1.00  0.00     0.149 A 
HETATM   13  C   UNL     1     -42.457 -54.913  14.884  1.00  0.00     0.282 A 
HETATM   14  O   UNL     1     -43.027 -55.710  15.624  1.00  0.00    -0.265 OA
ENDROOT
BRANCH  11  15
HETATM   15  C   UNL     1     -45.489 -55.117  13.836  1.00  0.00     0.156 C 
BRANCH  15  16
HETATM   16  C   UNL     1     -46.364 -54.396  14.855  1.00  0.00     0.184 C 
BRANCH  16  17
HETATM   17  O   UNL     1     -45.862 -54.575  16.177  1.00  0.00    -0.399 OA
HETATM   18  H   UNL     1     -46.130 -53.800  16.704  1.00  0.00     0.209 HD
ENDBRANCH  16  17
ENDBRANCH  15  16
ENDBRANCH  11  15
TORSDOF 3
ENDMDL
MODEL 2
REMARK VINA RESULT:      -4.9      8.271      9.607
REMARK  3 active torsions:
REMARK  status: ('A' for Active; 'I' for Inactive)
REMARK    1  A    between atoms: N_11  and  C_12 
REMARK    2  A    between atoms: C_12  and  C_13 
REMARK    3  A    between atoms: C_13  and  O_14 
ROOT
HETATM    1  C   UNL     1     -41.568 -42.498  11.528  1.00  0.00     0.164 C 
HETATM    2  N   UNL     1     -41.628 -43.898  11.157  1.00  0.00    -0.269 N 
HETATM    3  C   UNL     1     -40.570 -44.740  11.551  1.00  0.00     0.332 A 
HETATM    4  O   UNL     1     -39.611 -44.310  12.199  1.00  0.00    -0.246 OA
HETATM    5  N   UNL     1     -40.653 -46.083  11.175  1.00  0.00    -0.287 N 
HETATM    6  C   UNL     1     -39.605 -47.019  11.541  1.00  0.00     0.163 C 
HETATM    7  C   UNL     1     -41.743 -46.516  10.462  1.00  0.00     0.145 A 
HETATM    8  N   UNL     1     -41.962 -47.789  10.029  1.00  0.00    -0.336 N 
ATOM      9  HN  UNL     1     -41.361 -48.604  10.155  1.00  0.00     0.168 HD
HETATM   10  C   UNL     1     -43.123 -47.730   9.409  1.00  0.00     0.185 A 
HETATM   11  N   UNL     1     -43.642 -46.460   9.423  1.00  0.00    -0.333 N 
HETATM   12  C   UNL     1     -42.751 -45.674  10.100  1.00  0.00     0.149 A 
HETATM   13  C   UNL     1     -42.751 -44.290  10.417  1.00  0.00     0.282 A 
HETATM   14  O   UNL     1     -43.641 -43.522  10.062  1.00  0.00    -0.265 OA
ENDROOT
BRANCH  11  15
HETATM   15  C   UNL     1     -44.908 -46.070   8.833  1.00  0.00     0.156 C 
BRANCH  15  16
HETATM   16  C   UNL     1     -46.024 -47.059   9.144  1.00  0.00     0.184 C 
BRANCH  16  17
HETATM   17  O   UNL     1     -46.406 -47.782   7.975  1.00  0.00    -0.399 OA
HETATM   18  H   UNL     1     -46.383 -48.732   8.193  1.00  0.00     0.209 HD
ENDBRANCH  16  17
ENDBRANCH  15  16
ENDBRANCH  11  15
TORSDOF 3
ENDMDL
MODEL 3
REMARK VINA RESULT:      -4.8      2.020      5.279
REMARK  3 active torsions:
REMARK  status: ('A' for Active; 'I' for Inactive)
REMARK    1  A    between atoms: N_11  and  C_12 
REMARK    2  A    between atoms: C_12  and  C_13 
REMARK    3  A    between atoms: C_13  and  O_14 
ROOT
HETATM    1  C   UNL     1     -40.145 -54.516  15.488  1.00  0.00     0.164 C 
HETATM    2  N   UNL     1     -40.627 -53.597  14.475  1.00  0.00    -0.269 N 
HETATM    3  C   UNL     1     -41.922 -53.795  13.955  1.00  0.00     0.332 A 
HETATM    4  O   UNL     1     -42.638 -54.721  14.347  1.00  0.00    -0.246 OA
HETATM    5  N   UNL     1     -42.357 -52.898  12.977  1.00  0.00    -0.287 N 
HETATM    6  C   UNL     1     -43.679 -53.030  12.389  1.00  0.00     0.163 C 
HETATM    7  C   UNL     1     -41.527 -51.880  12.579  1.00  0.00     0.145 A 
HETATM    8  N   UNL     1     -41.813 -50.933  11.642  1.00  0.00    -0.336 N 
ATOM      9  HN  UNL     1     -42.666 -50.836  11.092  1.00  0.00     0.168 HD
HETATM   10  C   UNL     1     -40.738 -50.173  11.605  1.00  0.00     0.185 A 
HETATM   11  N   UNL     1     -39.774 -50.612  12.478  1.00  0.00    -0.333 N 
HETATM   12  C   UNL     1     -40.281 -51.716  13.105  1.00  0.00     0.149 A 
HETATM   13  C   UNL     1     -39.739 -52.585  14.090  1.00  0.00     0.282 A 
HETATM   14  O   UNL     1     -38.604 -52.460  14.540  1.00  0.00    -0.265 OA
ENDROOT
BRANCH  11  15
HETATM   15  C   UNL     1     -38.481 -49.986  12.677  1.00  0.00     0.156 C 
BRANCH  15  16
HETATM   16  C   UNL     1     -37.423 -50.518  11.718  1.00  0.00     0.184 C 
BRANCH  16  17
HETATM   17  O   UNL     1     -36.886 -51.754  12.185  1.00  0.00    -0.399 OA
HETATM   18  H   UNL     1     -36.141 -51.549  12.779  1.00  0.00     0.209 HD
ENDBRANCH  16  17
ENDBRANCH  15  16
ENDBRANCH  11  15
TORSDOF 3
ENDMDL
MODEL 4
REMARK VINA RESULT:      -4.7      6.490      8.792
REMARK  3 active torsions:
REMARK  status: ('A' for Active; 'I' for Inactive)
REMARK    1  A    between atoms: N_11  and  C_12 
REMARK    2  A    between atoms: C_12  and  C_13 
REMARK    3  A    between atoms: C_13  and  O_14 
ROOT
HETATM    1  C   UNL     1     -40.697 -43.824  12.034  1.00  0.00     0.164 C 
HETATM    2  N   UNL     1     -40.977 -45.155  11.530  1.00  0.00    -0.269 N 
HETATM    3  C   UNL     1     -42.039 -45.314  10.618  1.00  0.00     0.332 A 
HETATM    4  O   UNL     1     -42.719 -44.353  10.247  1.00  0.00    -0.246 OA
HETATM    5  N   UNL     1     -42.289 -46.607  10.154  1.00  0.00    -0.287 N 
HETATM    6  C   UNL     1     -43.365 -46.860   9.211  1.00  0.00     0.163 C 
HETATM    7  C   UNL     1     -41.501 -47.643  10.589  1.00  0.00     0.145 A 
HETATM    8  N   UNL     1     -41.622 -48.950  10.225  1.00  0.00    -0.336 N 
ATOM      9  HN  UNL     1     -42.308 -49.361   9.591  1.00  0.00     0.168 HD
HETATM   10  C   UNL     1     -40.656 -49.564  10.876  1.00  0.00     0.185 A 
HETATM   11  N   UNL     1     -39.933 -48.693  11.652  1.00  0.00    -0.333 N 
HETATM   12  C   UNL     1     -40.478 -47.453  11.470  1.00  0.00     0.149 A 
HETATM   13  C   UNL     1     -40.157 -46.181  12.014  1.00  0.00     0.282 A 
HETATM   14  O   UNL     1     -39.259 -46.013  12.834  1.00  0.00    -0.265 OA
ENDROOT
BRANCH  11  15
HETATM   15  C   UNL     1     -38.800 -49.057  12.481  1.00  0.00     0.156 C 
BRANCH  15  16
HETATM   16  C   UNL     1     -37.669 -49.688  11.678  1.00  0.00     0.184 C 
BRANCH  16  17
HETATM   17  O   UNL     1     -37.762 -51.111  11.696  1.00  0.00    -0.399 OA
HETATM   18  H   UNL     1     -38.646 -51.347  12.033  1.00  0.00     0.209 HD
ENDBRANCH  16  17
ENDBRANCH  15  16
ENDBRANCH  11  15
TORSDOF 3
ENDMDL
MODEL 5
REMARK VINA RESULT:      -4.7      6.949      9.150
REMARK  3 active torsions:
REMARK  status: ('A' for Active; 'I' for Inactive)
REMARK    1  A    between atoms: N_11  and  C_12 
REMARK    2  A    between atoms: C_12  and  C_13 
REMARK    3  A    between atoms: C_13  and  O_14 
ROOT
HETATM    1  C   UNL     1     -44.015 -46.161   9.078  1.00  0.00     0.164 C 
HETATM    2  N   UNL     1     -43.026 -45.941  10.116  1.00  0.00    -0.269 N 
HETATM    3  C   UNL     1     -42.731 -44.614  10.487  1.00  0.00     0.332 A 
HETATM    4  O   UNL     1     -43.295 -43.655   9.952  1.00  0.00    -0.246 OA
HETATM    5  N   UNL     1     -41.771 -44.433  11.485  1.00  0.00    -0.287 N 
HETATM    6  C   UNL     1     -41.407 -43.098  11.927  1.00  0.00     0.163 C 
HETATM    7  C   UNL     1     -41.176 -45.531  12.055  1.00  0.00     0.145 A 
HETATM    8  N   UNL     1     -40.229 -45.511  13.034  1.00  0.00    -0.336 N 
ATOM      9  HN  UNL     1     -39.814 -44.696  13.485  1.00  0.00     0.168 HD
HETATM   10  C   UNL     1     -39.971 -46.782  13.267  1.00  0.00     0.185 A 
HETATM   11  N   UNL     1     -40.712 -47.607  12.459  1.00  0.00    -0.333 N 
HETATM   12  C   UNL     1     -41.488 -46.802  11.674  1.00  0.00     0.149 A 
HETATM   13  C   UNL     1     -42.437 -47.090  10.656  1.00  0.00     0.282 A 
HETATM   14  O   UNL     1     -42.694 -48.232  10.287  1.00  0.00    -0.265 OA
ENDROOT
BRANCH  11  15
HETATM   15  C   UNL     1     -40.662 -49.057  12.477  1.00  0.00     0.156 C 
BRANCH  15  16
HETATM   16  C   UNL     1     -39.645 -49.616  11.489  1.00  0.00     0.184 C 
BRANCH  16  17
HETATM   17  O   UNL     1     -40.277 -50.006  10.272  1.00  0.00    -0.399 OA
HETATM   18  H   UNL     1     -40.686 -50.879  10.415  1.00  0.00     0.209 HD
ENDBRANCH  16  17
ENDBRANCH  15  16
ENDBRANCH  11  15
TORSDOF 3
ENDMDL
MODEL 6
REMARK VINA RESULT:      -4.6      4.372      6.898
REMARK  3 active torsions:
REMARK  status: ('A' for Active; 'I' for Inactive)
REMARK    1  A    between atoms: N_11  and  C_12 
REMARK    2  A    between atoms: C_12  and  C_13 
REMARK    3  A    between atoms: C_13  and  O_14 
ROOT
HETATM    1  C   UNL     1     -37.538 -51.281  13.253  1.00  0.00     0.164 C 
HETATM    2  N   UNL     1     -38.832 -50.840  12.770  1.00  0.00    -0.269 N 
HETATM    3  C   UNL     1     -39.890 -51.771  12.750  1.00  0.00     0.332 A 
HETATM    4  O   UNL     1     -39.733 -52.933  13.133  1.00  0.00    -0.246 OA
HETATM    5  N   UNL     1     -41.123 -51.319  12.274  1.00  0.00    -0.287 N 
HETATM    6  C   UNL     1     -42.266 -52.213  12.220  1.00  0.00     0.163 C 
HETATM    7  C   UNL     1     -41.251 -50.015  11.865  1.00  0.00     0.145 A 
HETATM    8  N   UNL     1     -42.385 -49.435  11.381  1.00  0.00    -0.336 N 
ATOM      9  HN  UNL     1     -43.297 -49.868  11.242  1.00  0.00     0.168 HD
HETATM   10  C   UNL     1     -42.036 -48.189  11.135  1.00  0.00     0.185 A 
HETATM   11  N   UNL     1     -40.716 -47.962  11.432  1.00  0.00    -0.333 N 
HETATM   12  C   UNL     1     -40.207 -49.140  11.901  1.00  0.00     0.149 A 
HETATM   13  C   UNL     1     -38.909 -49.507  12.349  1.00  0.00     0.282 A 
HETATM   14  O   UNL     1     -37.958 -48.731  12.350  1.00  0.00    -0.265 OA
ENDROOT
BRANCH  11  15
HETATM   15  C   UNL     1     -40.032 -46.692  11.278  1.00  0.00     0.156 C 
BRANCH  15  16
HETATM   16  C   UNL     1     -40.866 -45.671  10.513  1.00  0.00     0.184 C 
BRANCH  16  17
HETATM   17  O   UNL     1     -40.090 -45.037   9.497  1.00  0.00    -0.399 OA
HETATM   18  H   UNL     1     -39.238 -45.508   9.438  1.00  0.00     0.209 HD
ENDBRANCH  16  17
ENDBRANCH  15  16
ENDBRANCH  11  15
TORSDOF 3
ENDMDL
MODEL 7
REMARK VINA RESULT:      -4.6      1.633      4.660
REMARK  3 active torsions:
REMARK  status: ('A' for Active; 'I' for Inactive)
REMARK    1  A    between atoms: N_11  and  C_12 
REMARK    2  A    between atoms: C_12  and  C_13 
REMARK    3  A    between atoms: C_13  and  O_14 
ROOT
HETATM    1  C   UNL     1     -45.883 -53.961  17.028  1.00  0.00     0.164 C 
HETATM    2  N   UNL     1     -45.301 -53.662  15.734  1.00  0.00    -0.269 N 
HETATM    3  C   UNL     1     -46.124 -53.079  14.750  1.00  0.00     0.332 A 
HETATM    4  O   UNL     1     -47.310 -52.821  14.973  1.00  0.00    -0.246 OA
HETATM    5  N   UNL     1     -45.538 -52.807  13.512  1.00  0.00    -0.287 N 
HETATM    6  C   UNL     1     -46.315 -52.205  12.442  1.00  0.00     0.163 C 
HETATM    7  C   UNL     1     -44.213 -53.105  13.314  1.00  0.00     0.145 A 
HETATM    8  N   UNL     1     -43.508 -52.897  12.167  1.00  0.00    -0.336 N 
ATOM      9  HN  UNL     1     -43.846 -52.503  11.289  1.00  0.00     0.168 HD
HETATM   10  C   UNL     1     -42.292 -53.319  12.447  1.00  0.00     0.185 A 
HETATM   11  N   UNL     1     -42.205 -53.802  13.729  1.00  0.00    -0.333 N 
HETATM   12  C   UNL     1     -43.445 -53.666  14.289  1.00  0.00     0.149 A 
HETATM   13  C   UNL     1     -43.951 -53.998  15.574  1.00  0.00     0.282 A 
HETATM   14  O   UNL     1     -43.270 -54.536  16.442  1.00  0.00    -0.265 OA
ENDROOT
BRANCH  11  15
HETATM   15  C   UNL     1     -41.002 -54.332  14.341  1.00  0.00     0.156 C 
BRANCH  15  16
HETATM   16  C   UNL     1     -39.742 -53.628  13.851  1.00  0.00     0.184 C 
BRANCH  16  17
HETATM   17  O   UNL     1     -38.761 -54.573  13.428  1.00  0.00    -0.399 OA
HETATM   18  H   UNL     1     -37.934 -54.378  13.906  1.00  0.00     0.209 HD
ENDBRANCH  16  17
ENDBRANCH  15  16
ENDBRANCH  11  15
TORSDOF 3
ENDMDL
MODEL 8
REMARK VINA RESULT:      -4.3      3.176      5.191
REMARK  3 active torsions:
REMARK  status: ('A' for Active; 'I' for Inactive)
REMARK    1  A    between atoms: N_11  and  C_12 
REMARK    2  A    between atoms: C_12  and  C_13 
REMARK    3  A    between atoms: C_13  and  O_14 
ROOT
HETATM    1  C   UNL     1     -44.938 -52.981  14.398  1.00  0.00     0.164 C 
HETATM    2  N   UNL     1     -43.657 -52.653  13.803  1.00  0.00    -0.269 N 
HETATM    3  C   UNL     1     -42.629 -53.615  13.858  1.00  0.00     0.332 A 
HETATM    4  O   UNL     1     -42.803 -54.714  14.392  1.00  0.00    -0.246 OA
HETATM    5  N   UNL     1     -41.405 -53.269  13.281  1.00  0.00    -0.287 N 
HETATM    6  C   UNL     1     -40.292 -54.202  13.294  1.00  0.00     0.163 C 
HETATM    7  C   UNL     1     -41.262 -52.038  12.692  1.00  0.00     0.145 A 
HETATM    8  N   UNL     1     -40.135 -51.563  12.092  1.00  0.00    -0.336 N 
ATOM      9  HN  UNL     1     -39.235 -52.033  11.993  1.00  0.00     0.168 HD
HETATM   10  C   UNL     1     -40.469 -50.362  11.668  1.00  0.00     0.185 A 
HETATM   11  N   UNL     1     -41.767 -50.052  11.990  1.00  0.00    -0.333 N 
HETATM   12  C   UNL     1     -42.279 -51.132  12.654  1.00  0.00     0.149 A 
HETATM   13  C   UNL     1     -43.555 -51.381  13.227  1.00  0.00     0.282 A 
HETATM   14  O   UNL     1     -44.461 -50.553  13.225  1.00  0.00    -0.265 OA
ENDROOT
BRANCH  11  15
HETATM   15  C   UNL     1     -42.435 -48.809  11.658  1.00  0.00     0.156 C 
BRANCH  15  16
HETATM   16  C   UNL     1     -41.681 -48.007  10.603  1.00  0.00     0.184 C 
BRANCH  16  17
HETATM   17  O   UNL     1     -42.223 -48.236   9.304  1.00  0.00    -0.399 OA
HETATM   18  H   UNL     1     -41.896 -49.100   8.994  1.00  0.00     0.209 HD
ENDBRANCH  16  17
ENDBRANCH  15  16
ENDBRANCH  11  15
TORSDOF 3
ENDMDL
MODEL 9
REMARK VINA RESULT:      -4.2      1.867      4.587
REMARK  3 active torsions:
REMARK  status: ('A' for Active; 'I' for Inactive)
REMARK    1  A    between atoms: N_11  and  C_12 
REMARK    2  A    between atoms: C_12  and  C_13 
REMARK    3  A    between atoms: C_13  and  O_14 
ROOT
HETATM    1  C   UNL     1     -43.551 -53.683  18.181  1.00  0.00     0.164 C 
HETATM    2  N   UNL     1     -43.444 -53.762  16.737  1.00  0.00    -0.269 N 
HETATM    3  C   UNL     1     -44.569 -54.191  16.006  1.00  0.00     0.332 A 
HETATM    4  O   UNL     1     -45.626 -54.492  16.568  1.00  0.00    -0.246 OA
HETATM    5  N   UNL     1     -44.435 -54.262  14.617  1.00  0.00    -0.287 N 
HETATM    6  C   UNL     1     -45.546 -54.694  13.788  1.00  0.00     0.163 C 
HETATM    7  C   UNL     1     -43.241 -53.910  14.037  1.00  0.00     0.145 A 
HETATM    8  N   UNL     1     -42.963 -53.927  12.704  1.00  0.00    -0.336 N 
ATOM      9  HN  UNL     1     -43.580 -54.205  11.940  1.00  0.00     0.168 HD
HETATM   10  C   UNL     1     -41.719 -53.504  12.622  1.00  0.00     0.185 A 
HETATM   11  N   UNL     1     -41.193 -53.232  13.860  1.00  0.00    -0.333 N 
HETATM   12  C   UNL     1     -42.173 -53.496  14.775  1.00  0.00     0.149 A 
HETATM   13  C   UNL     1     -42.203 -53.408  16.192  1.00  0.00     0.282 A 
HETATM   14  O   UNL     1     -41.231 -53.069  16.862  1.00  0.00    -0.265 OA
ENDROOT
BRANCH  11  15
HETATM   15  C   UNL     1     -39.850 -52.743  14.107  1.00  0.00     0.156 C 
BRANCH  15  16
HETATM   16  C   UNL     1     -38.878 -53.863  14.458  1.00  0.00     0.184 C 
BRANCH  16  17
HETATM   17  O   UNL     1     -38.720 -54.763  13.363  1.00  0.00    -0.399 OA
HETATM   18  H   UNL     1     -39.001 -55.648  13.663  1.00  0.00     0.209 HD
ENDBRANCH  16  17
ENDBRANCH  15  16
ENDBRANCH  11  15
TORSDOF 3
ENDMDL
