MODEL 1
REMARK VINA RESULT:      -7.1      0.000      0.000
REMARK  6 active torsions:
REMARK  status: ('A' for Active; 'I' for Inactive)
REMARK    1  A    between atoms: N_7  and  C_8 
REMARK    2  A    between atoms: C_8  and  C_9 
REMARK    3  A    between atoms: C_9  and  N_10 
REMARK       I    between atoms: N_10  and  C_11 
REMARK    4  A    between atoms: C_11  and  C_13 
REMARK    5  A    between atoms: C_13  and  N_14 
REMARK    6  A    between atoms: C_16  and  C_21 
ROOT
HETATM    1  N   UNL     1     -41.735 -50.100  11.603  1.00  0.00    -0.358 N 
HETATM    2  C   UNL     1     -42.107 -48.774  11.604  1.00  0.00     0.235 C 
HETATM    3  O   UNL     1     -42.666 -48.228  12.556  1.00  0.00    -0.272 OA
HETATM    4  H   UNL     1     -41.450 -50.545  10.731  1.00  0.00     0.162 HD
ENDROOT
BRANCH   2   5
HETATM    5  C   UNL     1     -41.839 -48.023  10.303  1.00  0.00     0.234 C 
BRANCH   5   6
HETATM    6  N   UNL     1     -43.046 -47.327   9.874  1.00  0.00    -0.315 N 
HETATM    7  C   UNL     1     -44.209 -48.047   9.646  1.00  0.00     0.110 A 
HETATM    8  C   UNL     1     -45.326 -47.459   9.183  1.00  0.00     0.063 A 
HETATM    9  C   UNL     1     -45.302 -46.028   8.931  1.00  0.00     0.023 A 
HETATM   10  C   UNL     1     -44.188 -45.309   9.126  1.00  0.00     0.075 A 
HETATM   11  C   UNL     1     -42.947 -45.965   9.608  1.00  0.00     0.247 A 
HETATM   12  O   UNL     1     -41.918 -45.307   9.744  1.00  0.00    -0.268 OA
BRANCH   8  13
HETATM   13  C   UNL     1     -46.577 -48.245   8.899  1.00  0.00     0.418 C 
HETATM   14  F   UNL     1     -46.599 -48.767   7.644  1.00  0.00    -0.166 F 
HETATM   15  F   UNL     1     -46.724 -49.286   9.755  1.00  0.00    -0.166 F 
HETATM   16  F   UNL     1     -47.689 -47.476   9.020  1.00  0.00    -0.166 F 
ENDBRANCH   8  13
ENDBRANCH   5   6
ENDBRANCH   2   5
BRANCH   1  17
HETATM   17  C   UNL     1     -41.865 -50.940  12.779  1.00  0.00     0.152 C 
BRANCH  17  18
HETATM   18  C   UNL     1     -43.087 -51.880  12.728  1.00  0.00     0.292 C 
BRANCH  18  19
HETATM   19  N   UNL     1     -44.289 -51.404  13.447  1.00  0.00     0.094 N 
HETATM   20  C   UNL     1     -44.121 -51.488  14.920  1.00  0.00     0.219 C 
HETATM   21  C   UNL     1     -43.808 -52.892  15.472  1.00  0.00     0.043 C 
HETATM   22  C   UNL     1     -45.351 -50.894  15.633  1.00  0.00     0.035 C 
HETATM   23  C   UNL     1     -46.655 -51.541  15.179  1.00  0.00     0.004 C 
HETATM   24  C   UNL     1     -46.762 -51.486  13.663  1.00  0.00     0.030 C 
HETATM   25  C   UNL     1     -45.518 -52.063  12.986  1.00  0.00     0.273 C 
ENDBRANCH  18  19
ENDBRANCH  17  18
ENDBRANCH   1  17
TORSDOF 6
ENDMDL
MODEL 2
REMARK VINA RESULT:      -7.0      1.141      1.834
REMARK  6 active torsions:
REMARK  status: ('A' for Active; 'I' for Inactive)
REMARK    1  A    between atoms: N_7  and  C_8 
REMARK    2  A    between atoms: C_8  and  C_9 
REMARK    3  A    between atoms: C_9  and  N_10 
REMARK       I    between atoms: N_10  and  C_11 
REMARK    4  A    between atoms: C_11  and  C_13 
REMARK    5  A    between atoms: C_13  and  N_14 
REMARK    6  A    between atoms: C_16  and  C_21 
ROOT
HETATM    1  N   UNL     1     -42.104 -50.093  11.704  1.00  0.00    -0.358 N 
HETATM    2  C   UNL     1     -42.286 -48.732  11.819  1.00  0.00     0.235 C 
HETATM    3  O   UNL     1     -42.772 -48.196  12.815  1.00  0.00    -0.272 OA
HETATM    4  H   UNL     1     -41.875 -50.497  10.797  1.00  0.00     0.162 HD
ENDROOT
BRANCH   2   5
HETATM    5  C   UNL     1     -41.900 -47.918  10.587  1.00  0.00     0.234 C 
BRANCH   5   6
HETATM    6  N   UNL     1     -43.077 -47.247  10.049  1.00  0.00    -0.315 N 
HETATM    7  C   UNL     1     -44.225 -47.979   9.786  1.00  0.00     0.110 A 
HETATM    8  C   UNL     1     -45.309 -47.416   9.225  1.00  0.00     0.063 A 
HETATM    9  C   UNL     1     -45.266 -46.000   8.901  1.00  0.00     0.023 A 
HETATM   10  C   UNL     1     -44.165 -45.271   9.128  1.00  0.00     0.075 A 
HETATM   11  C   UNL     1     -42.958 -45.900   9.720  1.00  0.00     0.247 A 
HETATM   12  O   UNL     1     -41.938 -45.235   9.885  1.00  0.00    -0.268 OA
BRANCH   8  13
HETATM   13  C   UNL     1     -46.542 -48.216   8.904  1.00  0.00     0.418 C 
HETATM   14  F   UNL     1     -46.524 -48.734   7.648  1.00  0.00    -0.166 F 
HETATM   15  F   UNL     1     -46.699 -49.263   9.753  1.00  0.00    -0.166 F 
HETATM   16  F   UNL     1     -47.667 -47.462   8.999  1.00  0.00    -0.166 F 
ENDBRANCH   8  13
ENDBRANCH   5   6
ENDBRANCH   2   5
BRANCH   1  17
HETATM   17  C   UNL     1     -42.364 -51.003  12.804  1.00  0.00     0.152 C 
BRANCH  17  18
HETATM   18  C   UNL     1     -42.622 -52.454  12.349  1.00  0.00     0.292 C 
BRANCH  18  19
HETATM   19  N   UNL     1     -43.269 -53.331  13.349  1.00  0.00     0.094 N 
HETATM   20  C   UNL     1     -44.579 -53.842  12.872  1.00  0.00     0.219 C 
HETATM   21  C   UNL     1     -45.615 -52.764  12.501  1.00  0.00     0.043 C 
HETATM   22  C   UNL     1     -45.173 -54.827  13.897  1.00  0.00     0.035 C 
HETATM   23  C   UNL     1     -45.283 -54.220  15.292  1.00  0.00     0.004 C 
HETATM   24  C   UNL     1     -43.936 -53.656  15.720  1.00  0.00     0.030 C 
HETATM   25  C   UNL     1     -43.363 -52.700  14.673  1.00  0.00     0.273 C 
ENDBRANCH  18  19
ENDBRANCH  17  18
ENDBRANCH   1  17
TORSDOF 6
ENDMDL
MODEL 3
REMARK VINA RESULT:      -6.8      1.590      2.449
REMARK  6 active torsions:
REMARK  status: ('A' for Active; 'I' for Inactive)
REMARK    1  A    between atoms: N_7  and  C_8 
REMARK    2  A    between atoms: C_8  and  C_9 
REMARK    3  A    between atoms: C_9  and  N_10 
REMARK       I    between atoms: N_10  and  C_11 
REMARK    4  A    between atoms: C_11  and  C_13 
REMARK    5  A    between atoms: C_13  and  N_14 
REMARK    6  A    between atoms: C_16  and  C_21 
ROOT
HETATM    1  N   UNL     1     -41.701 -51.311  11.754  1.00  0.00    -0.358 N 
HETATM    2  C   UNL     1     -41.351 -50.018  12.074  1.00  0.00     0.235 C 
HETATM    3  O   UNL     1     -41.576 -49.508  13.172  1.00  0.00    -0.272 OA
HETATM    4  H   UNL     1     -41.663 -51.620  10.784  1.00  0.00     0.162 HD
ENDROOT
BRANCH   2   5
HETATM    5  C   UNL     1     -40.713 -49.218  10.942  1.00  0.00     0.234 C 
BRANCH   5   6
HETATM    6  N   UNL     1     -41.454 -47.982  10.729  1.00  0.00    -0.315 N 
HETATM    7  C   UNL     1     -42.696 -48.023  10.112  1.00  0.00     0.110 A 
HETATM    8  C   UNL     1     -43.385 -46.903   9.833  1.00  0.00     0.063 A 
HETATM    9  C   UNL     1     -42.805 -45.623  10.202  1.00  0.00     0.023 A 
HETATM   10  C   UNL     1     -41.599 -45.551  10.782  1.00  0.00     0.075 A 
HETATM   11  C   UNL     1     -40.827 -46.786  11.064  1.00  0.00     0.247 A 
HETATM   12  O   UNL     1     -39.705 -46.709  11.558  1.00  0.00    -0.268 OA
BRANCH   8  13
HETATM   13  C   UNL     1     -44.714 -46.944   9.130  1.00  0.00     0.418 C 
HETATM   14  F   UNL     1     -45.720 -47.394   9.925  1.00  0.00    -0.166 F 
HETATM   15  F   UNL     1     -45.089 -45.717   8.688  1.00  0.00    -0.166 F 
HETATM   16  F   UNL     1     -44.681 -47.759   8.045  1.00  0.00    -0.166 F 
ENDBRANCH   8  13
ENDBRANCH   5   6
ENDBRANCH   2   5
BRANCH   1  17
HETATM   17  C   UNL     1     -42.263 -52.224  12.732  1.00  0.00     0.152 C 
BRANCH  17  18
HETATM   18  C   UNL     1     -43.744 -52.566  12.469  1.00  0.00     0.292 C 
BRANCH  18  19
HETATM   19  N   UNL     1     -44.647 -52.429  13.633  1.00  0.00     0.094 N 
HETATM   20  C   UNL     1     -46.052 -52.761  13.285  1.00  0.00     0.219 C 
HETATM   21  C   UNL     1     -46.670 -51.920  12.152  1.00  0.00     0.043 C 
HETATM   22  C   UNL     1     -46.941 -52.703  14.542  1.00  0.00     0.035 C 
HETATM   23  C   UNL     1     -46.843 -51.363  15.263  1.00  0.00     0.004 C 
HETATM   24  C   UNL     1     -45.386 -51.032  15.549  1.00  0.00     0.030 C 
HETATM   25  C   UNL     1     -44.527 -51.119  14.287  1.00  0.00     0.273 C 
ENDBRANCH  18  19
ENDBRANCH  17  18
ENDBRANCH   1  17
TORSDOF 6
ENDMDL
MODEL 4
REMARK VINA RESULT:      -6.5      5.285      7.516
REMARK  6 active torsions:
REMARK  status: ('A' for Active; 'I' for Inactive)
REMARK    1  A    between atoms: N_7  and  C_8 
REMARK    2  A    between atoms: C_8  and  C_9 
REMARK    3  A    between atoms: C_9  and  N_10 
REMARK       I    between atoms: N_10  and  C_11 
REMARK    4  A    between atoms: C_11  and  C_13 
REMARK    5  A    between atoms: C_13  and  N_14 
REMARK    6  A    between atoms: C_16  and  C_21 
ROOT
HETATM    1  N   UNL     1     -42.447 -54.116  13.523  1.00  0.00    -0.358 N 
HETATM    2  C   UNL     1     -43.181 -54.653  14.557  1.00  0.00     0.235 C 
HETATM    3  O   UNL     1     -42.688 -54.985  15.636  1.00  0.00    -0.272 OA
HETATM    4  H   UNL     1     -42.862 -54.035  12.596  1.00  0.00     0.162 HD
ENDROOT
BRANCH   2   5
HETATM    5  C   UNL     1     -44.660 -54.879  14.255  1.00  0.00     0.234 C 
BRANCH   5   6
HETATM    6  N   UNL     1     -45.376 -53.611  14.319  1.00  0.00    -0.315 N 
HETATM    7  C   UNL     1     -45.882 -53.168  15.533  1.00  0.00     0.110 A 
HETATM    8  C   UNL     1     -46.609 -52.041  15.626  1.00  0.00     0.063 A 
HETATM    9  C   UNL     1     -46.855 -51.272  14.419  1.00  0.00     0.023 A 
HETATM   10  C   UNL     1     -46.394 -51.684  13.229  1.00  0.00     0.075 A 
HETATM   11  C   UNL     1     -45.617 -52.944  13.122  1.00  0.00     0.247 A 
HETATM   12  O   UNL     1     -45.234 -53.337  12.023  1.00  0.00    -0.268 OA
BRANCH   8  13
HETATM   13  C   UNL     1     -47.190 -51.579  16.935  1.00  0.00     0.418 C 
HETATM   14  F   UNL     1     -46.558 -50.486  17.438  1.00  0.00    -0.166 F 
HETATM   15  F   UNL     1     -48.501 -51.249  16.816  1.00  0.00    -0.166 F 
HETATM   16  F   UNL     1     -47.114 -52.545  17.885  1.00  0.00    -0.166 F 
ENDBRANCH   8  13
ENDBRANCH   5   6
ENDBRANCH   2   5
BRANCH   1  17
HETATM   17  C   UNL     1     -41.041 -53.783  13.664  1.00  0.00     0.152 C 
BRANCH  17  18
HETATM   18  C   UNL     1     -40.789 -52.280  13.901  1.00  0.00     0.292 C 
BRANCH  18  19
HETATM   19  N   UNL     1     -39.759 -51.662  13.039  1.00  0.00     0.094 N 
HETATM   20  C   UNL     1     -38.437 -51.602  13.711  1.00  0.00     0.219 C 
HETATM   21  C   UNL     1     -38.406 -50.834  15.046  1.00  0.00     0.043 C 
HETATM   22  C   UNL     1     -37.371 -51.044  12.747  1.00  0.00     0.035 C 
HETATM   23  C   UNL     1     -37.766 -49.691  12.165  1.00  0.00     0.004 C 
HETATM   24  C   UNL     1     -39.149 -49.780  11.537  1.00  0.00     0.030 C 
HETATM   25  C   UNL     1     -40.177 -50.356  12.511  1.00  0.00     0.273 C 
ENDBRANCH  18  19
ENDBRANCH  17  18
ENDBRANCH   1  17
TORSDOF 6
ENDMDL
MODEL 5
REMARK VINA RESULT:      -6.5      5.095      6.861
REMARK  6 active torsions:
REMARK  status: ('A' for Active; 'I' for Inactive)
REMARK    1  A    between atoms: N_7  and  C_8 
REMARK    2  A    between atoms: C_8  and  C_9 
REMARK    3  A    between atoms: C_9  and  N_10 
REMARK       I    between atoms: N_10  and  C_11 
REMARK    4  A    between atoms: C_11  and  C_13 
REMARK    5  A    between atoms: C_13  and  N_14 
REMARK    6  A    between atoms: C_16  and  C_21 
ROOT
HETATM    1  N   UNL     1     -42.673 -54.433  13.741  1.00  0.00    -0.358 N 
HETATM    2  C   UNL     1     -43.536 -54.965  14.674  1.00  0.00     0.235 C 
HETATM    3  O   UNL     1     -43.167 -55.417  15.758  1.00  0.00    -0.272 OA
HETATM    4  H   UNL     1     -43.003 -54.248  12.795  1.00  0.00     0.162 HD
ENDROOT
BRANCH   2   5
HETATM    5  C   UNL     1     -45.001 -55.019  14.247  1.00  0.00     0.234 C 
BRANCH   5   6
HETATM    6  N   UNL     1     -45.589 -53.688  14.325  1.00  0.00    -0.315 N 
HETATM    7  C   UNL     1     -46.093 -53.229  15.533  1.00  0.00     0.110 A 
HETATM    8  C   UNL     1     -46.707 -52.038  15.636  1.00  0.00     0.063 A 
HETATM    9  C   UNL     1     -46.828 -51.215  14.445  1.00  0.00     0.023 A 
HETATM   10  C   UNL     1     -46.367 -51.639  13.260  1.00  0.00     0.075 A 
HETATM   11  C   UNL     1     -45.716 -52.967  13.141  1.00  0.00     0.247 A 
HETATM   12  O   UNL     1     -45.333 -53.367  12.044  1.00  0.00    -0.268 OA
BRANCH   8  13
HETATM   13  C   UNL     1     -47.288 -51.555  16.937  1.00  0.00     0.418 C 
HETATM   14  F   UNL     1     -48.601 -51.221  16.838  1.00  0.00    -0.166 F 
HETATM   15  F   UNL     1     -47.199 -52.497  17.910  1.00  0.00    -0.166 F 
HETATM   16  F   UNL     1     -46.640 -50.454  17.397  1.00  0.00    -0.166 F 
ENDBRANCH   8  13
ENDBRANCH   5   6
ENDBRANCH   2   5
BRANCH   1  17
HETATM   17  C   UNL     1     -41.259 -54.254  14.012  1.00  0.00     0.152 C 
BRANCH  17  18
HETATM   18  C   UNL     1     -40.858 -52.779  14.221  1.00  0.00     0.292 C 
BRANCH  18  19
HETATM   19  N   UNL     1     -41.980 -51.822  14.325  1.00  0.00     0.094 N 
HETATM   20  C   UNL     1     -41.844 -50.703  13.358  1.00  0.00     0.219 C 
HETATM   21  C   UNL     1     -40.551 -49.875  13.480  1.00  0.00     0.043 C 
HETATM   22  C   UNL     1     -43.079 -49.783  13.428  1.00  0.00     0.035 C 
HETATM   23  C   UNL     1     -43.344 -49.274  14.841  1.00  0.00     0.004 C 
HETATM   24  C   UNL     1     -43.418 -50.444  15.810  1.00  0.00     0.030 C 
HETATM   25  C   UNL     1     -42.191 -51.349  15.700  1.00  0.00     0.273 C 
ENDBRANCH  18  19
ENDBRANCH  17  18
ENDBRANCH   1  17
TORSDOF 6
ENDMDL
MODEL 6
REMARK VINA RESULT:      -6.0      3.339      7.399
REMARK  6 active torsions:
REMARK  status: ('A' for Active; 'I' for Inactive)
REMARK    1  A    between atoms: N_7  and  C_8 
REMARK    2  A    between atoms: C_8  and  C_9 
REMARK    3  A    between atoms: C_9  and  N_10 
REMARK       I    between atoms: N_10  and  C_11 
REMARK    4  A    between atoms: C_11  and  C_13 
REMARK    5  A    between atoms: C_13  and  N_14 
REMARK    6  A    between atoms: C_16  and  C_21 
ROOT
HETATM    1  N   UNL     1     -42.033 -49.705  11.402  1.00  0.00    -0.358 N 
HETATM    2  C   UNL     1     -41.686 -50.572  12.415  1.00  0.00     0.235 C 
HETATM    3  O   UNL     1     -41.379 -50.201  13.548  1.00  0.00    -0.272 OA
HETATM    4  H   UNL     1     -42.094 -50.046  10.444  1.00  0.00     0.162 HD
ENDROOT
BRANCH   2   5
HETATM    5  C   UNL     1     -41.641 -52.046  12.021  1.00  0.00     0.234 C 
BRANCH   5   6
HETATM    6  N   UNL     1     -42.660 -52.786  12.755  1.00  0.00    -0.315 N 
HETATM    7  C   UNL     1     -43.966 -52.320  12.775  1.00  0.00     0.110 A 
HETATM    8  C   UNL     1     -44.923 -52.930  13.495  1.00  0.00     0.063 A 
HETATM    9  C   UNL     1     -44.568 -54.114  14.258  1.00  0.00     0.023 A 
HETATM   10  C   UNL     1     -43.310 -54.578  14.272  1.00  0.00     0.075 A 
HETATM   11  C   UNL     1     -42.248 -53.886  13.501  1.00  0.00     0.247 A 
HETATM   12  O   UNL     1     -41.089 -54.292  13.552  1.00  0.00    -0.268 OA
BRANCH   8  13
HETATM   13  C   UNL     1     -46.332 -52.405  13.549  1.00  0.00     0.418 C 
HETATM   14  F   UNL     1     -47.173 -53.216  14.242  1.00  0.00    -0.166 F 
HETATM   15  F   UNL     1     -46.393 -51.186  14.142  1.00  0.00    -0.166 F 
HETATM   16  F   UNL     1     -46.861 -52.264  12.307  1.00  0.00    -0.166 F 
ENDBRANCH   8  13
ENDBRANCH   5   6
ENDBRANCH   2   5
BRANCH   1  17
HETATM   17  C   UNL     1     -42.181 -48.279  11.623  1.00  0.00     0.152 C 
BRANCH  17  18
HETATM   18  C   UNL     1     -40.959 -47.458  11.162  1.00  0.00     0.292 C 
BRANCH  18  19
HETATM   19  N   UNL     1     -40.662 -46.251  11.963  1.00  0.00     0.094 N 
HETATM   20  C   UNL     1     -40.542 -45.039  11.113  1.00  0.00     0.219 C 
HETATM   21  C   UNL     1     -39.468 -45.106  10.011  1.00  0.00     0.043 C 
HETATM   22  C   UNL     1     -40.332 -43.790  11.991  1.00  0.00     0.035 C 
HETATM   23  C   UNL     1     -39.141 -43.934  12.932  1.00  0.00     0.004 C 
HETATM   24  C   UNL     1     -39.272 -45.216  13.742  1.00  0.00     0.030 C 
HETATM   25  C   UNL     1     -39.501 -46.432  12.845  1.00  0.00     0.273 C 
ENDBRANCH  18  19
ENDBRANCH  17  18
ENDBRANCH   1  17
TORSDOF 6
ENDMDL
MODEL 7
REMARK VINA RESULT:      -6.0      4.366      5.475
REMARK  6 active torsions:
REMARK  status: ('A' for Active; 'I' for Inactive)
REMARK    1  A    between atoms: N_7  and  C_8 
REMARK    2  A    between atoms: C_8  and  C_9 
REMARK    3  A    between atoms: C_9  and  N_10 
REMARK       I    between atoms: N_10  and  C_11 
REMARK    4  A    between atoms: C_11  and  C_13 
REMARK    5  A    between atoms: C_13  and  N_14 
REMARK    6  A    between atoms: C_16  and  C_21 
ROOT
HETATM    1  N   UNL     1     -41.235 -53.052  14.296  1.00  0.00    -0.358 N 
HETATM    2  C   UNL     1     -39.945 -53.066  13.813  1.00  0.00     0.235 C 
HETATM    3  O   UNL     1     -39.525 -53.920  13.031  1.00  0.00    -0.272 OA
HETATM    4  H   UNL     1     -41.476 -52.442  15.076  1.00  0.00     0.162 HD
ENDROOT
BRANCH   2   5
HETATM    5  C   UNL     1     -39.032 -51.975  14.366  1.00  0.00     0.234 C 
BRANCH   5   6
HETATM    6  N   UNL     1     -38.888 -50.906  13.386  1.00  0.00    -0.315 N 
HETATM    7  C   UNL     1     -39.924 -50.003  13.198  1.00  0.00     0.110 A 
HETATM    8  C   UNL     1     -39.864 -49.044  12.258  1.00  0.00     0.063 A 
HETATM    9  C   UNL     1     -38.672 -48.957  11.431  1.00  0.00     0.023 A 
HETATM   10  C   UNL     1     -37.663 -49.827  11.578  1.00  0.00     0.075 A 
HETATM   11  C   UNL     1     -37.742 -50.903  12.597  1.00  0.00     0.247 A 
HETATM   12  O   UNL     1     -36.832 -51.721  12.697  1.00  0.00    -0.268 OA
BRANCH   8  13
HETATM   13  C   UNL     1     -41.002 -48.088  12.026  1.00  0.00     0.418 C 
HETATM   14  F   UNL     1     -41.525 -48.181  10.775  1.00  0.00    -0.166 F 
HETATM   15  F   UNL     1     -42.026 -48.303  12.891  1.00  0.00    -0.166 F 
HETATM   16  F   UNL     1     -40.613 -46.798  12.191  1.00  0.00    -0.166 F 
ENDBRANCH   8  13
ENDBRANCH   5   6
ENDBRANCH   2   5
BRANCH   1  17
HETATM   17  C   UNL     1     -42.246 -53.982  13.828  1.00  0.00     0.152 C 
BRANCH  17  18
HETATM   18  C   UNL     1     -43.429 -53.293  13.117  1.00  0.00     0.292 C 
BRANCH  18  19
HETATM   19  N   UNL     1     -44.496 -52.780  14.004  1.00  0.00     0.094 N 
HETATM   20  C   UNL     1     -45.092 -53.858  14.833  1.00  0.00     0.219 C 
HETATM   21  C   UNL     1     -45.704 -55.034  14.050  1.00  0.00     0.043 C 
HETATM   22  C   UNL     1     -46.127 -53.269  15.812  1.00  0.00     0.035 C 
HETATM   23  C   UNL     1     -47.199 -52.450  15.101  1.00  0.00     0.004 C 
HETATM   24  C   UNL     1     -46.548 -51.397  14.218  1.00  0.00     0.030 C 
HETATM   25  C   UNL     1     -45.512 -52.009  13.275  1.00  0.00     0.273 C 
ENDBRANCH  18  19
ENDBRANCH  17  18
ENDBRANCH   1  17
TORSDOF 6
ENDMDL
MODEL 8
REMARK VINA RESULT:      -5.8      3.157      6.266
REMARK  6 active torsions:
REMARK  status: ('A' for Active; 'I' for Inactive)
REMARK    1  A    between atoms: N_7  and  C_8 
REMARK    2  A    between atoms: C_8  and  C_9 
REMARK    3  A    between atoms: C_9  and  N_10 
REMARK       I    between atoms: N_10  and  C_11 
REMARK    4  A    between atoms: C_11  and  C_13 
REMARK    5  A    between atoms: C_13  and  N_14 
REMARK    6  A    between atoms: C_16  and  C_21 
ROOT
HETATM    1  N   UNL     1     -39.882 -51.640  13.359  1.00  0.00    -0.358 N 
HETATM    2  C   UNL     1     -40.873 -52.496  12.932  1.00  0.00     0.235 C 
HETATM    3  O   UNL     1     -41.200 -52.617  11.751  1.00  0.00    -0.272 OA
HETATM    4  H   UNL     1     -39.780 -51.440  14.353  1.00  0.00     0.162 HD
ENDROOT
BRANCH   2   5
HETATM    5  C   UNL     1     -41.602 -53.251  14.041  1.00  0.00     0.234 C 
BRANCH   5   6
HETATM    6  N   UNL     1     -42.685 -52.431  14.568  1.00  0.00    -0.315 N 
HETATM    7  C   UNL     1     -43.925 -52.446  13.946  1.00  0.00     0.110 A 
HETATM    8  C   UNL     1     -44.931 -51.655  14.355  1.00  0.00     0.063 A 
HETATM    9  C   UNL     1     -44.704 -50.773  15.487  1.00  0.00     0.023 A 
HETATM   10  C   UNL     1     -43.511 -50.723  16.097  1.00  0.00     0.075 A 
HETATM   11  C   UNL     1     -42.392 -51.576  15.626  1.00  0.00     0.247 A 
HETATM   12  O   UNL     1     -41.290 -51.494  16.164  1.00  0.00    -0.268 OA
BRANCH   8  13
HETATM   13  C   UNL     1     -46.264 -51.643  13.657  1.00  0.00     0.418 C 
HETATM   14  F   UNL     1     -47.223 -50.984  14.359  1.00  0.00    -0.166 F 
HETATM   15  F   UNL     1     -46.192 -51.043  12.442  1.00  0.00    -0.166 F 
HETATM   16  F   UNL     1     -46.730 -52.900  13.447  1.00  0.00    -0.166 F 
ENDBRANCH   8  13
ENDBRANCH   5   6
ENDBRANCH   2   5
BRANCH   1  17
HETATM   17  C   UNL     1     -39.053 -50.893  12.431  1.00  0.00     0.152 C 
BRANCH  17  18
HETATM   18  C   UNL     1     -39.464 -49.413  12.299  1.00  0.00     0.292 C 
BRANCH  18  19
HETATM   19  N   UNL     1     -40.851 -49.174  11.843  1.00  0.00     0.094 N 
HETATM   20  C   UNL     1     -40.915 -48.128  10.791  1.00  0.00     0.219 C 
HETATM   21  C   UNL     1     -40.343 -46.754  11.186  1.00  0.00     0.043 C 
HETATM   22  C   UNL     1     -42.359 -47.979  10.273  1.00  0.00     0.035 C 
HETATM   23  C   UNL     1     -43.354 -47.706  11.396  1.00  0.00     0.004 C 
HETATM   24  C   UNL     1     -43.217 -48.764  12.480  1.00  0.00     0.030 C 
HETATM   25  C   UNL     1     -41.771 -48.903  12.957  1.00  0.00     0.273 C 
ENDBRANCH  18  19
ENDBRANCH  17  18
ENDBRANCH   1  17
TORSDOF 6
ENDMDL
MODEL 9
REMARK VINA RESULT:      -5.8      2.061      3.259
REMARK  6 active torsions:
REMARK  status: ('A' for Active; 'I' for Inactive)
REMARK    1  A    between atoms: N_7  and  C_8 
REMARK    2  A    between atoms: C_8  and  C_9 
REMARK    3  A    between atoms: C_9  and  N_10 
REMARK       I    between atoms: N_10  and  C_11 
REMARK    4  A    between atoms: C_11  and  C_13 
REMARK    5  A    between atoms: C_13  and  N_14 
REMARK    6  A    between atoms: C_16  and  C_21 
ROOT
HETATM    1  N   UNL     1     -43.445 -49.672  13.483  1.00  0.00    -0.358 N 
HETATM    2  C   UNL     1     -42.671 -49.129  12.480  1.00  0.00     0.235 C 
HETATM    3  O   UNL     1     -41.910 -49.794  11.777  1.00  0.00    -0.272 OA
HETATM    4  H   UNL     1     -43.910 -49.059  14.151  1.00  0.00     0.162 HD
ENDROOT
BRANCH   2   5
HETATM    5  C   UNL     1     -42.769 -47.613  12.334  1.00  0.00     0.234 C 
BRANCH   5   6
HETATM    6  N   UNL     1     -43.316 -47.276  11.026  1.00  0.00    -0.315 N 
HETATM    7  C   UNL     1     -44.545 -47.792  10.642  1.00  0.00     0.110 A 
HETATM    8  C   UNL     1     -45.057 -47.565   9.420  1.00  0.00     0.063 A 
HETATM    9  C   UNL     1     -44.295 -46.748   8.490  1.00  0.00     0.023 A 
HETATM   10  C   UNL     1     -43.097 -46.251   8.826  1.00  0.00     0.075 A 
HETATM   11  C   UNL     1     -42.520 -46.526  10.166  1.00  0.00     0.247 A 
HETATM   12  O   UNL     1     -41.403 -46.102  10.451  1.00  0.00    -0.268 OA
BRANCH   8  13
HETATM   13  C   UNL     1     -46.372 -48.155   8.988  1.00  0.00     0.418 C 
HETATM   14  F   UNL     1     -46.747 -49.220   9.744  1.00  0.00    -0.166 F 
HETATM   15  F   UNL     1     -47.380 -47.251   9.065  1.00  0.00    -0.166 F 
HETATM   16  F   UNL     1     -46.328 -48.587   7.701  1.00  0.00    -0.166 F 
ENDBRANCH   8  13
ENDBRANCH   5   6
ENDBRANCH   2   5
BRANCH   1  17
HETATM   17  C   UNL     1     -43.514 -51.103  13.716  1.00  0.00     0.152 C 
BRANCH  17  18
HETATM   18  C   UNL     1     -42.827 -51.543  15.025  1.00  0.00     0.292 C 
BRANCH  18  19
HETATM   19  N   UNL     1     -41.793 -52.591  14.882  1.00  0.00     0.094 N 
HETATM   20  C   UNL     1     -40.507 -52.188  15.504  1.00  0.00     0.219 C 
HETATM   21  C   UNL     1     -39.887 -50.887  14.959  1.00  0.00     0.043 C 
HETATM   22  C   UNL     1     -39.489 -53.342  15.421  1.00  0.00     0.035 C 
HETATM   23  C   UNL     1     -39.290 -53.841  13.994  1.00  0.00     0.004 C 
HETATM   24  C   UNL     1     -40.634 -54.188  13.373  1.00  0.00     0.030 C 
HETATM   25  C   UNL     1     -41.628 -53.032  13.490  1.00  0.00     0.273 C 
ENDBRANCH  18  19
ENDBRANCH  17  18
ENDBRANCH   1  17
TORSDOF 6
ENDMDL
