MODEL 1
REMARK VINA RESULT:      -6.7      0.000      0.000
REMARK  6 active torsions:
REMARK  status: ('A' for Active; 'I' for Inactive)
REMARK    1  A    between atoms: N_6  and  C_7 
REMARK    2  A    between atoms: C_7  and  C_8 
REMARK    3  A    between atoms: C_8  and  O_9 
REMARK    4  A    between atoms: C_8  and  C_10 
REMARK    5  A    between atoms: C_10  and  O_11 
REMARK    6  A    between atoms: O_11  and  C_12 
ROOT
HETATM    1  C   UNL     1     -44.364 -51.216  13.630  1.00  0.00     0.069 A 
HETATM    2  C   UNL     1     -45.658 -51.536  13.215  1.00  0.00     0.038 A 
HETATM    3  C   UNL     1     -46.708 -51.562  14.141  1.00  0.00     0.025 A 
HETATM    4  C   UNL     1     -46.470 -51.270  15.487  1.00  0.00     0.044 A 
HETATM    5  C   UNL     1     -47.549 -51.297  16.430  1.00  0.00     0.099 C 
HETATM    6  N   UNL     1     -48.426 -51.324  17.189  1.00  0.00    -0.191 NA
HETATM    7  C   UNL     1     -45.175 -50.953  15.906  1.00  0.00     0.025 A 
HETATM    8  C   UNL     1     -44.129 -50.926  14.978  1.00  0.00     0.038 A 
ENDROOT
BRANCH   1   9
HETATM    9  O   UNL     1     -43.255 -51.161  12.833  1.00  0.00    -0.349 OA
BRANCH   9  10
HETATM   10  C   UNL     1     -42.555 -52.388  12.611  1.00  0.00     0.209 C 
BRANCH  10  11
HETATM   11  C   UNL     1     -41.234 -52.100  11.877  1.00  0.00     0.161 C 
BRANCH  11  12
HETATM   12  C   UNL     1     -40.303 -51.286  12.795  1.00  0.00     0.166 C 
BRANCH  12  13
HETATM   13  N   UNL     1     -40.179 -49.888  12.399  1.00  0.00    -0.307 N 
HETATM   14  C   UNL     1     -40.616 -49.472  11.172  1.00  0.00     0.186 A 
HETATM   15  N   UNL     1     -40.569 -48.259  10.741  1.00  0.00    -0.355 N 
HETATM   16  C   UNL     1     -40.026 -47.312  11.576  1.00  0.00     0.017 A 
ATOM     17  HN  UNL     1     -40.921 -48.011   9.817  1.00  0.00     0.166 HD
HETATM   18  C   UNL     1     -40.009 -45.916  11.006  1.00  0.00     0.069 C 
HETATM   19  C   UNL     1     -39.539 -47.580  12.803  1.00  0.00     0.028 A 
HETATM   20  C   UNL     1     -39.607 -48.989  13.277  1.00  0.00     0.256 A 
HETATM   21  C   UNL     1     -38.948 -46.555  13.720  1.00  0.00     0.056 C 
HETATM   22  O   UNL     1     -39.196 -49.312  14.391  1.00  0.00    -0.267 OA
ENDBRANCH  12  13
ENDBRANCH  11  12
BRANCH  11  23
HETATM   23  O   UNL     1     -40.625 -53.334  11.477  1.00  0.00    -0.392 OA
HETATM   24  H   UNL     1     -40.932 -53.567  10.580  1.00  0.00     0.210 HD
ENDBRANCH  11  23
ENDBRANCH  10  11
ENDBRANCH   9  10
ENDBRANCH   1   9
TORSDOF 6
ENDMDL
MODEL 2
REMARK VINA RESULT:      -6.4      3.763      5.330
REMARK  6 active torsions:
REMARK  status: ('A' for Active; 'I' for Inactive)
REMARK    1  A    between atoms: N_6  and  C_7 
REMARK    2  A    between atoms: C_7  and  C_8 
REMARK    3  A    between atoms: C_8  and  O_9 
REMARK    4  A    between atoms: C_8  and  C_10 
REMARK    5  A    between atoms: C_10  and  O_11 
REMARK    6  A    between atoms: O_11  and  C_12 
ROOT
HETATM    1  C   UNL     1     -44.222 -51.358  13.738  1.00  0.00     0.069 A 
HETATM    2  C   UNL     1     -45.444 -51.929  13.377  1.00  0.00     0.038 A 
HETATM    3  C   UNL     1     -46.522 -51.907  14.270  1.00  0.00     0.025 A 
HETATM    4  C   UNL     1     -46.385 -51.316  15.529  1.00  0.00     0.044 A 
HETATM    5  C   UNL     1     -47.493 -51.297  16.438  1.00  0.00     0.099 C 
HETATM    6  N   UNL     1     -48.392 -51.286  17.171  1.00  0.00    -0.191 NA
HETATM    7  C   UNL     1     -45.161 -50.749  15.895  1.00  0.00     0.025 A 
HETATM    8  C   UNL     1     -44.088 -50.770  15.001  1.00  0.00     0.038 A 
ENDROOT
BRANCH   1   9
HETATM    9  O   UNL     1     -43.095 -51.318  12.967  1.00  0.00    -0.349 OA
BRANCH   9  10
HETATM   10  C   UNL     1     -42.762 -52.503  12.241  1.00  0.00     0.209 C 
BRANCH  10  11
HETATM   11  C   UNL     1     -41.451 -53.091  12.790  1.00  0.00     0.161 C 
BRANCH  11  12
HETATM   12  C   UNL     1     -41.767 -54.301  13.690  1.00  0.00     0.166 C 
BRANCH  12  13
HETATM   13  N   UNL     1     -42.155 -53.927  15.045  1.00  0.00    -0.307 N 
HETATM   14  C   UNL     1     -41.317 -53.183  15.828  1.00  0.00     0.186 A 
HETATM   15  N   UNL     1     -41.579 -52.787  17.026  1.00  0.00    -0.355 N 
HETATM   16  C   UNL     1     -42.789 -53.151  17.561  1.00  0.00     0.017 A 
ATOM     17  HN  UNL     1     -40.912 -52.225  17.555  1.00  0.00     0.166 HD
HETATM   18  C   UNL     1     -43.027 -52.649  18.963  1.00  0.00     0.069 C 
HETATM   19  C   UNL     1     -43.706 -53.898  16.914  1.00  0.00     0.028 A 
HETATM   20  C   UNL     1     -43.379 -54.340  15.532  1.00  0.00     0.256 A 
HETATM   21  C   UNL     1     -45.029 -54.298  17.489  1.00  0.00     0.056 C 
HETATM   22  O   UNL     1     -44.169 -55.013  14.870  1.00  0.00    -0.267 OA
ENDBRANCH  12  13
ENDBRANCH  11  12
BRANCH  11  23
HETATM   23  O   UNL     1     -40.594 -53.459  11.702  1.00  0.00    -0.392 OA
HETATM   24  H   UNL     1     -40.832 -52.935  10.914  1.00  0.00     0.210 HD
ENDBRANCH  11  23
ENDBRANCH  10  11
ENDBRANCH   9  10
ENDBRANCH   1   9
TORSDOF 6
ENDMDL
MODEL 3
REMARK VINA RESULT:      -6.4      3.372      5.256
REMARK  6 active torsions:
REMARK  status: ('A' for Active; 'I' for Inactive)
REMARK    1  A    between atoms: N_6  and  C_7 
REMARK    2  A    between atoms: C_7  and  C_8 
REMARK    3  A    between atoms: C_8  and  O_9 
REMARK    4  A    between atoms: C_8  and  C_10 
REMARK    5  A    between atoms: C_10  and  O_11 
REMARK    6  A    between atoms: O_11  and  C_12 
ROOT
HETATM    1  C   UNL     1     -44.484 -51.501  13.481  1.00  0.00     0.069 A 
HETATM    2  C   UNL     1     -45.829 -51.487  13.105  1.00  0.00     0.038 A 
HETATM    3  C   UNL     1     -46.832 -51.435  14.081  1.00  0.00     0.025 A 
HETATM    4  C   UNL     1     -46.497 -51.399  15.437  1.00  0.00     0.044 A 
HETATM    5  C   UNL     1     -47.529 -51.346  16.431  1.00  0.00     0.099 C 
HETATM    6  N   UNL     1     -48.368 -51.305  17.231  1.00  0.00    -0.191 NA
HETATM    7  C   UNL     1     -45.152 -51.418  15.816  1.00  0.00     0.025 A 
HETATM    8  C   UNL     1     -44.153 -51.468  14.840  1.00  0.00     0.038 A 
ENDROOT
BRANCH   1   9
HETATM    9  O   UNL     1     -43.413 -51.557  12.634  1.00  0.00    -0.349 OA
BRANCH   9  10
HETATM   10  C   UNL     1     -42.115 -51.457  13.222  1.00  0.00     0.209 C 
BRANCH  10  11
HETATM   11  C   UNL     1     -41.170 -52.474  12.559  1.00  0.00     0.161 C 
BRANCH  11  12
HETATM   12  C   UNL     1     -41.549 -53.897  13.010  1.00  0.00     0.166 C 
BRANCH  12  13
HETATM   13  N   UNL     1     -40.695 -54.413  14.074  1.00  0.00    -0.307 N 
HETATM   14  C   UNL     1     -39.370 -54.660  13.843  1.00  0.00     0.186 A 
HETATM   15  N   UNL     1     -38.533 -55.095  14.721  1.00  0.00    -0.355 N 
HETATM   16  C   UNL     1     -39.013 -55.340  15.984  1.00  0.00     0.017 A 
ATOM     17  HN  UNL     1     -37.553 -55.250  14.487  1.00  0.00     0.166 HD
HETATM   18  C   UNL     1     -37.976 -55.841  16.958  1.00  0.00     0.069 C 
HETATM   19  C   UNL     1     -40.297 -55.161  16.350  1.00  0.00     0.028 A 
HETATM   20  C   UNL     1     -41.242 -54.656  15.317  1.00  0.00     0.256 A 
HETATM   21  C   UNL     1     -40.829 -55.423  17.725  1.00  0.00     0.056 C 
HETATM   22  O   UNL     1     -42.428 -54.453  15.577  1.00  0.00    -0.267 OA
ENDBRANCH  12  13
ENDBRANCH  11  12
BRANCH  11  23
HETATM   23  O   UNL     1     -41.240 -52.342  11.134  1.00  0.00    -0.392 OA
HETATM   24  H   UNL     1     -42.176 -52.280  10.863  1.00  0.00     0.210 HD
ENDBRANCH  11  23
ENDBRANCH  10  11
ENDBRANCH   9  10
ENDBRANCH   1   9
TORSDOF 6
ENDMDL
MODEL 4
REMARK VINA RESULT:      -6.3      3.553      5.704
REMARK  6 active torsions:
REMARK  status: ('A' for Active; 'I' for Inactive)
REMARK    1  A    between atoms: N_6  and  C_7 
REMARK    2  A    between atoms: C_7  and  C_8 
REMARK    3  A    between atoms: C_8  and  O_9 
REMARK    4  A    between atoms: C_8  and  C_10 
REMARK    5  A    between atoms: C_10  and  O_11 
REMARK    6  A    between atoms: O_11  and  C_12 
ROOT
HETATM    1  C   UNL     1     -44.986 -51.817  15.794  1.00  0.00     0.069 A 
HETATM    2  C   UNL     1     -44.903 -50.888  14.755  1.00  0.00     0.038 A 
HETATM    3  C   UNL     1     -43.708 -50.193  14.527  1.00  0.00     0.025 A 
HETATM    4  C   UNL     1     -42.592 -50.422  15.337  1.00  0.00     0.044 A 
HETATM    5  C   UNL     1     -41.373 -49.708  15.098  1.00  0.00     0.099 C 
HETATM    6  N   UNL     1     -40.389 -49.125  14.902  1.00  0.00    -0.191 NA
HETATM    7  C   UNL     1     -42.675 -51.348  16.381  1.00  0.00     0.025 A 
HETATM    8  C   UNL     1     -43.868 -52.041  16.604  1.00  0.00     0.038 A 
ENDROOT
BRANCH   1   9
HETATM    9  O   UNL     1     -46.089 -52.554  16.126  1.00  0.00    -0.349 OA
BRANCH   9  10
HETATM   10  C   UNL     1     -45.974 -53.975  16.025  1.00  0.00     0.209 C 
BRANCH  10  11
HETATM   11  C   UNL     1     -46.388 -54.425  14.614  1.00  0.00     0.161 C 
BRANCH  11  12
HETATM   12  C   UNL     1     -45.251 -55.253  13.985  1.00  0.00     0.166 C 
BRANCH  12  13
HETATM   13  N   UNL     1     -44.134 -54.440  13.518  1.00  0.00    -0.307 N 
HETATM   14  C   UNL     1     -44.284 -53.604  12.446  1.00  0.00     0.186 A 
HETATM   15  N   UNL     1     -43.366 -52.834  11.973  1.00  0.00    -0.355 N 
HETATM   16  C   UNL     1     -42.138 -52.864  12.587  1.00  0.00     0.017 A 
ATOM     17  HN  UNL     1     -43.544 -52.225  11.175  1.00  0.00     0.166 HD
HETATM   18  C   UNL     1     -41.116 -51.933  11.983  1.00  0.00     0.069 C 
HETATM   19  C   UNL     1     -41.841 -53.651  13.640  1.00  0.00     0.028 A 
HETATM   20  C   UNL     1     -42.920 -54.530  14.167  1.00  0.00     0.256 A 
HETATM   21  C   UNL     1     -40.506 -53.689  14.317  1.00  0.00     0.056 C 
HETATM   22  O   UNL     1     -42.731 -55.267  15.134  1.00  0.00    -0.267 OA
ENDBRANCH  12  13
ENDBRANCH  11  12
BRANCH  11  23
HETATM   23  O   UNL     1     -47.605 -55.178  14.684  1.00  0.00    -0.392 OA
HETATM   24  H   UNL     1     -47.600 -55.862  13.988  1.00  0.00     0.210 HD
ENDBRANCH  11  23
ENDBRANCH  10  11
ENDBRANCH   9  10
ENDBRANCH   1   9
TORSDOF 6
ENDMDL
MODEL 5
REMARK VINA RESULT:      -6.3      4.747      5.766
REMARK  6 active torsions:
REMARK  status: ('A' for Active; 'I' for Inactive)
REMARK    1  A    between atoms: N_6  and  C_7 
REMARK    2  A    between atoms: C_7  and  C_8 
REMARK    3  A    between atoms: C_8  and  O_9 
REMARK    4  A    between atoms: C_8  and  C_10 
REMARK    5  A    between atoms: C_10  and  O_11 
REMARK    6  A    between atoms: O_11  and  C_12 
ROOT
HETATM    1  C   UNL     1     -46.759 -51.344  15.986  1.00  0.00     0.069 A 
HETATM    2  C   UNL     1     -45.632 -50.678  16.470  1.00  0.00     0.038 A 
HETATM    3  C   UNL     1     -45.713 -49.922  17.646  1.00  0.00     0.025 A 
HETATM    4  C   UNL     1     -46.921 -49.825  18.343  1.00  0.00     0.044 A 
HETATM    5  C   UNL     1     -46.997 -49.050  19.546  1.00  0.00     0.099 C 
HETATM    6  N   UNL     1     -47.053 -48.419  20.517  1.00  0.00    -0.191 NA
HETATM    7  C   UNL     1     -48.052 -50.487  17.857  1.00  0.00     0.025 A 
HETATM    8  C   UNL     1     -47.967 -51.243  16.684  1.00  0.00     0.038 A 
ENDROOT
BRANCH   1   9
HETATM    9  O   UNL     1     -46.817 -52.106  14.853  1.00  0.00    -0.349 OA
BRANCH   9  10
HETATM   10  C   UNL     1     -46.550 -51.448  13.613  1.00  0.00     0.209 C 
BRANCH  10  11
HETATM   11  C   UNL     1     -45.979 -52.459  12.605  1.00  0.00     0.161 C 
BRANCH  11  12
HETATM   12  C   UNL     1     -45.606 -53.761  13.339  1.00  0.00     0.166 C 
BRANCH  12  13
HETATM   13  N   UNL     1     -44.169 -53.933  13.516  1.00  0.00    -0.307 N 
HETATM   14  C   UNL     1     -43.296 -53.535  12.541  1.00  0.00     0.186 A 
HETATM   15  N   UNL     1     -42.013 -53.625  12.613  1.00  0.00    -0.355 N 
HETATM   16  C   UNL     1     -41.482 -54.177  13.753  1.00  0.00     0.017 A 
ATOM     17  HN  UNL     1     -41.416 -53.300  11.853  1.00  0.00     0.166 HD
HETATM   18  C   UNL     1     -39.975 -54.246  13.768  1.00  0.00     0.069 C 
HETATM   19  C   UNL     1     -42.219 -54.630  14.786  1.00  0.00     0.028 A 
HETATM   20  C   UNL     1     -43.698 -54.511  14.677  1.00  0.00     0.256 A 
HETATM   21  C   UNL     1     -41.649 -55.229  16.033  1.00  0.00     0.056 C 
HETATM   22  O   UNL     1     -44.440 -54.889  15.584  1.00  0.00    -0.267 OA
ENDBRANCH  12  13
ENDBRANCH  11  12
BRANCH  11  23
HETATM   23  O   UNL     1     -46.938 -52.701  11.568  1.00  0.00    -0.392 OA
HETATM   24  H   UNL     1     -47.831 -52.496  11.902  1.00  0.00     0.210 HD
ENDBRANCH  11  23
ENDBRANCH  10  11
ENDBRANCH   9  10
ENDBRANCH   1   9
TORSDOF 6
ENDMDL
MODEL 6
REMARK VINA RESULT:      -6.1      2.694      4.699
REMARK  6 active torsions:
REMARK  status: ('A' for Active; 'I' for Inactive)
REMARK    1  A    between atoms: N_6  and  C_7 
REMARK    2  A    between atoms: C_7  and  C_8 
REMARK    3  A    between atoms: C_8  and  O_9 
REMARK    4  A    between atoms: C_8  and  C_10 
REMARK    5  A    between atoms: C_10  and  O_11 
REMARK    6  A    between atoms: O_11  and  C_12 
ROOT
HETATM    1  C   UNL     1     -40.359 -53.660  13.904  1.00  0.00     0.069 A 
HETATM    2  C   UNL     1     -40.855 -53.922  15.182  1.00  0.00     0.038 A 
HETATM    3  C   UNL     1     -42.198 -54.277  15.356  1.00  0.00     0.025 A 
HETATM    4  C   UNL     1     -43.053 -54.370  14.254  1.00  0.00     0.044 A 
HETATM    5  C   UNL     1     -44.427 -54.734  14.439  1.00  0.00     0.099 C 
HETATM    6  N   UNL     1     -45.538 -55.027  14.596  1.00  0.00    -0.191 NA
HETATM    7  C   UNL     1     -42.560 -54.103  12.974  1.00  0.00     0.025 A 
HETATM    8  C   UNL     1     -41.218 -53.751  12.803  1.00  0.00     0.038 A 
ENDROOT
BRANCH   1   9
HETATM    9  O   UNL     1     -39.076 -53.300  13.598  1.00  0.00    -0.349 OA
BRANCH   9  10
HETATM   10  C   UNL     1     -38.637 -52.018  14.052  1.00  0.00     0.209 C 
BRANCH  10  11
HETATM   11  C   UNL     1     -38.943 -50.958  12.980  1.00  0.00     0.161 C 
BRANCH  11  12
HETATM   12  C   UNL     1     -39.813 -49.844  13.592  1.00  0.00     0.166 C 
BRANCH  12  13
HETATM   13  N   UNL     1     -41.235 -50.169  13.616  1.00  0.00    -0.307 N 
HETATM   14  C   UNL     1     -41.951 -50.236  12.453  1.00  0.00     0.186 A 
HETATM   15  N   UNL     1     -43.202 -50.534  12.370  1.00  0.00    -0.355 N 
HETATM   16  C   UNL     1     -43.869 -50.793  13.542  1.00  0.00     0.017 A 
ATOM     17  HN  UNL     1     -43.677 -50.576  11.469  1.00  0.00     0.166 HD
HETATM   18  C   UNL     1     -45.327 -51.139  13.365  1.00  0.00     0.069 C 
HETATM   19  C   UNL     1     -43.297 -50.746  14.761  1.00  0.00     0.028 A 
HETATM   20  C   UNL     1     -41.851 -50.401  14.828  1.00  0.00     0.256 A 
HETATM   21  C   UNL     1     -44.016 -51.030  16.043  1.00  0.00     0.056 C 
HETATM   22  O   UNL     1     -41.254 -50.351  15.903  1.00  0.00    -0.267 OA
ENDBRANCH  12  13
ENDBRANCH  11  12
BRANCH  11  23
HETATM   23  O   UNL     1     -37.718 -50.434  12.455  1.00  0.00    -0.392 OA
HETATM   24  H   UNL     1     -37.194 -51.164  12.072  1.00  0.00     0.210 HD
ENDBRANCH  11  23
ENDBRANCH  10  11
ENDBRANCH   9  10
ENDBRANCH   1   9
TORSDOF 6
ENDMDL
MODEL 7
REMARK VINA RESULT:      -6.1      3.109      4.009
REMARK  6 active torsions:
REMARK  status: ('A' for Active; 'I' for Inactive)
REMARK    1  A    between atoms: N_6  and  C_7 
REMARK    2  A    between atoms: C_7  and  C_8 
REMARK    3  A    between atoms: C_8  and  O_9 
REMARK    4  A    between atoms: C_8  and  C_10 
REMARK    5  A    between atoms: C_10  and  O_11 
REMARK    6  A    between atoms: O_11  and  C_12 
ROOT
HETATM    1  C   UNL     1     -45.718 -53.147  13.588  1.00  0.00     0.069 A 
HETATM    2  C   UNL     1     -45.872 -53.801  14.812  1.00  0.00     0.038 A 
HETATM    3  C   UNL     1     -46.537 -53.167  15.869  1.00  0.00     0.025 A 
HETATM    4  C   UNL     1     -47.049 -51.876  15.709  1.00  0.00     0.044 A 
HETATM    5  C   UNL     1     -47.729 -51.233  16.795  1.00  0.00     0.099 C 
HETATM    6  N   UNL     1     -48.275 -50.717  17.678  1.00  0.00    -0.191 NA
HETATM    7  C   UNL     1     -46.892 -51.218  14.486  1.00  0.00     0.025 A 
HETATM    8  C   UNL     1     -46.230 -51.854  13.432  1.00  0.00     0.038 A 
ENDROOT
BRANCH   1   9
HETATM    9  O   UNL     1     -45.088 -53.648  12.483  1.00  0.00    -0.349 OA
BRANCH   9  10
HETATM   10  C   UNL     1     -43.856 -54.340  12.697  1.00  0.00     0.209 C 
BRANCH  10  11
HETATM   11  C   UNL     1     -42.711 -53.323  12.837  1.00  0.00     0.161 C 
BRANCH  11  12
HETATM   12  C   UNL     1     -41.390 -54.069  13.104  1.00  0.00     0.166 C 
BRANCH  12  13
HETATM   13  N   UNL     1     -40.526 -53.389  14.062  1.00  0.00    -0.307 N 
HETATM   14  C   UNL     1     -40.547 -53.735  15.385  1.00  0.00     0.186 A 
HETATM   15  N   UNL     1     -39.809 -53.209  16.300  1.00  0.00    -0.355 N 
HETATM   16  C   UNL     1     -38.942 -52.215  15.919  1.00  0.00     0.017 A 
ATOM     17  HN  UNL     1     -39.867 -53.519  17.270  1.00  0.00     0.166 HD
HETATM   18  C   UNL     1     -38.109 -51.651  17.042  1.00  0.00     0.069 C 
HETATM   19  C   UNL     1     -38.827 -51.759  14.657  1.00  0.00     0.028 A 
HETATM   20  C   UNL     1     -39.690 -52.385  13.618  1.00  0.00     0.256 A 
HETATM   21  C   UNL     1     -37.883 -50.677  14.231  1.00  0.00     0.056 C 
HETATM   22  O   UNL     1     -39.633 -52.033  12.440  1.00  0.00    -0.267 OA
ENDBRANCH  12  13
ENDBRANCH  11  12
BRANCH  11  23
HETATM   23  O   UNL     1     -42.629 -52.522  11.653  1.00  0.00    -0.392 OA
HETATM   24  H   UNL     1     -42.805 -53.082  10.873  1.00  0.00     0.210 HD
ENDBRANCH  11  23
ENDBRANCH  10  11
ENDBRANCH   9  10
ENDBRANCH   1   9
TORSDOF 6
ENDMDL
MODEL 8
REMARK VINA RESULT:      -6.1      3.558      6.216
REMARK  6 active torsions:
REMARK  status: ('A' for Active; 'I' for Inactive)
REMARK    1  A    between atoms: N_6  and  C_7 
REMARK    2  A    between atoms: C_7  and  C_8 
REMARK    3  A    between atoms: C_8  and  O_9 
REMARK    4  A    between atoms: C_8  and  C_10 
REMARK    5  A    between atoms: C_10  and  O_11 
REMARK    6  A    between atoms: O_11  and  C_12 
ROOT
HETATM    1  C   UNL     1     -44.000 -54.701  14.533  1.00  0.00     0.069 A 
HETATM    2  C   UNL     1     -43.086 -54.863  15.576  1.00  0.00     0.038 A 
HETATM    3  C   UNL     1     -41.725 -54.606  15.365  1.00  0.00     0.025 A 
HETATM    4  C   UNL     1     -41.271 -54.189  14.111  1.00  0.00     0.044 A 
HETATM    5  C   UNL     1     -39.877 -53.927  13.903  1.00  0.00     0.099 C 
HETATM    6  N   UNL     1     -38.748 -53.720  13.740  1.00  0.00    -0.191 NA
HETATM    7  C   UNL     1     -42.183 -54.030  13.065  1.00  0.00     0.025 A 
HETATM    8  C   UNL     1     -43.541 -54.285  13.278  1.00  0.00     0.038 A 
ENDROOT
BRANCH   1   9
HETATM    9  O   UNL     1     -45.346 -54.922  14.603  1.00  0.00    -0.349 OA
BRANCH   9  10
HETATM   10  C   UNL     1     -46.083 -54.153  15.556  1.00  0.00     0.209 C 
BRANCH  10  11
HETATM   11  C   UNL     1     -47.014 -53.175  14.820  1.00  0.00     0.161 C 
BRANCH  11  12
HETATM   12  C   UNL     1     -46.703 -51.734  15.267  1.00  0.00     0.166 C 
BRANCH  12  13
HETATM   13  N   UNL     1     -45.278 -51.425  15.271  1.00  0.00    -0.307 N 
HETATM   14  C   UNL     1     -44.547 -51.530  16.421  1.00  0.00     0.186 A 
HETATM   15  N   UNL     1     -43.283 -51.300  16.520  1.00  0.00    -0.355 N 
HETATM   16  C   UNL     1     -42.622 -50.906  15.383  1.00  0.00     0.017 A 
ATOM     17  HN  UNL     1     -42.794 -51.406  17.409  1.00  0.00     0.166 HD
HETATM   18  C   UNL     1     -41.146 -50.660  15.575  1.00  0.00     0.069 C 
HETATM   19  C   UNL     1     -43.215 -50.742  14.185  1.00  0.00     0.028 A 
HETATM   20  C   UNL     1     -44.675 -51.017  14.098  1.00  0.00     0.256 A 
HETATM   21  C   UNL     1     -42.502 -50.316  12.940  1.00  0.00     0.056 C 
HETATM   22  O   UNL     1     -45.287 -50.904  13.036  1.00  0.00    -0.267 OA
ENDBRANCH  12  13
ENDBRANCH  11  12
BRANCH  11  23
HETATM   23  O   UNL     1     -46.854 -53.329  13.404  1.00  0.00    -0.392 OA
HETATM   24  H   UNL     1     -46.026 -53.812  13.225  1.00  0.00     0.210 HD
ENDBRANCH  11  23
ENDBRANCH  10  11
ENDBRANCH   9  10
ENDBRANCH   1   9
TORSDOF 6
ENDMDL
MODEL 9
REMARK VINA RESULT:      -6.1      2.325      6.692
REMARK  6 active torsions:
REMARK  status: ('A' for Active; 'I' for Inactive)
REMARK    1  A    between atoms: N_6  and  C_7 
REMARK    2  A    between atoms: C_7  and  C_8 
REMARK    3  A    between atoms: C_8  and  O_9 
REMARK    4  A    between atoms: C_8  and  C_10 
REMARK    5  A    between atoms: C_10  and  O_11 
REMARK    6  A    between atoms: O_11  and  C_12 
ROOT
HETATM    1  C   UNL     1     -40.882 -49.389  11.514  1.00  0.00     0.069 A 
HETATM    2  C   UNL     1     -39.727 -48.709  11.905  1.00  0.00     0.038 A 
HETATM    3  C   UNL     1     -39.577 -47.349  11.609  1.00  0.00     0.025 A 
HETATM    4  C   UNL     1     -40.579 -46.661  10.918  1.00  0.00     0.044 A 
HETATM    5  C   UNL     1     -40.420 -45.268  10.618  1.00  0.00     0.099 C 
HETATM    6  N   UNL     1     -40.284 -44.143  10.376  1.00  0.00    -0.191 NA
HETATM    7  C   UNL     1     -41.734 -47.341  10.521  1.00  0.00     0.025 A 
HETATM    8  C   UNL     1     -41.882 -48.698  10.820  1.00  0.00     0.038 A 
ENDROOT
BRANCH   1   9
HETATM    9  O   UNL     1     -41.149 -50.711  11.733  1.00  0.00    -0.349 OA
BRANCH   9  10
HETATM   10  C   UNL     1     -40.711 -51.264  12.976  1.00  0.00     0.209 C 
BRANCH  10  11
HETATM   11  C   UNL     1     -40.489 -52.777  12.817  1.00  0.00     0.161 C 
BRANCH  11  12
HETATM   12  C   UNL     1     -41.527 -53.541  13.660  1.00  0.00     0.166 C 
BRANCH  12  13
HETATM   13  N   UNL     1     -42.876 -52.997  13.549  1.00  0.00    -0.307 N 
HETATM   14  C   UNL     1     -43.602 -53.169  12.403  1.00  0.00     0.186 A 
HETATM   15  N   UNL     1     -44.804 -52.745  12.218  1.00  0.00    -0.355 N 
HETATM   16  C   UNL     1     -45.397 -52.056  13.247  1.00  0.00     0.017 A 
ATOM     17  HN  UNL     1     -45.296 -52.914  11.340  1.00  0.00     0.166 HD
HETATM   18  C   UNL     1     -46.804 -51.595  12.959  1.00  0.00     0.069 C 
HETATM   19  C   UNL     1     -44.796 -51.795  14.424  1.00  0.00     0.028 A 
HETATM   20  C   UNL     1     -43.408 -52.298  14.613  1.00  0.00     0.256 A 
HETATM   21  C   UNL     1     -45.435 -51.047  15.552  1.00  0.00     0.056 C 
HETATM   22  O   UNL     1     -42.797 -52.112  15.665  1.00  0.00    -0.267 OA
ENDBRANCH  12  13
ENDBRANCH  11  12
BRANCH  11  23
HETATM   23  O   UNL     1     -40.575 -53.135  11.433  1.00  0.00    -0.392 OA
HETATM   24  H   UNL     1     -40.511 -54.106  11.347  1.00  0.00     0.210 HD
ENDBRANCH  11  23
ENDBRANCH  10  11
ENDBRANCH   9  10
ENDBRANCH   1   9
TORSDOF 6
ENDMDL
