MODEL 1
REMARK VINA RESULT:      -7.1      0.000      0.000
REMARK  4 active torsions:
REMARK  status: ('A' for Active; 'I' for Inactive)
REMARK    1  A    between atoms: C_4  and  C_5 
REMARK    2  A    between atoms: C_5  and  C_6 
REMARK    3  A    between atoms: C_6  and  N_7 
REMARK       I    between atoms: N_7  and  C_8 
REMARK       I    between atoms: C_8  and  N_10 
REMARK    4  A    between atoms: N_10  and  C_11 
ROOT
HETATM    1  N   UNL     1     -41.313 -49.528  10.947  1.00  0.00    -0.343 N 
HETATM    2  C   UNL     1     -41.376 -50.485  11.929  1.00  0.00     0.316 C 
HETATM    3  O   UNL     1     -41.613 -50.225  13.105  1.00  0.00    -0.247 OA
HETATM    4  N   UNL     1     -41.181 -51.746  11.448  1.00  0.00    -0.336 N 
HETATM    5  H   UNL     1     -41.682 -49.828  10.055  1.00  0.00     0.164 HD
HETATM    6  H   UNL     1     -40.626 -51.820  10.606  1.00  0.00     0.164 HD
ENDROOT
BRANCH   1   7
HETATM    7  C   UNL     1     -41.655 -48.179  11.376  1.00  0.00     0.129 C 
BRANCH   7   8
HETATM    8  C   UNL     1     -41.939 -47.193  10.250  1.00  0.00     0.061 C 
BRANCH   8   9
HETATM    9  C   UNL     1     -43.215 -47.452   9.536  1.00  0.00    -0.023 A 
HETATM   10  C   UNL     1     -44.507 -47.445  10.034  1.00  0.00     0.118 A 
HETATM   11  N   UNL     1     -45.326 -47.726   8.979  1.00  0.00    -0.308 N 
HETATM   12  C   UNL     1     -46.765 -47.821   8.997  1.00  0.00     0.177 C 
HETATM   13  N   UNL     1     -44.662 -47.920   7.827  1.00  0.00    -0.310 N 
HETATM   14  C   UNL     1     -43.386 -47.739   8.160  1.00  0.00     0.115 A 
ATOM     15  HN  UNL     1     -45.046 -48.152   6.912  1.00  0.00     0.186 HD
ENDBRANCH   8   9
ENDBRANCH   7   8
ENDBRANCH   1   7
BRANCH   4  16
HETATM   16  C   UNL     1     -41.256 -52.917  12.303  1.00  0.00     0.121 C 
HETATM   17  C   UNL     1     -40.201 -53.007  13.418  1.00  0.00     0.057 C 
HETATM   18  C   UNL     1     -40.852 -53.906  14.486  1.00  0.00     0.275 C 
HETATM   19  N   UNL     1     -42.156 -54.257  13.922  1.00  0.00     0.095 N 
HETATM   20  C   UNL     1     -43.178 -54.637  14.886  1.00  0.00     0.273 C 
HETATM   21  C   UNL     1     -42.546 -53.089  13.115  1.00  0.00     0.245 C 
HETATM   22  C   UNL     1     -44.484 -54.950  14.142  1.00  0.00     0.030 C 
HETATM   23  C   UNL     1     -44.933 -53.777  13.267  1.00  0.00     0.004 C 
HETATM   24  C   UNL     1     -43.812 -53.357  12.312  1.00  0.00     0.038 C 
ENDBRANCH   4  16
TORSDOF 4
ENDMDL
MODEL 2
REMARK VINA RESULT:      -6.9      1.760      2.628
REMARK  4 active torsions:
REMARK  status: ('A' for Active; 'I' for Inactive)
REMARK    1  A    between atoms: C_4  and  C_5 
REMARK    2  A    between atoms: C_5  and  C_6 
REMARK    3  A    between atoms: C_6  and  N_7 
REMARK       I    between atoms: N_7  and  C_8 
REMARK       I    between atoms: C_8  and  N_10 
REMARK    4  A    between atoms: N_10  and  C_11 
ROOT
HETATM    1  N   UNL     1     -41.094 -51.077  11.300  1.00  0.00    -0.343 N 
HETATM    2  C   UNL     1     -41.710 -51.803  12.289  1.00  0.00     0.316 C 
HETATM    3  O   UNL     1     -41.400 -51.719  13.474  1.00  0.00    -0.247 OA
HETATM    4  N   UNL     1     -42.716 -52.592  11.816  1.00  0.00    -0.336 N 
HETATM    5  H   UNL     1     -41.717 -50.774  10.564  1.00  0.00     0.164 HD
HETATM    6  H   UNL     1     -42.633 -52.887  10.852  1.00  0.00     0.164 HD
ENDROOT
BRANCH   1   7
HETATM    7  C   UNL     1     -40.109 -50.111  11.764  1.00  0.00     0.129 C 
BRANCH   7   8
HETATM    8  C   UNL     1     -40.666 -48.737  12.118  1.00  0.00     0.061 C 
BRANCH   8   9
HETATM    9  C   UNL     1     -41.854 -48.348  11.315  1.00  0.00    -0.023 A 
HETATM   10  C   UNL     1     -41.910 -47.900  10.007  1.00  0.00     0.118 A 
HETATM   11  N   UNL     1     -43.230 -47.693   9.728  1.00  0.00    -0.308 N 
HETATM   12  C   UNL     1     -43.795 -47.232   8.484  1.00  0.00     0.177 C 
HETATM   13  N   UNL     1     -44.041 -47.971  10.762  1.00  0.00    -0.310 N 
HETATM   14  C   UNL     1     -43.210 -48.382  11.718  1.00  0.00     0.115 A 
ATOM     15  HN  UNL     1     -45.056 -47.887  10.806  1.00  0.00     0.186 HD
ENDBRANCH   8   9
ENDBRANCH   7   8
ENDBRANCH   1   7
BRANCH   4  16
HETATM   16  C   UNL     1     -43.535 -53.407  12.695  1.00  0.00     0.121 C 
HETATM   17  C   UNL     1     -42.775 -54.337  13.655  1.00  0.00     0.057 C 
HETATM   18  C   UNL     1     -43.757 -54.566  14.819  1.00  0.00     0.275 C 
HETATM   19  N   UNL     1     -44.949 -53.802  14.447  1.00  0.00     0.095 N 
HETATM   20  C   UNL     1     -45.809 -53.399  15.550  1.00  0.00     0.273 C 
HETATM   21  C   UNL     1     -44.438 -52.654  13.679  1.00  0.00     0.245 C 
HETATM   22  C   UNL     1     -46.993 -52.591  14.999  1.00  0.00     0.030 C 
HETATM   23  C   UNL     1     -46.525 -51.391  14.172  1.00  0.00     0.004 C 
HETATM   24  C   UNL     1     -45.568 -51.840  13.064  1.00  0.00     0.038 C 
ENDBRANCH   4  16
TORSDOF 4
ENDMDL
MODEL 3
REMARK VINA RESULT:      -6.8      0.955      2.110
REMARK  4 active torsions:
REMARK  status: ('A' for Active; 'I' for Inactive)
REMARK    1  A    between atoms: C_4  and  C_5 
REMARK    2  A    between atoms: C_5  and  C_6 
REMARK    3  A    between atoms: C_6  and  N_7 
REMARK       I    between atoms: N_7  and  C_8 
REMARK       I    between atoms: C_8  and  N_10 
REMARK    4  A    between atoms: N_10  and  C_11 
ROOT
HETATM    1  N   UNL     1     -41.880 -49.520  11.298  1.00  0.00    -0.343 N 
HETATM    2  C   UNL     1     -42.477 -50.169  12.350  1.00  0.00     0.316 C 
HETATM    3  O   UNL     1     -42.816 -49.600  13.383  1.00  0.00    -0.247 OA
HETATM    4  N   UNL     1     -42.680 -51.495  12.105  1.00  0.00    -0.336 N 
HETATM    5  H   UNL     1     -42.160 -49.864  10.390  1.00  0.00     0.164 HD
HETATM    6  H   UNL     1     -42.045 -51.927  11.447  1.00  0.00     0.164 HD
ENDROOT
BRANCH   1   7
HETATM    7  C   UNL     1     -41.769 -48.076  11.445  1.00  0.00     0.129 C 
BRANCH   7   8
HETATM    8  C   UNL     1     -41.928 -47.279  10.157  1.00  0.00     0.061 C 
BRANCH   8   9
HETATM    9  C   UNL     1     -43.231 -47.497   9.476  1.00  0.00    -0.023 A 
HETATM   10  C   UNL     1     -44.509 -47.434  10.004  1.00  0.00     0.118 A 
HETATM   11  N   UNL     1     -45.363 -47.695   8.972  1.00  0.00    -0.308 N 
HETATM   12  C   UNL     1     -46.804 -47.734   9.025  1.00  0.00     0.177 C 
HETATM   13  N   UNL     1     -44.735 -47.929   7.808  1.00  0.00    -0.310 N 
HETATM   14  C   UNL     1     -43.445 -47.794   8.109  1.00  0.00     0.115 A 
ATOM     15  HN  UNL     1     -45.149 -48.157   6.904  1.00  0.00     0.186 HD
ENDBRANCH   8   9
ENDBRANCH   7   8
ENDBRANCH   1   7
BRANCH   4  16
HETATM   16  C   UNL     1     -43.344 -52.363  13.061  1.00  0.00     0.121 C 
HETATM   17  C   UNL     1     -44.523 -53.188  12.518  1.00  0.00     0.057 C 
HETATM   18  C   UNL     1     -44.609 -54.398  13.467  1.00  0.00     0.275 C 
HETATM   19  N   UNL     1     -43.538 -54.176  14.440  1.00  0.00     0.095 N 
HETATM   20  C   UNL     1     -43.040 -55.368  15.112  1.00  0.00     0.273 C 
HETATM   21  C   UNL     1     -42.487 -53.468  13.690  1.00  0.00     0.245 C 
HETATM   22  C   UNL     1     -41.912 -54.971  16.075  1.00  0.00     0.030 C 
HETATM   23  C   UNL     1     -40.794 -54.211  15.357  1.00  0.00     0.004 C 
HETATM   24  C   UNL     1     -41.360 -53.004  14.603  1.00  0.00     0.038 C 
ENDBRANCH   4  16
TORSDOF 4
ENDMDL
MODEL 4
REMARK VINA RESULT:      -6.6      2.432      3.536
REMARK  4 active torsions:
REMARK  status: ('A' for Active; 'I' for Inactive)
REMARK    1  A    between atoms: C_4  and  C_5 
REMARK    2  A    between atoms: C_5  and  C_6 
REMARK    3  A    between atoms: C_6  and  N_7 
REMARK       I    between atoms: N_7  and  C_8 
REMARK       I    between atoms: C_8  and  N_10 
REMARK    4  A    between atoms: N_10  and  C_11 
ROOT
HETATM    1  N   UNL     1     -41.112 -51.084  11.326  1.00  0.00    -0.343 N 
HETATM    2  C   UNL     1     -41.709 -51.875  12.277  1.00  0.00     0.316 C 
HETATM    3  O   UNL     1     -41.301 -51.959  13.431  1.00  0.00    -0.247 OA
HETATM    4  N   UNL     1     -42.814 -52.521  11.807  1.00  0.00    -0.336 N 
HETATM    5  H   UNL     1     -41.762 -50.646  10.688  1.00  0.00     0.164 HD
HETATM    6  H   UNL     1     -42.833 -52.702  10.812  1.00  0.00     0.164 HD
ENDROOT
BRANCH   1   7
HETATM    7  C   UNL     1     -40.013 -50.259  11.809  1.00  0.00     0.129 C 
BRANCH   7   8
HETATM    8  C   UNL     1     -40.429 -48.993  12.546  1.00  0.00     0.061 C 
BRANCH   8   9
HETATM    9  C   UNL     1     -40.546 -47.800  11.668  1.00  0.00    -0.023 A 
HETATM   10  C   UNL     1     -39.745 -46.672  11.623  1.00  0.00     0.118 A 
HETATM   11  N   UNL     1     -40.258 -45.877  10.638  1.00  0.00    -0.308 N 
HETATM   12  C   UNL     1     -39.759 -44.594  10.210  1.00  0.00     0.177 C 
HETATM   13  N   UNL     1     -41.339 -46.403  10.040  1.00  0.00    -0.310 N 
HETATM   14  C   UNL     1     -41.505 -47.574  10.652  1.00  0.00     0.115 A 
ATOM     15  HN  UNL     1     -41.902 -46.000   9.291  1.00  0.00     0.186 HD
ENDBRANCH   8   9
ENDBRANCH   7   8
ENDBRANCH   1   7
BRANCH   4  16
HETATM   16  C   UNL     1     -43.629 -53.370  12.656  1.00  0.00     0.121 C 
HETATM   17  C   UNL     1     -42.866 -54.356  13.556  1.00  0.00     0.057 C 
HETATM   18  C   UNL     1     -43.833 -54.633  14.722  1.00  0.00     0.275 C 
HETATM   19  N   UNL     1     -45.022 -53.838  14.407  1.00  0.00     0.095 N 
HETATM   20  C   UNL     1     -45.861 -53.483  15.542  1.00  0.00     0.273 C 
HETATM   21  C   UNL     1     -44.509 -52.658  13.691  1.00  0.00     0.245 C 
HETATM   22  C   UNL     1     -47.043 -52.636  15.051  1.00  0.00     0.030 C 
HETATM   23  C   UNL     1     -46.574 -51.400  14.279  1.00  0.00     0.004 C 
HETATM   24  C   UNL     1     -45.639 -51.803  13.135  1.00  0.00     0.038 C 
ENDBRANCH   4  16
TORSDOF 4
ENDMDL
MODEL 5
REMARK VINA RESULT:      -6.5      2.512      6.621
REMARK  4 active torsions:
REMARK  status: ('A' for Active; 'I' for Inactive)
REMARK    1  A    between atoms: C_4  and  C_5 
REMARK    2  A    between atoms: C_5  and  C_6 
REMARK    3  A    between atoms: C_6  and  N_7 
REMARK       I    between atoms: N_7  and  C_8 
REMARK       I    between atoms: C_8  and  N_10 
REMARK    4  A    between atoms: N_10  and  C_11 
ROOT
HETATM    1  N   UNL     1     -42.976 -52.921  12.050  1.00  0.00    -0.343 N 
HETATM    2  C   UNL     1     -42.441 -51.777  12.589  1.00  0.00     0.316 C 
HETATM    3  O   UNL     1     -42.435 -51.543  13.794  1.00  0.00    -0.247 OA
HETATM    4  N   UNL     1     -41.892 -50.958  11.647  1.00  0.00    -0.336 N 
HETATM    5  H   UNL     1     -42.465 -53.279  11.255  1.00  0.00     0.164 HD
HETATM    6  H   UNL     1     -42.280 -51.029  10.716  1.00  0.00     0.164 HD
ENDROOT
BRANCH   1   7
HETATM    7  C   UNL     1     -43.447 -53.900  13.020  1.00  0.00     0.129 C 
BRANCH   7   8
HETATM    8  C   UNL     1     -44.946 -54.168  12.994  1.00  0.00     0.061 C 
BRANCH   8   9
HETATM    9  C   UNL     1     -45.748 -53.161  13.737  1.00  0.00    -0.023 A 
HETATM   10  C   UNL     1     -46.186 -53.196  15.050  1.00  0.00     0.118 A 
HETATM   11  N   UNL     1     -46.866 -52.032  15.258  1.00  0.00    -0.308 N 
HETATM   12  C   UNL     1     -47.504 -51.604  16.479  1.00  0.00     0.177 C 
HETATM   13  N   UNL     1     -46.908 -51.240  14.174  1.00  0.00    -0.310 N 
HETATM   14  C   UNL     1     -46.218 -51.916  13.258  1.00  0.00     0.115 A 
ATOM     15  HN  UNL     1     -47.362 -50.332  14.076  1.00  0.00     0.186 HD
ENDBRANCH   8   9
ENDBRANCH   7   8
ENDBRANCH   1   7
BRANCH   4  16
HETATM   16  C   UNL     1     -41.225 -49.717  12.000  1.00  0.00     0.121 C 
HETATM   17  C   UNL     1     -39.694 -49.788  12.130  1.00  0.00     0.057 C 
HETATM   18  C   UNL     1     -39.224 -48.344  11.873  1.00  0.00     0.275 C 
HETATM   19  N   UNL     1     -40.460 -47.593  11.644  1.00  0.00     0.095 N 
HETATM   20  C   UNL     1     -40.317 -46.365  10.874  1.00  0.00     0.273 C 
HETATM   21  C   UNL     1     -41.375 -48.556  11.009  1.00  0.00     0.245 C 
HETATM   22  C   UNL     1     -41.696 -45.714  10.701  1.00  0.00     0.030 C 
HETATM   23  C   UNL     1     -42.702 -46.675  10.063  1.00  0.00     0.004 C 
HETATM   24  C   UNL     1     -42.777 -47.982  10.857  1.00  0.00     0.038 C 
ENDBRANCH   4  16
TORSDOF 4
ENDMDL
MODEL 6
REMARK VINA RESULT:      -6.4      3.208      5.480
REMARK  4 active torsions:
REMARK  status: ('A' for Active; 'I' for Inactive)
REMARK    1  A    between atoms: C_4  and  C_5 
REMARK    2  A    between atoms: C_5  and  C_6 
REMARK    3  A    between atoms: C_6  and  N_7 
REMARK       I    between atoms: N_7  and  C_8 
REMARK       I    between atoms: C_8  and  N_10 
REMARK    4  A    between atoms: N_10  and  C_11 
ROOT
HETATM    1  N   UNL     1     -41.016 -50.872  11.213  1.00  0.00    -0.343 N 
HETATM    2  C   UNL     1     -41.640 -51.561  12.223  1.00  0.00     0.316 C 
HETATM    3  O   UNL     1     -41.471 -51.308  13.412  1.00  0.00    -0.247 OA
HETATM    4  N   UNL     1     -42.484 -52.526  11.759  1.00  0.00    -0.336 N 
HETATM    5  H   UNL     1     -41.590 -50.737  10.391  1.00  0.00     0.164 HD
HETATM    6  H   UNL     1     -42.263 -52.910  10.850  1.00  0.00     0.164 HD
ENDROOT
BRANCH   1   7
HETATM    7  C   UNL     1     -40.213 -49.736  11.644  1.00  0.00     0.129 C 
BRANCH   7   8
HETATM    8  C   UNL     1     -38.708 -49.970  11.645  1.00  0.00     0.061 C 
BRANCH   8   9
HETATM    9  C   UNL     1     -38.065 -49.724  12.962  1.00  0.00    -0.023 A 
HETATM   10  C   UNL     1     -37.841 -48.521  13.609  1.00  0.00     0.118 A 
HETATM   11  N   UNL     1     -37.236 -48.829  14.793  1.00  0.00    -0.308 N 
HETATM   12  C   UNL     1     -36.815 -47.907  15.819  1.00  0.00     0.177 C 
HETATM   13  N   UNL     1     -37.045 -50.147  14.965  1.00  0.00    -0.310 N 
HETATM   14  C   UNL     1     -37.560 -50.690  13.864  1.00  0.00     0.115 A 
ATOM     15  HN  UNL     1     -36.607 -50.621  15.754  1.00  0.00     0.186 HD
ENDBRANCH   8   9
ENDBRANCH   7   8
ENDBRANCH   1   7
BRANCH   4  16
HETATM   16  C   UNL     1     -43.286 -53.343  12.652  1.00  0.00     0.121 C 
HETATM   17  C   UNL     1     -42.507 -54.199  13.665  1.00  0.00     0.057 C 
HETATM   18  C   UNL     1     -43.505 -54.427  14.816  1.00  0.00     0.275 C 
HETATM   19  N   UNL     1     -44.722 -53.734  14.387  1.00  0.00     0.095 N 
HETATM   20  C   UNL     1     -45.625 -53.330  15.455  1.00  0.00     0.273 C 
HETATM   21  C   UNL     1     -44.245 -52.595  13.586  1.00  0.00     0.245 C 
HETATM   22  C   UNL     1     -46.830 -52.600  14.847  1.00  0.00     0.030 C 
HETATM   23  C   UNL     1     -46.399 -51.412  13.982  1.00  0.00     0.004 C 
HETATM   24  C   UNL     1     -45.396 -51.859  12.914  1.00  0.00     0.038 C 
ENDBRANCH   4  16
TORSDOF 4
ENDMDL
MODEL 7
REMARK VINA RESULT:      -6.2      3.258      5.538
REMARK  4 active torsions:
REMARK  status: ('A' for Active; 'I' for Inactive)
REMARK    1  A    between atoms: C_4  and  C_5 
REMARK    2  A    between atoms: C_5  and  C_6 
REMARK    3  A    between atoms: C_6  and  N_7 
REMARK       I    between atoms: N_7  and  C_8 
REMARK       I    between atoms: C_8  and  N_10 
REMARK    4  A    between atoms: N_10  and  C_11 
ROOT
HETATM    1  N   UNL     1     -40.459 -50.732  11.007  1.00  0.00    -0.343 N 
HETATM    2  C   UNL     1     -41.221 -51.122  12.081  1.00  0.00     0.316 C 
HETATM    3  O   UNL     1     -41.252 -50.504  13.141  1.00  0.00    -0.247 OA
HETATM    4  N   UNL     1     -41.956 -52.242  11.825  1.00  0.00    -0.336 N 
HETATM    5  H   UNL     1     -40.896 -50.898  10.111  1.00  0.00     0.164 HD
HETATM    6  H   UNL     1     -41.582 -52.869  11.126  1.00  0.00     0.164 HD
ENDROOT
BRANCH   1   7
HETATM    7  C   UNL     1     -39.764 -49.463  11.172  1.00  0.00     0.129 C 
BRANCH   7   8
HETATM    8  C   UNL     1     -38.261 -49.572  11.397  1.00  0.00     0.061 C 
BRANCH   8   9
HETATM    9  C   UNL     1     -37.872 -49.616  12.830  1.00  0.00    -0.023 A 
HETATM   10  C   UNL     1     -37.818 -48.581  13.748  1.00  0.00     0.118 A 
HETATM   11  N   UNL     1     -37.419 -49.138  14.929  1.00  0.00    -0.308 N 
HETATM   12  C   UNL     1     -37.225 -48.460  16.187  1.00  0.00     0.177 C 
HETATM   13  N   UNL     1     -37.204 -50.461  14.847  1.00  0.00    -0.310 N 
HETATM   14  C   UNL     1     -37.493 -50.754  13.581  1.00  0.00     0.115 A 
ATOM     15  HN  UNL     1     -36.893 -51.094  15.584  1.00  0.00     0.186 HD
ENDBRANCH   8   9
ENDBRANCH   7   8
ENDBRANCH   1   7
BRANCH   4  16
HETATM   16  C   UNL     1     -42.872 -52.802  12.803  1.00  0.00     0.121 C 
HETATM   17  C   UNL     1     -44.192 -53.362  12.247  1.00  0.00     0.057 C 
HETATM   18  C   UNL     1     -44.638 -54.396  13.297  1.00  0.00     0.275 C 
HETATM   19  N   UNL     1     -43.600 -54.340  14.329  1.00  0.00     0.095 N 
HETATM   20  C   UNL     1     -43.463 -55.535  15.150  1.00  0.00     0.273 C 
HETATM   21  C   UNL     1     -42.363 -54.008  13.602  1.00  0.00     0.245 C 
HETATM   22  C   UNL     1     -42.325 -55.326  16.158  1.00  0.00     0.030 C 
HETATM   23  C   UNL     1     -41.012 -54.957  15.464  1.00  0.00     0.004 C 
HETATM   24  C   UNL     1     -41.207 -53.740  14.555  1.00  0.00     0.038 C 
ENDBRANCH   4  16
TORSDOF 4
ENDMDL
MODEL 8
REMARK VINA RESULT:      -5.9      2.212      7.486
REMARK  4 active torsions:
REMARK  status: ('A' for Active; 'I' for Inactive)
REMARK    1  A    between atoms: C_4  and  C_5 
REMARK    2  A    between atoms: C_5  and  C_6 
REMARK    3  A    between atoms: C_6  and  N_7 
REMARK       I    between atoms: N_7  and  C_8 
REMARK       I    between atoms: C_8  and  N_10 
REMARK    4  A    between atoms: N_10  and  C_11 
ROOT
HETATM    1  N   UNL     1     -42.773 -52.505  12.108  1.00  0.00    -0.343 N 
HETATM    2  C   UNL     1     -42.538 -51.213  12.508  1.00  0.00     0.316 C 
HETATM    3  O   UNL     1     -42.952 -50.754  13.568  1.00  0.00    -0.247 OA
HETATM    4  N   UNL     1     -41.772 -50.517  11.620  1.00  0.00    -0.336 N 
HETATM    5  H   UNL     1     -42.000 -52.929  11.613  1.00  0.00     0.164 HD
HETATM    6  H   UNL     1     -41.821 -50.822  10.657  1.00  0.00     0.164 HD
ENDROOT
BRANCH   1   7
HETATM    7  C   UNL     1     -43.463 -53.338  13.083  1.00  0.00     0.129 C 
BRANCH   7   8
HETATM    8  C   UNL     1     -42.623 -54.456  13.689  1.00  0.00     0.061 C 
BRANCH   8   9
HETATM    9  C   UNL     1     -41.293 -54.008  14.177  1.00  0.00    -0.023 A 
HETATM   10  C   UNL     1     -40.983 -53.291  15.320  1.00  0.00     0.118 A 
HETATM   11  N   UNL     1     -39.625 -53.147  15.325  1.00  0.00    -0.308 N 
HETATM   12  C   UNL     1     -38.826 -52.477  16.321  1.00  0.00     0.177 C 
HETATM   13  N   UNL     1     -39.027 -53.714  14.265  1.00  0.00    -0.310 N 
HETATM   14  C   UNL     1     -40.034 -54.249  13.577  1.00  0.00     0.115 A 
ATOM     15  HN  UNL     1     -38.033 -53.731  14.039  1.00  0.00     0.186 HD
ENDBRANCH   8   9
ENDBRANCH   7   8
ENDBRANCH   1   7
BRANCH   4  16
HETATM   16  C   UNL     1     -41.359 -49.147  11.866  1.00  0.00     0.121 C 
HETATM   17  C   UNL     1     -39.843 -48.904  11.944  1.00  0.00     0.057 C 
HETATM   18  C   UNL     1     -39.677 -47.417  11.577  1.00  0.00     0.275 C 
HETATM   19  N   UNL     1     -41.044 -46.944  11.346  1.00  0.00     0.095 N 
HETATM   20  C   UNL     1     -41.168 -45.770  10.494  1.00  0.00     0.273 C 
HETATM   21  C   UNL     1     -41.762 -48.112  10.810  1.00  0.00     0.245 C 
HETATM   22  C   UNL     1     -42.653 -45.419  10.332  1.00  0.00     0.030 C 
HETATM   23  C   UNL     1     -43.461 -46.603   9.794  1.00  0.00     0.004 C 
HETATM   24  C   UNL     1     -43.254 -47.840  10.673  1.00  0.00     0.038 C 
ENDBRANCH   4  16
TORSDOF 4
ENDMDL
MODEL 9
REMARK VINA RESULT:      -5.9      2.105      7.366
REMARK  4 active torsions:
REMARK  status: ('A' for Active; 'I' for Inactive)
REMARK    1  A    between atoms: C_4  and  C_5 
REMARK    2  A    between atoms: C_5  and  C_6 
REMARK    3  A    between atoms: C_6  and  N_7 
REMARK       I    between atoms: N_7  and  C_8 
REMARK       I    between atoms: C_8  and  N_10 
REMARK    4  A    between atoms: N_10  and  C_11 
ROOT
HETATM    1  N   UNL     1     -41.716 -51.539  12.395  1.00  0.00    -0.343 N 
HETATM    2  C   UNL     1     -41.174 -50.466  11.731  1.00  0.00     0.316 C 
HETATM    3  O   UNL     1     -40.001 -50.420  11.376  1.00  0.00    -0.247 OA
HETATM    4  N   UNL     1     -42.088 -49.484  11.484  1.00  0.00    -0.336 N 
HETATM    5  H   UNL     1     -42.671 -51.744  12.136  1.00  0.00     0.164 HD
HETATM    6  H   UNL     1     -42.868 -49.431  12.125  1.00  0.00     0.164 HD
ENDROOT
BRANCH   1   7
HETATM    7  C   UNL     1     -40.823 -52.678  12.559  1.00  0.00     0.129 C 
BRANCH   7   8
HETATM    8  C   UNL     1     -41.499 -53.973  12.991  1.00  0.00     0.061 C 
BRANCH   8   9
HETATM    9  C   UNL     1     -42.905 -53.795  13.437  1.00  0.00    -0.023 A 
HETATM   10  C   UNL     1     -43.383 -53.467  14.693  1.00  0.00     0.118 A 
HETATM   11  N   UNL     1     -44.742 -53.409  14.583  1.00  0.00    -0.308 N 
HETATM   12  C   UNL     1     -45.686 -53.093  15.627  1.00  0.00     0.177 C 
HETATM   13  N   UNL     1     -45.187 -53.680  13.345  1.00  0.00    -0.310 N 
HETATM   14  C   UNL     1     -44.075 -53.899  12.647  1.00  0.00     0.115 A 
ATOM     15  HN  UNL     1     -46.152 -53.711  13.016  1.00  0.00     0.186 HD
ENDBRANCH   8   9
ENDBRANCH   7   8
ENDBRANCH   1   7
BRANCH   4  16
HETATM   16  C   UNL     1     -41.746 -48.280  10.748  1.00  0.00     0.121 C 
HETATM   17  C   UNL     1     -42.839 -47.722   9.821  1.00  0.00     0.057 C 
HETATM   18  C   UNL     1     -42.498 -46.226   9.691  1.00  0.00     0.275 C 
HETATM   19  N   UNL     1     -41.289 -46.055  10.498  1.00  0.00     0.095 N 
HETATM   20  C   UNL     1     -41.045 -44.706  10.989  1.00  0.00     0.273 C 
HETATM   21  C   UNL     1     -41.418 -47.038  11.586  1.00  0.00     0.245 C 
HETATM   22  C   UNL     1     -39.762 -44.699  11.832  1.00  0.00     0.030 C 
HETATM   23  C   UNL     1     -39.827 -45.719  12.972  1.00  0.00     0.004 C 
HETATM   24  C   UNL     1     -40.153 -47.113  12.429  1.00  0.00     0.038 C 
ENDBRANCH   4  16
TORSDOF 4
ENDMDL
