MODEL 1
REMARK VINA RESULT:      -6.4      0.000      0.000
REMARK  6 active torsions:
REMARK  status: ('A' for Active; 'I' for Inactive)
REMARK    1  A    between atoms: C_2  and  C_3 
REMARK    2  A    between atoms: C_2  and  N_17 
REMARK       I    between atoms: C_3  and  N_5 
REMARK    3  A    between atoms: N_5  and  C_6 
REMARK    4  A    between atoms: C_6  and  C_7 
REMARK    5  A    between atoms: C_7  and  C_8 
REMARK    6  A    between atoms: C_8  and  N_9 
ROOT
HETATM    1  C   UNL     1     -41.594 -48.977  11.136  1.00  0.00     0.242 C 
HETATM    2  O   UNL     1     -40.480 -49.174  10.659  1.00  0.00    -0.271 OA
HETATM    3  N   UNL     1     -42.290 -49.956  11.825  1.00  0.00    -0.359 N 
HETATM    4  H   UNL     1     -43.151 -49.701  12.306  1.00  0.00     0.162 HD
ENDROOT
BRANCH   3   5
HETATM    5  C   UNL     1     -41.703 -51.250  12.117  1.00  0.00     0.124 C 
BRANCH   5   6
HETATM    6  C   UNL     1     -42.227 -51.811  13.439  1.00  0.00     0.039 C 
BRANCH   6   7
HETATM    7  C   UNL     1     -43.209 -52.969  13.234  1.00  0.00     0.127 C 
BRANCH   7   8
HETATM    8  N   UNL     1     -44.452 -52.721  13.967  1.00  0.00    -0.352 N 
HETATM    9  C   UNL     1     -44.403 -52.730  15.427  1.00  0.00     0.125 C 
HETATM   10  C   UNL     1     -44.633 -51.351  16.030  1.00  0.00     0.020 C 
HETATM   11  C   UNL     1     -46.110 -51.011  16.219  1.00  0.00     0.002 C 
HETATM   12  C   UNL     1     -47.062 -51.554  15.153  1.00  0.00     0.009 C 
HETATM   13  C   UNL     1     -46.544 -51.419  13.735  1.00  0.00     0.103 C 
HETATM   14  C   UNL     1     -45.614 -52.516  13.243  1.00  0.00     0.219 C 
HETATM   15  O   UNL     1     -45.807 -53.040  12.145  1.00  0.00    -0.273 OA
ENDBRANCH   7   8
ENDBRANCH   6   7
ENDBRANCH   5   6
ENDBRANCH   3   5
BRANCH   1  16
HETATM   16  C   UNL     1     -42.328 -47.643  11.005  1.00  0.00     0.196 C 
HETATM   17  C   UNL     1     -43.177 -47.324  12.235  1.00  0.00     0.044 C 
BRANCH  16  18
HETATM   18  N   UNL     1     -43.131 -47.646   9.794  1.00  0.00    -0.273 N 
HETATM   19  C   UNL     1     -44.458 -47.385   9.659  1.00  0.00     0.202 A 
HETATM   20  N   UNL     1     -44.810 -47.537   8.404  1.00  0.00    -0.346 N 
HETATM   21  C   UNL     1     -43.644 -47.910   7.798  1.00  0.00     0.198 A 
ATOM     22  HN  UNL     1     -45.730 -47.408   7.983  1.00  0.00     0.167 HD
HETATM   23  N   UNL     1     -42.590 -48.017   8.614  1.00  0.00    -0.292 N 
ATOM     24  HN  UNL     1     -41.634 -48.304   8.402  1.00  0.00     0.188 HD
ENDBRANCH  16  18
ENDBRANCH   1  16
TORSDOF 6
ENDMDL
MODEL 2
REMARK VINA RESULT:      -6.3      1.431      1.643
REMARK  6 active torsions:
REMARK  status: ('A' for Active; 'I' for Inactive)
REMARK    1  A    between atoms: C_2  and  C_3 
REMARK    2  A    between atoms: C_2  and  N_17 
REMARK       I    between atoms: C_3  and  N_5 
REMARK    3  A    between atoms: N_5  and  C_6 
REMARK    4  A    between atoms: C_6  and  C_7 
REMARK    5  A    between atoms: C_7  and  C_8 
REMARK    6  A    between atoms: C_8  and  N_9 
ROOT
HETATM    1  C   UNL     1     -41.231 -49.808  11.612  1.00  0.00     0.242 C 
HETATM    2  O   UNL     1     -40.104 -49.908  11.134  1.00  0.00    -0.271 OA
HETATM    3  N   UNL     1     -41.999 -50.912  11.941  1.00  0.00    -0.359 N 
HETATM    4  H   UNL     1     -42.871 -50.770  12.449  1.00  0.00     0.162 HD
ENDROOT
BRANCH   3   5
HETATM    5  C   UNL     1     -41.481 -52.263  11.838  1.00  0.00     0.124 C 
BRANCH   5   6
HETATM    6  C   UNL     1     -42.044 -53.158  12.942  1.00  0.00     0.039 C 
BRANCH   6   7
HETATM    7  C   UNL     1     -43.476 -53.615  12.648  1.00  0.00     0.127 C 
BRANCH   7   8
HETATM    8  N   UNL     1     -44.365 -53.255  13.755  1.00  0.00    -0.352 N 
HETATM    9  C   UNL     1     -44.494 -51.842  14.102  1.00  0.00     0.125 C 
HETATM   10  C   UNL     1     -45.872 -51.281  13.779  1.00  0.00     0.020 C 
HETATM   11  C   UNL     1     -46.893 -51.506  14.892  1.00  0.00     0.002 C 
HETATM   12  C   UNL     1     -46.757 -52.815  15.669  1.00  0.00     0.009 C 
HETATM   13  C   UNL     1     -46.473 -54.024  14.800  1.00  0.00     0.103 C 
HETATM   14  C   UNL     1     -45.019 -54.271  14.432  1.00  0.00     0.219 C 
HETATM   15  O   UNL     1     -44.533 -55.395  14.559  1.00  0.00    -0.273 OA
ENDBRANCH   7   8
ENDBRANCH   6   7
ENDBRANCH   5   6
ENDBRANCH   3   5
BRANCH   1  16
HETATM   16  C   UNL     1     -41.902 -48.461  11.875  1.00  0.00     0.196 C 
HETATM   17  C   UNL     1     -42.810 -48.495  13.104  1.00  0.00     0.044 C 
BRANCH  16  18
HETATM   18  N   UNL     1     -42.629 -48.039  10.691  1.00  0.00    -0.273 N 
HETATM   19  C   UNL     1     -43.904 -47.573  10.602  1.00  0.00     0.202 A 
HETATM   20  N   UNL     1     -44.201 -47.344   9.345  1.00  0.00    -0.346 N 
HETATM   21  C   UNL     1     -43.059 -47.702   8.686  1.00  0.00     0.198 A 
ATOM     22  HN  UNL     1     -45.073 -46.986   8.954  1.00  0.00     0.167 HD
HETATM   23  N   UNL     1     -42.074 -48.161   9.466  1.00  0.00    -0.292 N 
ATOM     24  HN  UNL     1     -41.152 -48.510   9.205  1.00  0.00     0.188 HD
ENDBRANCH  16  18
ENDBRANCH   1  16
TORSDOF 6
ENDMDL
MODEL 3
REMARK VINA RESULT:      -6.0      1.945      2.764
REMARK  6 active torsions:
REMARK  status: ('A' for Active; 'I' for Inactive)
REMARK    1  A    between atoms: C_2  and  C_3 
REMARK    2  A    between atoms: C_2  and  N_17 
REMARK       I    between atoms: C_3  and  N_5 
REMARK    3  A    between atoms: N_5  and  C_6 
REMARK    4  A    between atoms: C_6  and  C_7 
REMARK    5  A    between atoms: C_7  and  C_8 
REMARK    6  A    between atoms: C_8  and  N_9 
ROOT
HETATM    1  C   UNL     1     -41.688 -51.472  12.972  1.00  0.00     0.242 C 
HETATM    2  O   UNL     1     -41.658 -51.878  11.813  1.00  0.00    -0.271 OA
HETATM    3  N   UNL     1     -41.866 -52.320  14.051  1.00  0.00    -0.359 N 
HETATM    4  H   UNL     1     -41.757 -51.947  14.993  1.00  0.00     0.162 HD
ENDROOT
BRANCH   3   5
HETATM    5  C   UNL     1     -41.924 -53.761  13.890  1.00  0.00     0.124 C 
BRANCH   5   6
HETATM    6  C   UNL     1     -42.867 -54.396  14.911  1.00  0.00     0.039 C 
BRANCH   6   7
HETATM    7  C   UNL     1     -44.142 -54.947  14.265  1.00  0.00     0.127 C 
BRANCH   7   8
HETATM    8  N   UNL     1     -45.211 -53.947  14.307  1.00  0.00    -0.352 N 
HETATM    9  C   UNL     1     -46.112 -53.952  15.456  1.00  0.00     0.125 C 
HETATM   10  C   UNL     1     -45.934 -52.730  16.348  1.00  0.00     0.020 C 
HETATM   11  C   UNL     1     -46.747 -51.521  15.888  1.00  0.00     0.002 C 
HETATM   12  C   UNL     1     -46.902 -51.356  14.377  1.00  0.00     0.009 C 
HETATM   13  C   UNL     1     -45.632 -51.615  13.592  1.00  0.00     0.103 C 
HETATM   14  C   UNL     1     -45.329 -53.064  13.247  1.00  0.00     0.219 C 
HETATM   15  O   UNL     1     -45.009 -53.369  12.098  1.00  0.00    -0.273 OA
ENDBRANCH   7   8
ENDBRANCH   6   7
ENDBRANCH   5   6
ENDBRANCH   3   5
BRANCH   1  16
HETATM   16  C   UNL     1     -41.551 -49.994  13.336  1.00  0.00     0.196 C 
HETATM   17  C   UNL     1     -42.687 -49.510  14.235  1.00  0.00     0.044 C 
BRANCH  16  18
HETATM   18  N   UNL     1     -41.461 -49.200  12.123  1.00  0.00    -0.273 N 
HETATM   19  C   UNL     1     -40.412 -48.463  11.670  1.00  0.00     0.202 A 
HETATM   20  N   UNL     1     -40.749 -47.857  10.556  1.00  0.00    -0.346 N 
HETATM   21  C   UNL     1     -42.043 -48.251  10.368  1.00  0.00     0.198 A 
ATOM     22  HN  UNL     1     -40.182 -47.241   9.973  1.00  0.00     0.167 HD
HETATM   23  N   UNL     1     -42.535 -49.055  11.317  1.00  0.00    -0.292 N 
ATOM     24  HN  UNL     1     -43.471 -49.451  11.409  1.00  0.00     0.188 HD
ENDBRANCH  16  18
ENDBRANCH   1  16
TORSDOF 6
ENDMDL
MODEL 4
REMARK VINA RESULT:      -6.0      3.431      4.124
REMARK  6 active torsions:
REMARK  status: ('A' for Active; 'I' for Inactive)
REMARK    1  A    between atoms: C_2  and  C_3 
REMARK    2  A    between atoms: C_2  and  N_17 
REMARK       I    between atoms: C_3  and  N_5 
REMARK    3  A    between atoms: N_5  and  C_6 
REMARK    4  A    between atoms: C_6  and  C_7 
REMARK    5  A    between atoms: C_7  and  C_8 
REMARK    6  A    between atoms: C_8  and  N_9 
ROOT
HETATM    1  C   UNL     1     -40.720 -52.086  13.917  1.00  0.00     0.242 C 
HETATM    2  O   UNL     1     -39.945 -52.379  14.824  1.00  0.00    -0.271 OA
HETATM    3  N   UNL     1     -41.605 -53.000  13.373  1.00  0.00    -0.359 N 
HETATM    4  H   UNL     1     -42.309 -52.671  12.714  1.00  0.00     0.162 HD
ENDROOT
BRANCH   3   5
HETATM    5  C   UNL     1     -41.749 -54.340  13.912  1.00  0.00     0.124 C 
BRANCH   5   6
HETATM    6  C   UNL     1     -42.894 -54.412  14.922  1.00  0.00     0.039 C 
BRANCH   6   7
HETATM    7  C   UNL     1     -44.165 -55.020  14.322  1.00  0.00     0.127 C 
BRANCH   7   8
HETATM    8  N   UNL     1     -45.207 -53.999  14.187  1.00  0.00    -0.352 N 
HETATM    9  C   UNL     1     -46.306 -54.007  15.149  1.00  0.00     0.125 C 
HETATM   10  C   UNL     1     -46.277 -52.807  16.084  1.00  0.00     0.020 C 
HETATM   11  C   UNL     1     -46.971 -51.573  15.509  1.00  0.00     0.002 C 
HETATM   12  C   UNL     1     -46.839 -51.376  13.999  1.00  0.00     0.009 C 
HETATM   13  C   UNL     1     -45.449 -51.646  13.459  1.00  0.00     0.103 C 
HETATM   14  C   UNL     1     -45.111 -53.094  13.144  1.00  0.00     0.219 C 
HETATM   15  O   UNL     1     -44.588 -53.384  12.067  1.00  0.00    -0.273 OA
ENDBRANCH   7   8
ENDBRANCH   6   7
ENDBRANCH   5   6
ENDBRANCH   3   5
BRANCH   1  16
HETATM   16  C   UNL     1     -40.772 -50.694  13.290  1.00  0.00     0.196 C 
HETATM   17  C   UNL     1     -42.027 -50.485  12.444  1.00  0.00     0.044 C 
BRANCH  16  18
HETATM   18  N   UNL     1     -39.566 -50.464  12.513  1.00  0.00    -0.273 N 
HETATM   19  C   UNL     1     -39.430 -49.782  11.344  1.00  0.00     0.202 A 
HETATM   20  N   UNL     1     -38.182 -49.844  10.942  1.00  0.00    -0.346 N 
HETATM   21  C   UNL     1     -37.582 -50.599  11.910  1.00  0.00     0.198 A 
ATOM     22  HN  UNL     1     -37.763 -49.430  10.110  1.00  0.00     0.167 HD
HETATM   23  N   UNL     1     -38.395 -51.027  12.882  1.00  0.00    -0.292 N 
ATOM     24  HN  UNL     1     -38.187 -51.619  13.685  1.00  0.00     0.188 HD
ENDBRANCH  16  18
ENDBRANCH   1  16
TORSDOF 6
ENDMDL
MODEL 5
REMARK VINA RESULT:      -5.8      2.380      3.352
REMARK  6 active torsions:
REMARK  status: ('A' for Active; 'I' for Inactive)
REMARK    1  A    between atoms: C_2  and  C_3 
REMARK    2  A    between atoms: C_2  and  N_17 
REMARK       I    between atoms: C_3  and  N_5 
REMARK    3  A    between atoms: N_5  and  C_6 
REMARK    4  A    between atoms: C_6  and  C_7 
REMARK    5  A    between atoms: C_7  and  C_8 
REMARK    6  A    between atoms: C_8  and  N_9 
ROOT
HETATM    1  C   UNL     1     -40.040 -50.968  13.232  1.00  0.00     0.242 C 
HETATM    2  O   UNL     1     -40.493 -50.301  14.158  1.00  0.00    -0.271 OA
HETATM    3  N   UNL     1     -40.182 -52.343  13.168  1.00  0.00    -0.359 N 
HETATM    4  H   UNL     1     -39.898 -52.828  12.317  1.00  0.00     0.162 HD
ENDROOT
BRANCH   3   5
HETATM    5  C   UNL     1     -40.968 -53.077  14.141  1.00  0.00     0.124 C 
BRANCH   5   6
HETATM    6  C   UNL     1     -42.172 -53.754  13.486  1.00  0.00     0.039 C 
BRANCH   6   7
HETATM    7  C   UNL     1     -42.829 -52.871  12.420  1.00  0.00     0.127 C 
BRANCH   7   8
HETATM    8  N   UNL     1     -44.145 -52.415  12.874  1.00  0.00    -0.352 N 
HETATM    9  C   UNL     1     -45.281 -53.318  12.707  1.00  0.00     0.125 C 
HETATM   10  C   UNL     1     -45.817 -53.839  14.033  1.00  0.00     0.020 C 
HETATM   11  C   UNL     1     -46.832 -52.903  14.685  1.00  0.00     0.002 C 
HETATM   12  C   UNL     1     -46.586 -51.408  14.488  1.00  0.00     0.009 C 
HETATM   13  C   UNL     1     -45.136 -50.994  14.641  1.00  0.00     0.103 C 
HETATM   14  C   UNL     1     -44.252 -51.145  13.414  1.00  0.00     0.219 C 
HETATM   15  O   UNL     1     -43.523 -50.217  13.062  1.00  0.00    -0.273 OA
ENDBRANCH   7   8
ENDBRANCH   6   7
ENDBRANCH   5   6
ENDBRANCH   3   5
BRANCH   1  16
HETATM   16  C   UNL     1     -39.262 -50.350  12.070  1.00  0.00     0.196 C 
HETATM   17  C   UNL     1     -37.872 -49.875  12.490  1.00  0.00     0.044 C 
BRANCH  16  18
HETATM   18  N   UNL     1     -40.037 -49.270  11.485  1.00  0.00    -0.273 N 
HETATM   19  C   UNL     1     -39.735 -47.945  11.433  1.00  0.00     0.202 A 
HETATM   20  N   UNL     1     -40.719 -47.293  10.859  1.00  0.00    -0.346 N 
HETATM   21  C   UNL     1     -41.624 -48.278  10.582  1.00  0.00     0.198 A 
ATOM     22  HN  UNL     1     -40.791 -46.294  10.667  1.00  0.00     0.167 HD
HETATM   23  N   UNL     1     -41.264 -49.505  10.972  1.00  0.00    -0.292 N 
ATOM     24  HN  UNL     1     -41.777 -50.384  10.901  1.00  0.00     0.188 HD
ENDBRANCH  16  18
ENDBRANCH   1  16
TORSDOF 6
ENDMDL
MODEL 6
REMARK VINA RESULT:      -5.7      1.596      2.179
REMARK  6 active torsions:
REMARK  status: ('A' for Active; 'I' for Inactive)
REMARK    1  A    between atoms: C_2  and  C_3 
REMARK    2  A    between atoms: C_2  and  N_17 
REMARK       I    between atoms: C_3  and  N_5 
REMARK    3  A    between atoms: N_5  and  C_6 
REMARK    4  A    between atoms: C_6  and  C_7 
REMARK    5  A    between atoms: C_7  and  C_8 
REMARK    6  A    between atoms: C_8  and  N_9 
ROOT
HETATM    1  C   UNL     1     -41.730 -48.475  11.231  1.00  0.00     0.242 C 
HETATM    2  O   UNL     1     -40.882 -49.253  10.802  1.00  0.00    -0.271 OA
HETATM    3  N   UNL     1     -42.421 -48.706  12.408  1.00  0.00    -0.359 N 
HETATM    4  H   UNL     1     -43.019 -47.969  12.779  1.00  0.00     0.162 HD
ENDROOT
BRANCH   3   5
HETATM    5  C   UNL     1     -42.114 -49.833  13.268  1.00  0.00     0.124 C 
BRANCH   5   6
HETATM    6  C   UNL     1     -43.053 -51.009  12.998  1.00  0.00     0.039 C 
BRANCH   6   7
HETATM    7  C   UNL     1     -44.481 -50.738  13.482  1.00  0.00     0.127 C 
BRANCH   7   8
HETATM    8  N   UNL     1     -45.230 -51.992  13.594  1.00  0.00    -0.352 N 
HETATM    9  C   UNL     1     -44.945 -53.051  12.629  1.00  0.00     0.125 C 
HETATM   10  C   UNL     1     -44.263 -54.255  13.263  1.00  0.00     0.020 C 
HETATM   11  C   UNL     1     -45.243 -55.258  13.868  1.00  0.00     0.002 C 
HETATM   12  C   UNL     1     -46.500 -54.664  14.501  1.00  0.00     0.009 C 
HETATM   13  C   UNL     1     -46.247 -53.426  15.336  1.00  0.00     0.103 C 
HETATM   14  C   UNL     1     -46.185 -52.103  14.590  1.00  0.00     0.219 C 
HETATM   15  O   UNL     1     -46.820 -51.132  15.003  1.00  0.00    -0.273 OA
ENDBRANCH   7   8
ENDBRANCH   6   7
ENDBRANCH   5   6
ENDBRANCH   3   5
BRANCH   1  16
HETATM   16  C   UNL     1     -42.117 -47.189  10.503  1.00  0.00     0.196 C 
HETATM   17  C   UNL     1     -42.646 -46.119  11.457  1.00  0.00     0.044 C 
BRANCH  16  18
HETATM   18  N   UNL     1     -43.081 -47.491   9.459  1.00  0.00    -0.273 N 
HETATM   19  C   UNL     1     -44.435 -47.383   9.502  1.00  0.00     0.202 A 
HETATM   20  N   UNL     1     -44.945 -47.798   8.366  1.00  0.00    -0.346 N 
HETATM   21  C   UNL     1     -43.843 -48.168   7.649  1.00  0.00     0.198 A 
ATOM     22  HN  UNL     1     -45.925 -47.835   8.086  1.00  0.00     0.167 HD
HETATM   23  N   UNL     1     -42.676 -48.025   8.286  1.00  0.00    -0.292 N 
ATOM     24  HN  UNL     1     -41.734 -48.257   7.972  1.00  0.00     0.188 HD
ENDBRANCH  16  18
ENDBRANCH   1  16
TORSDOF 6
ENDMDL
MODEL 7
REMARK VINA RESULT:      -5.6      3.869      4.590
REMARK  6 active torsions:
REMARK  status: ('A' for Active; 'I' for Inactive)
REMARK    1  A    between atoms: C_2  and  C_3 
REMARK    2  A    between atoms: C_2  and  N_17 
REMARK       I    between atoms: C_3  and  N_5 
REMARK    3  A    between atoms: N_5  and  C_6 
REMARK    4  A    between atoms: C_6  and  C_7 
REMARK    5  A    between atoms: C_7  and  C_8 
REMARK    6  A    between atoms: C_8  and  N_9 
ROOT
HETATM    1  C   UNL     1     -39.641 -52.377  14.067  1.00  0.00     0.242 C 
HETATM    2  O   UNL     1     -39.022 -53.260  13.478  1.00  0.00    -0.271 OA
HETATM    3  N   UNL     1     -40.832 -52.622  14.729  1.00  0.00    -0.359 N 
HETATM    4  H   UNL     1     -41.236 -51.883  15.304  1.00  0.00     0.162 HD
ENDROOT
BRANCH   3   5
HETATM    5  C   UNL     1     -41.375 -53.961  14.858  1.00  0.00     0.124 C 
BRANCH   5   6
HETATM    6  C   UNL     1     -42.261 -54.319  13.664  1.00  0.00     0.039 C 
BRANCH   6   7
HETATM    7  C   UNL     1     -43.672 -54.737  14.089  1.00  0.00     0.127 C 
BRANCH   7   8
HETATM    8  N   UNL     1     -44.421 -53.581  14.586  1.00  0.00    -0.352 N 
HETATM    9  C   UNL     1     -44.461 -52.380  13.756  1.00  0.00     0.125 C 
HETATM   10  C   UNL     1     -45.846 -52.107  13.185  1.00  0.00     0.020 C 
HETATM   11  C   UNL     1     -46.746 -51.316  14.133  1.00  0.00     0.002 C 
HETATM   12  C   UNL     1     -46.572 -51.612  15.622  1.00  0.00     0.009 C 
HETATM   13  C   UNL     1     -46.427 -53.084  15.948  1.00  0.00     0.103 C 
HETATM   14  C   UNL     1     -45.031 -53.674  15.825  1.00  0.00     0.219 C 
HETATM   15  O   UNL     1     -44.574 -54.370  16.733  1.00  0.00    -0.273 OA
ENDBRANCH   7   8
ENDBRANCH   6   7
ENDBRANCH   5   6
ENDBRANCH   3   5
BRANCH   1  16
HETATM   16  C   UNL     1     -39.170 -50.925  14.114  1.00  0.00     0.196 C 
HETATM   17  C   UNL     1     -40.281 -49.968  14.543  1.00  0.00     0.044 C 
BRANCH  16  18
HETATM   18  N   UNL     1     -38.616 -50.550  12.824  1.00  0.00    -0.273 N 
HETATM   19  C   UNL     1     -39.235 -49.922  11.789  1.00  0.00     0.202 A 
HETATM   20  N   UNL     1     -38.400 -49.807  10.783  1.00  0.00    -0.346 N 
HETATM   21  C   UNL     1     -37.263 -50.401  11.255  1.00  0.00     0.198 A 
ATOM     22  HN  UNL     1     -38.560 -49.379   9.872  1.00  0.00     0.167 HD
HETATM   23  N   UNL     1     -37.354 -50.897  12.493  1.00  0.00    -0.292 N 
ATOM     24  HN  UNL     1     -36.657 -51.402  13.041  1.00  0.00     0.188 HD
ENDBRANCH  16  18
ENDBRANCH   1  16
TORSDOF 6
ENDMDL
MODEL 8
REMARK VINA RESULT:      -5.5      1.916      2.451
REMARK  6 active torsions:
REMARK  status: ('A' for Active; 'I' for Inactive)
REMARK    1  A    between atoms: C_2  and  C_3 
REMARK    2  A    between atoms: C_2  and  N_17 
REMARK       I    between atoms: C_3  and  N_5 
REMARK    3  A    between atoms: N_5  and  C_6 
REMARK    4  A    between atoms: C_6  and  C_7 
REMARK    5  A    between atoms: C_7  and  C_8 
REMARK    6  A    between atoms: C_8  and  N_9 
ROOT
HETATM    1  C   UNL     1     -41.593 -48.536  12.120  1.00  0.00     0.242 C 
HETATM    2  O   UNL     1     -40.828 -48.390  13.070  1.00  0.00    -0.271 OA
HETATM    3  N   UNL     1     -41.836 -49.771  11.546  1.00  0.00    -0.359 N 
HETATM    4  H   UNL     1     -42.573 -49.852  10.846  1.00  0.00     0.162 HD
ENDROOT
BRANCH   3   5
HETATM    5  C   UNL     1     -41.282 -50.994  12.096  1.00  0.00     0.124 C 
BRANCH   5   6
HETATM    6  C   UNL     1     -42.309 -52.126  12.080  1.00  0.00     0.039 C 
BRANCH   6   7
HETATM    7  C   UNL     1     -42.386 -52.863  13.420  1.00  0.00     0.127 C 
BRANCH   7   8
HETATM    8  N   UNL     1     -43.764 -52.875  13.919  1.00  0.00    -0.352 N 
HETATM    9  C   UNL     1     -44.025 -52.285  15.229  1.00  0.00     0.125 C 
HETATM   10  C   UNL     1     -44.844 -51.005  15.144  1.00  0.00     0.020 C 
HETATM   11  C   UNL     1     -46.351 -51.251  15.106  1.00  0.00     0.002 C 
HETATM   12  C   UNL     1     -46.804 -52.506  14.361  1.00  0.00     0.009 C 
HETATM   13  C   UNL     1     -46.078 -52.745  13.052  1.00  0.00     0.103 C 
HETATM   14  C   UNL     1     -44.742 -53.465  13.137  1.00  0.00     0.219 C 
HETATM   15  O   UNL     1     -44.502 -54.409  12.383  1.00  0.00    -0.273 OA
ENDBRANCH   7   8
ENDBRANCH   6   7
ENDBRANCH   5   6
ENDBRANCH   3   5
BRANCH   1  16
HETATM   16  C   UNL     1     -42.337 -47.370  11.470  1.00  0.00     0.196 C 
HETATM   17  C   UNL     1     -43.137 -47.805  10.243  1.00  0.00     0.044 C 
BRANCH  16  18
HETATM   18  N   UNL     1     -41.395 -46.314  11.141  1.00  0.00    -0.273 N 
HETATM   19  C   UNL     1     -41.521 -44.976  11.343  1.00  0.00     0.202 A 
HETATM   20  N   UNL     1     -40.468 -44.358  10.863  1.00  0.00    -0.346 N 
HETATM   21  C   UNL     1     -39.714 -45.378  10.357  1.00  0.00     0.198 A 
ATOM     22  HN  UNL     1     -40.262 -43.359  10.867  1.00  0.00     0.167 HD
HETATM   23  N   UNL     1     -40.253 -46.596  10.478  1.00  0.00    -0.292 N 
ATOM     24  HN  UNL     1     -39.897 -47.496  10.157  1.00  0.00     0.188 HD
ENDBRANCH  16  18
ENDBRANCH   1  16
TORSDOF 6
ENDMDL
MODEL 9
REMARK VINA RESULT:      -5.4      3.689      6.844
REMARK  6 active torsions:
REMARK  status: ('A' for Active; 'I' for Inactive)
REMARK    1  A    between atoms: C_2  and  C_3 
REMARK    2  A    between atoms: C_2  and  N_17 
REMARK       I    between atoms: C_3  and  N_5 
REMARK    3  A    between atoms: N_5  and  C_6 
REMARK    4  A    between atoms: C_6  and  C_7 
REMARK    5  A    between atoms: C_7  and  C_8 
REMARK    6  A    between atoms: C_8  and  N_9 
ROOT
HETATM    1  C   UNL     1     -43.854 -54.537  14.463  1.00  0.00     0.242 C 
HETATM    2  O   UNL     1     -44.072 -55.417  15.292  1.00  0.00    -0.271 OA
HETATM    3  N   UNL     1     -42.638 -53.882  14.377  1.00  0.00    -0.359 N 
HETATM    4  H   UNL     1     -42.473 -53.253  13.593  1.00  0.00     0.162 HD
ENDROOT
BRANCH   3   5
HETATM    5  C   UNL     1     -41.503 -54.266  15.195  1.00  0.00     0.124 C 
BRANCH   5   6
HETATM    6  C   UNL     1     -40.220 -53.586  14.717  1.00  0.00     0.039 C 
BRANCH   6   7
HETATM    7  C   UNL     1     -40.269 -53.225  13.229  1.00  0.00     0.127 C 
BRANCH   7   8
HETATM    8  N   UNL     1     -39.910 -51.818  13.032  1.00  0.00    -0.352 N 
HETATM    9  C   UNL     1     -38.623 -51.359  13.547  1.00  0.00     0.125 C 
HETATM   10  C   UNL     1     -37.640 -51.005  12.440  1.00  0.00     0.020 C 
HETATM   11  C   UNL     1     -37.792 -49.573  11.930  1.00  0.00     0.002 C 
HETATM   12  C   UNL     1     -39.218 -49.023  11.899  1.00  0.00     0.009 C 
HETATM   13  C   UNL     1     -40.249 -50.005  11.382  1.00  0.00     0.103 C 
HETATM   14  C   UNL     1     -40.816 -50.991  12.391  1.00  0.00     0.219 C 
HETATM   15  O   UNL     1     -42.033 -51.164  12.466  1.00  0.00    -0.273 OA
ENDBRANCH   7   8
ENDBRANCH   6   7
ENDBRANCH   5   6
ENDBRANCH   3   5
BRANCH   1  16
HETATM   16  C   UNL     1     -44.906 -54.067  13.459  1.00  0.00     0.196 C 
HETATM   17  C   UNL     1     -44.280 -53.480  12.195  1.00  0.00     0.044 C 
BRANCH  16  18
HETATM   18  N   UNL     1     -45.799 -53.116  14.098  1.00  0.00    -0.273 N 
HETATM   19  C   UNL     1     -46.121 -51.857  13.697  1.00  0.00     0.202 A 
HETATM   20  N   UNL     1     -46.927 -51.309  14.576  1.00  0.00    -0.346 N 
HETATM   21  C   UNL     1     -47.065 -52.286  15.521  1.00  0.00     0.198 A 
ATOM     22  HN  UNL     1     -47.349 -50.381  14.557  1.00  0.00     0.167 HD
HETATM   23  N   UNL     1     -46.371 -53.404  15.287  1.00  0.00    -0.292 N 
ATOM     24  HN  UNL     1     -46.293 -54.249  15.854  1.00  0.00     0.188 HD
ENDBRANCH  16  18
ENDBRANCH   1  16
TORSDOF 6
ENDMDL
