MODEL 1
REMARK VINA RESULT:      -5.7      0.000      0.000
REMARK  5 active torsions:
REMARK  status: ('A' for Active; 'I' for Inactive)
REMARK    1  A    between atoms: C_4  and  C_8 
REMARK    2  A    between atoms: C_8  and  O_10 
REMARK    3  A    between atoms: C_8  and  C_11 
REMARK    4  A    between atoms: C_11  and  N_12 
REMARK    5  A    between atoms: N_12  and  C_13 
ROOT
HETATM    1  C   UNL     1     -40.760 -52.559  12.594  1.00  0.00     0.110 C 
HETATM    2  C   UNL     1     -39.827 -51.338  12.516  1.00  0.00     0.053 C 
ENDROOT
BRANCH   1   3
HETATM    3  C   UNL     1     -40.386 -53.432  13.766  1.00  0.00     0.011 A 
HETATM    4  C   UNL     1     -39.215 -54.133  14.000  1.00  0.00     0.121 A 
HETATM    5  N   UNL     1     -39.359 -54.741  15.214  1.00  0.00    -0.307 N 
HETATM    6  C   UNL     1     -38.390 -55.559  15.903  1.00  0.00     0.177 C 
HETATM    7  N   UNL     1     -40.547 -54.497  15.794  1.00  0.00    -0.310 N 
HETATM    8  C   UNL     1     -41.169 -53.707  14.916  1.00  0.00     0.119 A 
ATOM      9  HN  UNL     1     -40.892 -54.835  16.692  1.00  0.00     0.186 HD
ENDBRANCH   1   3
BRANCH   1  10
HETATM   10  O   UNL     1     -40.607 -53.284  11.355  1.00  0.00    -0.383 OA
HETATM   11  H   UNL     1     -40.731 -52.635  10.643  1.00  0.00     0.211 HD
ENDBRANCH   1  10
BRANCH   1  12
HETATM   12  C   UNL     1     -42.258 -52.112  12.677  1.00  0.00     0.312 C 
BRANCH  12  13
HETATM   13  N   UNL     1     -43.146 -52.979  11.869  1.00  0.00     0.092 N 
HETATM   14  H   UNL     1     -42.622 -53.848  11.716  1.00  0.00     0.316 HD
BRANCH  13  15
HETATM   15  C   UNL     1     -44.424 -53.294  12.535  1.00  0.00     0.229 C 
HETATM   16  C   UNL     1     -44.338 -54.607  13.333  1.00  0.00     0.037 C 
HETATM   17  C   UNL     1     -45.680 -55.004  13.948  1.00  0.00     0.012 C 
HETATM   18  C   UNL     1     -46.238 -53.985  14.933  1.00  0.00     0.074 C 
HETATM   19  S   UNL     1     -46.454 -52.342  14.193  1.00  0.00    -0.167 SA
HETATM   20  C   UNL     1     -44.790 -52.134  13.483  1.00  0.00     0.109 C 
ENDBRANCH  13  15
ENDBRANCH  12  13
ENDBRANCH   1  12
TORSDOF 5
ENDMDL
MODEL 2
REMARK VINA RESULT:      -5.5      3.264      5.453
REMARK  5 active torsions:
REMARK  status: ('A' for Active; 'I' for Inactive)
REMARK    1  A    between atoms: C_4  and  C_8 
REMARK    2  A    between atoms: C_8  and  O_10 
REMARK    3  A    between atoms: C_8  and  C_11 
REMARK    4  A    between atoms: C_11  and  N_12 
REMARK    5  A    between atoms: N_12  and  C_13 
ROOT
HETATM    1  C   UNL     1     -41.054 -52.790  12.643  1.00  0.00     0.110 C 
HETATM    2  C   UNL     1     -39.859 -52.698  13.607  1.00  0.00     0.053 C 
ENDROOT
BRANCH   1   3
HETATM    3  C   UNL     1     -42.185 -53.560  13.280  1.00  0.00     0.011 A 
HETATM    4  C   UNL     1     -43.517 -53.633  12.906  1.00  0.00     0.121 A 
HETATM    5  N   UNL     1     -44.123 -54.485  13.785  1.00  0.00    -0.307 N 
HETATM    6  C   UNL     1     -45.503 -54.904  13.786  1.00  0.00     0.177 C 
HETATM    7  N   UNL     1     -43.286 -54.970  14.719  1.00  0.00    -0.310 N 
HETATM    8  C   UNL     1     -42.114 -54.407  14.414  1.00  0.00     0.119 A 
ATOM      9  HN  UNL     1     -43.496 -55.616  15.480  1.00  0.00     0.186 HD
ENDBRANCH   1   3
BRANCH   1  10
HETATM   10  O   UNL     1     -40.586 -53.469  11.458  1.00  0.00    -0.383 OA
HETATM   11  H   UNL     1     -40.305 -54.354  11.745  1.00  0.00     0.211 HD
ENDBRANCH   1  10
BRANCH   1  12
HETATM   12  C   UNL     1     -41.522 -51.365  12.195  1.00  0.00     0.312 C 
BRANCH  12  13
HETATM   13  N   UNL     1     -40.667 -50.807  11.122  1.00  0.00     0.092 N 
HETATM   14  H   UNL     1     -41.193 -50.941  10.251  1.00  0.00     0.316 HD
BRANCH  13  15
HETATM   15  C   UNL     1     -40.372 -49.372  11.295  1.00  0.00     0.229 C 
HETATM   16  C   UNL     1     -41.513 -48.490  10.759  1.00  0.00     0.037 C 
HETATM   17  C   UNL     1     -41.183 -46.999  10.836  1.00  0.00     0.012 C 
HETATM   18  C   UNL     1     -40.928 -46.491  12.249  1.00  0.00     0.074 C 
HETATM   19  S   UNL     1     -39.581 -47.381  13.080  1.00  0.00    -0.167 SA
HETATM   20  C   UNL     1     -40.155 -49.085  12.794  1.00  0.00     0.109 C 
ENDBRANCH  13  15
ENDBRANCH  12  13
ENDBRANCH   1  12
TORSDOF 5
ENDMDL
MODEL 3
REMARK VINA RESULT:      -5.3      3.167      5.353
REMARK  5 active torsions:
REMARK  status: ('A' for Active; 'I' for Inactive)
REMARK    1  A    between atoms: C_4  and  C_8 
REMARK    2  A    between atoms: C_8  and  O_10 
REMARK    3  A    between atoms: C_8  and  C_11 
REMARK    4  A    between atoms: C_11  and  N_12 
REMARK    5  A    between atoms: N_12  and  C_13 
ROOT
HETATM    1  C   UNL     1     -41.025 -53.028  12.651  1.00  0.00     0.110 C 
HETATM    2  C   UNL     1     -40.168 -53.744  13.710  1.00  0.00     0.053 C 
ENDROOT
BRANCH   1   3
HETATM    3  C   UNL     1     -42.482 -53.375  12.831  1.00  0.00     0.011 A 
HETATM    4  C   UNL     1     -43.057 -54.377  13.596  1.00  0.00     0.121 A 
HETATM    5  N   UNL     1     -44.409 -54.254  13.447  1.00  0.00    -0.307 N 
HETATM    6  C   UNL     1     -45.434 -55.052  14.074  1.00  0.00     0.177 C 
HETATM    7  N   UNL     1     -44.765 -53.247  12.630  1.00  0.00    -0.310 N 
HETATM    8  C   UNL     1     -43.598 -52.719  12.256  1.00  0.00     0.119 A 
ATOM      9  HN  UNL     1     -45.705 -52.957  12.360  1.00  0.00     0.186 HD
ENDBRANCH   1   3
BRANCH   1  10
HETATM   10  O   UNL     1     -40.555 -53.472  11.361  1.00  0.00    -0.383 OA
HETATM   11  H   UNL     1     -39.600 -53.295  11.343  1.00  0.00     0.211 HD
ENDBRANCH   1  10
BRANCH   1  12
HETATM   12  C   UNL     1     -40.802 -51.479  12.706  1.00  0.00     0.312 C 
BRANCH  12  13
HETATM   13  N   UNL     1     -40.607 -50.893  11.361  1.00  0.00     0.092 N 
HETATM   14  H   UNL     1     -41.162 -51.475  10.722  1.00  0.00     0.316 HD
BRANCH  13  15
HETATM   15  C   UNL     1     -41.059 -49.493  11.259  1.00  0.00     0.229 C 
HETATM   16  C   UNL     1     -42.296 -49.232  12.136  1.00  0.00     0.037 C 
HETATM   17  C   UNL     1     -42.841 -47.814  11.967  1.00  0.00     0.012 C 
HETATM   18  C   UNL     1     -41.854 -46.719  12.349  1.00  0.00     0.074 C 
HETATM   19  S   UNL     1     -40.306 -46.812  11.407  1.00  0.00    -0.167 SA
HETATM   20  C   UNL     1     -39.908 -48.565  11.696  1.00  0.00     0.109 C 
ENDBRANCH  13  15
ENDBRANCH  12  13
ENDBRANCH   1  12
TORSDOF 5
ENDMDL
MODEL 4
REMARK VINA RESULT:      -5.2      2.786      4.628
REMARK  5 active torsions:
REMARK  status: ('A' for Active; 'I' for Inactive)
REMARK    1  A    between atoms: C_4  and  C_8 
REMARK    2  A    between atoms: C_8  and  O_10 
REMARK    3  A    between atoms: C_8  and  C_11 
REMARK    4  A    between atoms: C_11  and  N_12 
REMARK    5  A    between atoms: N_12  and  C_13 
ROOT
HETATM    1  C   UNL     1     -40.591 -53.625  13.149  1.00  0.00     0.110 C 
HETATM    2  C   UNL     1     -39.469 -54.468  13.781  1.00  0.00     0.053 C 
ENDROOT
BRANCH   1   3
HETATM    3  C   UNL     1     -41.934 -54.052  13.686  1.00  0.00     0.011 A 
HETATM    4  C   UNL     1     -43.188 -53.936  13.108  1.00  0.00     0.121 A 
HETATM    5  N   UNL     1     -44.074 -54.500  13.980  1.00  0.00    -0.307 N 
HETATM    6  C   UNL     1     -45.499 -54.648  13.806  1.00  0.00     0.177 C 
HETATM    7  N   UNL     1     -43.494 -54.971  15.098  1.00  0.00    -0.310 N 
HETATM    8  C   UNL     1     -42.200 -54.696  14.920  1.00  0.00     0.119 A 
ATOM      9  HN  UNL     1     -43.938 -55.430  15.894  1.00  0.00     0.186 HD
ENDBRANCH   1   3
BRANCH   1  10
HETATM   10  O   UNL     1     -40.525 -53.841  11.723  1.00  0.00    -0.383 OA
HETATM   11  H   UNL     1     -40.712 -52.982  11.310  1.00  0.00     0.211 HD
ENDBRANCH   1  10
BRANCH   1  12
HETATM   12  C   UNL     1     -40.345 -52.099  13.389  1.00  0.00     0.312 C 
BRANCH  12  13
HETATM   13  N   UNL     1     -40.141 -51.358  12.123  1.00  0.00     0.092 N 
HETATM   14  H   UNL     1     -40.071 -52.075  11.391  1.00  0.00     0.316 HD
BRANCH  13  15
HETATM   15  C   UNL     1     -41.246 -50.438  11.797  1.00  0.00     0.229 C 
HETATM   16  C   UNL     1     -42.087 -50.098  13.040  1.00  0.00     0.037 C 
HETATM   17  C   UNL     1     -43.297 -49.226  12.705  1.00  0.00     0.012 C 
HETATM   18  C   UNL     1     -42.940 -47.877  12.095  1.00  0.00     0.074 C 
HETATM   19  S   UNL     1     -41.957 -48.032  10.577  1.00  0.00    -0.167 SA
HETATM   20  C   UNL     1     -40.656 -49.143  11.201  1.00  0.00     0.109 C 
ENDBRANCH  13  15
ENDBRANCH  12  13
ENDBRANCH   1  12
TORSDOF 5
ENDMDL
MODEL 5
REMARK VINA RESULT:      -5.1      6.517      8.971
REMARK  5 active torsions:
REMARK  status: ('A' for Active; 'I' for Inactive)
REMARK    1  A    between atoms: C_4  and  C_8 
REMARK    2  A    between atoms: C_8  and  O_10 
REMARK    3  A    between atoms: C_8  and  C_11 
REMARK    4  A    between atoms: C_11  and  N_12 
REMARK    5  A    between atoms: N_12  and  C_13 
ROOT
HETATM    1  C   UNL     1     -42.381 -47.744  10.531  1.00  0.00     0.110 C 
HETATM    2  C   UNL     1     -42.667 -48.618  11.764  1.00  0.00     0.053 C 
ENDROOT
BRANCH   1   3
HETATM    3  C   UNL     1     -43.673 -47.281   9.904  1.00  0.00     0.011 A 
HETATM    4  C   UNL     1     -44.919 -47.887   9.912  1.00  0.00     0.121 A 
HETATM    5  N   UNL     1     -45.763 -47.055   9.233  1.00  0.00    -0.307 N 
HETATM    6  C   UNL     1     -47.175 -47.240   9.003  1.00  0.00     0.177 C 
HETATM    7  N   UNL     1     -45.158 -45.947   8.770  1.00  0.00    -0.310 N 
HETATM    8  C   UNL     1     -43.894 -46.087   9.174  1.00  0.00     0.119 A 
ATOM      9  HN  UNL     1     -45.569 -45.181   8.236  1.00  0.00     0.186 HD
ENDBRANCH   1   3
BRANCH   1  10
HETATM   10  O   UNL     1     -41.633 -48.558   9.603  1.00  0.00    -0.383 OA
HETATM   11  H   UNL     1     -41.696 -49.470   9.930  1.00  0.00     0.211 HD
ENDBRANCH   1  10
BRANCH   1  12
HETATM   12  C   UNL     1     -41.469 -46.529  10.907  1.00  0.00     0.312 C 
BRANCH  12  13
HETATM   13  N   UNL     1     -40.034 -46.814  10.677  1.00  0.00     0.092 N 
HETATM   14  H   UNL     1     -39.662 -45.989  10.193  1.00  0.00     0.316 HD
BRANCH  13  15
HETATM   15  C   UNL     1     -39.272 -47.032  11.921  1.00  0.00     0.229 C 
HETATM   16  C   UNL     1     -39.993 -46.430  13.140  1.00  0.00     0.037 C 
HETATM   17  C   UNL     1     -39.171 -46.557  14.423  1.00  0.00     0.012 C 
HETATM   18  C   UNL     1     -38.862 -47.993  14.823  1.00  0.00     0.074 C 
HETATM   19  S   UNL     1     -37.974 -48.905  13.529  1.00  0.00    -0.167 SA
HETATM   20  C   UNL     1     -39.081 -48.548  12.128  1.00  0.00     0.109 C 
ENDBRANCH  13  15
ENDBRANCH  12  13
ENDBRANCH   1  12
TORSDOF 5
ENDMDL
MODEL 6
REMARK VINA RESULT:      -5.1      4.338      5.567
REMARK  5 active torsions:
REMARK  status: ('A' for Active; 'I' for Inactive)
REMARK    1  A    between atoms: C_4  and  C_8 
REMARK    2  A    between atoms: C_8  and  O_10 
REMARK    3  A    between atoms: C_8  and  C_11 
REMARK    4  A    between atoms: C_11  and  N_12 
REMARK    5  A    between atoms: N_12  and  C_13 
ROOT
HETATM    1  C   UNL     1     -40.641 -50.135  11.736  1.00  0.00     0.110 C 
HETATM    2  C   UNL     1     -39.567 -49.228  12.360  1.00  0.00     0.053 C 
ENDROOT
BRANCH   1   3
HETATM    3  C   UNL     1     -40.490 -51.550  12.237  1.00  0.00     0.011 A 
HETATM    4  C   UNL     1     -39.697 -52.037  13.264  1.00  0.00     0.121 A 
HETATM    5  N   UNL     1     -39.941 -53.379  13.342  1.00  0.00    -0.307 N 
HETATM    6  C   UNL     1     -39.375 -54.317  14.280  1.00  0.00     0.177 C 
HETATM    7  N   UNL     1     -40.832 -53.812  12.433  1.00  0.00    -0.310 N 
HETATM    8  C   UNL     1     -41.161 -52.705  11.763  1.00  0.00     0.119 A 
ATOM      9  HN  UNL     1     -41.175 -54.761  12.289  1.00  0.00     0.186 HD
ENDBRANCH   1   3
BRANCH   1  10
HETATM   10  O   UNL     1     -40.454 -50.083  10.306  1.00  0.00    -0.383 OA
HETATM   11  H   UNL     1     -41.167 -49.522   9.958  1.00  0.00     0.211 HD
ENDBRANCH   1  10
BRANCH   1  12
HETATM   12  C   UNL     1     -42.076 -49.583  12.026  1.00  0.00     0.312 C 
BRANCH  12  13
HETATM   13  N   UNL     1     -42.556 -48.678  10.956  1.00  0.00     0.092 N 
HETATM   14  H   UNL     1     -43.429 -49.094  10.612  1.00  0.00     0.316 HD
BRANCH  13  15
HETATM   15  C   UNL     1     -42.823 -47.305  11.424  1.00  0.00     0.229 C 
HETATM   16  C   UNL     1     -42.707 -47.195  12.954  1.00  0.00     0.037 C 
HETATM   17  C   UNL     1     -43.079 -45.804  13.468  1.00  0.00     0.012 C 
HETATM   18  C   UNL     1     -42.197 -44.686  12.929  1.00  0.00     0.074 C 
HETATM   19  S   UNL     1     -42.201 -44.604  11.116  1.00  0.00    -0.167 SA
HETATM   20  C   UNL     1     -41.815 -46.347  10.757  1.00  0.00     0.109 C 
ENDBRANCH  13  15
ENDBRANCH  12  13
ENDBRANCH   1  12
TORSDOF 5
ENDMDL
MODEL 7
REMARK VINA RESULT:      -5.1      2.830      3.869
REMARK  5 active torsions:
REMARK  status: ('A' for Active; 'I' for Inactive)
REMARK    1  A    between atoms: C_4  and  C_8 
REMARK    2  A    between atoms: C_8  and  O_10 
REMARK    3  A    between atoms: C_8  and  C_11 
REMARK    4  A    between atoms: C_11  and  N_12 
REMARK    5  A    between atoms: N_12  and  C_13 
ROOT
HETATM    1  C   UNL     1     -40.704 -50.458  11.764  1.00  0.00     0.110 C 
HETATM    2  C   UNL     1     -41.951 -49.668  12.197  1.00  0.00     0.053 C 
ENDROOT
BRANCH   1   3
HETATM    3  C   UNL     1     -39.504 -50.032  12.574  1.00  0.00     0.011 A 
HETATM    4  C   UNL     1     -39.181 -48.780  13.072  1.00  0.00     0.121 A 
HETATM    5  N   UNL     1     -38.011 -48.925  13.763  1.00  0.00    -0.307 N 
HETATM    6  C   UNL     1     -37.293 -47.906  14.488  1.00  0.00     0.177 C 
HETATM    7  N   UNL     1     -37.536 -50.182  13.748  1.00  0.00    -0.310 N 
HETATM    8  C   UNL     1     -38.439 -50.850  13.026  1.00  0.00     0.119 A 
ATOM      9  HN  UNL     1     -36.687 -50.541  14.184  1.00  0.00     0.186 HD
ENDBRANCH   1   3
BRANCH   1  10
HETATM   10  O   UNL     1     -40.493 -50.175  10.364  1.00  0.00    -0.383 OA
HETATM   11  H   UNL     1     -40.892 -49.304  10.200  1.00  0.00     0.211 HD
ENDBRANCH   1  10
BRANCH   1  12
HETATM   12  C   UNL     1     -40.949 -51.999  11.884  1.00  0.00     0.312 C 
BRANCH  12  13
HETATM   13  N   UNL     1     -42.366 -52.360  11.654  1.00  0.00     0.092 N 
HETATM   14  H   UNL     1     -42.413 -52.695  10.684  1.00  0.00     0.316 HD
BRANCH  13  15
HETATM   15  C   UNL     1     -42.858 -53.417  12.557  1.00  0.00     0.229 C 
HETATM   16  C   UNL     1     -42.153 -53.366  13.924  1.00  0.00     0.037 C 
HETATM   17  C   UNL     1     -42.575 -54.515  14.840  1.00  0.00     0.012 C 
HETATM   18  C   UNL     1     -44.062 -54.535  15.168  1.00  0.00     0.074 C 
HETATM   19  S   UNL     1     -45.105 -54.624  13.684  1.00  0.00    -0.167 SA
HETATM   20  C   UNL     1     -44.377 -53.241  12.749  1.00  0.00     0.109 C 
ENDBRANCH  13  15
ENDBRANCH  12  13
ENDBRANCH   1  12
TORSDOF 5
ENDMDL
MODEL 8
REMARK VINA RESULT:      -4.9      4.133      6.466
REMARK  5 active torsions:
REMARK  status: ('A' for Active; 'I' for Inactive)
REMARK    1  A    between atoms: C_4  and  C_8 
REMARK    2  A    between atoms: C_8  and  O_10 
REMARK    3  A    between atoms: C_8  and  C_11 
REMARK    4  A    between atoms: C_11  and  N_12 
REMARK    5  A    between atoms: N_12  and  C_13 
ROOT
HETATM    1  C   UNL     1     -41.505 -49.186  12.029  1.00  0.00     0.110 C 
HETATM    2  C   UNL     1     -41.537 -48.944  13.548  1.00  0.00     0.053 C 
ENDROOT
BRANCH   1   3
HETATM    3  C   UNL     1     -41.258 -47.891  11.295  1.00  0.00     0.011 A 
HETATM    4  C   UNL     1     -40.191 -47.013  11.400  1.00  0.00     0.121 A 
HETATM    5  N   UNL     1     -40.422 -46.009  10.503  1.00  0.00    -0.307 N 
HETATM    6  C   UNL     1     -39.575 -44.876  10.222  1.00  0.00     0.177 C 
HETATM    7  N   UNL     1     -41.572 -46.158   9.822  1.00  0.00    -0.310 N 
HETATM    8  C   UNL     1     -42.078 -47.295  10.305  1.00  0.00     0.119 A 
ATOM      9  HN  UNL     1     -41.964 -45.547   9.106  1.00  0.00     0.186 HD
ENDBRANCH   1   3
BRANCH   1  10
HETATM   10  O   UNL     1     -42.789 -49.735  11.664  1.00  0.00    -0.383 OA
HETATM   11  H   UNL     1     -42.686 -50.701  11.681  1.00  0.00     0.211 HD
ENDBRANCH   1  10
BRANCH   1  12
HETATM   12  C   UNL     1     -40.429 -50.260  11.657  1.00  0.00     0.312 C 
BRANCH  12  13
HETATM   13  N   UNL     1     -41.038 -51.561  11.296  1.00  0.00     0.092 N 
HETATM   14  H   UNL     1     -40.584 -51.846  10.420  1.00  0.00     0.316 HD
BRANCH  13  15
HETATM   15  C   UNL     1     -40.832 -52.609  12.313  1.00  0.00     0.229 C 
HETATM   16  C   UNL     1     -39.762 -52.198  13.340  1.00  0.00     0.037 C 
HETATM   17  C   UNL     1     -39.460 -53.311  14.344  1.00  0.00     0.012 C 
HETATM   18  C   UNL     1     -40.660 -53.736  15.179  1.00  0.00     0.074 C 
HETATM   19  S   UNL     1     -42.057 -54.296  14.165  1.00  0.00    -0.167 SA
HETATM   20  C   UNL     1     -42.169 -52.873  13.034  1.00  0.00     0.109 C 
ENDBRANCH  13  15
ENDBRANCH  12  13
ENDBRANCH   1  12
TORSDOF 5
ENDMDL
MODEL 9
REMARK VINA RESULT:      -4.8      3.636      5.746
REMARK  5 active torsions:
REMARK  status: ('A' for Active; 'I' for Inactive)
REMARK    1  A    between atoms: C_4  and  C_8 
REMARK    2  A    between atoms: C_8  and  O_10 
REMARK    3  A    between atoms: C_8  and  C_11 
REMARK    4  A    between atoms: C_11  and  N_12 
REMARK    5  A    between atoms: N_12  and  C_13 
ROOT
HETATM    1  C   UNL     1     -42.087 -49.086  13.203  1.00  0.00     0.110 C 
HETATM    2  C   UNL     1     -40.777 -48.514  13.773  1.00  0.00     0.053 C 
ENDROOT
BRANCH   1   3
HETATM    3  C   UNL     1     -42.297 -48.607  11.788  1.00  0.00     0.011 A 
HETATM    4  C   UNL     1     -43.381 -47.942  11.238  1.00  0.00     0.121 A 
HETATM    5  N   UNL     1     -43.070 -47.705   9.929  1.00  0.00    -0.307 N 
HETATM    6  C   UNL     1     -43.873 -47.010   8.952  1.00  0.00     0.177 C 
HETATM    7  N   UNL     1     -41.862 -48.175   9.575  1.00  0.00    -0.310 N 
HETATM    8  C   UNL     1     -41.396 -48.724  10.699  1.00  0.00     0.119 A 
ATOM      9  HN  UNL     1     -41.408 -48.125   8.663  1.00  0.00     0.186 HD
ENDBRANCH   1   3
BRANCH   1  10
HETATM   10  O   UNL     1     -43.154 -48.620  14.057  1.00  0.00    -0.383 OA
HETATM   11  H   UNL     1     -43.869 -48.332  13.465  1.00  0.00     0.211 HD
ENDBRANCH   1  10
BRANCH   1  12
HETATM   12  C   UNL     1     -42.094 -50.649  13.278  1.00  0.00     0.312 C 
BRANCH  12  13
HETATM   13  N   UNL     1     -43.271 -51.237  12.598  1.00  0.00     0.092 N 
HETATM   14  H   UNL     1     -42.891 -51.891  11.904  1.00  0.00     0.316 HD
BRANCH  13  15
HETATM   15  C   UNL     1     -44.172 -51.966  13.509  1.00  0.00     0.229 C 
HETATM   16  C   UNL     1     -45.493 -51.207  13.728  1.00  0.00     0.037 C 
HETATM   17  C   UNL     1     -46.399 -51.896  14.748  1.00  0.00     0.012 C 
HETATM   18  C   UNL     1     -46.821 -53.305  14.352  1.00  0.00     0.074 C 
HETATM   19  S   UNL     1     -45.405 -54.405  14.066  1.00  0.00    -0.167 SA
HETATM   20  C   UNL     1     -44.467 -53.357  12.910  1.00  0.00     0.109 C 
ENDBRANCH  13  15
ENDBRANCH  12  13
ENDBRANCH   1  12
TORSDOF 5
ENDMDL
