MODEL 1
REMARK VINA RESULT:      -6.3      0.000      0.000
REMARK  5 active torsions:
REMARK  status: ('A' for Active; 'I' for Inactive)
REMARK    1  A    between atoms: C_2  and  C_5 
REMARK       I    between atoms: C_5  and  N_7 
REMARK    2  A    between atoms: C_10  and  C_13 
REMARK       I    between atoms: C_13  and  N_15 
REMARK    3  A    between atoms: N_15  and  C_16 
REMARK    4  A    between atoms: C_16  and  C_17 
REMARK    5  A    between atoms: C_17  and  C_18 
ROOT
HETATM    1  C   UNL     1     -40.858 -49.529  12.007  1.00  0.00     0.221 C 
HETATM    2  O   UNL     1     -40.525 -50.009  10.927  1.00  0.00    -0.273 OA
HETATM    3  N   UNL     1     -41.240 -48.214  12.129  1.00  0.00    -0.360 N 
HETATM    4  H   UNL     1     -41.819 -47.963  12.917  1.00  0.00     0.162 HD
ENDROOT
BRANCH   1   5
HETATM    5  C   UNL     1     -40.915 -50.348  13.299  1.00  0.00     0.081 C 
HETATM    6  C   UNL     1     -40.946 -51.865  13.059  1.00  0.00     0.034 C 
HETATM    7  C   UNL     1     -42.279 -52.343  12.482  1.00  0.00     0.126 C 
HETATM    8  N   UNL     1     -43.428 -51.840  13.243  1.00  0.00    -0.351 N 
HETATM    9  C   UNL     1     -44.477 -52.712  13.511  1.00  0.00     0.227 C 
HETATM   10  C   UNL     1     -43.429 -50.392  13.418  1.00  0.00     0.126 C 
HETATM   11  O   UNL     1     -44.307 -53.931  13.376  1.00  0.00    -0.273 OA
HETATM   12  C   UNL     1     -42.147 -49.942  14.116  1.00  0.00     0.034 C 
BRANCH   9  13
HETATM   13  C   UNL     1     -45.878 -52.183  13.942  1.00  0.00     0.030 C 
HETATM   14  C   UNL     1     -46.726 -53.393  14.414  1.00  0.00     0.025 C 
HETATM   15  C   UNL     1     -46.614 -51.589  12.728  1.00  0.00     0.025 C 
HETATM   16  C   UNL     1     -45.833 -51.224  15.144  1.00  0.00     0.025 C 
ENDBRANCH   9  13
ENDBRANCH   1   5
BRANCH   3  17
HETATM   17  C   UNL     1     -41.286 -47.387  10.930  1.00  0.00     0.128 C 
BRANCH  17  18
HETATM   18  C   UNL     1     -42.603 -46.639  10.805  1.00  0.00     0.076 C 
BRANCH  18  19
HETATM   19  C   UNL     1     -43.452 -47.191   9.692  1.00  0.00     0.010 A 
HETATM   20  C   UNL     1     -44.822 -47.371   9.869  1.00  0.00     0.025 A 
HETATM   21  C   UNL     1     -45.566 -47.918   8.828  1.00  0.00     0.003 A 
HETATM   22  C   UNL     1     -44.930 -48.258   7.640  1.00  0.00     0.017 A 
HETATM   23  C   UNL     1     -43.570 -48.025   7.539  1.00  0.00     0.088 A 
HETATM   24  N   UNL     1     -42.820 -47.499   8.534  1.00  0.00    -0.369 N 
ATOM     25  HN  UNL     1     -41.819 -47.342   8.418  1.00  0.00     0.165 HD
ENDBRANCH  18  19
ENDBRANCH  17  18
ENDBRANCH   3  17
TORSDOF 5
ENDMDL
MODEL 2
REMARK VINA RESULT:      -6.2      3.822      6.698
REMARK  5 active torsions:
REMARK  status: ('A' for Active; 'I' for Inactive)
REMARK    1  A    between atoms: C_2  and  C_5 
REMARK       I    between atoms: C_5  and  N_7 
REMARK    2  A    between atoms: C_10  and  C_13 
REMARK       I    between atoms: C_13  and  N_15 
REMARK    3  A    between atoms: N_15  and  C_16 
REMARK    4  A    between atoms: C_16  and  C_17 
REMARK    5  A    between atoms: C_17  and  C_18 
ROOT
HETATM    1  C   UNL     1     -42.680 -53.839  13.410  1.00  0.00     0.221 C 
HETATM    2  O   UNL     1     -42.994 -53.894  14.595  1.00  0.00    -0.273 OA
HETATM    3  N   UNL     1     -43.608 -53.597  12.425  1.00  0.00    -0.360 N 
HETATM    4  H   UNL     1     -43.276 -53.222  11.547  1.00  0.00     0.162 HD
ENDROOT
BRANCH   1   5
HETATM    5  C   UNL     1     -41.237 -53.996  12.924  1.00  0.00     0.081 C 
HETATM    6  C   UNL     1     -40.212 -54.051  14.066  1.00  0.00     0.034 C 
HETATM    7  C   UNL     1     -40.024 -52.699  14.756  1.00  0.00     0.126 C 
HETATM    8  N   UNL     1     -39.788 -51.613  13.798  1.00  0.00    -0.351 N 
HETATM    9  C   UNL     1     -38.809 -50.671  14.095  1.00  0.00     0.227 C 
HETATM   10  C   UNL     1     -40.796 -51.524  12.749  1.00  0.00     0.126 C 
HETATM   11  O   UNL     1     -37.975 -50.915  14.976  1.00  0.00    -0.273 OA
HETATM   12  C   UNL     1     -40.880 -52.842  11.981  1.00  0.00     0.034 C 
BRANCH   9  13
HETATM   13  C   UNL     1     -38.764 -49.295  13.366  1.00  0.00     0.030 C 
HETATM   14  C   UNL     1     -37.658 -48.433  14.029  1.00  0.00     0.025 C 
HETATM   15  C   UNL     1     -40.087 -48.539  13.583  1.00  0.00     0.025 C 
HETATM   16  C   UNL     1     -38.367 -49.394  11.882  1.00  0.00     0.025 C 
ENDBRANCH   9  13
ENDBRANCH   1   5
BRANCH   3  17
HETATM   17  C   UNL     1     -44.992 -53.360  12.814  1.00  0.00     0.128 C 
BRANCH  17  18
HETATM   18  C   UNL     1     -45.298 -51.878  12.955  1.00  0.00     0.076 C 
BRANCH  18  19
HETATM   19  C   UNL     1     -45.611 -51.509  14.380  1.00  0.00     0.010 A 
HETATM   20  C   UNL     1     -46.921 -51.551  14.851  1.00  0.00     0.025 A 
HETATM   21  C   UNL     1     -47.174 -51.168  16.165  1.00  0.00     0.003 A 
HETATM   22  C   UNL     1     -46.117 -50.768  16.973  1.00  0.00     0.017 A 
HETATM   23  C   UNL     1     -44.843 -50.778  16.434  1.00  0.00     0.088 A 
HETATM   24  N   UNL     1     -44.567 -51.139  15.160  1.00  0.00    -0.369 N 
ATOM     25  HN  UNL     1     -43.612 -51.134  14.802  1.00  0.00     0.165 HD
ENDBRANCH  18  19
ENDBRANCH  17  18
ENDBRANCH   3  17
TORSDOF 5
ENDMDL
MODEL 3
REMARK VINA RESULT:      -6.0      1.741      2.519
REMARK  5 active torsions:
REMARK  status: ('A' for Active; 'I' for Inactive)
REMARK    1  A    between atoms: C_2  and  C_5 
REMARK       I    between atoms: C_5  and  N_7 
REMARK    2  A    between atoms: C_10  and  C_13 
REMARK       I    between atoms: C_13  and  N_15 
REMARK    3  A    between atoms: N_15  and  C_16 
REMARK    4  A    between atoms: C_16  and  C_17 
REMARK    5  A    between atoms: C_17  and  C_18 
ROOT
HETATM    1  C   UNL     1     -40.207 -51.856  12.824  1.00  0.00     0.221 C 
HETATM    2  O   UNL     1     -40.440 -52.317  11.711  1.00  0.00    -0.273 OA
HETATM    3  N   UNL     1     -39.508 -50.683  12.990  1.00  0.00    -0.360 N 
HETATM    4  H   UNL     1     -39.640 -50.174  13.853  1.00  0.00     0.162 HD
ENDROOT
BRANCH   1   5
HETATM    5  C   UNL     1     -40.697 -52.513  14.116  1.00  0.00     0.081 C 
HETATM    6  C   UNL     1     -41.297 -53.910  13.901  1.00  0.00     0.034 C 
HETATM    7  C   UNL     1     -42.653 -53.866  13.194  1.00  0.00     0.126 C 
HETATM    8  N   UNL     1     -43.577 -52.914  13.820  1.00  0.00    -0.351 N 
HETATM    9  C   UNL     1     -44.903 -53.295  13.991  1.00  0.00     0.227 C 
HETATM   10  C   UNL     1     -43.027 -51.572  13.969  1.00  0.00     0.126 C 
HETATM   11  O   UNL     1     -45.212 -54.490  13.895  1.00  0.00    -0.273 OA
HETATM   12  C   UNL     1     -41.740 -51.614  14.791  1.00  0.00     0.034 C 
BRANCH   9  13
HETATM   13  C   UNL     1     -46.018 -52.241  14.261  1.00  0.00     0.030 C 
HETATM   14  C   UNL     1     -47.262 -52.985  14.813  1.00  0.00     0.025 C 
HETATM   15  C   UNL     1     -46.458 -51.587  12.940  1.00  0.00     0.025 C 
HETATM   16  C   UNL     1     -45.647 -51.212  15.344  1.00  0.00     0.025 C 
ENDBRANCH   9  13
ENDBRANCH   1   5
BRANCH   3  17
HETATM   17  C   UNL     1     -39.073 -49.956  11.804  1.00  0.00     0.128 C 
BRANCH  17  18
HETATM   18  C   UNL     1     -39.374 -48.470  11.906  1.00  0.00     0.076 C 
BRANCH  18  19
HETATM   19  C   UNL     1     -40.813 -48.171  11.578  1.00  0.00     0.010 A 
HETATM   20  C   UNL     1     -41.754 -48.023  12.594  1.00  0.00     0.025 A 
HETATM   21  C   UNL     1     -43.081 -47.783  12.248  1.00  0.00     0.003 A 
HETATM   22  C   UNL     1     -43.430 -47.687  10.907  1.00  0.00     0.017 A 
HETATM   23  C   UNL     1     -42.428 -47.824   9.962  1.00  0.00     0.088 A 
HETATM   24  N   UNL     1     -41.132 -48.062  10.266  1.00  0.00    -0.369 N 
ATOM     25  HN  UNL     1     -40.424 -48.155   9.538  1.00  0.00     0.165 HD
ENDBRANCH  18  19
ENDBRANCH  17  18
ENDBRANCH   3  17
TORSDOF 5
ENDMDL
MODEL 4
REMARK VINA RESULT:      -5.9      3.824      5.285
REMARK  5 active torsions:
REMARK  status: ('A' for Active; 'I' for Inactive)
REMARK    1  A    between atoms: C_2  and  C_5 
REMARK       I    between atoms: C_5  and  N_7 
REMARK    2  A    between atoms: C_10  and  C_13 
REMARK       I    between atoms: C_13  and  N_15 
REMARK    3  A    between atoms: N_15  and  C_16 
REMARK    4  A    between atoms: C_16  and  C_17 
REMARK    5  A    between atoms: C_17  and  C_18 
ROOT
HETATM    1  C   UNL     1     -40.246 -53.241  15.683  1.00  0.00     0.221 C 
HETATM    2  O   UNL     1     -39.606 -53.551  14.683  1.00  0.00    -0.273 OA
HETATM    3  N   UNL     1     -39.852 -52.213  16.506  1.00  0.00    -0.360 N 
HETATM    4  H   UNL     1     -40.555 -51.776  17.085  1.00  0.00     0.162 HD
ENDROOT
BRANCH   1   5
HETATM    5  C   UNL     1     -41.549 -53.936  16.085  1.00  0.00     0.081 C 
HETATM    6  C   UNL     1     -42.070 -54.916  15.023  1.00  0.00     0.034 C 
HETATM    7  C   UNL     1     -42.619 -54.206  13.784  1.00  0.00     0.126 C 
HETATM    8  N   UNL     1     -43.569 -53.142  14.127  1.00  0.00    -0.351 N 
HETATM    9  C   UNL     1     -44.728 -53.021  13.368  1.00  0.00     0.227 C 
HETATM   10  C   UNL     1     -43.050 -52.178  15.090  1.00  0.00     0.126 C 
HETATM   11  O   UNL     1     -45.078 -53.956  12.637  1.00  0.00    -0.273 OA
HETATM   12  C   UNL     1     -42.628 -52.887  16.375  1.00  0.00     0.034 C 
BRANCH   9  13
HETATM   13  C   UNL     1     -45.574 -51.713  13.390  1.00  0.00     0.030 C 
HETATM   14  C   UNL     1     -46.617 -51.794  12.244  1.00  0.00     0.025 C 
HETATM   15  C   UNL     1     -44.682 -50.501  13.075  1.00  0.00     0.025 C 
HETATM   16  C   UNL     1     -46.399 -51.532  14.676  1.00  0.00     0.025 C 
ENDBRANCH   9  13
ENDBRANCH   1   5
BRANCH   3  17
HETATM   17  C   UNL     1     -38.662 -51.451  16.149  1.00  0.00     0.128 C 
BRANCH  17  18
HETATM   18  C   UNL     1     -39.010 -50.138  15.465  1.00  0.00     0.076 C 
BRANCH  18  19
HETATM   19  C   UNL     1     -38.498 -50.097  14.051  1.00  0.00     0.010 A 
HETATM   20  C   UNL     1     -38.838 -49.043  13.205  1.00  0.00     0.025 A 
HETATM   21  C   UNL     1     -38.374 -49.060  11.893  1.00  0.00     0.003 A 
HETATM   22  C   UNL     1     -37.577 -50.114  11.465  1.00  0.00     0.017 A 
HETATM   23  C   UNL     1     -37.267 -51.109  12.376  1.00  0.00     0.088 A 
HETATM   24  N   UNL     1     -37.707 -51.123  13.655  1.00  0.00    -0.369 N 
ATOM     25  HN  UNL     1     -37.454 -51.875  14.295  1.00  0.00     0.165 HD
ENDBRANCH  18  19
ENDBRANCH  17  18
ENDBRANCH   3  17
TORSDOF 5
ENDMDL
MODEL 5
REMARK VINA RESULT:      -5.8      3.668      7.388
REMARK  5 active torsions:
REMARK  status: ('A' for Active; 'I' for Inactive)
REMARK    1  A    between atoms: C_2  and  C_5 
REMARK       I    between atoms: C_5  and  N_7 
REMARK    2  A    between atoms: C_10  and  C_13 
REMARK       I    between atoms: C_13  and  N_15 
REMARK    3  A    between atoms: N_15  and  C_16 
REMARK    4  A    between atoms: C_16  and  C_17 
REMARK    5  A    between atoms: C_17  and  C_18 
ROOT
HETATM    1  C   UNL     1     -38.916 -50.326  13.927  1.00  0.00     0.221 C 
HETATM    2  O   UNL     1     -39.334 -50.214  15.076  1.00  0.00    -0.273 OA
HETATM    3  N   UNL     1     -39.385 -51.299  13.077  1.00  0.00    -0.360 N 
HETATM    4  H   UNL     1     -39.287 -51.145  12.083  1.00  0.00     0.162 HD
ENDROOT
BRANCH   1   5
HETATM    5  C   UNL     1     -37.871 -49.383  13.326  1.00  0.00     0.081 C 
HETATM    6  C   UNL     1     -37.476 -48.233  14.265  1.00  0.00     0.034 C 
HETATM    7  C   UNL     1     -38.588 -47.195  14.425  1.00  0.00     0.126 C 
HETATM    8  N   UNL     1     -39.124 -46.749  13.135  1.00  0.00    -0.351 N 
HETATM    9  C   UNL     1     -39.378 -45.393  12.957  1.00  0.00     0.227 C 
HETATM   10  C   UNL     1     -39.554 -47.840  12.268  1.00  0.00     0.126 C 
HETATM   11  O   UNL     1     -38.888 -44.573  13.744  1.00  0.00    -0.273 OA
HETATM   12  C   UNL     1     -38.396 -48.800  12.009  1.00  0.00     0.034 C 
BRANCH   9  13
HETATM   13  C   UNL     1     -40.300 -44.888  11.808  1.00  0.00     0.030 C 
HETATM   14  C   UNL     1     -40.331 -43.338  11.860  1.00  0.00     0.025 C 
HETATM   15  C   UNL     1     -41.746 -45.356  12.048  1.00  0.00     0.025 C 
HETATM   16  C   UNL     1     -39.783 -45.237  10.401  1.00  0.00     0.025 C 
ENDBRANCH   9  13
ENDBRANCH   1   5
BRANCH   3  17
HETATM   17  C   UNL     1     -40.438 -52.190  13.550  1.00  0.00     0.128 C 
BRANCH  17  18
HETATM   18  C   UNL     1     -41.219 -52.808  12.401  1.00  0.00     0.076 C 
BRANCH  18  19
HETATM   19  C   UNL     1     -42.508 -53.422  12.875  1.00  0.00     0.010 A 
HETATM   20  C   UNL     1     -42.538 -54.206  14.026  1.00  0.00     0.025 A 
HETATM   21  C   UNL     1     -43.743 -54.786  14.411  1.00  0.00     0.003 A 
HETATM   22  C   UNL     1     -44.883 -54.561  13.649  1.00  0.00     0.017 A 
HETATM   23  C   UNL     1     -44.771 -53.750  12.532  1.00  0.00     0.088 A 
HETATM   24  N   UNL     1     -43.613 -53.177  12.131  1.00  0.00    -0.369 N 
ATOM     25  HN  UNL     1     -43.575 -52.585  11.302  1.00  0.00     0.165 HD
ENDBRANCH  18  19
ENDBRANCH  17  18
ENDBRANCH   3  17
TORSDOF 5
ENDMDL
MODEL 6
REMARK VINA RESULT:      -5.8      2.777      3.515
REMARK  5 active torsions:
REMARK  status: ('A' for Active; 'I' for Inactive)
REMARK    1  A    between atoms: C_2  and  C_5 
REMARK       I    between atoms: C_5  and  N_7 
REMARK    2  A    between atoms: C_10  and  C_13 
REMARK       I    between atoms: C_13  and  N_15 
REMARK    3  A    between atoms: N_15  and  C_16 
REMARK    4  A    between atoms: C_16  and  C_17 
REMARK    5  A    between atoms: C_17  and  C_18 
ROOT
HETATM    1  C   UNL     1     -39.893 -51.245  13.228  1.00  0.00     0.221 C 
HETATM    2  O   UNL     1     -39.521 -50.405  14.043  1.00  0.00    -0.273 OA
HETATM    3  N   UNL     1     -39.956 -50.969  11.882  1.00  0.00    -0.360 N 
HETATM    4  H   UNL     1     -39.923 -51.749  11.240  1.00  0.00     0.162 HD
ENDROOT
BRANCH   1   5
HETATM    5  C   UNL     1     -40.282 -52.671  13.622  1.00  0.00     0.081 C 
HETATM    6  C   UNL     1     -41.043 -53.422  12.519  1.00  0.00     0.034 C 
HETATM    7  C   UNL     1     -42.466 -52.895  12.322  1.00  0.00     0.126 C 
HETATM    8  N   UNL     1     -43.202 -52.791  13.587  1.00  0.00    -0.351 N 
HETATM    9  C   UNL     1     -44.529 -53.207  13.616  1.00  0.00     0.227 C 
HETATM   10  C   UNL     1     -42.503 -52.027  14.613  1.00  0.00     0.126 C 
HETATM   11  O   UNL     1     -44.967 -53.911  12.697  1.00  0.00    -0.273 OA
HETATM   12  C   UNL     1     -41.135 -52.643  14.895  1.00  0.00     0.034 C 
BRANCH   9  13
HETATM   13  C   UNL     1     -45.487 -52.772  14.764  1.00  0.00     0.030 C 
HETATM   14  C   UNL     1     -46.841 -53.503  14.566  1.00  0.00     0.025 C 
HETATM   15  C   UNL     1     -45.790 -51.267  14.657  1.00  0.00     0.025 C 
HETATM   16  C   UNL     1     -45.002 -53.187  16.164  1.00  0.00     0.025 C 
ENDBRANCH   9  13
ENDBRANCH   1   5
BRANCH   3  17
HETATM   17  C   UNL     1     -39.529 -49.656  11.418  1.00  0.00     0.128 C 
BRANCH  17  18
HETATM   18  C   UNL     1     -40.698 -48.694  11.276  1.00  0.00     0.076 C 
BRANCH  18  19
HETATM   19  C   UNL     1     -40.272 -47.267  11.495  1.00  0.00     0.010 A 
HETATM   20  C   UNL     1     -40.012 -46.794  12.779  1.00  0.00     0.025 A 
HETATM   21  C   UNL     1     -39.655 -45.459  12.942  1.00  0.00     0.003 A 
HETATM   22  C   UNL     1     -39.555 -44.639  11.826  1.00  0.00     0.017 A 
HETATM   23  C   UNL     1     -39.808 -45.194  10.584  1.00  0.00     0.088 A 
HETATM   24  N   UNL     1     -40.161 -46.486  10.394  1.00  0.00    -0.369 N 
ATOM     25  HN  UNL     1     -40.338 -46.856   9.460  1.00  0.00     0.165 HD
ENDBRANCH  18  19
ENDBRANCH  17  18
ENDBRANCH   3  17
TORSDOF 5
ENDMDL
MODEL 7
REMARK VINA RESULT:      -5.8      2.415      4.240
REMARK  5 active torsions:
REMARK  status: ('A' for Active; 'I' for Inactive)
REMARK    1  A    between atoms: C_2  and  C_5 
REMARK       I    between atoms: C_5  and  N_7 
REMARK    2  A    between atoms: C_10  and  C_13 
REMARK       I    between atoms: C_13  and  N_15 
REMARK    3  A    between atoms: N_15  and  C_16 
REMARK    4  A    between atoms: C_16  and  C_17 
REMARK    5  A    between atoms: C_17  and  C_18 
ROOT
HETATM    1  C   UNL     1     -42.243 -53.640  13.058  1.00  0.00     0.221 C 
HETATM    2  O   UNL     1     -41.273 -53.997  13.719  1.00  0.00    -0.273 OA
HETATM    3  N   UNL     1     -42.147 -52.650  12.108  1.00  0.00    -0.360 N 
HETATM    4  H   UNL     1     -42.841 -52.633  11.373  1.00  0.00     0.162 HD
ENDROOT
BRANCH   1   5
HETATM    5  C   UNL     1     -43.627 -54.279  13.198  1.00  0.00     0.081 C 
HETATM    6  C   UNL     1     -44.733 -53.503  12.468  1.00  0.00     0.034 C 
HETATM    7  C   UNL     1     -45.075 -52.179  13.152  1.00  0.00     0.126 C 
HETATM    8  N   UNL     1     -45.314 -52.341  14.590  1.00  0.00    -0.351 N 
HETATM    9  C   UNL     1     -46.381 -51.658  15.164  1.00  0.00     0.227 C 
HETATM   10  C   UNL     1     -44.235 -53.024  15.293  1.00  0.00     0.126 C 
HETATM   11  O   UNL     1     -47.263 -51.182  14.437  1.00  0.00    -0.273 OA
HETATM   12  C   UNL     1     -43.992 -54.402  14.681  1.00  0.00     0.034 C 
BRANCH   9  13
HETATM   13  C   UNL     1     -46.470 -51.446  16.705  1.00  0.00     0.030 C 
HETATM   14  C   UNL     1     -47.890 -50.916  17.038  1.00  0.00     0.025 C 
HETATM   15  C   UNL     1     -45.487 -50.347  17.144  1.00  0.00     0.025 C 
HETATM   16  C   UNL     1     -46.320 -52.744  17.517  1.00  0.00     0.025 C 
ENDBRANCH   9  13
ENDBRANCH   1   5
BRANCH   3  17
HETATM   17  C   UNL     1     -40.845 -52.044  11.860  1.00  0.00     0.128 C 
BRANCH  17  18
HETATM   18  C   UNL     1     -40.599 -50.839  12.753  1.00  0.00     0.076 C 
BRANCH  18  19
HETATM   19  C   UNL     1     -40.814 -49.547  12.011  1.00  0.00     0.010 A 
HETATM   20  C   UNL     1     -39.827 -48.564  12.002  1.00  0.00     0.025 A 
HETATM   21  C   UNL     1     -40.079 -47.368  11.334  1.00  0.00     0.003 A 
HETATM   22  C   UNL     1     -41.296 -47.191  10.689  1.00  0.00     0.017 A 
HETATM   23  C   UNL     1     -42.212 -48.227  10.728  1.00  0.00     0.088 A 
HETATM   24  N   UNL     1     -41.998 -49.398  11.372  1.00  0.00    -0.369 N 
ATOM     25  HN  UNL     1     -42.701 -50.137  11.375  1.00  0.00     0.165 HD
ENDBRANCH  18  19
ENDBRANCH  17  18
ENDBRANCH   3  17
TORSDOF 5
ENDMDL
MODEL 8
REMARK VINA RESULT:      -5.8      3.241      7.086
REMARK  5 active torsions:
REMARK  status: ('A' for Active; 'I' for Inactive)
REMARK    1  A    between atoms: C_2  and  C_5 
REMARK       I    between atoms: C_5  and  N_7 
REMARK    2  A    between atoms: C_10  and  C_13 
REMARK       I    between atoms: C_13  and  N_15 
REMARK    3  A    between atoms: N_15  and  C_16 
REMARK    4  A    between atoms: C_16  and  C_17 
REMARK    5  A    between atoms: C_17  and  C_18 
ROOT
HETATM    1  C   UNL     1     -43.690 -51.169  15.179  1.00  0.00     0.221 C 
HETATM    2  O   UNL     1     -43.330 -51.508  16.302  1.00  0.00    -0.273 OA
HETATM    3  N   UNL     1     -44.447 -51.994  14.381  1.00  0.00    -0.360 N 
HETATM    4  H   UNL     1     -44.998 -51.566  13.650  1.00  0.00     0.162 HD
ENDROOT
BRANCH   1   5
HETATM    5  C   UNL     1     -43.365 -49.799  14.580  1.00  0.00     0.081 C 
HETATM    6  C   UNL     1     -43.406 -49.779  13.045  1.00  0.00     0.034 C 
HETATM    7  C   UNL     1     -42.235 -50.534  12.414  1.00  0.00     0.126 C 
HETATM    8  N   UNL     1     -40.943 -50.129  12.979  1.00  0.00    -0.351 N 
HETATM    9  C   UNL     1     -39.872 -49.944  12.111  1.00  0.00     0.227 C 
HETATM   10  C   UNL     1     -40.886 -50.206  14.433  1.00  0.00     0.126 C 
HETATM   11  O   UNL     1     -40.083 -49.832  10.897  1.00  0.00    -0.273 OA
HETATM   12  C   UNL     1     -41.981 -49.341  15.053  1.00  0.00     0.034 C 
BRANCH   9  13
HETATM   13  C   UNL     1     -38.405 -49.914  12.634  1.00  0.00     0.030 C 
HETATM   14  C   UNL     1     -37.457 -49.827  11.409  1.00  0.00     0.025 C 
HETATM   15  C   UNL     1     -38.070 -51.238  13.344  1.00  0.00     0.025 C 
HETATM   16  C   UNL     1     -38.078 -48.677  13.489  1.00  0.00     0.025 C 
ENDBRANCH   9  13
ENDBRANCH   1   5
BRANCH   3  17
HETATM   17  C   UNL     1     -44.863 -53.287  14.910  1.00  0.00     0.128 C 
BRANCH  17  18
HETATM   18  C   UNL     1     -44.286 -54.442  14.108  1.00  0.00     0.076 C 
BRANCH  18  19
HETATM   19  C   UNL     1     -42.782 -54.396  14.072  1.00  0.00     0.010 A 
HETATM   20  C   UNL     1     -42.038 -54.644  15.224  1.00  0.00     0.025 A 
HETATM   21  C   UNL     1     -40.651 -54.557  15.158  1.00  0.00     0.003 A 
HETATM   22  C   UNL     1     -40.044 -54.237  13.950  1.00  0.00     0.017 A 
HETATM   23  C   UNL     1     -40.856 -54.028  12.848  1.00  0.00     0.088 A 
HETATM   24  N   UNL     1     -42.206 -54.101  12.882  1.00  0.00    -0.369 N 
ATOM     25  HN  UNL     1     -42.767 -53.941  12.046  1.00  0.00     0.165 HD
ENDBRANCH  18  19
ENDBRANCH  17  18
ENDBRANCH   3  17
TORSDOF 5
ENDMDL
MODEL 9
REMARK VINA RESULT:      -5.6      3.335      4.581
REMARK  5 active torsions:
REMARK  status: ('A' for Active; 'I' for Inactive)
REMARK    1  A    between atoms: C_2  and  C_5 
REMARK       I    between atoms: C_5  and  N_7 
REMARK    2  A    between atoms: C_10  and  C_13 
REMARK       I    between atoms: C_13  and  N_15 
REMARK    3  A    between atoms: N_15  and  C_16 
REMARK    4  A    between atoms: C_16  and  C_17 
REMARK    5  A    between atoms: C_17  and  C_18 
ROOT
HETATM    1  C   UNL     1     -39.674 -52.887  14.733  1.00  0.00     0.221 C 
HETATM    2  O   UNL     1     -39.332 -52.469  15.835  1.00  0.00    -0.273 OA
HETATM    3  N   UNL     1     -39.185 -52.343  13.569  1.00  0.00    -0.360 N 
HETATM    4  H   UNL     1     -39.208 -52.914  12.736  1.00  0.00     0.162 HD
ENDROOT
BRANCH   1   5
HETATM    5  C   UNL     1     -40.635 -54.064  14.551  1.00  0.00     0.081 C 
HETATM    6  C   UNL     1     -41.164 -54.203  13.116  1.00  0.00     0.034 C 
HETATM    7  C   UNL     1     -42.156 -53.100  12.744  1.00  0.00     0.126 C 
HETATM    8  N   UNL     1     -43.210 -52.936  13.751  1.00  0.00    -0.351 N 
HETATM    9  C   UNL     1     -44.518 -52.753  13.316  1.00  0.00     0.227 C 
HETATM   10  C   UNL     1     -42.704 -52.744  15.105  1.00  0.00     0.126 C 
HETATM   11  O   UNL     1     -44.814 -53.020  12.145  1.00  0.00    -0.273 OA
HETATM   12  C   UNL     1     -41.819 -53.920  15.513  1.00  0.00     0.034 C 
BRANCH   9  13
HETATM   13  C   UNL     1     -45.612 -52.179  14.265  1.00  0.00     0.030 C 
HETATM   14  C   UNL     1     -46.770 -51.629  13.390  1.00  0.00     0.025 C 
HETATM   15  C   UNL     1     -45.055 -50.976  15.047  1.00  0.00     0.025 C 
HETATM   16  C   UNL     1     -46.258 -53.238  15.175  1.00  0.00     0.025 C 
ENDBRANCH   9  13
ENDBRANCH   1   5
BRANCH   3  17
HETATM   17  C   UNL     1     -38.206 -51.268  13.659  1.00  0.00     0.128 C 
BRANCH  17  18
HETATM   18  C   UNL     1     -38.086 -50.497  12.354  1.00  0.00     0.076 C 
BRANCH  18  19
HETATM   19  C   UNL     1     -38.622 -49.097  12.486  1.00  0.00     0.010 A 
HETATM   20  C   UNL     1     -38.366 -48.345  13.630  1.00  0.00     0.025 A 
HETATM   21  C   UNL     1     -38.910 -47.068  13.729  1.00  0.00     0.003 A 
HETATM   22  C   UNL     1     -39.681 -46.572  12.685  1.00  0.00     0.017 A 
HETATM   23  C   UNL     1     -39.868 -47.376  11.574  1.00  0.00     0.088 A 
HETATM   24  N   UNL     1     -39.356 -48.622  11.451  1.00  0.00    -0.369 N 
ATOM     25  HN  UNL     1     -39.517 -49.182  10.614  1.00  0.00     0.165 HD
ENDBRANCH  18  19
ENDBRANCH  17  18
ENDBRANCH   3  17
TORSDOF 5
ENDMDL
