MODEL 1
REMARK VINA RESULT:      -6.7      0.000      0.000
REMARK  5 active torsions:
REMARK  status: ('A' for Active; 'I' for Inactive)
REMARK    1  A    between atoms: N_6  and  C_7 
REMARK    2  A    between atoms: C_7  and  C_8 
REMARK    3  A    between atoms: C_8  and  O_9 
REMARK    4  A    between atoms: C_8  and  C_10 
REMARK    5  A    between atoms: C_19  and  C_20 
REMARK       I    between atoms: C_20  and  N_22 
ROOT
HETATM    1  C   UNL     1     -37.813 -48.604  14.050  1.00  0.00     0.049 C 
HETATM    2  C   UNL     1     -38.882 -49.661  13.902  1.00  0.00    -0.039 A 
HETATM    3  C   UNL     1     -39.977 -49.548  14.841  1.00  0.00     0.033 A 
HETATM    4  C   UNL     1     -40.992 -50.425  14.877  1.00  0.00     0.011 A 
HETATM    5  C   UNL     1     -42.083 -50.248  15.900  1.00  0.00     0.068 C 
HETATM    6  N   UNL     1     -41.018 -51.484  13.971  1.00  0.00    -0.315 N 
HETATM    7  C   UNL     1     -40.027 -51.628  12.989  1.00  0.00     0.264 A 
HETATM    8  O   UNL     1     -40.102 -52.521  12.136  1.00  0.00    -0.267 OA
HETATM    9  C   UNL     1     -38.867 -50.663  12.994  1.00  0.00     0.105 A 
ENDROOT
BRANCH   6  10
HETATM   10  C   UNL     1     -42.100 -52.499  13.978  1.00  0.00     0.169 C 
BRANCH  10  11
HETATM   11  C   UNL     1     -43.275 -52.176  13.013  1.00  0.00     0.172 C 
BRANCH  11  12
HETATM   12  O   UNL     1     -43.193 -52.950  11.807  1.00  0.00    -0.389 OA
HETATM   13  H   UNL     1     -43.770 -53.732  11.918  1.00  0.00     0.210 HD
ENDBRANCH  11  12
BRANCH  11  14
HETATM   14  C   UNL     1     -44.659 -52.356  13.620  1.00  0.00     0.011 A 
HETATM   15  C   UNL     1     -45.492 -51.265  13.929  1.00  0.00     0.013 A 
HETATM   16  C   UNL     1     -46.717 -51.448  14.581  1.00  0.00     0.001 A 
HETATM   17  C   UNL     1     -47.137 -52.726  14.935  1.00  0.00     0.003 A 
HETATM   18  C   UNL     1     -46.338 -53.823  14.619  1.00  0.00     0.043 A 
HETATM   19  C   UNL     1     -45.116 -53.631  13.974  1.00  0.00     0.125 A 
HETATM   20  F   UNL     1     -44.361 -54.707  13.711  1.00  0.00    -0.205 F 
ENDBRANCH  11  14
ENDBRANCH  10  11
ENDBRANCH   6  10
BRANCH   9  21
HETATM   21  C   UNL     1     -37.722 -50.814  12.027  1.00  0.00     0.255 C 
HETATM   22  O   UNL     1     -36.767 -51.565  12.197  1.00  0.00    -0.268 OA
HETATM   23  N   UNL     1     -37.777 -50.070  10.890  1.00  0.00    -0.366 N 
HETATM   24  H   UNL     1     -38.531 -49.411  10.717  1.00  0.00     0.159 HD
HETATM   25  H   UNL     1     -37.018 -50.139  10.227  1.00  0.00     0.159 HD
ENDBRANCH   9  21
TORSDOF 5
ENDMDL
MODEL 2
REMARK VINA RESULT:      -6.6      3.006      3.653
REMARK  5 active torsions:
REMARK  status: ('A' for Active; 'I' for Inactive)
REMARK    1  A    between atoms: N_6  and  C_7 
REMARK    2  A    between atoms: C_7  and  C_8 
REMARK    3  A    between atoms: C_8  and  O_9 
REMARK    4  A    between atoms: C_8  and  C_10 
REMARK    5  A    between atoms: C_19  and  C_20 
REMARK       I    between atoms: C_20  and  N_22 
ROOT
HETATM    1  C   UNL     1     -43.092 -46.330  13.072  1.00  0.00     0.049 C 
HETATM    2  C   UNL     1     -42.440 -47.682  12.900  1.00  0.00    -0.039 A 
HETATM    3  C   UNL     1     -42.688 -48.614  13.978  1.00  0.00     0.033 A 
HETATM    4  C   UNL     1     -42.155 -49.845  14.009  1.00  0.00     0.011 A 
HETATM    5  C   UNL     1     -42.446 -50.747  15.179  1.00  0.00     0.068 C 
HETATM    6  N   UNL     1     -41.340 -50.266  12.959  1.00  0.00    -0.315 N 
HETATM    7  C   UNL     1     -41.101 -49.446  11.846  1.00  0.00     0.264 A 
HETATM    8  O   UNL     1     -40.447 -49.858  10.881  1.00  0.00    -0.267 OA
HETATM    9  C   UNL     1     -41.666 -48.047  11.853  1.00  0.00     0.105 A 
ENDROOT
BRANCH   6  10
HETATM   10  C   UNL     1     -40.702 -51.606  12.947  1.00  0.00     0.169 C 
BRANCH  10  11
HETATM   11  C   UNL     1     -41.452 -52.654  12.078  1.00  0.00     0.172 C 
BRANCH  11  12
HETATM   12  O   UNL     1     -40.537 -53.552  11.431  1.00  0.00    -0.389 OA
HETATM   13  H   UNL     1     -39.674 -53.097  11.366  1.00  0.00     0.210 HD
ENDBRANCH  11  12
BRANCH  11  14
HETATM   14  C   UNL     1     -42.493 -53.470  12.831  1.00  0.00     0.011 A 
HETATM   15  C   UNL     1     -43.866 -53.398  12.530  1.00  0.00     0.013 A 
HETATM   16  C   UNL     1     -44.815 -54.078  13.303  1.00  0.00     0.001 A 
HETATM   17  C   UNL     1     -44.412 -54.847  14.390  1.00  0.00     0.003 A 
HETATM   18  C   UNL     1     -43.056 -54.950  14.692  1.00  0.00     0.043 A 
HETATM   19  C   UNL     1     -42.117 -54.265  13.920  1.00  0.00     0.125 A 
HETATM   20  F   UNL     1     -40.823 -54.365  14.257  1.00  0.00    -0.205 F 
ENDBRANCH  11  14
ENDBRANCH  10  11
ENDBRANCH   6  10
BRANCH   9  21
HETATM   21  C   UNL     1     -41.373 -47.082  10.734  1.00  0.00     0.255 C 
HETATM   22  O   UNL     1     -42.213 -46.664   9.943  1.00  0.00    -0.268 OA
HETATM   23  N   UNL     1     -40.090 -46.648  10.617  1.00  0.00    -0.366 N 
HETATM   24  H   UNL     1     -39.352 -46.989  11.228  1.00  0.00     0.159 HD
HETATM   25  H   UNL     1     -39.858 -46.010   9.869  1.00  0.00     0.159 HD
ENDBRANCH   9  21
TORSDOF 5
ENDMDL
MODEL 3
REMARK VINA RESULT:      -6.6      2.844      4.171
REMARK  5 active torsions:
REMARK  status: ('A' for Active; 'I' for Inactive)
REMARK    1  A    between atoms: N_6  and  C_7 
REMARK    2  A    between atoms: C_7  and  C_8 
REMARK    3  A    between atoms: C_8  and  O_9 
REMARK    4  A    between atoms: C_8  and  C_10 
REMARK    5  A    between atoms: C_19  and  C_20 
REMARK       I    between atoms: C_20  and  N_22 
ROOT
HETATM    1  C   UNL     1     -40.944 -55.393  15.966  1.00  0.00     0.049 C 
HETATM    2  C   UNL     1     -41.861 -54.684  14.998  1.00  0.00    -0.039 A 
HETATM    3  C   UNL     1     -43.255 -55.057  15.102  1.00  0.00     0.033 A 
HETATM    4  C   UNL     1     -44.201 -54.556  14.293  1.00  0.00     0.011 A 
HETATM    5  C   UNL     1     -45.626 -55.014  14.452  1.00  0.00     0.068 C 
HETATM    6  N   UNL     1     -43.848 -53.622  13.319  1.00  0.00    -0.315 N 
HETATM    7  C   UNL     1     -42.529 -53.160  13.196  1.00  0.00     0.264 A 
HETATM    8  O   UNL     1     -42.240 -52.271  12.387  1.00  0.00    -0.267 OA
HETATM    9  C   UNL     1     -41.470 -53.772  14.078  1.00  0.00     0.105 A 
ENDROOT
BRANCH   6  10
HETATM   10  C   UNL     1     -44.844 -53.050  12.381  1.00  0.00     0.169 C 
BRANCH  10  11
HETATM   11  C   UNL     1     -45.283 -51.601  12.732  1.00  0.00     0.172 C 
BRANCH  11  12
HETATM   12  O   UNL     1     -46.379 -51.170  11.911  1.00  0.00    -0.389 OA
HETATM   13  H   UNL     1     -46.002 -50.780  11.097  1.00  0.00     0.210 HD
ENDBRANCH  11  12
BRANCH  11  14
HETATM   14  C   UNL     1     -45.650 -51.390  14.194  1.00  0.00     0.011 A 
HETATM   15  C   UNL     1     -46.924 -51.704  14.703  1.00  0.00     0.013 A 
HETATM   16  C   UNL     1     -47.272 -51.405  16.026  1.00  0.00     0.001 A 
HETATM   17  C   UNL     1     -46.352 -50.791  16.869  1.00  0.00     0.003 A 
HETATM   18  C   UNL     1     -45.078 -50.491  16.393  1.00  0.00     0.043 A 
HETATM   19  C   UNL     1     -44.741 -50.788  15.072  1.00  0.00     0.125 A 
HETATM   20  F   UNL     1     -43.515 -50.460  14.640  1.00  0.00    -0.205 F 
ENDBRANCH  11  14
ENDBRANCH  10  11
ENDBRANCH   6  10
BRANCH   9  21
HETATM   21  C   UNL     1     -40.020 -53.390  13.937  1.00  0.00     0.255 C 
HETATM   22  O   UNL     1     -39.145 -54.138  13.511  1.00  0.00    -0.268 OA
HETATM   23  N   UNL     1     -39.680 -52.124  14.297  1.00  0.00    -0.366 N 
HETATM   24  H   UNL     1     -40.362 -51.476  14.684  1.00  0.00     0.159 HD
HETATM   25  H   UNL     1     -38.714 -51.840  14.226  1.00  0.00     0.159 HD
ENDBRANCH   9  21
TORSDOF 5
ENDMDL
MODEL 4
REMARK VINA RESULT:      -6.5      2.665      6.745
REMARK  5 active torsions:
REMARK  status: ('A' for Active; 'I' for Inactive)
REMARK    1  A    between atoms: N_6  and  C_7 
REMARK    2  A    between atoms: C_7  and  C_8 
REMARK    3  A    between atoms: C_8  and  O_9 
REMARK    4  A    between atoms: C_8  and  C_10 
REMARK    5  A    between atoms: C_19  and  C_20 
REMARK       I    between atoms: C_20  and  N_22 
ROOT
HETATM    1  C   UNL     1     -46.564 -51.352  16.091  1.00  0.00     0.049 C 
HETATM    2  C   UNL     1     -45.480 -51.729  15.110  1.00  0.00    -0.039 A 
HETATM    3  C   UNL     1     -44.739 -50.610  14.568  1.00  0.00     0.033 A 
HETATM    4  C   UNL     1     -43.768 -50.760  13.654  1.00  0.00     0.011 A 
HETATM    5  C   UNL     1     -43.060 -49.541  13.124  1.00  0.00     0.068 C 
HETATM    6  N   UNL     1     -43.433 -52.038  13.210  1.00  0.00    -0.315 N 
HETATM    7  C   UNL     1     -44.060 -53.179  13.732  1.00  0.00     0.264 A 
HETATM    8  O   UNL     1     -43.700 -54.314  13.395  1.00  0.00    -0.267 OA
HETATM    9  C   UNL     1     -45.184 -52.990  14.721  1.00  0.00     0.105 A 
ENDROOT
BRANCH   6  10
HETATM   10  C   UNL     1     -42.386 -52.265  12.184  1.00  0.00     0.169 C 
BRANCH  10  11
HETATM   11  C   UNL     1     -41.011 -52.692  12.769  1.00  0.00     0.172 C 
BRANCH  11  12
HETATM   12  O   UNL     1     -40.507 -53.871  12.122  1.00  0.00    -0.389 OA
HETATM   13  H   UNL     1     -39.535 -53.875  12.234  1.00  0.00     0.210 HD
ENDBRANCH  11  12
BRANCH  11  14
HETATM   14  C   UNL     1     -39.942 -51.610  12.723  1.00  0.00     0.011 A 
HETATM   15  C   UNL     1     -39.972 -50.562  11.784  1.00  0.00     0.013 A 
HETATM   16  C   UNL     1     -38.925 -49.637  11.694  1.00  0.00     0.001 A 
HETATM   17  C   UNL     1     -37.828 -49.737  12.543  1.00  0.00     0.003 A 
HETATM   18  C   UNL     1     -37.788 -50.753  13.495  1.00  0.00     0.043 A 
HETATM   19  C   UNL     1     -38.834 -51.674  13.575  1.00  0.00     0.125 A 
HETATM   20  F   UNL     1     -38.748 -52.655  14.485  1.00  0.00    -0.205 F 
ENDBRANCH  11  14
ENDBRANCH  10  11
ENDBRANCH   6  10
BRANCH   9  21
HETATM   21  C   UNL     1     -45.961 -54.166  15.252  1.00  0.00     0.255 C 
HETATM   22  O   UNL     1     -45.896 -54.573  16.408  1.00  0.00    -0.268 OA
HETATM   23  N   UNL     1     -46.795 -54.796  14.382  1.00  0.00    -0.366 N 
HETATM   24  H   UNL     1     -46.860 -54.516  13.406  1.00  0.00     0.159 HD
HETATM   25  H   UNL     1     -47.320 -55.596  14.704  1.00  0.00     0.159 HD
ENDBRANCH   9  21
TORSDOF 5
ENDMDL
MODEL 5
REMARK VINA RESULT:      -6.4      3.468      6.246
REMARK  5 active torsions:
REMARK  status: ('A' for Active; 'I' for Inactive)
REMARK    1  A    between atoms: N_6  and  C_7 
REMARK    2  A    between atoms: C_7  and  C_8 
REMARK    3  A    between atoms: C_8  and  O_9 
REMARK    4  A    between atoms: C_8  and  C_10 
REMARK    5  A    between atoms: C_19  and  C_20 
REMARK       I    between atoms: C_20  and  N_22 
ROOT
HETATM    1  C   UNL     1     -47.938 -51.220  16.905  1.00  0.00     0.049 C 
HETATM    2  C   UNL     1     -46.751 -51.154  15.972  1.00  0.00    -0.039 A 
HETATM    3  C   UNL     1     -47.043 -51.499  14.597  1.00  0.00     0.033 A 
HETATM    4  C   UNL     1     -46.100 -51.532  13.644  1.00  0.00     0.011 A 
HETATM    5  C   UNL     1     -46.482 -51.922  12.241  1.00  0.00     0.068 C 
HETATM    6  N   UNL     1     -44.783 -51.206  13.968  1.00  0.00    -0.315 N 
HETATM    7  C   UNL     1     -44.430 -50.801  15.264  1.00  0.00     0.264 A 
HETATM    8  O   UNL     1     -43.278 -50.433  15.523  1.00  0.00    -0.267 OA
HETATM    9  C   UNL     1     -45.492 -50.819  16.335  1.00  0.00     0.105 A 
ENDROOT
BRANCH   6  10
HETATM   10  C   UNL     1     -43.692 -51.248  12.963  1.00  0.00     0.169 C 
BRANCH  10  11
HETATM   11  C   UNL     1     -43.253 -52.685  12.568  1.00  0.00     0.172 C 
BRANCH  11  12
HETATM   12  O   UNL     1     -42.291 -52.667  11.502  1.00  0.00    -0.389 OA
HETATM   13  H   UNL     1     -41.593 -53.317  11.723  1.00  0.00     0.210 HD
ENDBRANCH  11  12
BRANCH  11  14
HETATM   14  C   UNL     1     -42.699 -53.515  13.717  1.00  0.00     0.011 A 
HETATM   15  C   UNL     1     -41.353 -53.437  14.121  1.00  0.00     0.013 A 
HETATM   16  C   UNL     1     -40.842 -54.284  15.112  1.00  0.00     0.001 A 
HETATM   17  C   UNL     1     -41.666 -55.223  15.723  1.00  0.00     0.003 A 
HETATM   18  C   UNL     1     -43.007 -55.302  15.354  1.00  0.00     0.043 A 
HETATM   19  C   UNL     1     -43.507 -54.458  14.363  1.00  0.00     0.125 A 
HETATM   20  F   UNL     1     -44.796 -54.581  14.014  1.00  0.00    -0.205 F 
ENDBRANCH  11  14
ENDBRANCH  10  11
ENDBRANCH   6  10
BRANCH   9  21
HETATM   21  C   UNL     1     -45.163 -50.483  17.766  1.00  0.00     0.255 C 
HETATM   22  O   UNL     1     -45.051 -51.312  18.663  1.00  0.00    -0.268 OA
HETATM   23  N   UNL     1     -44.968 -49.170  18.060  1.00  0.00    -0.366 N 
HETATM   24  H   UNL     1     -45.081 -48.442  17.359  1.00  0.00     0.159 HD
HETATM   25  H   UNL     1     -44.759 -48.911  19.013  1.00  0.00     0.159 HD
ENDBRANCH   9  21
TORSDOF 5
ENDMDL
MODEL 6
REMARK VINA RESULT:      -6.2      1.657      2.015
REMARK  5 active torsions:
REMARK  status: ('A' for Active; 'I' for Inactive)
REMARK    1  A    between atoms: N_6  and  C_7 
REMARK    2  A    between atoms: C_7  and  C_8 
REMARK    3  A    between atoms: C_8  and  O_9 
REMARK    4  A    between atoms: C_8  and  C_10 
REMARK    5  A    between atoms: C_19  and  C_20 
REMARK       I    between atoms: C_20  and  N_22 
ROOT
HETATM    1  C   UNL     1     -38.113 -50.640  15.549  1.00  0.00     0.049 C 
HETATM    2  C   UNL     1     -39.191 -51.499  14.931  1.00  0.00    -0.039 A 
HETATM    3  C   UNL     1     -40.177 -51.997  15.866  1.00  0.00     0.033 A 
HETATM    4  C   UNL     1     -41.182 -52.806  15.495  1.00  0.00     0.011 A 
HETATM    5  C   UNL     1     -42.154 -53.298  16.535  1.00  0.00     0.068 C 
HETATM    6  N   UNL     1     -41.306 -53.179  14.158  1.00  0.00    -0.315 N 
HETATM    7  C   UNL     1     -40.429 -52.689  13.179  1.00  0.00     0.264 A 
HETATM    8  O   UNL     1     -40.596 -52.956  11.983  1.00  0.00    -0.267 OA
HETATM    9  C   UNL     1     -39.275 -51.821  13.620  1.00  0.00     0.105 A 
ENDROOT
BRANCH   6  10
HETATM   10  C   UNL     1     -42.380 -54.090  13.692  1.00  0.00     0.169 C 
BRANCH  10  11
HETATM   11  C   UNL     1     -43.539 -53.371  12.948  1.00  0.00     0.172 C 
BRANCH  11  12
HETATM   12  O   UNL     1     -44.107 -54.205  11.926  1.00  0.00    -0.389 OA
HETATM   13  H   UNL     1     -45.080 -54.133  11.994  1.00  0.00     0.210 HD
ENDBRANCH  11  12
BRANCH  11  14
HETATM   14  C   UNL     1     -44.656 -52.871  13.852  1.00  0.00     0.011 A 
HETATM   15  C   UNL     1     -45.801 -53.641  14.130  1.00  0.00     0.013 A 
HETATM   16  C   UNL     1     -46.862 -53.120  14.881  1.00  0.00     0.001 A 
HETATM   17  C   UNL     1     -46.799 -51.821  15.374  1.00  0.00     0.003 A 
HETATM   18  C   UNL     1     -45.666 -51.049  15.130  1.00  0.00     0.043 A 
HETATM   19  C   UNL     1     -44.615 -51.574  14.377  1.00  0.00     0.125 A 
HETATM   20  F   UNL     1     -43.552 -50.792  14.138  1.00  0.00    -0.205 F 
ENDBRANCH  11  14
ENDBRANCH  10  11
ENDBRANCH   6  10
BRANCH   9  21
HETATM   21  C   UNL     1     -38.244 -51.336  12.636  1.00  0.00     0.255 C 
HETATM   22  O   UNL     1     -37.078 -51.716  12.612  1.00  0.00    -0.268 OA
HETATM   23  N   UNL     1     -38.655 -50.425  11.714  1.00  0.00    -0.366 N 
HETATM   24  H   UNL     1     -39.603 -50.055  11.713  1.00  0.00     0.159 HD
HETATM   25  H   UNL     1     -37.984 -50.069  11.049  1.00  0.00     0.159 HD
ENDBRANCH   9  21
TORSDOF 5
ENDMDL
MODEL 7
REMARK VINA RESULT:      -6.2      3.329      4.426
REMARK  5 active torsions:
REMARK  status: ('A' for Active; 'I' for Inactive)
REMARK    1  A    between atoms: N_6  and  C_7 
REMARK    2  A    between atoms: C_7  and  C_8 
REMARK    3  A    between atoms: C_8  and  O_9 
REMARK    4  A    between atoms: C_8  and  C_10 
REMARK    5  A    between atoms: C_19  and  C_20 
REMARK       I    between atoms: C_20  and  N_22 
ROOT
HETATM    1  C   UNL     1     -41.089 -56.669  17.120  1.00  0.00     0.049 C 
HETATM    2  C   UNL     1     -41.417 -55.651  16.053  1.00  0.00    -0.039 A 
HETATM    3  C   UNL     1     -42.807 -55.622  15.652  1.00  0.00     0.033 A 
HETATM    4  C   UNL     1     -43.266 -54.807  14.689  1.00  0.00     0.011 A 
HETATM    5  C   UNL     1     -44.724 -54.854  14.316  1.00  0.00     0.068 C 
HETATM    6  N   UNL     1     -42.386 -53.935  14.050  1.00  0.00    -0.315 N 
HETATM    7  C   UNL     1     -41.036 -53.857  14.424  1.00  0.00     0.264 A 
HETATM    8  O   UNL     1     -40.281 -53.022  13.912  1.00  0.00    -0.267 OA
HETATM    9  C   UNL     1     -40.526 -54.815  15.473  1.00  0.00     0.105 A 
ENDROOT
BRANCH   6  10
HETATM   10  C   UNL     1     -42.828 -53.028  12.963  1.00  0.00     0.169 C 
BRANCH  10  11
HETATM   11  C   UNL     1     -43.095 -51.569  13.426  1.00  0.00     0.172 C 
BRANCH  11  12
HETATM   12  O   UNL     1     -43.036 -50.648  12.327  1.00  0.00    -0.389 OA
HETATM   13  H   UNL     1     -42.766 -49.778  12.685  1.00  0.00     0.210 HD
ENDBRANCH  11  12
BRANCH  11  14
HETATM   14  C   UNL     1     -44.412 -51.372  14.163  1.00  0.00     0.011 A 
HETATM   15  C   UNL     1     -44.467 -51.045  15.531  1.00  0.00     0.013 A 
HETATM   16  C   UNL     1     -45.689 -50.971  16.211  1.00  0.00     0.001 A 
HETATM   17  C   UNL     1     -46.881 -51.216  15.537  1.00  0.00     0.003 A 
HETATM   18  C   UNL     1     -46.851 -51.520  14.178  1.00  0.00     0.043 A 
HETATM   19  C   UNL     1     -45.629 -51.597  13.509  1.00  0.00     0.125 A 
HETATM   20  F   UNL     1     -45.637 -51.920  12.208  1.00  0.00    -0.205 F 
ENDBRANCH  11  14
ENDBRANCH  10  11
ENDBRANCH   6  10
BRANCH   9  21
HETATM   21  C   UNL     1     -39.070 -54.849  15.857  1.00  0.00     0.255 C 
HETATM   22  O   UNL     1     -38.290 -55.739  15.534  1.00  0.00    -0.268 OA
HETATM   23  N   UNL     1     -38.606 -53.808  16.599  1.00  0.00    -0.366 N 
HETATM   24  H   UNL     1     -39.220 -53.063  16.918  1.00  0.00     0.159 HD
HETATM   25  H   UNL     1     -37.638 -53.808  16.884  1.00  0.00     0.159 HD
ENDBRANCH   9  21
TORSDOF 5
ENDMDL
MODEL 8
REMARK VINA RESULT:      -6.0      3.291      5.365
REMARK  5 active torsions:
REMARK  status: ('A' for Active; 'I' for Inactive)
REMARK    1  A    between atoms: N_6  and  C_7 
REMARK    2  A    between atoms: C_7  and  C_8 
REMARK    3  A    between atoms: C_8  and  O_9 
REMARK    4  A    between atoms: C_8  and  C_10 
REMARK    5  A    between atoms: C_19  and  C_20 
REMARK       I    between atoms: C_20  and  N_22 
ROOT
HETATM    1  C   UNL     1     -42.152 -55.798  16.385  1.00  0.00     0.049 C 
HETATM    2  C   UNL     1     -41.703 -54.896  15.260  1.00  0.00    -0.039 A 
HETATM    3  C   UNL     1     -42.770 -54.408  14.414  1.00  0.00     0.033 A 
HETATM    4  C   UNL     1     -42.548 -53.628  13.345  1.00  0.00     0.011 A 
HETATM    5  C   UNL     1     -43.713 -53.181  12.503  1.00  0.00     0.068 C 
HETATM    6  N   UNL     1     -41.244 -53.247  13.032  1.00  0.00    -0.315 N 
HETATM    7  C   UNL     1     -40.160 -53.625  13.838  1.00  0.00     0.264 A 
HETATM    8  O   UNL     1     -39.017 -53.214  13.603  1.00  0.00    -0.267 OA
HETATM    9  C   UNL     1     -40.422 -54.544  15.006  1.00  0.00     0.105 A 
ENDROOT
BRANCH   6  10
HETATM   10  C   UNL     1     -40.932 -52.407  11.850  1.00  0.00     0.169 C 
BRANCH  10  11
HETATM   11  C   UNL     1     -40.419 -50.983  12.205  1.00  0.00     0.172 C 
BRANCH  11  12
HETATM   12  O   UNL     1     -39.135 -50.724  11.617  1.00  0.00    -0.389 OA
HETATM   13  H   UNL     1     -38.611 -50.213  12.266  1.00  0.00     0.210 HD
ENDBRANCH  11  12
BRANCH  11  14
HETATM   14  C   UNL     1     -41.370 -49.857  11.828  1.00  0.00     0.011 A 
HETATM   15  C   UNL     1     -41.154 -49.034  10.708  1.00  0.00     0.013 A 
HETATM   16  C   UNL     1     -41.986 -47.939  10.439  1.00  0.00     0.001 A 
HETATM   17  C   UNL     1     -43.053 -47.648  11.282  1.00  0.00     0.003 A 
HETATM   18  C   UNL     1     -43.299 -48.463  12.385  1.00  0.00     0.043 A 
HETATM   19  C   UNL     1     -42.462 -49.549  12.648  1.00  0.00     0.125 A 
HETATM   20  F   UNL     1     -42.712 -50.295  13.734  1.00  0.00    -0.205 F 
ENDBRANCH  11  14
ENDBRANCH  10  11
ENDBRANCH   6  10
BRANCH   9  21
HETATM   21  C   UNL     1     -39.294 -55.063  15.859  1.00  0.00     0.255 C 
HETATM   22  O   UNL     1     -38.851 -56.206  15.801  1.00  0.00    -0.268 OA
HETATM   23  N   UNL     1     -38.734 -54.188  16.737  1.00  0.00    -0.366 N 
HETATM   24  H   UNL     1     -39.086 -53.240  16.845  1.00  0.00     0.159 HD
HETATM   25  H   UNL     1     -37.985 -54.508  17.332  1.00  0.00     0.159 HD
ENDBRANCH   9  21
TORSDOF 5
ENDMDL
MODEL 9
REMARK VINA RESULT:      -5.9      2.676      6.797
REMARK  5 active torsions:
REMARK  status: ('A' for Active; 'I' for Inactive)
REMARK    1  A    between atoms: N_6  and  C_7 
REMARK    2  A    between atoms: C_7  and  C_8 
REMARK    3  A    between atoms: C_8  and  O_9 
REMARK    4  A    between atoms: C_8  and  C_10 
REMARK    5  A    between atoms: C_19  and  C_20 
REMARK       I    between atoms: C_20  and  N_22 
ROOT
HETATM    1  C   UNL     1     -45.482 -53.330  17.051  1.00  0.00     0.049 C 
HETATM    2  C   UNL     1     -44.713 -52.879  15.831  1.00  0.00    -0.039 A 
HETATM    3  C   UNL     1     -43.741 -51.837  16.080  1.00  0.00     0.033 A 
HETATM    4  C   UNL     1     -42.998 -51.292  15.104  1.00  0.00     0.011 A 
HETATM    5  C   UNL     1     -42.024 -50.195  15.444  1.00  0.00     0.068 C 
HETATM    6  N   UNL     1     -43.143 -51.747  13.794  1.00  0.00    -0.315 N 
HETATM    7  C   UNL     1     -44.018 -52.798  13.480  1.00  0.00     0.264 A 
HETATM    8  O   UNL     1     -44.079 -53.253  12.332  1.00  0.00    -0.267 OA
HETATM    9  C   UNL     1     -44.882 -53.364  14.580  1.00  0.00     0.105 A 
ENDROOT
BRANCH   6  10
HETATM   10  C   UNL     1     -42.369 -51.167  12.670  1.00  0.00     0.169 C 
BRANCH  10  11
HETATM   11  C   UNL     1     -41.086 -51.966  12.309  1.00  0.00     0.172 C 
BRANCH  11  12
HETATM   12  O   UNL     1     -41.185 -52.561  11.006  1.00  0.00    -0.389 OA
HETATM   13  H   UNL     1     -41.320 -51.838  10.361  1.00  0.00     0.210 HD
ENDBRANCH  11  12
BRANCH  11  14
HETATM   14  C   UNL     1     -39.797 -51.160  12.385  1.00  0.00     0.011 A 
HETATM   15  C   UNL     1     -38.778 -51.457  13.309  1.00  0.00     0.013 A 
HETATM   16  C   UNL     1     -37.648 -50.639  13.431  1.00  0.00     0.001 A 
HETATM   17  C   UNL     1     -37.510 -49.511  12.629  1.00  0.00     0.003 A 
HETATM   18  C   UNL     1     -38.497 -49.211  11.692  1.00  0.00     0.043 A 
HETATM   19  C   UNL     1     -39.622 -50.028  11.580  1.00  0.00     0.125 A 
HETATM   20  F   UNL     1     -40.564 -49.693  10.687  1.00  0.00    -0.205 F 
ENDBRANCH  11  14
ENDBRANCH  10  11
ENDBRANCH   6  10
BRANCH   9  21
HETATM   21  C   UNL     1     -45.907 -54.430  14.295  1.00  0.00     0.255 C 
HETATM   22  O   UNL     1     -45.640 -55.605  14.067  1.00  0.00    -0.268 OA
HETATM   23  N   UNL     1     -47.212 -54.047  14.310  1.00  0.00    -0.366 N 
HETATM   24  H   UNL     1     -47.484 -53.079  14.464  1.00  0.00     0.159 HD
HETATM   25  H   UNL     1     -47.924 -54.735  14.111  1.00  0.00     0.159 HD
ENDBRANCH   9  21
TORSDOF 5
ENDMDL
