MODEL 1
REMARK VINA RESULT:      -6.6      0.000      0.000
REMARK  4 active torsions:
REMARK  status: ('A' for Active; 'I' for Inactive)
REMARK    1  A    between atoms: C_2  and  N_3 
REMARK    2  A    between atoms: C_2  and  C_19 
REMARK       I    between atoms: N_3  and  C_4 
REMARK       I    between atoms: C_4  and  N_6 
REMARK    3  A    between atoms: N_6  and  C_7 
REMARK    4  A    between atoms: C_13  and  N_14 
ROOT
HETATM    1  N   UNL     1     -39.673 -49.168  11.251  1.00  0.00    -0.336 N 
HETATM    2  C   UNL     1     -40.391 -48.055  11.610  1.00  0.00     0.321 C 
HETATM    3  O   UNL     1     -40.875 -47.914  12.728  1.00  0.00    -0.247 OA
HETATM    4  N   UNL     1     -40.440 -47.121  10.598  1.00  0.00    -0.306 N 
HETATM    5  H   UNL     1     -39.319 -49.261  10.308  1.00  0.00     0.164 HD
HETATM    6  H   UNL     1     -39.597 -47.071  10.043  1.00  0.00     0.171 HD
ENDROOT
BRANCH   4   7
HETATM    7  C   UNL     1     -40.985 -45.836  10.852  1.00  0.00     0.075 A 
HETATM    8  C   UNL     1     -40.219 -44.824  11.431  1.00  0.00     0.034 A 
HETATM    9  C   UNL     1     -40.800 -43.583  11.647  1.00  0.00     0.019 A 
HETATM   10  C   UNL     1     -42.124 -43.413  11.286  1.00  0.00     0.089 A 
HETATM   11  N   UNL     1     -42.895 -44.379  10.733  1.00  0.00    -0.355 N 
HETATM   12  C   UNL     1     -42.329 -45.584  10.500  1.00  0.00     0.109 A 
ATOM     13  HN  UNL     1     -43.872 -44.204  10.499  1.00  0.00     0.166 HD
BRANCH  12  14
HETATM   14  N   UNL     1     -43.042 -46.588   9.794  1.00  0.00    -0.267 NA
HETATM   15  C   UNL     1     -43.942 -47.408  10.620  1.00  0.00     0.097 C 
HETATM   16  C   UNL     1     -45.148 -47.670   9.730  1.00  0.00     0.016 C 
HETATM   17  C   UNL     1     -45.258 -46.404   8.909  1.00  0.00     0.016 C 
HETATM   18  C   UNL     1     -43.807 -46.013   8.665  1.00  0.00     0.097 C 
ENDBRANCH  12  14
ENDBRANCH   4   7
BRANCH   1  19
HETATM   19  C   UNL     1     -39.297 -50.179  12.234  1.00  0.00     0.111 C 
HETATM   20  C   UNL     1     -37.783 -50.394  12.171  1.00  0.00     0.035 C 
BRANCH  19  21
HETATM   21  C   UNL     1     -40.118 -51.458  12.008  1.00  0.00     0.143 C 
HETATM   22  C   UNL     1     -41.611 -51.330  12.297  1.00  0.00     0.036 C 
HETATM   23  C   UNL     1     -41.958 -52.567  13.097  1.00  0.00     0.029 C 
HETATM   24  C   UNL     1     -40.737 -53.448  12.969  1.00  0.00     0.168 C 
HETATM   25  O   UNL     1     -39.637 -52.542  12.830  1.00  0.00    -0.384 OA
ENDBRANCH  19  21
ENDBRANCH   1  19
TORSDOF 4
ENDMDL
MODEL 2
REMARK VINA RESULT:      -6.5      1.294      3.235
REMARK  4 active torsions:
REMARK  status: ('A' for Active; 'I' for Inactive)
REMARK    1  A    between atoms: C_2  and  N_3 
REMARK    2  A    between atoms: C_2  and  C_19 
REMARK       I    between atoms: N_3  and  C_4 
REMARK       I    between atoms: C_4  and  N_6 
REMARK    3  A    between atoms: N_6  and  C_7 
REMARK    4  A    between atoms: C_13  and  N_14 
ROOT
HETATM    1  N   UNL     1     -40.598 -50.057  11.034  1.00  0.00    -0.336 N 
HETATM    2  C   UNL     1     -41.664 -49.197  10.951  1.00  0.00     0.321 C 
HETATM    3  O   UNL     1     -42.511 -49.109  11.834  1.00  0.00    -0.247 OA
HETATM    4  N   UNL     1     -41.622 -48.427   9.808  1.00  0.00    -0.306 N 
HETATM    5  H   UNL     1     -39.939 -50.124  10.269  1.00  0.00     0.164 HD
HETATM    6  H   UNL     1     -40.688 -48.168   9.522  1.00  0.00     0.171 HD
ENDROOT
BRANCH   4   7
HETATM    7  C   UNL     1     -42.542 -47.361   9.644  1.00  0.00     0.075 A 
HETATM    8  C   UNL     1     -43.727 -47.528   8.927  1.00  0.00     0.034 A 
HETATM    9  C   UNL     1     -44.597 -46.454   8.807  1.00  0.00     0.019 A 
HETATM   10  C   UNL     1     -44.236 -45.257   9.399  1.00  0.00     0.089 A 
HETATM   11  N   UNL     1     -43.089 -45.062  10.092  1.00  0.00    -0.355 N 
HETATM   12  C   UNL     1     -42.248 -46.110  10.230  1.00  0.00     0.109 A 
ATOM     13  HN  UNL     1     -42.867 -44.152  10.496  1.00  0.00     0.166 HD
BRANCH  12  14
HETATM   14  N   UNL     1     -41.103 -46.008  11.063  1.00  0.00    -0.267 NA
HETATM   15  C   UNL     1     -40.036 -45.136  10.547  1.00  0.00     0.097 C 
HETATM   16  C   UNL     1     -39.466 -44.454  11.782  1.00  0.00     0.016 C 
HETATM   17  C   UNL     1     -40.671 -44.300  12.683  1.00  0.00     0.016 C 
HETATM   18  C   UNL     1     -41.468 -45.571  12.430  1.00  0.00     0.097 C 
ENDBRANCH  12  14
ENDBRANCH   4   7
BRANCH   1  19
HETATM   19  C   UNL     1     -40.314 -50.800  12.257  1.00  0.00     0.111 C 
HETATM   20  C   UNL     1     -38.827 -50.657  12.592  1.00  0.00     0.035 C 
BRANCH  19  21
HETATM   21  C   UNL     1     -40.782 -52.255  12.106  1.00  0.00     0.143 C 
HETATM   22  C   UNL     1     -42.233 -52.515  12.501  1.00  0.00     0.036 C 
HETATM   23  C   UNL     1     -42.187 -53.775  13.337  1.00  0.00     0.029 C 
HETATM   24  C   UNL     1     -40.788 -54.308  13.131  1.00  0.00     0.168 C 
HETATM   25  O   UNL     1     -39.978 -53.150  12.902  1.00  0.00    -0.384 OA
ENDBRANCH  19  21
ENDBRANCH   1  19
TORSDOF 4
ENDMDL
MODEL 3
REMARK VINA RESULT:      -6.5      2.991      7.048
REMARK  4 active torsions:
REMARK  status: ('A' for Active; 'I' for Inactive)
REMARK    1  A    between atoms: C_2  and  N_3 
REMARK    2  A    between atoms: C_2  and  C_19 
REMARK       I    between atoms: N_3  and  C_4 
REMARK       I    between atoms: C_4  and  N_6 
REMARK    3  A    between atoms: N_6  and  C_7 
REMARK    4  A    between atoms: C_13  and  N_14 
ROOT
HETATM    1  N   UNL     1     -42.054 -49.179  11.148  1.00  0.00    -0.336 N 
HETATM    2  C   UNL     1     -41.872 -50.075  12.171  1.00  0.00     0.321 C 
HETATM    3  O   UNL     1     -41.665 -49.724  13.327  1.00  0.00    -0.247 OA
HETATM    4  N   UNL     1     -42.009 -51.380  11.748  1.00  0.00    -0.306 N 
HETATM    5  H   UNL     1     -42.189 -49.509  10.202  1.00  0.00     0.164 HD
HETATM    6  H   UNL     1     -42.707 -51.507  11.027  1.00  0.00     0.171 HD
ENDROOT
BRANCH   4   7
HETATM    7  C   UNL     1     -42.031 -52.430  12.700  1.00  0.00     0.075 A 
HETATM    8  C   UNL     1     -40.879 -53.148  13.017  1.00  0.00     0.034 A 
HETATM    9  C   UNL     1     -40.955 -54.159  13.964  1.00  0.00     0.019 A 
HETATM   10  C   UNL     1     -42.185 -54.414  14.544  1.00  0.00     0.089 A 
HETATM   11  N   UNL     1     -43.323 -53.741  14.249  1.00  0.00    -0.355 N 
HETATM   12  C   UNL     1     -43.250 -52.741  13.342  1.00  0.00     0.109 A 
ATOM     13  HN  UNL     1     -44.207 -53.981  14.697  1.00  0.00     0.166 HD
BRANCH  12  14
HETATM   14  N   UNL     1     -44.373 -51.910  13.099  1.00  0.00    -0.267 NA
HETATM   15  C   UNL     1     -45.573 -52.611  12.615  1.00  0.00     0.097 C 
HETATM   16  C   UNL     1     -46.735 -51.884  13.273  1.00  0.00     0.016 C 
HETATM   17  C   UNL     1     -46.172 -51.468  14.615  1.00  0.00     0.016 C 
HETATM   18  C   UNL     1     -44.726 -51.115  14.297  1.00  0.00     0.097 C 
ENDBRANCH  12  14
ENDBRANCH   4   7
BRANCH   1  19
HETATM   19  C   UNL     1     -42.182 -47.748  11.406  1.00  0.00     0.111 C 
HETATM   20  C   UNL     1     -43.424 -47.222  10.683  1.00  0.00     0.035 C 
BRANCH  19  21
HETATM   21  C   UNL     1     -40.882 -47.028  11.016  1.00  0.00     0.143 C 
HETATM   22  C   UNL     1     -40.016 -46.572  12.187  1.00  0.00     0.036 C 
HETATM   23  C   UNL     1     -39.606 -45.158  11.838  1.00  0.00     0.029 C 
HETATM   24  C   UNL     1     -40.012 -45.000  10.391  1.00  0.00     0.168 C 
HETATM   25  O   UNL     1     -41.151 -45.851  10.227  1.00  0.00    -0.384 OA
ENDBRANCH  19  21
ENDBRANCH   1  19
TORSDOF 4
ENDMDL
MODEL 4
REMARK VINA RESULT:      -6.4      3.054      7.099
REMARK  4 active torsions:
REMARK  status: ('A' for Active; 'I' for Inactive)
REMARK    1  A    between atoms: C_2  and  N_3 
REMARK    2  A    between atoms: C_2  and  C_19 
REMARK       I    between atoms: N_3  and  C_4 
REMARK       I    between atoms: C_4  and  N_6 
REMARK    3  A    between atoms: N_6  and  C_7 
REMARK    4  A    between atoms: C_13  and  N_14 
ROOT
HETATM    1  N   UNL     1     -41.983 -49.283  11.130  1.00  0.00    -0.336 N 
HETATM    2  C   UNL     1     -41.745 -50.185  12.135  1.00  0.00     0.321 C 
HETATM    3  O   UNL     1     -41.346 -49.848  13.244  1.00  0.00    -0.247 OA
HETATM    4  N   UNL     1     -42.063 -51.474  11.761  1.00  0.00    -0.306 N 
HETATM    5  H   UNL     1     -42.279 -49.604  10.218  1.00  0.00     0.164 HD
HETATM    6  H   UNL     1     -42.865 -51.537  11.148  1.00  0.00     0.171 HD
ENDROOT
BRANCH   4   7
HETATM    7  C   UNL     1     -42.052 -52.510  12.729  1.00  0.00     0.075 A 
HETATM    8  C   UNL     1     -40.909 -53.274  12.961  1.00  0.00     0.034 A 
HETATM    9  C   UNL     1     -40.950 -54.269  13.927  1.00  0.00     0.019 A 
HETATM   10  C   UNL     1     -42.138 -54.463  14.610  1.00  0.00     0.089 A 
HETATM   11  N   UNL     1     -43.266 -53.744  14.399  1.00  0.00    -0.355 N 
HETATM   12  C   UNL     1     -43.225 -52.760  13.474  1.00  0.00     0.109 A 
ATOM     13  HN  UNL     1     -44.120 -53.939  14.921  1.00  0.00     0.166 HD
BRANCH  12  14
HETATM   14  N   UNL     1     -44.329 -51.882  13.310  1.00  0.00    -0.267 NA
HETATM   15  C   UNL     1     -45.601 -52.540  12.974  1.00  0.00     0.097 C 
HETATM   16  C   UNL     1     -46.658 -51.734  13.716  1.00  0.00     0.016 C 
HETATM   17  C   UNL     1     -45.944 -51.301  14.978  1.00  0.00     0.016 C 
HETATM   18  C   UNL     1     -44.523 -51.031  14.505  1.00  0.00     0.097 C 
ENDBRANCH  12  14
ENDBRANCH   4   7
BRANCH   1  19
HETATM   19  C   UNL     1     -41.937 -47.844  11.373  1.00  0.00     0.111 C 
HETATM   20  C   UNL     1     -42.964 -47.489  12.451  1.00  0.00     0.035 C 
BRANCH  19  21
HETATM   21  C   UNL     1     -42.131 -47.084  10.053  1.00  0.00     0.143 C 
HETATM   22  C   UNL     1     -42.849 -45.742  10.176  1.00  0.00     0.036 C 
HETATM   23  C   UNL     1     -43.860 -45.739   9.049  1.00  0.00     0.029 C 
HETATM   24  C   UNL     1     -43.469 -46.923   8.196  1.00  0.00     0.168 C 
HETATM   25  O   UNL     1     -42.890 -47.864   9.105  1.00  0.00    -0.384 OA
ENDBRANCH  19  21
ENDBRANCH   1  19
TORSDOF 4
ENDMDL
MODEL 5
REMARK VINA RESULT:      -6.4      1.983      2.747
REMARK  4 active torsions:
REMARK  status: ('A' for Active; 'I' for Inactive)
REMARK    1  A    between atoms: C_2  and  N_3 
REMARK    2  A    between atoms: C_2  and  C_19 
REMARK       I    between atoms: N_3  and  C_4 
REMARK       I    between atoms: C_4  and  N_6 
REMARK    3  A    between atoms: N_6  and  C_7 
REMARK    4  A    between atoms: C_13  and  N_14 
ROOT
HETATM    1  N   UNL     1     -41.879 -51.326  11.731  1.00  0.00    -0.336 N 
HETATM    2  C   UNL     1     -41.869 -49.972  11.949  1.00  0.00     0.321 C 
HETATM    3  O   UNL     1     -42.240 -49.470  13.004  1.00  0.00    -0.247 OA
HETATM    4  N   UNL     1     -41.345 -49.278  10.879  1.00  0.00    -0.306 N 
HETATM    5  H   UNL     1     -41.596 -51.699  10.834  1.00  0.00     0.164 HD
HETATM    6  H   UNL     1     -40.593 -49.762  10.405  1.00  0.00     0.171 HD
ENDROOT
BRANCH   4   7
HETATM    7  C   UNL     1     -41.091 -47.888  10.997  1.00  0.00     0.075 A 
HETATM    8  C   UNL     1     -39.951 -47.411  11.644  1.00  0.00     0.034 A 
HETATM    9  C   UNL     1     -39.747 -46.040  11.721  1.00  0.00     0.019 A 
HETATM   10  C   UNL     1     -40.700 -45.209  11.158  1.00  0.00     0.089 A 
HETATM   11  N   UNL     1     -41.820 -45.643  10.534  1.00  0.00    -0.355 N 
HETATM   12  C   UNL     1     -42.013 -46.977  10.437  1.00  0.00     0.109 A 
ATOM     13  HN  UNL     1     -42.497 -44.985  10.150  1.00  0.00     0.166 HD
BRANCH  12  14
HETATM   14  N   UNL     1     -43.092 -47.493   9.673  1.00  0.00    -0.267 NA
HETATM   15  C   UNL     1     -44.302 -47.816  10.444  1.00  0.00     0.097 C 
HETATM   16  C   UNL     1     -45.455 -47.438   9.526  1.00  0.00     0.016 C 
HETATM   17  C   UNL     1     -44.921 -46.242   8.769  1.00  0.00     0.016 C 
HETATM   18  C   UNL     1     -43.452 -46.580   8.564  1.00  0.00     0.097 C 
ENDBRANCH  12  14
ENDBRANCH   4   7
BRANCH   1  19
HETATM   19  C   UNL     1     -42.174 -52.267  12.808  1.00  0.00     0.111 C 
HETATM   20  C   UNL     1     -41.041 -53.291  12.898  1.00  0.00     0.035 C 
BRANCH  19  21
HETATM   21  C   UNL     1     -43.562 -52.890  12.592  1.00  0.00     0.143 C 
HETATM   22  C   UNL     1     -44.716 -52.149  13.260  1.00  0.00     0.036 C 
HETATM   23  C   UNL     1     -45.547 -53.233  13.912  1.00  0.00     0.029 C 
HETATM   24  C   UNL     1     -44.990 -54.519  13.346  1.00  0.00     0.168 C 
HETATM   25  O   UNL     1     -43.610 -54.245  13.084  1.00  0.00    -0.384 OA
ENDBRANCH  19  21
ENDBRANCH   1  19
TORSDOF 4
ENDMDL
MODEL 6
REMARK VINA RESULT:      -6.3      2.778      5.581
REMARK  4 active torsions:
REMARK  status: ('A' for Active; 'I' for Inactive)
REMARK    1  A    between atoms: C_2  and  N_3 
REMARK    2  A    between atoms: C_2  and  C_19 
REMARK       I    between atoms: N_3  and  C_4 
REMARK       I    between atoms: C_4  and  N_6 
REMARK    3  A    between atoms: N_6  and  C_7 
REMARK    4  A    between atoms: C_13  and  N_14 
ROOT
HETATM    1  N   UNL     1     -42.874 -52.076  12.621  1.00  0.00    -0.336 N 
HETATM    2  C   UNL     1     -42.499 -50.756  12.626  1.00  0.00     0.321 C 
HETATM    3  O   UNL     1     -42.640 -50.034  13.608  1.00  0.00    -0.247 OA
HETATM    4  N   UNL     1     -41.906 -50.380  11.440  1.00  0.00    -0.306 N 
HETATM    5  H   UNL     1     -42.772 -52.629  11.780  1.00  0.00     0.164 HD
HETATM    6  H   UNL     1     -41.346 -51.106  11.013  1.00  0.00     0.171 HD
ENDROOT
BRANCH   4   7
HETATM    7  C   UNL     1     -41.295 -49.105  11.332  1.00  0.00     0.075 A 
HETATM    8  C   UNL     1     -42.014 -47.990  10.903  1.00  0.00     0.034 A 
HETATM    9  C   UNL     1     -41.369 -46.764  10.825  1.00  0.00     0.019 A 
HETATM   10  C   UNL     1     -40.030 -46.711  11.169  1.00  0.00     0.089 A 
HETATM   11  N   UNL     1     -39.304 -47.778  11.579  1.00  0.00    -0.355 N 
HETATM   12  C   UNL     1     -39.932 -48.971  11.676  1.00  0.00     0.109 A 
ATOM     13  HN  UNL     1     -38.315 -47.685  11.807  1.00  0.00     0.166 HD
BRANCH  12  14
HETATM   14  N   UNL     1     -39.264 -50.091  12.234  1.00  0.00    -0.267 NA
HETATM   15  C   UNL     1     -37.962 -50.406  11.624  1.00  0.00     0.097 C 
HETATM   16  C   UNL     1     -37.096 -50.874  12.784  1.00  0.00     0.016 C 
HETATM   17  C   UNL     1     -37.592 -50.043  13.947  1.00  0.00     0.016 C 
HETATM   18  C   UNL     1     -39.090 -49.943  13.697  1.00  0.00     0.097 C 
ENDBRANCH  12  14
ENDBRANCH   4   7
BRANCH   1  19
HETATM   19  C   UNL     1     -43.310 -52.747  13.841  1.00  0.00     0.111 C 
HETATM   20  C   UNL     1     -42.684 -54.143  13.891  1.00  0.00     0.035 C 
BRANCH  19  21
HETATM   21  C   UNL     1     -44.844 -52.749  13.918  1.00  0.00     0.143 C 
HETATM   22  C   UNL     1     -45.561 -52.685  12.572  1.00  0.00     0.036 C 
HETATM   23  C   UNL     1     -46.652 -51.654  12.762  1.00  0.00     0.029 C 
HETATM   24  C   UNL     1     -46.677 -51.410  14.253  1.00  0.00     0.168 C 
HETATM   25  O   UNL     1     -45.332 -51.633  14.690  1.00  0.00    -0.384 OA
ENDBRANCH  19  21
ENDBRANCH   1  19
TORSDOF 4
ENDMDL
MODEL 7
REMARK VINA RESULT:      -6.1      2.790      7.964
REMARK  4 active torsions:
REMARK  status: ('A' for Active; 'I' for Inactive)
REMARK    1  A    between atoms: C_2  and  N_3 
REMARK    2  A    between atoms: C_2  and  C_19 
REMARK       I    between atoms: N_3  and  C_4 
REMARK       I    between atoms: C_4  and  N_6 
REMARK    3  A    between atoms: N_6  and  C_7 
REMARK    4  A    between atoms: C_13  and  N_14 
ROOT
HETATM    1  N   UNL     1     -41.948 -49.583  11.407  1.00  0.00    -0.336 N 
HETATM    2  C   UNL     1     -42.415 -50.468  12.346  1.00  0.00     0.321 C 
HETATM    3  O   UNL     1     -42.944 -50.104  13.391  1.00  0.00    -0.247 OA
HETATM    4  N   UNL     1     -42.270 -51.778  11.942  1.00  0.00    -0.306 N 
HETATM    5  H   UNL     1     -41.488 -49.923  10.573  1.00  0.00     0.164 HD
HETATM    6  H   UNL     1     -42.397 -51.917  10.948  1.00  0.00     0.171 HD
ENDROOT
BRANCH   4   7
HETATM    7  C   UNL     1     -42.858 -52.819  12.704  1.00  0.00     0.075 A 
HETATM    8  C   UNL     1     -44.163 -53.247  12.462  1.00  0.00     0.034 A 
HETATM    9  C   UNL     1     -44.686 -54.277  13.230  1.00  0.00     0.019 A 
HETATM   10  C   UNL     1     -43.883 -54.824  14.215  1.00  0.00     0.089 A 
HETATM   11  N   UNL     1     -42.618 -54.422  14.480  1.00  0.00    -0.355 N 
HETATM   12  C   UNL     1     -42.096 -53.433  13.721  1.00  0.00     0.109 A 
ATOM     13  HN  UNL     1     -42.075 -54.851  15.230  1.00  0.00     0.166 HD
BRANCH  12  14
HETATM   14  N   UNL     1     -40.731 -53.068  13.856  1.00  0.00    -0.267 NA
HETATM   15  C   UNL     1     -40.405 -52.326  15.084  1.00  0.00     0.097 C 
HETATM   16  C   UNL     1     -39.027 -52.830  15.483  1.00  0.00     0.016 C 
HETATM   17  C   UNL     1     -39.045 -54.279  15.047  1.00  0.00     0.016 C 
HETATM   18  C   UNL     1     -39.844 -54.248  13.752  1.00  0.00     0.097 C 
ENDBRANCH  12  14
ENDBRANCH   4   7
BRANCH   1  19
HETATM   19  C   UNL     1     -42.206 -48.151  11.518  1.00  0.00     0.111 C 
HETATM   20  C   UNL     1     -43.442 -47.802  10.686  1.00  0.00     0.035 C 
BRANCH  19  21
HETATM   21  C   UNL     1     -40.947 -47.361  11.127  1.00  0.00     0.143 C 
HETATM   22  C   UNL     1     -40.104 -46.862  12.297  1.00  0.00     0.036 C 
HETATM   23  C   UNL     1     -39.772 -45.427  11.950  1.00  0.00     0.029 C 
HETATM   24  C   UNL     1     -40.190 -45.287  10.505  1.00  0.00     0.168 C 
HETATM   25  O   UNL     1     -41.282 -46.197  10.342  1.00  0.00    -0.384 OA
ENDBRANCH  19  21
ENDBRANCH   1  19
TORSDOF 4
ENDMDL
MODEL 8
REMARK VINA RESULT:      -5.8      3.268      6.997
REMARK  4 active torsions:
REMARK  status: ('A' for Active; 'I' for Inactive)
REMARK    1  A    between atoms: C_2  and  N_3 
REMARK    2  A    between atoms: C_2  and  C_19 
REMARK       I    between atoms: N_3  and  C_4 
REMARK       I    between atoms: C_4  and  N_6 
REMARK    3  A    between atoms: N_6  and  C_7 
REMARK    4  A    between atoms: C_13  and  N_14 
ROOT
HETATM    1  N   UNL     1     -40.919 -51.137  11.170  1.00  0.00    -0.336 N 
HETATM    2  C   UNL     1     -41.154 -51.682  12.406  1.00  0.00     0.321 C 
HETATM    3  O   UNL     1     -40.889 -51.093  13.449  1.00  0.00    -0.247 OA
HETATM    4  N   UNL     1     -41.764 -52.915  12.322  1.00  0.00    -0.306 N 
HETATM    5  H   UNL     1     -41.120 -51.669  10.333  1.00  0.00     0.164 HD
HETATM    6  H   UNL     1     -42.418 -52.998  11.555  1.00  0.00     0.171 HD
ENDROOT
BRANCH   4   7
HETATM    7  C   UNL     1     -42.244 -53.545  13.499  1.00  0.00     0.075 A 
HETATM    8  C   UNL     1     -41.420 -54.362  14.272  1.00  0.00     0.034 A 
HETATM    9  C   UNL     1     -41.938 -54.945  15.420  1.00  0.00     0.019 A 
HETATM   10  C   UNL     1     -43.262 -54.694  15.735  1.00  0.00     0.089 A 
HETATM   11  N   UNL     1     -44.088 -53.914  14.999  1.00  0.00    -0.355 N 
HETATM   12  C   UNL     1     -43.583 -53.327  13.891  1.00  0.00     0.109 A 
ATOM     13  HN  UNL     1     -45.061 -53.775  15.270  1.00  0.00     0.166 HD
BRANCH  12  14
HETATM   14  N   UNL     1     -44.356 -52.388  13.160  1.00  0.00    -0.267 NA
HETATM   15  C   UNL     1     -45.483 -52.963  12.408  1.00  0.00     0.097 C 
HETATM   16  C   UNL     1     -46.588 -51.922  12.518  1.00  0.00     0.016 C 
HETATM   17  C   UNL     1     -46.373 -51.328  13.893  1.00  0.00     0.016 C 
HETATM   18  C   UNL     1     -44.858 -51.305  14.035  1.00  0.00     0.097 C 
ENDBRANCH  12  14
ENDBRANCH   4   7
BRANCH   1  19
HETATM   19  C   UNL     1     -40.494 -49.748  11.020  1.00  0.00     0.111 C 
HETATM   20  C   UNL     1     -39.208 -49.533  11.820  1.00  0.00     0.035 C 
BRANCH  19  21
HETATM   21  C   UNL     1     -41.640 -48.805  11.416  1.00  0.00     0.143 C 
HETATM   22  C   UNL     1     -42.211 -47.964  10.278  1.00  0.00     0.036 C 
HETATM   23  C   UNL     1     -42.336 -46.569  10.853  1.00  0.00     0.029 C 
HETATM   24  C   UNL     1     -42.110 -46.756  12.335  1.00  0.00     0.168 C 
HETATM   25  O   UNL     1     -41.225 -47.876  12.439  1.00  0.00    -0.384 OA
ENDBRANCH  19  21
ENDBRANCH   1  19
TORSDOF 4
ENDMDL
MODEL 9
REMARK VINA RESULT:      -5.8      1.379      2.187
REMARK  4 active torsions:
REMARK  status: ('A' for Active; 'I' for Inactive)
REMARK    1  A    between atoms: C_2  and  N_3 
REMARK    2  A    between atoms: C_2  and  C_19 
REMARK       I    between atoms: N_3  and  C_4 
REMARK       I    between atoms: C_4  and  N_6 
REMARK    3  A    between atoms: N_6  and  C_7 
REMARK    4  A    between atoms: C_13  and  N_14 
ROOT
HETATM    1  N   UNL     1     -41.057 -51.020  11.194  1.00  0.00    -0.336 N 
HETATM    2  C   UNL     1     -41.299 -49.719  11.552  1.00  0.00     0.321 C 
HETATM    3  O   UNL     1     -41.752 -49.409  12.649  1.00  0.00    -0.247 OA
HETATM    4  N   UNL     1     -40.917 -48.830  10.569  1.00  0.00    -0.306 N 
HETATM    5  H   UNL     1     -40.713 -51.237  10.267  1.00  0.00     0.164 HD
HETATM    6  H   UNL     1     -40.091 -49.112  10.059  1.00  0.00     0.171 HD
ENDROOT
BRANCH   4   7
HETATM    7  C   UNL     1     -40.927 -47.438  10.837  1.00  0.00     0.075 A 
HETATM    8  C   UNL     1     -39.849 -46.811  11.461  1.00  0.00     0.034 A 
HETATM    9  C   UNL     1     -39.906 -45.444  11.689  1.00  0.00     0.019 A 
HETATM   10  C   UNL     1     -41.046 -44.767  11.292  1.00  0.00     0.089 A 
HETATM   11  N   UNL     1     -42.111 -45.349  10.694  1.00  0.00    -0.355 N 
HETATM   12  C   UNL     1     -42.052 -46.677  10.450  1.00  0.00     0.109 A 
ATOM     13  HN  UNL     1     -42.933 -44.804  10.435  1.00  0.00     0.166 HD
BRANCH  12  14
HETATM   14  N   UNL     1     -43.073 -47.316   9.700  1.00  0.00    -0.267 NA
HETATM   15  C   UNL     1     -44.252 -47.727  10.479  1.00  0.00     0.097 C 
HETATM   16  C   UNL     1     -45.431 -47.489   9.547  1.00  0.00     0.016 C 
HETATM   17  C   UNL     1     -45.008 -46.272   8.753  1.00  0.00     0.016 C 
HETATM   18  C   UNL     1     -43.512 -46.477   8.562  1.00  0.00     0.097 C 
ENDBRANCH  12  14
ENDBRANCH   4   7
BRANCH   1  19
HETATM   19  C   UNL     1     -41.167 -52.108  12.161  1.00  0.00     0.111 C 
HETATM   20  C   UNL     1     -42.460 -51.933  12.960  1.00  0.00     0.035 C 
BRANCH  19  21
HETATM   21  C   UNL     1     -39.900 -52.165  13.029  1.00  0.00     0.143 C 
HETATM   22  C   UNL     1     -40.050 -51.589  14.434  1.00  0.00     0.036 C 
HETATM   23  C   UNL     1     -38.817 -50.734  14.636  1.00  0.00     0.029 C 
HETATM   24  C   UNL     1     -37.919 -51.097  13.476  1.00  0.00     0.168 C 
HETATM   25  O   UNL     1     -38.809 -51.451  12.412  1.00  0.00    -0.384 OA
ENDBRANCH  19  21
ENDBRANCH   1  19
TORSDOF 4
ENDMDL
