MODEL 1
REMARK VINA RESULT:      -6.6      0.000      0.000
REMARK  4 active torsions:
REMARK  status: ('A' for Active; 'I' for Inactive)
REMARK    1  A    between atoms: C_2  and  N_3 
REMARK    2  A    between atoms: C_2  and  C_15 
REMARK       I    between atoms: N_3  and  C_4 
REMARK       I    between atoms: C_4  and  N_6 
REMARK    3  A    between atoms: N_6  and  C_7 
REMARK    4  A    between atoms: C_15  and  N_17 
ROOT
HETATM    1  N   UNL     1     -40.305 -49.161  11.144  1.00  0.00    -0.336 N 
HETATM    2  C   UNL     1     -41.460 -48.402  11.082  1.00  0.00     0.322 C 
HETATM    3  O   UNL     1     -42.006 -47.964  12.084  1.00  0.00    -0.247 OA
HETATM    4  N   UNL     1     -41.858 -48.210   9.779  1.00  0.00    -0.295 N 
HETATM    5  H   UNL     1     -40.211 -49.865  10.427  1.00  0.00     0.164 HD
HETATM    6  H   UNL     1     -41.158 -48.346   9.069  1.00  0.00     0.172 HD
ENDROOT
BRANCH   1   7
HETATM    7  C   UNL     1     -39.676 -49.450  12.441  1.00  0.00     0.115 C 
HETATM    8  C   UNL     1     -38.486 -48.501  12.665  1.00  0.00     0.034 C 
BRANCH   7   9
HETATM    9  C   UNL     1     -39.304 -50.980  12.610  1.00  0.00     0.241 C 
HETATM   10  C   UNL     1     -37.789 -51.176  12.763  1.00  0.00     0.045 C 
BRANCH   9  11
HETATM   11  N   UNL     1     -40.147 -51.695  13.608  1.00  0.00     0.098 N 
HETATM   12  C   UNL     1     -39.985 -53.144  13.768  1.00  0.00     0.299 C 
HETATM   13  C   UNL     1     -40.847 -54.003  12.830  1.00  0.00     0.198 C 
HETATM   14  O   UNL     1     -42.232 -53.635  12.886  1.00  0.00    -0.388 OA
HETATM   15  C   UNL     1     -42.406 -52.242  12.602  1.00  0.00     0.198 C 
HETATM   16  C   UNL     1     -41.584 -51.364  13.562  1.00  0.00     0.299 C 
ENDBRANCH   9  11
ENDBRANCH   7   9
ENDBRANCH   1   7
BRANCH   4  17
HETATM   17  C   UNL     1     -43.023 -47.510   9.433  1.00  0.00     0.109 A 
HETATM   18  C   UNL     1     -42.947 -46.130   9.306  1.00  0.00     0.049 A 
HETATM   19  C   UNL     1     -44.112 -45.420   9.029  1.00  0.00     0.006 A 
HETATM   20  C   UNL     1     -45.314 -46.107   8.877  1.00  0.00     0.025 A 
HETATM   21  C   UNL     1     -45.304 -47.487   8.991  1.00  0.00     0.007 A 
HETATM   22  C   UNL     1     -46.557 -48.302   8.861  1.00  0.00     0.068 C 
HETATM   23  N   UNL     1     -44.176 -48.177   9.246  1.00  0.00    -0.346 N 
ATOM     24  HN  UNL     1     -44.196 -49.196   9.297  1.00  0.00     0.167 HD
ENDBRANCH   4  17
TORSDOF 4
ENDMDL
MODEL 2
REMARK VINA RESULT:      -6.3      2.815      4.217
REMARK  4 active torsions:
REMARK  status: ('A' for Active; 'I' for Inactive)
REMARK    1  A    between atoms: C_2  and  N_3 
REMARK    2  A    between atoms: C_2  and  C_15 
REMARK       I    between atoms: N_3  and  C_4 
REMARK       I    between atoms: C_4  and  N_6 
REMARK    3  A    between atoms: N_6  and  C_7 
REMARK    4  A    between atoms: C_15  and  N_17 
ROOT
HETATM    1  N   UNL     1     -42.246 -51.596  12.812  1.00  0.00    -0.336 N 
HETATM    2  C   UNL     1     -42.592 -50.297  12.483  1.00  0.00     0.322 C 
HETATM    3  O   UNL     1     -43.502 -49.704  13.045  1.00  0.00    -0.247 OA
HETATM    4  N   UNL     1     -41.775 -49.801  11.494  1.00  0.00    -0.295 N 
HETATM    5  H   UNL     1     -41.897 -52.157  12.049  1.00  0.00     0.164 HD
HETATM    6  H   UNL     1     -40.894 -50.267  11.362  1.00  0.00     0.172 HD
ENDROOT
BRANCH   1   7
HETATM    7  C   UNL     1     -42.961 -52.307  13.882  1.00  0.00     0.115 C 
HETATM    8  C   UNL     1     -42.202 -52.146  15.211  1.00  0.00     0.034 C 
BRANCH   7   9
HETATM    9  C   UNL     1     -43.271 -53.814  13.510  1.00  0.00     0.241 C 
HETATM   10  C   UNL     1     -42.807 -54.773  14.615  1.00  0.00     0.045 C 
BRANCH   9  11
HETATM   11  N   UNL     1     -44.657 -54.035  13.009  1.00  0.00     0.098 N 
HETATM   12  C   UNL     1     -45.484 -52.872  12.669  1.00  0.00     0.299 C 
HETATM   13  C   UNL     1     -46.292 -52.284  13.837  1.00  0.00     0.198 C 
HETATM   14  O   UNL     1     -47.068 -53.283  14.509  1.00  0.00    -0.388 OA
HETATM   15  C   UNL     1     -46.241 -54.364  14.957  1.00  0.00     0.198 C 
HETATM   16  C   UNL     1     -45.458 -54.994  13.792  1.00  0.00     0.299 C 
ENDBRANCH   9  11
ENDBRANCH   7   9
ENDBRANCH   1   7
BRANCH   4  17
HETATM   17  C   UNL     1     -41.936 -48.520  10.945  1.00  0.00     0.109 A 
HETATM   18  C   UNL     1     -40.937 -47.582  11.163  1.00  0.00     0.049 A 
HETATM   19  C   UNL     1     -41.118 -46.290  10.679  1.00  0.00     0.006 A 
HETATM   20  C   UNL     1     -42.283 -45.974   9.984  1.00  0.00     0.025 A 
HETATM   21  C   UNL     1     -43.221 -46.973   9.782  1.00  0.00     0.007 A 
HETATM   22  C   UNL     1     -44.511 -46.714   9.061  1.00  0.00     0.068 C 
HETATM   23  N   UNL     1     -43.042 -48.227  10.238  1.00  0.00    -0.346 N 
ATOM     24  HN  UNL     1     -43.738 -48.948  10.050  1.00  0.00     0.167 HD
ENDBRANCH   4  17
TORSDOF 4
ENDMDL
MODEL 3
REMARK VINA RESULT:      -6.2      2.553      5.963
REMARK  4 active torsions:
REMARK  status: ('A' for Active; 'I' for Inactive)
REMARK    1  A    between atoms: C_2  and  N_3 
REMARK    2  A    between atoms: C_2  and  C_15 
REMARK       I    between atoms: N_3  and  C_4 
REMARK       I    between atoms: C_4  and  N_6 
REMARK    3  A    between atoms: N_6  and  C_7 
REMARK    4  A    between atoms: C_15  and  N_17 
ROOT
HETATM    1  N   UNL     1     -40.589 -51.090  11.270  1.00  0.00    -0.336 N 
HETATM    2  C   UNL     1     -41.585 -51.327  12.201  1.00  0.00     0.322 C 
HETATM    3  O   UNL     1     -41.665 -50.695  13.244  1.00  0.00    -0.247 OA
HETATM    4  N   UNL     1     -42.437 -52.320  11.774  1.00  0.00    -0.295 N 
HETATM    5  H   UNL     1     -40.281 -51.898  10.750  1.00  0.00     0.164 HD
HETATM    6  H   UNL     1     -42.442 -52.515  10.788  1.00  0.00     0.172 HD
ENDROOT
BRANCH   1   7
HETATM    7  C   UNL     1     -39.593 -50.034  11.502  1.00  0.00     0.115 C 
HETATM    8  C   UNL     1     -38.503 -50.547  12.459  1.00  0.00     0.034 C 
BRANCH   7   9
HETATM    9  C   UNL     1     -40.249 -48.669  11.965  1.00  0.00     0.241 C 
HETATM   10  C   UNL     1     -39.394 -47.967  13.029  1.00  0.00     0.045 C 
BRANCH   9  11
HETATM   11  N   UNL     1     -40.702 -47.809  10.836  1.00  0.00     0.098 N 
HETATM   12  C   UNL     1     -40.444 -46.366  10.893  1.00  0.00     0.299 C 
HETATM   13  C   UNL     1     -41.529 -45.539  11.600  1.00  0.00     0.198 C 
HETATM   14  O   UNL     1     -42.835 -45.803  11.073  1.00  0.00    -0.388 OA
HETATM   15  C   UNL     1     -43.143 -47.201  11.134  1.00  0.00     0.198 C 
HETATM   16  C   UNL     1     -42.089 -48.042  10.392  1.00  0.00     0.299 C 
ENDBRANCH   9  11
ENDBRANCH   7   9
ENDBRANCH   1   7
BRANCH   4  17
HETATM   17  C   UNL     1     -43.511 -52.786  12.546  1.00  0.00     0.109 A 
HETATM   18  C   UNL     1     -43.499 -54.111  12.957  1.00  0.00     0.049 A 
HETATM   19  C   UNL     1     -44.591 -54.601  13.666  1.00  0.00     0.006 A 
HETATM   20  C   UNL     1     -45.658 -53.752  13.955  1.00  0.00     0.025 A 
HETATM   21  C   UNL     1     -45.583 -52.434  13.537  1.00  0.00     0.007 A 
HETATM   22  C   UNL     1     -46.695 -51.459  13.789  1.00  0.00     0.068 C 
HETATM   23  N   UNL     1     -44.521 -51.955  12.861  1.00  0.00    -0.346 N 
ATOM     24  HN  UNL     1     -44.483 -50.973  12.590  1.00  0.00     0.167 HD
ENDBRANCH   4  17
TORSDOF 4
ENDMDL
MODEL 4
REMARK VINA RESULT:      -6.2      1.501      1.869
REMARK  4 active torsions:
REMARK  status: ('A' for Active; 'I' for Inactive)
REMARK    1  A    between atoms: C_2  and  N_3 
REMARK    2  A    between atoms: C_2  and  C_15 
REMARK       I    between atoms: N_3  and  C_4 
REMARK       I    between atoms: C_4  and  N_6 
REMARK    3  A    between atoms: N_6  and  C_7 
REMARK    4  A    between atoms: C_15  and  N_17 
ROOT
HETATM    1  N   UNL     1     -41.325 -49.707  11.988  1.00  0.00    -0.336 N 
HETATM    2  C   UNL     1     -42.388 -48.865  11.713  1.00  0.00     0.322 C 
HETATM    3  O   UNL     1     -43.215 -48.563  12.561  1.00  0.00    -0.247 OA
HETATM    4  N   UNL     1     -42.350 -48.428  10.409  1.00  0.00    -0.295 N 
HETATM    5  H   UNL     1     -41.021 -50.285  11.219  1.00  0.00     0.164 HD
HETATM    6  H   UNL     1     -41.464 -48.493   9.938  1.00  0.00     0.172 HD
ENDROOT
BRANCH   1   7
HETATM    7  C   UNL     1     -41.143 -50.256  13.340  1.00  0.00     0.115 C 
HETATM    8  C   UNL     1     -39.742 -49.895  13.864  1.00  0.00     0.034 C 
BRANCH   7   9
HETATM    9  C   UNL     1     -41.468 -51.803  13.418  1.00  0.00     0.241 C 
HETATM   10  C   UNL     1     -40.260 -52.606  13.920  1.00  0.00     0.045 C 
BRANCH   9  11
HETATM   11  N   UNL     1     -42.764 -52.111  14.084  1.00  0.00     0.098 N 
HETATM   12  C   UNL     1     -42.860 -53.298  14.941  1.00  0.00     0.299 C 
HETATM   13  C   UNL     1     -43.237 -54.598  14.212  1.00  0.00     0.198 C 
HETATM   14  O   UNL     1     -44.422 -54.444  13.420  1.00  0.00    -0.388 OA
HETATM   15  C   UNL     1     -44.283 -53.364  12.490  1.00  0.00     0.198 C 
HETATM   16  C   UNL     1     -43.948 -52.044  13.206  1.00  0.00     0.299 C 
ENDBRANCH   9  11
ENDBRANCH   7   9
ENDBRANCH   1   7
BRANCH   4  17
HETATM   17  C   UNL     1     -43.334 -47.595   9.857  1.00  0.00     0.109 A 
HETATM   18  C   UNL     1     -42.978 -46.301   9.505  1.00  0.00     0.049 A 
HETATM   19  C   UNL     1     -43.963 -45.447   9.017  1.00  0.00     0.006 A 
HETATM   20  C   UNL     1     -45.269 -45.910   8.886  1.00  0.00     0.025 A 
HETATM   21  C   UNL     1     -45.541 -47.224   9.230  1.00  0.00     0.007 A 
HETATM   22  C   UNL     1     -46.924 -47.798   9.138  1.00  0.00     0.068 C 
HETATM   23  N   UNL     1     -44.587 -48.056   9.691  1.00  0.00    -0.346 N 
ATOM     24  HN  UNL     1     -44.812 -49.026   9.911  1.00  0.00     0.167 HD
ENDBRANCH   4  17
TORSDOF 4
ENDMDL
MODEL 5
REMARK VINA RESULT:      -6.1      1.584      2.309
REMARK  4 active torsions:
REMARK  status: ('A' for Active; 'I' for Inactive)
REMARK    1  A    between atoms: C_2  and  N_3 
REMARK    2  A    between atoms: C_2  and  C_15 
REMARK       I    between atoms: N_3  and  C_4 
REMARK       I    between atoms: C_4  and  N_6 
REMARK    3  A    between atoms: N_6  and  C_7 
REMARK    4  A    between atoms: C_15  and  N_17 
ROOT
HETATM    1  N   UNL     1     -40.087 -50.884  11.958  1.00  0.00    -0.336 N 
HETATM    2  C   UNL     1     -40.846 -49.728  11.928  1.00  0.00     0.322 C 
HETATM    3  O   UNL     1     -41.329 -49.239  12.939  1.00  0.00    -0.247 OA
HETATM    4  N   UNL     1     -40.943 -49.232  10.648  1.00  0.00    -0.295 N 
HETATM    5  H   UNL     1     -40.160 -51.472  11.141  1.00  0.00     0.164 HD
HETATM    6  H   UNL     1     -40.248 -49.544   9.991  1.00  0.00     0.172 HD
ENDROOT
BRANCH   1   7
HETATM    7  C   UNL     1     -39.815 -51.560  13.236  1.00  0.00     0.115 C 
HETATM    8  C   UNL     1     -38.298 -51.745  13.414  1.00  0.00     0.034 C 
BRANCH   7   9
HETATM    9  C   UNL     1     -40.639 -52.902  13.402  1.00  0.00     0.241 C 
HETATM   10  C   UNL     1     -39.751 -54.047  13.907  1.00  0.00     0.045 C 
BRANCH   9  11
HETATM   11  N   UNL     1     -41.930 -52.726  14.123  1.00  0.00     0.098 N 
HETATM   12  C   UNL     1     -42.281 -53.665  15.195  1.00  0.00     0.299 C 
HETATM   13  C   UNL     1     -43.023 -54.930  14.735  1.00  0.00     0.198 C 
HETATM   14  O   UNL     1     -44.170 -54.618  13.935  1.00  0.00    -0.388 OA
HETATM   15  C   UNL     1     -43.810 -53.805  12.812  1.00  0.00     0.198 C 
HETATM   16  C   UNL     1     -43.105 -52.511  13.257  1.00  0.00     0.299 C 
ENDBRANCH   9  11
ENDBRANCH   7   9
ENDBRANCH   1   7
BRANCH   4  17
HETATM   17  C   UNL     1     -41.691 -48.090  10.329  1.00  0.00     0.109 A 
HETATM   18  C   UNL     1     -41.141 -46.846  10.603  1.00  0.00     0.049 A 
HETATM   19  C   UNL     1     -41.903 -45.708  10.351  1.00  0.00     0.006 A 
HETATM   20  C   UNL     1     -43.185 -45.844   9.824  1.00  0.00     0.025 A 
HETATM   21  C   UNL     1     -43.653 -47.118   9.550  1.00  0.00     0.007 A 
HETATM   22  C   UNL     1     -45.029 -47.356   9.000  1.00  0.00     0.068 C 
HETATM   23  N   UNL     1     -42.913 -48.220   9.781  1.00  0.00    -0.346 N 
ATOM     24  HN  UNL     1     -43.275 -49.143   9.544  1.00  0.00     0.167 HD
ENDBRANCH   4  17
TORSDOF 4
ENDMDL
MODEL 6
REMARK VINA RESULT:      -5.8      2.759      6.659
REMARK  4 active torsions:
REMARK  status: ('A' for Active; 'I' for Inactive)
REMARK    1  A    between atoms: C_2  and  N_3 
REMARK    2  A    between atoms: C_2  and  C_15 
REMARK       I    between atoms: N_3  and  C_4 
REMARK       I    between atoms: C_4  and  N_6 
REMARK    3  A    between atoms: N_6  and  C_7 
REMARK    4  A    between atoms: C_15  and  N_17 
ROOT
HETATM    1  N   UNL     1     -40.965 -48.258  10.980  1.00  0.00    -0.336 N 
HETATM    2  C   UNL     1     -41.550 -49.251  11.744  1.00  0.00     0.322 C 
HETATM    3  O   UNL     1     -42.417 -49.011  12.572  1.00  0.00    -0.247 OA
HETATM    4  N   UNL     1     -41.043 -50.489  11.422  1.00  0.00    -0.295 N 
HETATM    5  H   UNL     1     -39.999 -48.413  10.734  1.00  0.00     0.164 HD
HETATM    6  H   UNL     1     -40.591 -50.571  10.527  1.00  0.00     0.172 HD
ENDROOT
BRANCH   1   7
HETATM    7  C   UNL     1     -41.393 -46.859  11.127  1.00  0.00     0.115 C 
HETATM    8  C   UNL     1     -42.180 -46.421   9.880  1.00  0.00     0.034 C 
BRANCH   7   9
HETATM    9  C   UNL     1     -40.194 -45.891  11.490  1.00  0.00     0.241 C 
HETATM   10  C   UNL     1     -39.711 -45.110  10.260  1.00  0.00     0.045 C 
BRANCH   9  11
HETATM   11  N   UNL     1     -40.431 -45.076  12.714  1.00  0.00     0.098 N 
HETATM   12  C   UNL     1     -41.246 -45.638  13.797  1.00  0.00     0.299 C 
HETATM   13  C   UNL     1     -42.757 -45.390  13.670  1.00  0.00     0.198 C 
HETATM   14  O   UNL     1     -43.059 -44.003  13.472  1.00  0.00    -0.388 OA
HETATM   15  C   UNL     1     -42.361 -43.481  12.335  1.00  0.00     0.198 C 
HETATM   16  C   UNL     1     -40.841 -43.681  12.466  1.00  0.00     0.299 C 
ENDBRANCH   9  11
ENDBRANCH   7   9
ENDBRANCH   1   7
BRANCH   4  17
HETATM   17  C   UNL     1     -41.434 -51.666  12.076  1.00  0.00     0.109 A 
HETATM   18  C   UNL     1     -40.448 -52.464  12.639  1.00  0.00     0.049 A 
HETATM   19  C   UNL     1     -40.820 -53.667  13.232  1.00  0.00     0.006 A 
HETATM   20  C   UNL     1     -42.163 -54.034  13.255  1.00  0.00     0.025 A 
HETATM   21  C   UNL     1     -43.092 -53.171  12.697  1.00  0.00     0.007 A 
HETATM   22  C   UNL     1     -44.556 -53.498  12.662  1.00  0.00     0.068 C 
HETATM   23  N   UNL     1     -42.736 -52.000  12.134  1.00  0.00    -0.346 N 
ATOM     24  HN  UNL     1     -43.446 -51.374  11.756  1.00  0.00     0.167 HD
ENDBRANCH   4  17
TORSDOF 4
ENDMDL
MODEL 7
REMARK VINA RESULT:      -5.8      3.347      6.049
REMARK  4 active torsions:
REMARK  status: ('A' for Active; 'I' for Inactive)
REMARK    1  A    between atoms: C_2  and  N_3 
REMARK    2  A    between atoms: C_2  and  C_15 
REMARK       I    between atoms: N_3  and  C_4 
REMARK       I    between atoms: C_4  and  N_6 
REMARK    3  A    between atoms: N_6  and  C_7 
REMARK    4  A    between atoms: C_15  and  N_17 
ROOT
HETATM    1  N   UNL     1     -41.255 -49.038  13.348  1.00  0.00    -0.336 N 
HETATM    2  C   UNL     1     -42.596 -49.311  13.143  1.00  0.00     0.322 C 
HETATM    3  O   UNL     1     -43.257 -48.725  12.298  1.00  0.00    -0.247 OA
HETATM    4  N   UNL     1     -43.033 -50.310  13.981  1.00  0.00    -0.295 N 
HETATM    5  H   UNL     1     -40.932 -49.144  14.298  1.00  0.00     0.164 HD
HETATM    6  H   UNL     1     -42.326 -50.905  14.379  1.00  0.00     0.172 HD
ENDROOT
BRANCH   1   7
HETATM    7  C   UNL     1     -40.567 -48.032  12.525  1.00  0.00     0.115 C 
HETATM    8  C   UNL     1     -39.358 -48.673  11.822  1.00  0.00     0.034 C 
BRANCH   7   9
HETATM    9  C   UNL     1     -40.205 -46.724  13.339  1.00  0.00     0.241 C 
HETATM   10  C   UNL     1     -38.716 -46.690  13.714  1.00  0.00     0.045 C 
BRANCH   9  11
HETATM   11  N   UNL     1     -40.742 -45.473  12.734  1.00  0.00     0.098 N 
HETATM   12  C   UNL     1     -42.045 -45.510  12.061  1.00  0.00     0.299 C 
HETATM   13  C   UNL     1     -41.997 -45.886  10.572  1.00  0.00     0.198 C 
HETATM   14  O   UNL     1     -41.069 -45.073   9.842  1.00  0.00    -0.388 OA
HETATM   15  C   UNL     1     -39.761 -45.136  10.424  1.00  0.00     0.198 C 
HETATM   16  C   UNL     1     -39.783 -44.719  11.905  1.00  0.00     0.299 C 
ENDBRANCH   9  11
ENDBRANCH   7   9
ENDBRANCH   1   7
BRANCH   4  17
HETATM   17  C   UNL     1     -44.363 -50.753  14.009  1.00  0.00     0.109 A 
HETATM   18  C   UNL     1     -44.979 -50.907  15.243  1.00  0.00     0.049 A 
HETATM   19  C   UNL     1     -46.276 -51.409  15.284  1.00  0.00     0.006 A 
HETATM   20  C   UNL     1     -46.924 -51.734  14.095  1.00  0.00     0.025 A 
HETATM   21  C   UNL     1     -46.254 -51.526  12.901  1.00  0.00     0.007 A 
HETATM   22  C   UNL     1     -46.871 -51.866  11.576  1.00  0.00     0.068 C 
HETATM   23  N   UNL     1     -45.003 -51.027  12.858  1.00  0.00    -0.346 N 
ATOM     24  HN  UNL     1     -44.546 -50.860  11.962  1.00  0.00     0.167 HD
ENDBRANCH   4  17
TORSDOF 4
ENDMDL
MODEL 8
REMARK VINA RESULT:      -5.7      2.521      6.686
REMARK  4 active torsions:
REMARK  status: ('A' for Active; 'I' for Inactive)
REMARK    1  A    between atoms: C_2  and  N_3 
REMARK    2  A    between atoms: C_2  and  C_15 
REMARK       I    between atoms: N_3  and  C_4 
REMARK       I    between atoms: C_4  and  N_6 
REMARK    3  A    between atoms: N_6  and  C_7 
REMARK    4  A    between atoms: C_15  and  N_17 
ROOT
HETATM    1  N   UNL     1     -40.875 -50.725  11.122  1.00  0.00    -0.336 N 
HETATM    2  C   UNL     1     -41.436 -51.396  12.193  1.00  0.00     0.322 C 
HETATM    3  O   UNL     1     -41.227 -51.065  13.351  1.00  0.00    -0.247 OA
HETATM    4  N   UNL     1     -42.243 -52.426  11.766  1.00  0.00    -0.295 N 
HETATM    5  H   UNL     1     -40.665 -51.294  10.315  1.00  0.00     0.164 HD
HETATM    6  H   UNL     1     -42.569 -52.378  10.816  1.00  0.00     0.172 HD
ENDROOT
BRANCH   1   7
HETATM    7  C   UNL     1     -40.012 -49.556  11.348  1.00  0.00     0.115 C 
HETATM    8  C   UNL     1     -38.640 -50.015  11.870  1.00  0.00     0.034 C 
BRANCH   7   9
HETATM    9  C   UNL     1     -40.701 -48.458  12.258  1.00  0.00     0.241 C 
HETATM   10  C   UNL     1     -39.691 -47.399  12.722  1.00  0.00     0.045 C 
BRANCH   9  11
HETATM   11  N   UNL     1     -41.975 -47.928  11.698  1.00  0.00     0.098 N 
HETATM   12  C   UNL     1     -41.970 -47.335  10.356  1.00  0.00     0.299 C 
HETATM   13  C   UNL     1     -41.642 -45.834  10.309  1.00  0.00     0.198 C 
HETATM   14  O   UNL     1     -42.471 -45.076  11.198  1.00  0.00    -0.388 OA
HETATM   15  C   UNL     1     -42.379 -45.573  12.539  1.00  0.00     0.198 C 
HETATM   16  C   UNL     1     -42.748 -47.066  12.612  1.00  0.00     0.299 C 
ENDBRANCH   9  11
ENDBRANCH   7   9
ENDBRANCH   1   7
BRANCH   4  17
HETATM   17  C   UNL     1     -42.901 -53.294  12.649  1.00  0.00     0.109 A 
HETATM   18  C   UNL     1     -44.257 -53.522  12.458  1.00  0.00     0.049 A 
HETATM   19  C   UNL     1     -44.933 -54.329  13.368  1.00  0.00     0.006 A 
HETATM   20  C   UNL     1     -44.237 -54.892  14.435  1.00  0.00     0.025 A 
HETATM   21  C   UNL     1     -42.879 -54.641  14.542  1.00  0.00     0.007 A 
HETATM   22  C   UNL     1     -42.058 -55.192  15.671  1.00  0.00     0.068 C 
HETATM   23  N   UNL     1     -42.220 -53.870  13.655  1.00  0.00    -0.346 N 
ATOM     24  HN  UNL     1     -41.215 -53.726  13.746  1.00  0.00     0.167 HD
ENDBRANCH   4  17
TORSDOF 4
ENDMDL
MODEL 9
REMARK VINA RESULT:      -5.6      2.637      4.222
REMARK  4 active torsions:
REMARK  status: ('A' for Active; 'I' for Inactive)
REMARK    1  A    between atoms: C_2  and  N_3 
REMARK    2  A    between atoms: C_2  and  C_15 
REMARK       I    between atoms: N_3  and  C_4 
REMARK       I    between atoms: C_4  and  N_6 
REMARK    3  A    between atoms: N_6  and  C_7 
REMARK    4  A    between atoms: C_15  and  N_17 
ROOT
HETATM    1  N   UNL     1     -41.570 -51.578  12.019  1.00  0.00    -0.336 N 
HETATM    2  C   UNL     1     -41.686 -50.203  12.117  1.00  0.00     0.322 C 
HETATM    3  O   UNL     1     -41.861 -49.638  13.187  1.00  0.00    -0.247 OA
HETATM    4  N   UNL     1     -41.554 -49.605  10.885  1.00  0.00    -0.295 N 
HETATM    5  H   UNL     1     -41.927 -51.983  11.167  1.00  0.00     0.164 HD
HETATM    6  H   UNL     1     -41.103 -50.146  10.168  1.00  0.00     0.172 HD
ENDROOT
BRANCH   1   7
HETATM    7  C   UNL     1     -41.633 -52.416  13.226  1.00  0.00     0.115 C 
HETATM    8  C   UNL     1     -40.502 -53.458  13.195  1.00  0.00     0.034 C 
BRANCH   7   9
HETATM    9  C   UNL     1     -43.067 -53.047  13.455  1.00  0.00     0.241 C 
HETATM   10  C   UNL     1     -42.971 -54.476  14.007  1.00  0.00     0.045 C 
BRANCH   9  11
HETATM   11  N   UNL     1     -44.011 -52.144  14.172  1.00  0.00     0.098 N 
HETATM   12  C   UNL     1     -44.709 -52.645  15.361  1.00  0.00     0.299 C 
HETATM   13  C   UNL     1     -46.038 -53.363  15.080  1.00  0.00     0.198 C 
HETATM   14  O   UNL     1     -46.916 -52.572  14.269  1.00  0.00    -0.388 OA
HETATM   15  C   UNL     1     -46.278 -52.187  13.045  1.00  0.00     0.198 C 
HETATM   16  C   UNL     1     -44.966 -51.427  13.308  1.00  0.00     0.299 C 
ENDBRANCH   9  11
ENDBRANCH   7   9
ENDBRANCH   1   7
BRANCH   4  17
HETATM   17  C   UNL     1     -41.672 -48.221  10.694  1.00  0.00     0.109 A 
HETATM   18  C   UNL     1     -42.713 -47.752   9.906  1.00  0.00     0.049 A 
HETATM   19  C   UNL     1     -42.798 -46.385   9.656  1.00  0.00     0.006 A 
HETATM   20  C   UNL     1     -41.850 -45.526  10.206  1.00  0.00     0.025 A 
HETATM   21  C   UNL     1     -40.857 -46.067  11.006  1.00  0.00     0.007 A 
HETATM   22  C   UNL     1     -39.785 -45.216  11.622  1.00  0.00     0.068 C 
HETATM   23  N   UNL     1     -40.780 -47.388  11.260  1.00  0.00    -0.346 N 
ATOM     24  HN  UNL     1     -40.053 -47.752  11.875  1.00  0.00     0.167 HD
ENDBRANCH   4  17
TORSDOF 4
ENDMDL
