MODEL 1
REMARK VINA RESULT:      -7.0      0.000      0.000
REMARK  8 active torsions:
REMARK  status: ('A' for Active; 'I' for Inactive)
REMARK    1  A    between atoms: N_1  and  C_8 
REMARK    2  A    between atoms: C_6  and  N_9 
REMARK    3  A    between atoms: C_14  and  C_27 
REMARK    4  A    between atoms: C_14  and  C_28 
REMARK    5  A    between atoms: N_15  and  C_22 
REMARK       I    between atoms: N_15  and  C_19 
REMARK    6  A    between atoms: C_22  and  C_23 
REMARK    7  A    between atoms: C_27  and  O_29 
REMARK    8  A    between atoms: C_28  and  O_30 
ROOT
HETATM    1  N   UNL     1     -40.977 -48.640  11.743  1.00  0.00    -0.322 N 
HETATM    2  C   UNL     1     -41.387 -50.616  12.561  1.00  0.00     0.122 A 
HETATM    3  C   UNL     1     -40.344 -49.743  12.260  1.00  0.00     0.140 A 
HETATM    4  N   UNL     1     -42.608 -50.076  12.196  1.00  0.00    -0.346 N 
ATOM      5  HN  UNL     1     -43.529 -50.505  12.280  1.00  0.00     0.167 HD
HETATM    6  C   UNL     1     -41.078 -51.863  13.160  1.00  0.00     0.135 A 
HETATM    7  C   UNL     1     -42.322 -48.894  11.719  1.00  0.00     0.185 A 
HETATM    8  N   UNL     1     -39.034 -49.973  12.455  1.00  0.00    -0.336 N 
ATOM      9  HN  UNL     1     -38.290 -49.314  12.226  1.00  0.00     0.168 HD
HETATM   10  N   UNL     1     -39.753 -52.133  13.338  1.00  0.00    -0.337 N 
ATOM     11  HN  UNL     1     -39.456 -53.030  13.725  1.00  0.00     0.168 HD
HETATM   12  C   UNL     1     -38.834 -51.195  12.995  1.00  0.00     0.183 A 
ENDROOT
BRANCH   6  13
HETATM   13  N   UNL     1     -42.072 -52.795  13.512  1.00  0.00    -0.365 N 
HETATM   14  C   UNL     1     -42.517 -52.778  14.906  1.00  0.00     0.125 C 
HETATM   15  C   UNL     1     -43.367 -54.031  15.182  1.00  0.00     0.026 C 
HETATM   16  C   UNL     1     -44.542 -54.192  14.194  1.00  0.00     0.011 C 
HETATM   17  C   UNL     1     -43.950 -54.187  12.774  1.00  0.00     0.026 C 
HETATM   18  C   UNL     1     -43.145 -52.917  12.512  1.00  0.00     0.125 C 
BRANCH  16  19
HETATM   19  C   UNL     1     -45.653 -53.120  14.362  1.00  0.00     0.084 C 
HETATM   20  C   UNL     1     -46.593 -53.432  15.528  1.00  0.00     0.032 C 
BRANCH  19  21
HETATM   21  N   UNL     1     -46.439 -53.000  13.134  1.00  0.00    -0.357 N 
HETATM   22  C   UNL     1     -46.472 -51.835  12.398  1.00  0.00     0.213 C 
HETATM   23  O   UNL     1     -45.804 -50.841  12.663  1.00  0.00    -0.274 OA
HETATM   24  C   UNL     1     -47.365 -51.896  11.188  1.00  0.00     0.117 C 
HETATM   25  H   UNL     1     -47.128 -53.715  12.936  1.00  0.00     0.162 HD
ENDBRANCH  19  21
ENDBRANCH  16  19
ENDBRANCH   6  13
BRANCH   1  26
HETATM   26  C   UNL     1     -40.496 -47.398  11.224  1.00  0.00     0.094 C 
HETATM   27  C   UNL     1     -40.459 -46.232  12.252  1.00  0.00     0.039 C 
HETATM   28  C   UNL     1     -40.661 -45.277  11.023  1.00  0.00     0.006 C 
HETATM   29  C   UNL     1     -41.460 -46.498  10.416  1.00  0.00     0.039 C 
BRANCH  28  30
HETATM   30  C   UNL     1     -41.485 -44.031  11.338  1.00  0.00     0.175 C 
BRANCH  30  31
HETATM   31  O   UNL     1     -40.970 -42.911  10.625  1.00  0.00    -0.400 OA
HETATM   32  H   UNL     1     -41.228 -43.025   9.686  1.00  0.00     0.209 HD
ENDBRANCH  30  31
ENDBRANCH  28  30
BRANCH  28  33
HETATM   33  C   UNL     1     -39.328 -44.898  10.345  1.00  0.00     0.175 C 
BRANCH  33  34
HETATM   34  O   UNL     1     -39.551 -44.627   8.966  1.00  0.00    -0.400 OA
HETATM   35  H   UNL     1     -39.307 -43.696   8.809  1.00  0.00     0.209 HD
ENDBRANCH  33  34
ENDBRANCH  28  33
ENDBRANCH   1  26
TORSDOF 8
ENDMDL
MODEL 2
REMARK VINA RESULT:      -6.8      1.974      2.711
REMARK  8 active torsions:
REMARK  status: ('A' for Active; 'I' for Inactive)
REMARK    1  A    between atoms: N_1  and  C_8 
REMARK    2  A    between atoms: C_6  and  N_9 
REMARK    3  A    between atoms: C_14  and  C_27 
REMARK    4  A    between atoms: C_14  and  C_28 
REMARK    5  A    between atoms: N_15  and  C_22 
REMARK       I    between atoms: N_15  and  C_19 
REMARK    6  A    between atoms: C_22  and  C_23 
REMARK    7  A    between atoms: C_27  and  O_29 
REMARK    8  A    between atoms: C_28  and  O_30 
ROOT
HETATM    1  N   UNL     1     -40.732 -47.832  12.429  1.00  0.00    -0.322 N 
HETATM    2  C   UNL     1     -40.154 -49.898  12.800  1.00  0.00     0.122 A 
HETATM    3  C   UNL     1     -39.741 -48.739  12.145  1.00  0.00     0.140 A 
HETATM    4  N   UNL     1     -41.375 -49.708  13.423  1.00  0.00    -0.346 N 
ATOM      5  HN  UNL     1     -41.916 -50.392  13.952  1.00  0.00     0.167 HD
HETATM    6  C   UNL     1     -39.320 -51.043  12.743  1.00  0.00     0.135 A 
HETATM    7  C   UNL     1     -41.683 -48.462  13.185  1.00  0.00     0.185 A 
HETATM    8  N   UNL     1     -38.621 -48.594  11.418  1.00  0.00    -0.336 N 
ATOM      9  HN  UNL     1     -38.343 -47.731  10.949  1.00  0.00     0.168 HD
HETATM   10  N   UNL     1     -38.193 -50.930  11.984  1.00  0.00    -0.337 N 
ATOM     11  HN  UNL     1     -37.569 -51.729  11.863  1.00  0.00     0.168 HD
HETATM   12  C   UNL     1     -37.911 -49.742  11.390  1.00  0.00     0.183 A 
ENDROOT
BRANCH   6  13
HETATM   13  N   UNL     1     -39.653 -52.247  13.391  1.00  0.00    -0.365 N 
HETATM   14  C   UNL     1     -39.596 -52.237  14.853  1.00  0.00     0.125 C 
HETATM   15  C   UNL     1     -39.692 -53.682  15.375  1.00  0.00     0.026 C 
HETATM   16  C   UNL     1     -40.931 -54.434  14.841  1.00  0.00     0.011 C 
HETATM   17  C   UNL     1     -40.880 -54.367  13.305  1.00  0.00     0.026 C 
HETATM   18  C   UNL     1     -40.825 -52.924  12.813  1.00  0.00     0.125 C 
BRANCH  16  19
HETATM   19  C   UNL     1     -42.277 -53.898  15.400  1.00  0.00     0.084 C 
HETATM   20  C   UNL     1     -42.295 -53.847  16.929  1.00  0.00     0.032 C 
BRANCH  19  21
HETATM   21  N   UNL     1     -43.390 -54.728  14.938  1.00  0.00    -0.357 N 
HETATM   22  C   UNL     1     -44.389 -54.226  14.131  1.00  0.00     0.213 C 
HETATM   23  O   UNL     1     -44.395 -53.086  13.681  1.00  0.00    -0.274 OA
HETATM   24  C   UNL     1     -45.464 -55.224  13.790  1.00  0.00     0.117 C 
HETATM   25  H   UNL     1     -43.536 -55.624  15.384  1.00  0.00     0.162 HD
ENDBRANCH  19  21
ENDBRANCH  16  19
ENDBRANCH   6  13
BRANCH   1  26
HETATM   26  C   UNL     1     -40.935 -46.467  12.053  1.00  0.00     0.094 C 
HETATM   27  C   UNL     1     -42.411 -45.981  12.138  1.00  0.00     0.039 C 
HETATM   28  C   UNL     1     -42.037 -44.975  10.992  1.00  0.00     0.006 C 
HETATM   29  C   UNL     1     -41.028 -46.109  10.552  1.00  0.00     0.039 C 
BRANCH  28  30
HETATM   30  C   UNL     1     -43.183 -44.689  10.024  1.00  0.00     0.175 C 
BRANCH  30  31
HETATM   31  O   UNL     1     -43.659 -43.361  10.209  1.00  0.00    -0.400 OA
HETATM   32  H   UNL     1     -44.631 -43.383  10.083  1.00  0.00     0.209 HD
ENDBRANCH  30  31
ENDBRANCH  28  30
BRANCH  28  33
HETATM   33  C   UNL     1     -41.433 -43.663  11.532  1.00  0.00     0.175 C 
BRANCH  33  34
HETATM   34  O   UNL     1     -40.888 -42.906  10.456  1.00  0.00    -0.400 OA
HETATM   35  H   UNL     1     -41.298 -43.232   9.634  1.00  0.00     0.209 HD
ENDBRANCH  33  34
ENDBRANCH  28  33
ENDBRANCH   1  26
TORSDOF 8
ENDMDL
MODEL 3
REMARK VINA RESULT:      -6.6      2.474      8.331
REMARK  8 active torsions:
REMARK  status: ('A' for Active; 'I' for Inactive)
REMARK    1  A    between atoms: N_1  and  C_8 
REMARK    2  A    between atoms: C_6  and  N_9 
REMARK    3  A    between atoms: C_14  and  C_27 
REMARK    4  A    between atoms: C_14  and  C_28 
REMARK    5  A    between atoms: N_15  and  C_22 
REMARK       I    between atoms: N_15  and  C_19 
REMARK    6  A    between atoms: C_22  and  C_23 
REMARK    7  A    between atoms: C_27  and  O_29 
REMARK    8  A    between atoms: C_28  and  O_30 
ROOT
HETATM    1  N   UNL     1     -42.283 -50.477  12.553  1.00  0.00    -0.322 N 
HETATM    2  C   UNL     1     -41.035 -48.732  12.177  1.00  0.00     0.122 A 
HETATM    3  C   UNL     1     -41.005 -50.126  12.194  1.00  0.00     0.140 A 
HETATM    4  N   UNL     1     -42.279 -48.258  12.555  1.00  0.00    -0.346 N 
ATOM      5  HN  UNL     1     -42.571 -47.285  12.651  1.00  0.00     0.167 HD
HETATM    6  C   UNL     1     -39.861 -48.033  11.800  1.00  0.00     0.135 A 
HETATM    7  C   UNL     1     -42.997 -49.328  12.764  1.00  0.00     0.185 A 
HETATM    8  N   UNL     1     -39.943 -50.901  11.913  1.00  0.00    -0.336 N 
ATOM      9  HN  UNL     1     -39.950 -51.921  11.933  1.00  0.00     0.168 HD
HETATM   10  N   UNL     1     -38.761 -48.797  11.541  1.00  0.00    -0.337 N 
ATOM     11  HN  UNL     1     -37.871 -48.358  11.306  1.00  0.00     0.168 HD
HETATM   12  C   UNL     1     -38.866 -50.149  11.601  1.00  0.00     0.183 A 
ENDROOT
BRANCH   6  13
HETATM   13  N   UNL     1     -39.811 -46.628  11.739  1.00  0.00    -0.365 N 
HETATM   14  C   UNL     1     -40.510 -45.999  10.617  1.00  0.00     0.125 C 
HETATM   15  C   UNL     1     -40.109 -44.516  10.537  1.00  0.00     0.026 C 
HETATM   16  C   UNL     1     -40.331 -43.759  11.865  1.00  0.00     0.011 C 
HETATM   17  C   UNL     1     -39.559 -44.516  12.958  1.00  0.00     0.026 C 
HETATM   18  C   UNL     1     -40.002 -45.974  13.044  1.00  0.00     0.125 C 
BRANCH  16  19
HETATM   19  C   UNL     1     -41.828 -43.572  12.236  1.00  0.00     0.084 C 
HETATM   20  C   UNL     1     -42.590 -42.755  11.191  1.00  0.00     0.032 C 
BRANCH  19  21
HETATM   21  N   UNL     1     -41.954 -42.918  13.539  1.00  0.00    -0.357 N 
HETATM   22  C   UNL     1     -42.795 -43.400  14.519  1.00  0.00     0.213 C 
HETATM   23  O   UNL     1     -43.442 -44.436  14.415  1.00  0.00    -0.274 OA
HETATM   24  C   UNL     1     -42.814 -42.571  15.776  1.00  0.00     0.117 C 
HETATM   25  H   UNL     1     -41.575 -41.986  13.644  1.00  0.00     0.162 HD
ENDBRANCH  19  21
ENDBRANCH  16  19
ENDBRANCH   6  13
BRANCH   1  26
HETATM   26  C   UNL     1     -42.917 -51.740  12.770  1.00  0.00     0.094 C 
HETATM   27  C   UNL     1     -44.372 -51.653  13.317  1.00  0.00     0.039 C 
HETATM   28  C   UNL     1     -44.094 -53.045  13.987  1.00  0.00     0.006 C 
HETATM   29  C   UNL     1     -42.604 -52.524  14.066  1.00  0.00     0.039 C 
BRANCH  28  30
HETATM   30  C   UNL     1     -44.804 -53.239  15.324  1.00  0.00     0.175 C 
BRANCH  30  31
HETATM   31  O   UNL     1     -44.682 -54.592  15.750  1.00  0.00    -0.400 OA
HETATM   32  H   UNL     1     -43.725 -54.776  15.853  1.00  0.00     0.209 HD
ENDBRANCH  30  31
ENDBRANCH  28  30
BRANCH  28  33
HETATM   33  C   UNL     1     -44.379 -54.225  13.036  1.00  0.00     0.175 C 
BRANCH  33  34
HETATM   34  O   UNL     1     -45.716 -54.677  13.219  1.00  0.00    -0.400 OA
HETATM   35  H   UNL     1     -45.733 -55.217  14.031  1.00  0.00     0.209 HD
ENDBRANCH  33  34
ENDBRANCH  28  33
ENDBRANCH   1  26
TORSDOF 8
ENDMDL
MODEL 4
REMARK VINA RESULT:      -6.3      2.721      4.487
REMARK  8 active torsions:
REMARK  status: ('A' for Active; 'I' for Inactive)
REMARK    1  A    between atoms: N_1  and  C_8 
REMARK    2  A    between atoms: C_6  and  N_9 
REMARK    3  A    between atoms: C_14  and  C_27 
REMARK    4  A    between atoms: C_14  and  C_28 
REMARK    5  A    between atoms: N_15  and  C_22 
REMARK       I    between atoms: N_15  and  C_19 
REMARK    6  A    between atoms: C_22  and  C_23 
REMARK    7  A    between atoms: C_27  and  O_29 
REMARK    8  A    between atoms: C_28  and  O_30 
ROOT
HETATM    1  N   UNL     1     -42.589 -45.074  12.482  1.00  0.00    -0.322 N 
HETATM    2  C   UNL     1     -42.831 -47.216  12.786  1.00  0.00     0.122 A 
HETATM    3  C   UNL     1     -42.586 -46.264  11.798  1.00  0.00     0.140 A 
HETATM    4  N   UNL     1     -43.020 -46.616  14.019  1.00  0.00    -0.346 N 
ATOM      5  HN  UNL     1     -43.236 -47.071  14.905  1.00  0.00     0.167 HD
HETATM    6  C   UNL     1     -42.856 -48.585  12.418  1.00  0.00     0.135 A 
HETATM    7  C   UNL     1     -42.860 -45.339  13.797  1.00  0.00     0.185 A 
HETATM    8  N   UNL     1     -42.393 -46.507  10.490  1.00  0.00    -0.336 N 
ATOM      9  HN  UNL     1     -42.214 -45.789   9.789  1.00  0.00     0.168 HD
HETATM   10  N   UNL     1     -42.695 -48.855  11.090  1.00  0.00    -0.337 N 
ATOM     11  HN  UNL     1     -42.744 -49.815  10.749  1.00  0.00     0.168 HD
HETATM   12  C   UNL     1     -42.469 -47.830  10.229  1.00  0.00     0.183 A 
ENDROOT
BRANCH   6  13
HETATM   13  N   UNL     1     -43.078 -49.611  13.355  1.00  0.00    -0.365 N 
HETATM   14  C   UNL     1     -44.248 -50.460  13.127  1.00  0.00     0.125 C 
HETATM   15  C   UNL     1     -44.507 -51.315  14.380  1.00  0.00     0.026 C 
HETATM   16  C   UNL     1     -43.269 -52.128  14.820  1.00  0.00     0.011 C 
HETATM   17  C   UNL     1     -42.115 -51.131  15.019  1.00  0.00     0.026 C 
HETATM   18  C   UNL     1     -41.853 -50.323  13.751  1.00  0.00     0.125 C 
BRANCH  16  19
HETATM   19  C   UNL     1     -42.887 -53.268  13.838  1.00  0.00     0.084 C 
HETATM   20  C   UNL     1     -43.971 -54.344  13.744  1.00  0.00     0.032 C 
BRANCH  19  21
HETATM   21  N   UNL     1     -41.628 -53.894  14.244  1.00  0.00    -0.357 N 
HETATM   22  C   UNL     1     -40.511 -53.878  13.437  1.00  0.00     0.213 C 
HETATM   23  O   UNL     1     -40.454 -53.291  12.362  1.00  0.00    -0.274 OA
HETATM   24  C   UNL     1     -39.325 -54.604  14.013  1.00  0.00     0.117 C 
HETATM   25  H   UNL     1     -41.641 -54.521  15.038  1.00  0.00     0.162 HD
ENDBRANCH  19  21
ENDBRANCH  16  19
ENDBRANCH   6  13
BRANCH   1  26
HETATM   26  C   UNL     1     -42.418 -43.716  12.068  1.00  0.00     0.094 C 
HETATM   27  C   UNL     1     -40.984 -43.356  11.585  1.00  0.00     0.039 C 
HETATM   28  C   UNL     1     -41.296 -41.897  12.072  1.00  0.00     0.006 C 
HETATM   29  C   UNL     1     -42.201 -42.625  13.143  1.00  0.00     0.039 C 
BRANCH  28  30
HETATM   30  C   UNL     1     -40.079 -41.155  12.621  1.00  0.00     0.175 C 
BRANCH  30  31
HETATM   31  O   UNL     1     -40.487 -39.945  13.249  1.00  0.00    -0.400 OA
HETATM   32  H   UNL     1     -41.183 -40.178  13.898  1.00  0.00     0.209 HD
ENDBRANCH  30  31
ENDBRANCH  28  30
BRANCH  28  33
HETATM   33  C   UNL     1     -42.013 -41.057  10.996  1.00  0.00     0.175 C 
BRANCH  33  34
HETATM   34  O   UNL     1     -41.204 -39.942  10.638  1.00  0.00    -0.400 OA
HETATM   35  H   UNL     1     -41.793 -39.170  10.552  1.00  0.00     0.209 HD
ENDBRANCH  33  34
ENDBRANCH  28  33
ENDBRANCH   1  26
TORSDOF 8
ENDMDL
MODEL 5
REMARK VINA RESULT:      -6.2      2.827      8.926
REMARK  8 active torsions:
REMARK  status: ('A' for Active; 'I' for Inactive)
REMARK    1  A    between atoms: N_1  and  C_8 
REMARK    2  A    between atoms: C_6  and  N_9 
REMARK    3  A    between atoms: C_14  and  C_27 
REMARK    4  A    between atoms: C_14  and  C_28 
REMARK    5  A    between atoms: N_15  and  C_22 
REMARK       I    between atoms: N_15  and  C_19 
REMARK    6  A    between atoms: C_22  and  C_23 
REMARK    7  A    between atoms: C_27  and  O_29 
REMARK    8  A    between atoms: C_28  and  O_30 
ROOT
HETATM    1  N   UNL     1     -43.148 -50.270  13.742  1.00  0.00    -0.322 N 
HETATM    2  C   UNL     1     -42.306 -48.279  13.486  1.00  0.00     0.122 A 
HETATM    3  C   UNL     1     -42.492 -49.491  12.823  1.00  0.00     0.140 A 
HETATM    4  N   UNL     1     -42.795 -48.340  14.779  1.00  0.00    -0.346 N 
ATOM      5  HN  UNL     1     -42.770 -47.609  15.489  1.00  0.00     0.167 HD
HETATM    6  C   UNL     1     -41.678 -47.215  12.791  1.00  0.00     0.135 A 
HETATM    7  C   UNL     1     -43.296 -49.541  14.891  1.00  0.00     0.185 A 
HETATM    8  N   UNL     1     -42.103 -49.778  11.569  1.00  0.00    -0.336 N 
ATOM      9  HN  UNL     1     -42.253 -50.675  11.107  1.00  0.00     0.168 HD
HETATM   10  N   UNL     1     -41.245 -47.492  11.528  1.00  0.00    -0.337 N 
ATOM     11  HN  UNL     1     -40.747 -46.785  10.986  1.00  0.00     0.168 HD
HETATM   12  C   UNL     1     -41.485 -48.720  11.001  1.00  0.00     0.183 A 
ENDROOT
BRANCH   6  13
HETATM   13  N   UNL     1     -41.468 -45.954  13.380  1.00  0.00    -0.365 N 
HETATM   14  C   UNL     1     -40.176 -45.319  13.119  1.00  0.00     0.125 C 
HETATM   15  C   UNL     1     -40.002 -44.116  14.062  1.00  0.00     0.026 C 
HETATM   16  C   UNL     1     -41.174 -43.113  13.982  1.00  0.00     0.011 C 
HETATM   17  C   UNL     1     -42.466 -43.898  14.265  1.00  0.00     0.026 C 
HETATM   18  C   UNL     1     -42.635 -45.061  13.293  1.00  0.00     0.125 C 
BRANCH  16  19
HETATM   19  C   UNL     1     -41.248 -42.342  12.636  1.00  0.00     0.084 C 
HETATM   20  C   UNL     1     -40.098 -41.345  12.472  1.00  0.00     0.032 C 
BRANCH  19  21
HETATM   21  N   UNL     1     -42.519 -41.626  12.525  1.00  0.00    -0.357 N 
HETATM   22  C   UNL     1     -43.315 -41.723  11.404  1.00  0.00     0.213 C 
HETATM   23  O   UNL     1     -43.069 -42.456  10.453  1.00  0.00    -0.274 OA
HETATM   24  C   UNL     1     -44.565 -40.886  11.463  1.00  0.00     0.117 C 
HETATM   25  H   UNL     1     -42.714 -40.892  13.193  1.00  0.00     0.162 HD
ENDBRANCH  19  21
ENDBRANCH  16  19
ENDBRANCH   6  13
BRANCH   1  26
HETATM   26  C   UNL     1     -43.617 -51.621  13.712  1.00  0.00     0.094 C 
HETATM   27  C   UNL     1     -45.155 -51.774  13.531  1.00  0.00     0.039 C 
HETATM   28  C   UNL     1     -45.011 -53.120  14.325  1.00  0.00     0.006 C 
HETATM   29  C   UNL     1     -43.819 -52.375  15.047  1.00  0.00     0.039 C 
BRANCH  28  30
HETATM   30  C   UNL     1     -46.217 -53.453  15.201  1.00  0.00     0.175 C 
BRANCH  30  31
HETATM   31  O   UNL     1     -45.929 -54.579  16.023  1.00  0.00    -0.400 OA
HETATM   32  H   UNL     1     -45.606 -54.234  16.881  1.00  0.00     0.209 HD
ENDBRANCH  30  31
ENDBRANCH  28  30
BRANCH  28  33
HETATM   33  C   UNL     1     -44.650 -54.309  13.411  1.00  0.00     0.175 C 
BRANCH  33  34
HETATM   34  O   UNL     1     -45.720 -55.248  13.399  1.00  0.00    -0.400 OA
HETATM   35  H   UNL     1     -45.325 -56.139  13.355  1.00  0.00     0.209 HD
ENDBRANCH  33  34
ENDBRANCH  28  33
ENDBRANCH   1  26
TORSDOF 8
ENDMDL
MODEL 6
REMARK VINA RESULT:      -5.9      4.771      9.666
REMARK  8 active torsions:
REMARK  status: ('A' for Active; 'I' for Inactive)
REMARK    1  A    between atoms: N_1  and  C_8 
REMARK    2  A    between atoms: C_6  and  N_9 
REMARK    3  A    between atoms: C_14  and  C_27 
REMARK    4  A    between atoms: C_14  and  C_28 
REMARK    5  A    between atoms: N_15  and  C_22 
REMARK       I    between atoms: N_15  and  C_19 
REMARK    6  A    between atoms: C_22  and  C_23 
REMARK    7  A    between atoms: C_27  and  O_29 
REMARK    8  A    between atoms: C_28  and  O_30 
ROOT
HETATM    1  N   UNL     1     -39.817 -46.985  12.088  1.00  0.00    -0.322 N 
HETATM    2  C   UNL     1     -41.113 -45.244  11.907  1.00  0.00     0.122 A 
HETATM    3  C   UNL     1     -40.882 -46.507  11.365  1.00  0.00     0.140 A 
HETATM    4  N   UNL     1     -40.189 -44.952  12.896  1.00  0.00    -0.346 N 
ATOM      5  HN  UNL     1     -40.111 -44.093  13.440  1.00  0.00     0.167 HD
HETATM    6  C   UNL     1     -42.193 -44.476  11.404  1.00  0.00     0.135 A 
HETATM    7  C   UNL     1     -39.438 -46.017  12.979  1.00  0.00     0.185 A 
HETATM    8  N   UNL     1     -41.574 -47.081  10.367  1.00  0.00    -0.336 N 
ATOM      9  HN  UNL     1     -41.384 -48.010   9.990  1.00  0.00     0.168 HD
HETATM   10  N   UNL     1     -42.891 -45.025  10.368  1.00  0.00    -0.337 N 
ATOM     11  HN  UNL     1     -43.654 -44.509   9.929  1.00  0.00     0.168 HD
HETATM   12  C   UNL     1     -42.557 -46.265   9.929  1.00  0.00     0.183 A 
ENDROOT
BRANCH   6  13
HETATM   13  N   UNL     1     -42.506 -43.200  11.908  1.00  0.00    -0.365 N 
HETATM   14  C   UNL     1     -42.856 -43.127  13.327  1.00  0.00     0.125 C 
HETATM   15  C   UNL     1     -43.450 -41.741  13.633  1.00  0.00     0.026 C 
HETATM   16  C   UNL     1     -42.527 -40.582  13.196  1.00  0.00     0.011 C 
HETATM   17  C   UNL     1     -42.228 -40.774  11.700  1.00  0.00     0.026 C 
HETATM   18  C   UNL     1     -41.605 -42.140  11.428  1.00  0.00     0.125 C 
BRANCH  16  19
HETATM   19  C   UNL     1     -41.227 -40.465  14.037  1.00  0.00     0.084 C 
HETATM   20  C   UNL     1     -41.512 -40.238  15.523  1.00  0.00     0.032 C 
BRANCH  19  21
HETATM   21  N   UNL     1     -40.391 -39.372  13.539  1.00  0.00    -0.357 N 
HETATM   22  C   UNL     1     -39.034 -39.521  13.347  1.00  0.00     0.213 C 
HETATM   23  O   UNL     1     -38.433 -40.578  13.506  1.00  0.00    -0.274 OA
HETATM   24  C   UNL     1     -38.341 -38.275  12.863  1.00  0.00     0.117 C 
HETATM   25  H   UNL     1     -40.780 -38.439  13.531  1.00  0.00     0.162 HD
ENDBRANCH  19  21
ENDBRANCH  16  19
ENDBRANCH   6  13
BRANCH   1  26
HETATM   26  C   UNL     1     -39.073 -48.205  12.030  1.00  0.00     0.094 C 
HETATM   27  C   UNL     1     -39.927 -49.497  12.179  1.00  0.00     0.039 C 
HETATM   28  C   UNL     1     -38.638 -50.156  12.786  1.00  0.00     0.006 C 
HETATM   29  C   UNL     1     -38.331 -48.692  13.296  1.00  0.00     0.039 C 
BRANCH  28  30
HETATM   30  C   UNL     1     -38.927 -51.193  13.869  1.00  0.00     0.175 C 
BRANCH  30  31
HETATM   31  O   UNL     1     -39.137 -52.471  13.279  1.00  0.00    -0.400 OA
HETATM   32  H   UNL     1     -38.284 -52.750  12.886  1.00  0.00     0.209 HD
ENDBRANCH  30  31
ENDBRANCH  28  30
BRANCH  28  33
HETATM   33  C   UNL     1     -37.707 -50.736  11.703  1.00  0.00     0.175 C 
BRANCH  33  34
HETATM   34  O   UNL     1     -36.765 -51.620  12.302  1.00  0.00    -0.400 OA
HETATM   35  H   UNL     1     -37.245 -52.154  12.961  1.00  0.00     0.209 HD
ENDBRANCH  33  34
ENDBRANCH  28  33
ENDBRANCH   1  26
TORSDOF 8
ENDMDL
MODEL 7
REMARK VINA RESULT:      -5.9      4.788      5.874
REMARK  8 active torsions:
REMARK  status: ('A' for Active; 'I' for Inactive)
REMARK    1  A    between atoms: N_1  and  C_8 
REMARK    2  A    between atoms: C_6  and  N_9 
REMARK    3  A    between atoms: C_14  and  C_27 
REMARK    4  A    between atoms: C_14  and  C_28 
REMARK    5  A    between atoms: N_15  and  C_22 
REMARK       I    between atoms: N_15  and  C_19 
REMARK    6  A    between atoms: C_22  and  C_23 
REMARK    7  A    between atoms: C_27  and  O_29 
REMARK    8  A    between atoms: C_28  and  O_30 
ROOT
HETATM    1  N   UNL     1     -38.075 -49.458  16.189  1.00  0.00    -0.322 N 
HETATM    2  C   UNL     1     -39.837 -50.456  15.388  1.00  0.00     0.122 A 
HETATM    3  C   UNL     1     -39.442 -49.346  16.132  1.00  0.00     0.140 A 
HETATM    4  N   UNL     1     -38.746 -51.236  15.044  1.00  0.00    -0.346 N 
ATOM      5  HN  UNL     1     -38.748 -52.112  14.523  1.00  0.00     0.167 HD
HETATM    6  C   UNL     1     -41.214 -50.627  15.102  1.00  0.00     0.135 A 
HETATM    7  C   UNL     1     -37.714 -50.604  15.534  1.00  0.00     0.185 A 
HETATM    8  N   UNL     1     -40.253 -48.408  16.651  1.00  0.00    -0.336 N 
ATOM      9  HN  UNL     1     -39.936 -47.603  17.192  1.00  0.00     0.168 HD
HETATM   10  N   UNL     1     -42.061 -49.705  15.645  1.00  0.00    -0.337 N 
ATOM     11  HN  UNL     1     -43.070 -49.791  15.516  1.00  0.00     0.168 HD
HETATM   12  C   UNL     1     -41.545 -48.672  16.358  1.00  0.00     0.183 A 
ENDROOT
BRANCH   6  13
HETATM   13  N   UNL     1     -41.695 -51.709  14.342  1.00  0.00    -0.365 N 
HETATM   14  C   UNL     1     -42.147 -52.882  15.091  1.00  0.00     0.125 C 
HETATM   15  C   UNL     1     -42.351 -54.058  14.119  1.00  0.00     0.026 C 
HETATM   16  C   UNL     1     -43.295 -53.711  12.946  1.00  0.00     0.011 C 
HETATM   17  C   UNL     1     -42.720 -52.467  12.249  1.00  0.00     0.026 C 
HETATM   18  C   UNL     1     -42.564 -51.305  13.225  1.00  0.00     0.125 C 
BRANCH  16  19
HETATM   19  C   UNL     1     -44.774 -53.506  13.372  1.00  0.00     0.084 C 
HETATM   20  C   UNL     1     -45.432 -54.806  13.839  1.00  0.00     0.032 C 
BRANCH  19  21
HETATM   21  N   UNL     1     -45.552 -52.947  12.266  1.00  0.00    -0.357 N 
HETATM   22  C   UNL     1     -46.489 -51.955  12.461  1.00  0.00     0.213 C 
HETATM   23  O   UNL     1     -46.697 -51.415  13.541  1.00  0.00    -0.274 OA
HETATM   24  C   UNL     1     -47.212 -51.536  11.208  1.00  0.00     0.117 C 
HETATM   25  H   UNL     1     -45.548 -53.440  11.382  1.00  0.00     0.162 HD
ENDBRANCH  19  21
ENDBRANCH  16  19
ENDBRANCH   6  13
BRANCH   1  26
HETATM   26  C   UNL     1     -37.061 -48.665  16.812  1.00  0.00     0.094 C 
HETATM   27  C   UNL     1     -35.751 -49.432  17.152  1.00  0.00     0.039 C 
HETATM   28  C   UNL     1     -35.572 -48.401  18.323  1.00  0.00     0.006 C 
HETATM   29  C   UNL     1     -37.152 -48.389  18.331  1.00  0.00     0.039 C 
BRANCH  28  30
HETATM   30  C   UNL     1     -34.903 -48.987  19.564  1.00  0.00     0.175 C 
BRANCH  30  31
HETATM   31  O   UNL     1     -33.529 -48.617  19.599  1.00  0.00    -0.400 OA
HETATM   32  H   UNL     1     -33.092 -49.194  20.259  1.00  0.00     0.209 HD
ENDBRANCH  30  31
ENDBRANCH  28  30
BRANCH  28  33
HETATM   33  C   UNL     1     -34.858 -47.112  17.870  1.00  0.00     0.175 C 
BRANCH  33  34
HETATM   34  O   UNL     1     -34.730 -46.220  18.972  1.00  0.00    -0.400 OA
HETATM   35  H   UNL     1     -33.988 -46.538  19.519  1.00  0.00     0.209 HD
ENDBRANCH  33  34
ENDBRANCH  28  33
ENDBRANCH   1  26
TORSDOF 8
ENDMDL
MODEL 8
REMARK VINA RESULT:      -5.7      1.899      2.452
REMARK  8 active torsions:
REMARK  status: ('A' for Active; 'I' for Inactive)
REMARK    1  A    between atoms: N_1  and  C_8 
REMARK    2  A    between atoms: C_6  and  N_9 
REMARK    3  A    between atoms: C_14  and  C_27 
REMARK    4  A    between atoms: C_14  and  C_28 
REMARK    5  A    between atoms: N_15  and  C_22 
REMARK       I    between atoms: N_15  and  C_19 
REMARK    6  A    between atoms: C_22  and  C_23 
REMARK    7  A    between atoms: C_27  and  O_29 
REMARK    8  A    between atoms: C_28  and  O_30 
ROOT
HETATM    1  N   UNL     1     -41.384 -47.556  13.131  1.00  0.00    -0.322 N 
HETATM    2  C   UNL     1     -41.797 -49.682  12.905  1.00  0.00     0.122 A 
HETATM    3  C   UNL     1     -41.038 -48.644  12.368  1.00  0.00     0.140 A 
HETATM    4  N   UNL     1     -42.607 -49.226  13.930  1.00  0.00    -0.346 N 
ATOM      5  HN  UNL     1     -43.276 -49.764  14.480  1.00  0.00     0.167 HD
HETATM    6  C   UNL     1     -41.648 -50.983  12.361  1.00  0.00     0.135 A 
HETATM    7  C   UNL     1     -42.326 -47.956  14.040  1.00  0.00     0.185 A 
HETATM    8  N   UNL     1     -40.177 -48.738  11.340  1.00  0.00    -0.336 N 
ATOM      9  HN  UNL     1     -39.633 -47.960  10.968  1.00  0.00     0.168 HD
HETATM   10  N   UNL     1     -40.804 -51.098  11.296  1.00  0.00    -0.337 N 
ATOM     11  HN  UNL     1     -40.681 -51.997  10.829  1.00  0.00     0.168 HD
HETATM   12  C   UNL     1     -40.128 -50.002  10.866  1.00  0.00     0.183 A 
ENDROOT
BRANCH   6  13
HETATM   13  N   UNL     1     -42.362 -52.090  12.857  1.00  0.00    -0.365 N 
HETATM   14  C   UNL     1     -41.712 -52.864  13.915  1.00  0.00     0.125 C 
HETATM   15  C   UNL     1     -42.479 -54.182  14.123  1.00  0.00     0.026 C 
HETATM   16  C   UNL     1     -43.984 -53.967  14.393  1.00  0.00     0.011 C 
HETATM   17  C   UNL     1     -44.545 -53.141  13.224  1.00  0.00     0.026 C 
HETATM   18  C   UNL     1     -43.795 -51.822  13.064  1.00  0.00     0.125 C 
BRANCH  16  19
HETATM   19  C   UNL     1     -44.285 -53.307  15.766  1.00  0.00     0.084 C 
HETATM   20  C   UNL     1     -43.931 -54.220  16.942  1.00  0.00     0.032 C 
BRANCH  19  21
HETATM   21  N   UNL     1     -45.698 -52.938  15.858  1.00  0.00    -0.357 N 
HETATM   22  C   UNL     1     -46.099 -51.642  16.099  1.00  0.00     0.213 C 
HETATM   23  O   UNL     1     -45.328 -50.693  16.185  1.00  0.00    -0.274 OA
HETATM   24  C   UNL     1     -47.592 -51.467  16.194  1.00  0.00     0.117 C 
HETATM   25  H   UNL     1     -46.381 -53.679  15.950  1.00  0.00     0.162 HD
ENDBRANCH  19  21
ENDBRANCH  16  19
ENDBRANCH   6  13
BRANCH   1  26
HETATM   26  C   UNL     1     -40.989 -46.183  13.098  1.00  0.00     0.094 C 
HETATM   27  C   UNL     1     -42.165 -45.165  13.115  1.00  0.00     0.039 C 
HETATM   28  C   UNL     1     -41.209 -44.201  12.328  1.00  0.00     0.006 C 
HETATM   29  C   UNL     1     -40.611 -45.542  11.742  1.00  0.00     0.039 C 
BRANCH  28  30
HETATM   30  C   UNL     1     -41.928 -43.299  11.327  1.00  0.00     0.175 C 
BRANCH  30  31
HETATM   31  O   UNL     1     -40.980 -42.533  10.591  1.00  0.00    -0.400 OA
HETATM   32  H   UNL     1     -41.488 -41.929  10.010  1.00  0.00     0.209 HD
ENDBRANCH  30  31
ENDBRANCH  28  30
BRANCH  28  33
HETATM   33  C   UNL     1     -40.304 -43.374  13.263  1.00  0.00     0.175 C 
BRANCH  33  34
HETATM   34  O   UNL     1     -40.775 -42.032  13.324  1.00  0.00    -0.400 OA
HETATM   35  H   UNL     1     -40.114 -41.514  13.819  1.00  0.00     0.209 HD
ENDBRANCH  33  34
ENDBRANCH  28  33
ENDBRANCH   1  26
TORSDOF 8
ENDMDL
MODEL 9
REMARK VINA RESULT:      -5.6      3.958      8.133
REMARK  8 active torsions:
REMARK  status: ('A' for Active; 'I' for Inactive)
REMARK    1  A    between atoms: N_1  and  C_8 
REMARK    2  A    between atoms: C_6  and  N_9 
REMARK    3  A    between atoms: C_14  and  C_27 
REMARK    4  A    between atoms: C_14  and  C_28 
REMARK    5  A    between atoms: N_15  and  C_22 
REMARK       I    between atoms: N_15  and  C_19 
REMARK    6  A    between atoms: C_22  and  C_23 
REMARK    7  A    between atoms: C_27  and  O_29 
REMARK    8  A    between atoms: C_28  and  O_30 
ROOT
HETATM    1  N   UNL     1     -42.624 -50.658  13.521  1.00  0.00    -0.322 N 
HETATM    2  C   UNL     1     -40.546 -50.027  13.676  1.00  0.00     0.122 A 
HETATM    3  C   UNL     1     -41.547 -50.304  12.747  1.00  0.00     0.140 A 
HETATM    4  N   UNL     1     -40.992 -50.248  14.968  1.00  0.00    -0.346 N 
ATOM      5  HN  UNL     1     -40.464 -50.146  15.834  1.00  0.00     0.167 HD
HETATM    6  C   UNL     1     -39.285 -49.585  13.203  1.00  0.00     0.135 A 
HETATM    7  C   UNL     1     -42.238 -50.616  14.834  1.00  0.00     0.185 A 
HETATM    8  N   UNL     1     -41.434 -50.226  11.410  1.00  0.00    -0.336 N 
ATOM      9  HN  UNL     1     -42.186 -50.434  10.752  1.00  0.00     0.168 HD
HETATM   10  N   UNL     1     -39.136 -49.528  11.848  1.00  0.00    -0.337 N 
ATOM     11  HN  UNL     1     -38.241 -49.259  11.438  1.00  0.00     0.168 HD
HETATM   12  C   UNL     1     -40.192 -49.832  11.053  1.00  0.00     0.183 A 
ENDROOT
BRANCH   6  13
HETATM   13  N   UNL     1     -38.226 -49.266  14.073  1.00  0.00    -0.365 N 
HETATM   14  C   UNL     1     -38.337 -47.998  14.796  1.00  0.00     0.125 C 
HETATM   15  C   UNL     1     -36.985 -47.671  15.456  1.00  0.00     0.026 C 
HETATM   16  C   UNL     1     -36.461 -48.814  16.353  1.00  0.00     0.011 C 
HETATM   17  C   UNL     1     -36.398 -50.083  15.487  1.00  0.00     0.026 C 
HETATM   18  C   UNL     1     -37.758 -50.407  14.876  1.00  0.00     0.125 C 
BRANCH  16  19
HETATM   19  C   UNL     1     -37.299 -49.033  17.642  1.00  0.00     0.084 C 
HETATM   20  C   UNL     1     -37.369 -47.777  18.513  1.00  0.00     0.032 C 
BRANCH  19  21
HETATM   21  N   UNL     1     -36.744 -50.132  18.434  1.00  0.00    -0.357 N 
HETATM   22  C   UNL     1     -37.462 -51.279  18.694  1.00  0.00     0.213 C 
HETATM   23  O   UNL     1     -38.577 -51.505  18.237  1.00  0.00    -0.274 OA
HETATM   24  C   UNL     1     -36.735 -52.278  19.554  1.00  0.00     0.117 C 
HETATM   25  H   UNL     1     -35.901 -49.959  18.966  1.00  0.00     0.162 HD
ENDBRANCH  19  21
ENDBRANCH  16  19
ENDBRANCH   6  13
BRANCH   1  26
HETATM   26  C   UNL     1     -43.954 -51.075  13.202  1.00  0.00     0.094 C 
HETATM   27  C   UNL     1     -44.959 -51.016  14.389  1.00  0.00     0.039 C 
HETATM   28  C   UNL     1     -45.718 -52.187  13.671  1.00  0.00     0.006 C 
HETATM   29  C   UNL     1     -44.277 -52.587  13.159  1.00  0.00     0.039 C 
BRANCH  28  30
HETATM   30  C   UNL     1     -46.382 -53.173  14.630  1.00  0.00     0.175 C 
BRANCH  30  31
HETATM   31  O   UNL     1     -46.574 -54.427  13.986  1.00  0.00    -0.400 OA
HETATM   32  H   UNL     1     -45.687 -54.766  13.744  1.00  0.00     0.209 HD
ENDBRANCH  30  31
ENDBRANCH  28  30
BRANCH  28  33
HETATM   33  C   UNL     1     -46.725 -51.681  12.619  1.00  0.00     0.175 C 
BRANCH  33  34
HETATM   34  O   UNL     1     -46.969 -52.701  11.657  1.00  0.00    -0.400 OA
HETATM   35  H   UNL     1     -46.686 -53.547  12.050  1.00  0.00     0.209 HD
ENDBRANCH  33  34
ENDBRANCH  28  33
ENDBRANCH   1  26
TORSDOF 8
ENDMDL
