MODEL 1
REMARK VINA RESULT:      -5.4      0.000      0.000
REMARK  5 active torsions:
REMARK  status: ('A' for Active; 'I' for Inactive)
REMARK    1  A    between atoms: O_2  and  C_3 
REMARK    2  A    between atoms: C_3  and  C_4 
REMARK    3  A    between atoms: C_4  and  O_5 
REMARK    4  A    between atoms: O_5  and  C_6 
REMARK    5  A    between atoms: C_9  and  N_10 
REMARK       I    between atoms: N_10  and  C_11 
REMARK       I    between atoms: C_11  and  N_13 
ROOT
HETATM    1  C   UNL     1     -41.382 -46.101  10.372  1.00  0.00     0.141 A 
HETATM    2  C   UNL     1     -42.737 -46.346  10.499  1.00  0.00     0.058 A 
HETATM    3  C   UNL     1     -43.151 -47.601  10.942  1.00  0.00     0.035 A 
HETATM    4  C   UNL     1     -42.211 -48.579  11.260  1.00  0.00     0.051 A 
HETATM    5  C   UNL     1     -40.870 -48.218  11.113  1.00  0.00     0.119 A 
HETATM    6  N   UNL     1     -40.429 -47.006  10.674  1.00  0.00    -0.345 N 
ATOM      7  HN  UNL     1     -39.436 -46.795  10.579  1.00  0.00     0.167 HD
ENDROOT
BRANCH   4   8
HETATM    8  N   UNL     1     -42.552 -49.871  11.748  1.00  0.00    -0.307 N 
HETATM    9  C   UNL     1     -42.903 -50.158  13.047  1.00  0.00     0.323 C 
HETATM   10  O   UNL     1     -43.110 -49.286  13.890  1.00  0.00    -0.247 OA
HETATM   11  N   UNL     1     -43.004 -51.497  13.392  1.00  0.00    -0.333 N 
HETATM   12  C   UNL     1     -42.862 -52.680  12.532  1.00  0.00     0.137 C 
HETATM   13  C   UNL     1     -43.283 -51.808  14.805  1.00  0.00     0.137 C 
HETATM   14  C   UNL     1     -44.140 -53.530  12.489  1.00  0.00     0.093 C 
HETATM   15  S   UNL     1     -44.667 -54.109  14.138  1.00  0.00    -0.166 SA
HETATM   16  C   UNL     1     -44.633 -52.497  14.993  1.00  0.00     0.093 C 
HETATM   17  H   UNL     1     -42.710 -50.577  11.050  1.00  0.00     0.170 HD
ENDBRANCH   4   8
BRANCH   1  18
HETATM   18  O   UNL     1     -41.039 -44.811  10.032  1.00  0.00    -0.334 OA
BRANCH  18  19
HETATM   19  C   UNL     1     -40.232 -44.146  11.002  1.00  0.00     0.203 C 
BRANCH  19  20
HETATM   20  C   UNL     1     -40.927 -42.829  11.348  1.00  0.00     0.193 C 
BRANCH  20  21
HETATM   21  O   UNL     1     -42.022 -42.600  10.463  1.00  0.00    -0.394 OA
HETATM   22  C   UNL     1     -43.232 -42.386  11.179  1.00  0.00     0.201 C 
ENDBRANCH  20  21
ENDBRANCH  19  20
ENDBRANCH  18  19
ENDBRANCH   1  18
TORSDOF 5
ENDMDL
MODEL 2
REMARK VINA RESULT:      -5.1      3.573      8.234
REMARK  5 active torsions:
REMARK  status: ('A' for Active; 'I' for Inactive)
REMARK    1  A    between atoms: O_2  and  C_3 
REMARK    2  A    between atoms: C_3  and  C_4 
REMARK    3  A    between atoms: C_4  and  O_5 
REMARK    4  A    between atoms: O_5  and  C_6 
REMARK    5  A    between atoms: C_9  and  N_10 
REMARK       I    between atoms: N_10  and  C_11 
REMARK       I    between atoms: C_11  and  N_13 
ROOT
HETATM    1  C   UNL     1     -43.578 -52.658  12.482  1.00  0.00     0.141 A 
HETATM    2  C   UNL     1     -44.088 -51.633  13.259  1.00  0.00     0.058 A 
HETATM    3  C   UNL     1     -43.332 -50.473  13.415  1.00  0.00     0.035 A 
HETATM    4  C   UNL     1     -42.094 -50.351  12.789  1.00  0.00     0.051 A 
HETATM    5  C   UNL     1     -41.684 -51.438  12.013  1.00  0.00     0.119 A 
HETATM    6  N   UNL     1     -42.391 -52.590  11.845  1.00  0.00    -0.345 N 
ATOM      7  HN  UNL     1     -42.043 -53.357  11.271  1.00  0.00     0.167 HD
ENDROOT
BRANCH   4   8
HETATM    8  N   UNL     1     -41.279 -49.188  12.874  1.00  0.00    -0.307 N 
HETATM    9  C   UNL     1     -41.189 -48.213  11.907  1.00  0.00     0.323 C 
HETATM   10  O   UNL     1     -41.934 -48.173  10.928  1.00  0.00    -0.247 OA
HETATM   11  N   UNL     1     -40.195 -47.259  12.064  1.00  0.00    -0.333 N 
HETATM   12  C   UNL     1     -39.253 -47.090  13.179  1.00  0.00     0.137 C 
HETATM   13  C   UNL     1     -40.032 -46.273  10.982  1.00  0.00     0.137 C 
HETATM   14  C   UNL     1     -39.408 -45.731  13.876  1.00  0.00     0.093 C 
HETATM   15  S   UNL     1     -39.179 -44.318  12.743  1.00  0.00    -0.166 SA
HETATM   16  C   UNL     1     -40.342 -44.849  11.441  1.00  0.00     0.093 C 
HETATM   17  H   UNL     1     -40.882 -48.994  13.777  1.00  0.00     0.170 HD
ENDBRANCH   4   8
BRANCH   1  18
HETATM   18  O   UNL     1     -44.418 -53.730  12.282  1.00  0.00    -0.334 OA
BRANCH  18  19
HETATM   19  C   UNL     1     -45.560 -53.745  13.136  1.00  0.00     0.203 C 
BRANCH  19  20
HETATM   20  C   UNL     1     -45.503 -55.036  13.953  1.00  0.00     0.193 C 
BRANCH  20  21
HETATM   21  O   UNL     1     -45.791 -54.767  15.323  1.00  0.00    -0.394 OA
HETATM   22  C   UNL     1     -44.731 -54.049  15.945  1.00  0.00     0.201 C 
ENDBRANCH  20  21
ENDBRANCH  19  20
ENDBRANCH  18  19
ENDBRANCH   1  18
TORSDOF 5
ENDMDL
MODEL 3
REMARK VINA RESULT:      -5.1      3.043      3.776
REMARK  5 active torsions:
REMARK  status: ('A' for Active; 'I' for Inactive)
REMARK    1  A    between atoms: O_2  and  C_3 
REMARK    2  A    between atoms: C_3  and  C_4 
REMARK    3  A    between atoms: C_4  and  O_5 
REMARK    4  A    between atoms: O_5  and  C_6 
REMARK    5  A    between atoms: C_9  and  N_10 
REMARK       I    between atoms: N_10  and  C_11 
REMARK       I    between atoms: C_11  and  N_13 
ROOT
HETATM    1  C   UNL     1     -40.720 -47.799  11.281  1.00  0.00     0.141 A 
HETATM    2  C   UNL     1     -40.519 -47.716  12.646  1.00  0.00     0.058 A 
HETATM    3  C   UNL     1     -40.605 -48.880  13.407  1.00  0.00     0.035 A 
HETATM    4  C   UNL     1     -40.878 -50.101  12.794  1.00  0.00     0.051 A 
HETATM    5  C   UNL     1     -41.046 -50.073  11.408  1.00  0.00     0.119 A 
HETATM    6  N   UNL     1     -40.978 -48.954  10.634  1.00  0.00    -0.345 N 
ATOM      7  HN  UNL     1     -41.113 -48.988   9.624  1.00  0.00     0.167 HD
ENDROOT
BRANCH   4   8
HETATM    8  N   UNL     1     -40.951 -51.336  13.496  1.00  0.00    -0.307 N 
HETATM    9  C   UNL     1     -39.953 -52.283  13.535  1.00  0.00     0.323 C 
HETATM   10  O   UNL     1     -38.824 -52.081  13.089  1.00  0.00    -0.247 OA
HETATM   11  N   UNL     1     -40.271 -53.512  14.095  1.00  0.00    -0.333 N 
HETATM   12  C   UNL     1     -41.526 -53.931  14.735  1.00  0.00     0.137 C 
HETATM   13  C   UNL     1     -39.236 -54.559  14.050  1.00  0.00     0.137 C 
HETATM   14  C   UNL     1     -41.328 -54.334  16.203  1.00  0.00     0.093 C 
HETATM   15  S   UNL     1     -40.121 -55.687  16.415  1.00  0.00    -0.166 SA
HETATM   16  C   UNL     1     -38.757 -54.963  15.443  1.00  0.00     0.093 C 
HETATM   17  H   UNL     1     -41.717 -51.432  14.140  1.00  0.00     0.170 HD
ENDBRANCH   4   8
BRANCH   1  18
HETATM   18  O   UNL     1     -40.517 -46.633  10.576  1.00  0.00    -0.334 OA
BRANCH  18  19
HETATM   19  C   UNL     1     -41.305 -45.533  11.025  1.00  0.00     0.203 C 
BRANCH  19  20
HETATM   20  C   UNL     1     -42.713 -45.718  10.459  1.00  0.00     0.193 C 
BRANCH  20  21
HETATM   21  O   UNL     1     -42.680 -45.693   9.033  1.00  0.00    -0.394 OA
HETATM   22  C   UNL     1     -43.552 -46.669   8.476  1.00  0.00     0.201 C 
ENDBRANCH  20  21
ENDBRANCH  19  20
ENDBRANCH  18  19
ENDBRANCH   1  18
TORSDOF 5
ENDMDL
MODEL 4
REMARK VINA RESULT:      -5.0      1.801      2.416
REMARK  5 active torsions:
REMARK  status: ('A' for Active; 'I' for Inactive)
REMARK    1  A    between atoms: O_2  and  C_3 
REMARK    2  A    between atoms: C_3  and  C_4 
REMARK    3  A    between atoms: C_4  and  O_5 
REMARK    4  A    between atoms: O_5  and  C_6 
REMARK    5  A    between atoms: C_9  and  N_10 
REMARK       I    between atoms: N_10  and  C_11 
REMARK       I    between atoms: C_11  and  N_13 
ROOT
HETATM    1  C   UNL     1     -42.743 -45.540  10.713  1.00  0.00     0.141 A 
HETATM    2  C   UNL     1     -42.647 -46.527   9.749  1.00  0.00     0.058 A 
HETATM    3  C   UNL     1     -42.647 -47.860  10.155  1.00  0.00     0.035 A 
HETATM    4  C   UNL     1     -42.753 -48.184  11.506  1.00  0.00     0.051 A 
HETATM    5  C   UNL     1     -42.863 -47.109  12.391  1.00  0.00     0.119 A 
HETATM    6  N   UNL     1     -42.858 -45.795  12.032  1.00  0.00    -0.345 N 
ATOM      7  HN  UNL     1     -42.936 -45.047  12.721  1.00  0.00     0.167 HD
ENDROOT
BRANCH   4   8
HETATM    8  N   UNL     1     -42.792 -49.518  11.996  1.00  0.00    -0.307 N 
HETATM    9  C   UNL     1     -41.720 -50.381  12.024  1.00  0.00     0.323 C 
HETATM   10  O   UNL     1     -40.571 -50.026  11.768  1.00  0.00    -0.247 OA
HETATM   11  N   UNL     1     -41.985 -51.705  12.343  1.00  0.00    -0.333 N 
HETATM   12  C   UNL     1     -43.261 -52.316  12.739  1.00  0.00     0.137 C 
HETATM   13  C   UNL     1     -40.857 -52.651  12.278  1.00  0.00     0.137 C 
HETATM   14  C   UNL     1     -43.203 -52.936  14.142  1.00  0.00     0.093 C 
HETATM   15  S   UNL     1     -41.907 -54.212  14.305  1.00  0.00    -0.166 SA
HETATM   16  C   UNL     1     -40.512 -53.239  13.644  1.00  0.00     0.093 C 
HETATM   17  H   UNL     1     -43.617 -49.775  12.510  1.00  0.00     0.170 HD
ENDBRANCH   4   8
BRANCH   1  18
HETATM   18  O   UNL     1     -42.844 -44.251  10.239  1.00  0.00    -0.334 OA
BRANCH  18  19
HETATM   19  C   UNL     1     -42.708 -43.247  11.242  1.00  0.00     0.203 C 
BRANCH  19  20
HETATM   20  C   UNL     1     -41.227 -42.875  11.318  1.00  0.00     0.193 C 
BRANCH  20  21
HETATM   21  O   UNL     1     -40.638 -43.430  12.493  1.00  0.00    -0.394 OA
HETATM   22  C   UNL     1     -39.533 -44.268  12.173  1.00  0.00     0.201 C 
ENDBRANCH  20  21
ENDBRANCH  19  20
ENDBRANCH  18  19
ENDBRANCH   1  18
TORSDOF 5
ENDMDL
MODEL 5
REMARK VINA RESULT:      -4.7      3.903      8.225
REMARK  5 active torsions:
REMARK  status: ('A' for Active; 'I' for Inactive)
REMARK    1  A    between atoms: O_2  and  C_3 
REMARK    2  A    between atoms: C_3  and  C_4 
REMARK    3  A    between atoms: C_4  and  O_5 
REMARK    4  A    between atoms: O_5  and  C_6 
REMARK    5  A    between atoms: C_9  and  N_10 
REMARK       I    between atoms: N_10  and  C_11 
REMARK       I    between atoms: C_11  and  N_13 
ROOT
HETATM    1  C   UNL     1     -46.813 -51.335  15.714  1.00  0.00     0.141 A 
HETATM    2  C   UNL     1     -46.839 -51.590  14.355  1.00  0.00     0.058 A 
HETATM    3  C   UNL     1     -45.650 -51.496  13.634  1.00  0.00     0.035 A 
HETATM    4  C   UNL     1     -44.461 -51.162  14.279  1.00  0.00     0.051 A 
HETATM    5  C   UNL     1     -44.546 -50.944  15.656  1.00  0.00     0.119 A 
HETATM    6  N   UNL     1     -45.690 -51.018  16.391  1.00  0.00    -0.345 N 
ATOM      7  HN  UNL     1     -45.698 -50.843  17.396  1.00  0.00     0.167 HD
ENDROOT
BRANCH   4   8
HETATM    8  N   UNL     1     -43.204 -51.077  13.620  1.00  0.00    -0.307 N 
HETATM    9  C   UNL     1     -42.747 -49.978  12.927  1.00  0.00     0.323 C 
HETATM   10  O   UNL     1     -43.325 -48.892  12.944  1.00  0.00    -0.247 OA
HETATM   11  N   UNL     1     -41.593 -50.141  12.177  1.00  0.00    -0.333 N 
HETATM   12  C   UNL     1     -40.724 -51.322  12.073  1.00  0.00     0.137 C 
HETATM   13  C   UNL     1     -41.156 -48.997  11.358  1.00  0.00     0.137 C 
HETATM   14  C   UNL     1     -39.292 -51.040  12.546  1.00  0.00     0.093 C 
HETATM   15  S   UNL     1     -38.490 -49.683  11.624  1.00  0.00    -0.166 SA
HETATM   16  C   UNL     1     -39.810 -48.437  11.812  1.00  0.00     0.093 C 
HETATM   17  H   UNL     1     -42.547 -51.809  13.827  1.00  0.00     0.170 HD
ENDBRANCH   4   8
BRANCH   1  18
HETATM   18  O   UNL     1     -47.997 -51.549  16.384  1.00  0.00    -0.334 OA
BRANCH  18  19
HETATM   19  C   UNL     1     -48.158 -50.750  17.554  1.00  0.00     0.203 C 
BRANCH  19  20
HETATM   20  C   UNL     1     -48.186 -51.698  18.753  1.00  0.00     0.193 C 
BRANCH  20  21
HETATM   21  O   UNL     1     -46.858 -52.038  19.145  1.00  0.00    -0.394 OA
HETATM   22  C   UNL     1     -46.650 -53.444  19.108  1.00  0.00     0.201 C 
ENDBRANCH  20  21
ENDBRANCH  19  20
ENDBRANCH  18  19
ENDBRANCH   1  18
TORSDOF 5
ENDMDL
MODEL 6
REMARK VINA RESULT:      -4.6      4.682      8.850
REMARK  5 active torsions:
REMARK  status: ('A' for Active; 'I' for Inactive)
REMARK    1  A    between atoms: O_2  and  C_3 
REMARK    2  A    between atoms: C_3  and  C_4 
REMARK    3  A    between atoms: C_4  and  O_5 
REMARK    4  A    between atoms: O_5  and  C_6 
REMARK    5  A    between atoms: C_9  and  N_10 
REMARK       I    between atoms: N_10  and  C_11 
REMARK       I    between atoms: C_11  and  N_13 
ROOT
HETATM    1  C   UNL     1     -39.478 -54.256  13.863  1.00  0.00     0.141 A 
HETATM    2  C   UNL     1     -38.815 -53.124  14.299  1.00  0.00     0.058 A 
HETATM    3  C   UNL     1     -39.168 -51.890  13.755  1.00  0.00     0.035 A 
HETATM    4  C   UNL     1     -40.179 -51.807  12.800  1.00  0.00     0.051 A 
HETATM    5  C   UNL     1     -40.795 -53.010  12.446  1.00  0.00     0.119 A 
HETATM    6  N   UNL     1     -40.470 -54.233  12.949  1.00  0.00    -0.345 N 
ATOM      7  HN  UNL     1     -40.950 -55.083  12.652  1.00  0.00     0.167 HD
ENDROOT
BRANCH   4   8
HETATM    8  N   UNL     1     -40.618 -50.584  12.222  1.00  0.00    -0.307 N 
HETATM    9  C   UNL     1     -41.622 -49.788  12.723  1.00  0.00     0.323 C 
HETATM   10  O   UNL     1     -42.140 -49.981  13.823  1.00  0.00    -0.247 OA
HETATM   11  N   UNL     1     -42.057 -48.742  11.923  1.00  0.00    -0.333 N 
HETATM   12  C   UNL     1     -41.536 -48.304  10.621  1.00  0.00     0.137 C 
HETATM   13  C   UNL     1     -43.198 -47.949  12.415  1.00  0.00     0.137 C 
HETATM   14  C   UNL     1     -41.010 -46.863  10.655  1.00  0.00     0.093 C 
HETATM   15  S   UNL     1     -42.275 -45.654  11.176  1.00  0.00    -0.166 SA
HETATM   16  C   UNL     1     -42.817 -46.498  12.701  1.00  0.00     0.093 C 
HETATM   17  H   UNL     1     -40.032 -50.203  11.499  1.00  0.00     0.170 HD
ENDBRANCH   4   8
BRANCH   1  18
HETATM   18  O   UNL     1     -39.156 -55.425  14.515  1.00  0.00    -0.334 OA
BRANCH  18  19
HETATM   19  C   UNL     1     -38.330 -55.244  15.664  1.00  0.00     0.203 C 
BRANCH  19  20
HETATM   20  C   UNL     1     -39.115 -55.752  16.874  1.00  0.00     0.193 C 
BRANCH  20  21
HETATM   21  O   UNL     1     -39.347 -57.154  16.760  1.00  0.00    -0.394 OA
HETATM   22  C   UNL     1     -40.656 -57.501  17.197  1.00  0.00     0.201 C 
ENDBRANCH  20  21
ENDBRANCH  19  20
ENDBRANCH  18  19
ENDBRANCH   1  18
TORSDOF 5
ENDMDL
MODEL 7
REMARK VINA RESULT:      -4.5     20.145     21.768
REMARK  5 active torsions:
REMARK  status: ('A' for Active; 'I' for Inactive)
REMARK    1  A    between atoms: O_2  and  C_3 
REMARK    2  A    between atoms: C_3  and  C_4 
REMARK    3  A    between atoms: C_4  and  O_5 
REMARK    4  A    between atoms: O_5  and  C_6 
REMARK    5  A    between atoms: C_9  and  N_10 
REMARK       I    between atoms: N_10  and  C_11 
REMARK       I    between atoms: C_11  and  N_13 
ROOT
HETATM    1  C   UNL     1     -29.206 -46.521  -3.279  1.00  0.00     0.141 A 
HETATM    2  C   UNL     1     -27.831 -46.667  -3.259  1.00  0.00     0.058 A 
HETATM    3  C   UNL     1     -27.081 -45.841  -2.424  1.00  0.00     0.035 A 
HETATM    4  C   UNL     1     -27.714 -44.896  -1.619  1.00  0.00     0.051 A 
HETATM    5  C   UNL     1     -29.107 -44.846  -1.704  1.00  0.00     0.119 A 
HETATM    6  N   UNL     1     -29.871 -45.630  -2.514  1.00  0.00    -0.345 N 
ATOM      7  HN  UNL     1     -30.887 -45.549  -2.542  1.00  0.00     0.167 HD
ENDROOT
BRANCH   4   8
HETATM    8  N   UNL     1     -27.023 -44.039  -0.719  1.00  0.00    -0.307 N 
HETATM    9  C   UNL     1     -26.328 -42.908  -1.081  1.00  0.00     0.323 C 
HETATM   10  O   UNL     1     -26.368 -42.434  -2.216  1.00  0.00    -0.247 OA
HETATM   11  N   UNL     1     -25.546 -42.308  -0.104  1.00  0.00    -0.333 N 
HETATM   12  C   UNL     1     -25.410 -42.671   1.313  1.00  0.00     0.137 C 
HETATM   13  C   UNL     1     -24.725 -41.156  -0.514  1.00  0.00     0.137 C 
HETATM   14  C   UNL     1     -25.848 -41.539   2.252  1.00  0.00     0.093 C 
HETATM   15  S   UNL     1     -24.916 -39.991   1.988  1.00  0.00    -0.166 SA
HETATM   16  C   UNL     1     -25.148 -39.864   0.182  1.00  0.00     0.093 C 
HETATM   17  H   UNL     1     -27.207 -44.186   0.258  1.00  0.00     0.170 HD
ENDBRANCH   4   8
BRANCH   1  18
HETATM   18  O   UNL     1     -29.893 -47.437  -4.044  1.00  0.00    -0.334 OA
BRANCH  18  19
HETATM   19  C   UNL     1     -31.271 -47.124  -4.231  1.00  0.00     0.203 C 
BRANCH  19  20
HETATM   20  C   UNL     1     -31.935 -48.346  -4.867  1.00  0.00     0.193 C 
BRANCH  20  21
HETATM   21  O   UNL     1     -31.060 -49.471  -4.806  1.00  0.00    -0.394 OA
HETATM   22  C   UNL     1     -31.784 -50.695  -4.850  1.00  0.00     0.201 C 
ENDBRANCH  20  21
ENDBRANCH  19  20
ENDBRANCH  18  19
ENDBRANCH   1  18
TORSDOF 5
ENDMDL
MODEL 8
REMARK VINA RESULT:      -4.5      5.350      9.441
REMARK  5 active torsions:
REMARK  status: ('A' for Active; 'I' for Inactive)
REMARK    1  A    between atoms: O_2  and  C_3 
REMARK    2  A    between atoms: C_3  and  C_4 
REMARK    3  A    between atoms: C_4  and  O_5 
REMARK    4  A    between atoms: O_5  and  C_6 
REMARK    5  A    between atoms: C_9  and  N_10 
REMARK       I    between atoms: N_10  and  C_11 
REMARK       I    between atoms: C_11  and  N_13 
ROOT
HETATM    1  C   UNL     1     -41.561 -45.962  10.623  1.00  0.00     0.141 A 
HETATM    2  C   UNL     1     -40.266 -45.539  10.387  1.00  0.00     0.058 A 
HETATM    3  C   UNL     1     -39.937 -44.212  10.656  1.00  0.00     0.035 A 
HETATM    4  C   UNL     1     -40.897 -43.338  11.163  1.00  0.00     0.051 A 
HETATM    5  C   UNL     1     -42.167 -43.876  11.381  1.00  0.00     0.119 A 
HETATM    6  N   UNL     1     -42.527 -45.164  11.122  1.00  0.00    -0.345 N 
ATOM      7  HN  UNL     1     -43.472 -45.506  11.295  1.00  0.00     0.167 HD
ENDROOT
BRANCH   4   8
HETATM    8  N   UNL     1     -40.632 -41.980  11.492  1.00  0.00    -0.307 N 
HETATM    9  C   UNL     1     -39.984 -41.554  12.629  1.00  0.00     0.323 C 
HETATM   10  O   UNL     1     -39.425 -42.326  13.407  1.00  0.00    -0.247 OA
HETATM   11  N   UNL     1     -39.993 -40.192  12.887  1.00  0.00    -0.333 N 
HETATM   12  C   UNL     1     -40.542 -39.105  12.064  1.00  0.00     0.137 C 
HETATM   13  C   UNL     1     -39.386 -39.743  14.153  1.00  0.00     0.137 C 
HETATM   14  C   UNL     1     -39.467 -38.097  11.634  1.00  0.00     0.093 C 
HETATM   15  S   UNL     1     -38.599 -37.333  13.047  1.00  0.00    -0.166 SA
HETATM   16  C   UNL     1     -38.155 -38.868  13.928  1.00  0.00     0.093 C 
HETATM   17  H   UNL     1     -40.779 -41.312  10.756  1.00  0.00     0.170 HD
ENDBRANCH   4   8
BRANCH   1  18
HETATM   18  O   UNL     1     -41.792 -47.307  10.438  1.00  0.00    -0.334 OA
BRANCH  18  19
HETATM   19  C   UNL     1     -41.654 -48.092  11.620  1.00  0.00     0.203 C 
BRANCH  19  20
HETATM   20  C   UNL     1     -40.554 -49.122  11.360  1.00  0.00     0.193 C 
BRANCH  20  21
HETATM   21  O   UNL     1     -39.311 -48.660  11.885  1.00  0.00    -0.394 OA
HETATM   22  C   UNL     1     -38.270 -49.602  11.658  1.00  0.00     0.201 C 
ENDBRANCH  20  21
ENDBRANCH  19  20
ENDBRANCH  18  19
ENDBRANCH   1  18
TORSDOF 5
ENDMDL
MODEL 9
REMARK VINA RESULT:      -4.5      2.965      3.816
REMARK  5 active torsions:
REMARK  status: ('A' for Active; 'I' for Inactive)
REMARK    1  A    between atoms: O_2  and  C_3 
REMARK    2  A    between atoms: C_3  and  C_4 
REMARK    3  A    between atoms: C_4  and  O_5 
REMARK    4  A    between atoms: O_5  and  C_6 
REMARK    5  A    between atoms: C_9  and  N_10 
REMARK       I    between atoms: N_10  and  C_11 
REMARK       I    between atoms: C_11  and  N_13 
ROOT
HETATM    1  C   UNL     1     -41.031 -47.864  11.086  1.00  0.00     0.141 A 
HETATM    2  C   UNL     1     -40.667 -47.566  12.387  1.00  0.00     0.058 A 
HETATM    3  C   UNL     1     -40.369 -48.614  13.255  1.00  0.00     0.035 A 
HETATM    4  C   UNL     1     -40.429 -49.934  12.810  1.00  0.00     0.051 A 
HETATM    5  C   UNL     1     -40.789 -50.119  11.473  1.00  0.00     0.119 A 
HETATM    6  N   UNL     1     -41.096 -49.120  10.599  1.00  0.00    -0.345 N 
ATOM      7  HN  UNL     1     -41.358 -49.311   9.633  1.00  0.00     0.167 HD
ENDROOT
BRANCH   4   8
HETATM    8  N   UNL     1     -40.110 -51.055  13.625  1.00  0.00    -0.307 N 
HETATM    9  C   UNL     1     -40.985 -51.686  14.479  1.00  0.00     0.323 C 
HETATM   10  O   UNL     1     -42.190 -51.435  14.504  1.00  0.00    -0.247 OA
HETATM   11  N   UNL     1     -40.452 -52.628  15.345  1.00  0.00    -0.333 N 
HETATM   12  C   UNL     1     -39.069 -53.117  15.432  1.00  0.00     0.137 C 
HETATM   13  C   UNL     1     -41.369 -53.234  16.327  1.00  0.00     0.137 C 
HETATM   14  C   UNL     1     -38.963 -54.625  15.171  1.00  0.00     0.093 C 
HETATM   15  S   UNL     1     -39.972 -55.621  16.322  1.00  0.00    -0.166 SA
HETATM   16  C   UNL     1     -41.551 -54.734  16.103  1.00  0.00     0.093 C 
HETATM   17  H   UNL     1     -39.236 -51.510  13.425  1.00  0.00     0.170 HD
ENDBRANCH   4   8
BRANCH   1  18
HETATM   18  O   UNL     1     -41.209 -46.782  10.253  1.00  0.00    -0.334 OA
BRANCH  18  19
HETATM   19  C   UNL     1     -42.383 -46.020  10.527  1.00  0.00     0.203 C 
BRANCH  19  20
HETATM   20  C   UNL     1     -43.540 -46.679   9.773  1.00  0.00     0.193 C 
BRANCH  20  21
HETATM   21  O   UNL     1     -43.317 -46.608   8.366  1.00  0.00    -0.394 OA
HETATM   22  C   UNL     1     -43.549 -47.864   7.740  1.00  0.00     0.201 C 
ENDBRANCH  20  21
ENDBRANCH  19  20
ENDBRANCH  18  19
ENDBRANCH   1  18
TORSDOF 5
ENDMDL
