MODEL 1
REMARK VINA RESULT:      -5.7      0.000      0.000
REMARK  6 active torsions:
REMARK  status: ('A' for Active; 'I' for Inactive)
REMARK    1  A    between atoms: C_2  and  C_4 
REMARK    2  A    between atoms: C_4  and  S_5 
REMARK    3  A    between atoms: S_5  and  C_6 
REMARK    4  A    between atoms: C_11  and  C_12 
REMARK    5  A    between atoms: C_12  and  C_13 
REMARK    6  A    between atoms: C_13  and  O_15 
ROOT
HETATM    1  C   UNL     1     -42.694 -48.103  10.635  1.00  0.00     0.147 C 
HETATM    2  N   UNL     1     -43.382 -48.521  11.641  1.00  0.00    -0.340 N 
ATOM      3  HN  UNL     1     -44.277 -48.097  11.883  1.00  0.00     0.167 HD
HETATM    4  C   UNL     1     -42.862 -49.563  12.381  1.00  0.00     0.019 C 
HETATM    5  C   UNL     1     -43.755 -50.051  13.492  1.00  0.00     0.069 C 
HETATM    6  C   UNL     1     -41.652 -50.109  12.153  1.00  0.00     0.042 C 
HETATM    7  C   UNL     1     -40.841 -49.497  11.075  1.00  0.00     0.256 C 
HETATM    8  O   UNL     1     -39.648 -49.770  10.971  1.00  0.00    -0.268 OA
HETATM    9  N   UNL     1     -41.481 -48.599  10.283  1.00  0.00    -0.303 N 
HETATM   10  H   UNL     1     -40.973 -48.156   9.534  1.00  0.00     0.171 HD
ENDROOT
BRANCH   1  11
HETATM   11  S   UNL     1     -43.219 -46.832   9.576  1.00  0.00    -0.089 SA
BRANCH  11  12
HETATM   12  C   UNL     1     -44.099 -47.802   8.319  1.00  0.00     0.115 C 
BRANCH  12  13
HETATM   13  C   UNL     1     -45.587 -47.779   8.587  1.00  0.00    -0.083 C 
HETATM   14  C   UNL     1     -46.401 -48.900   7.999  1.00  0.00     0.043 C 
HETATM   15  C   UNL     1     -46.177 -46.775   9.260  1.00  0.00     0.014 C 
ENDBRANCH  12  13
ENDBRANCH  11  12
ENDBRANCH   1  11
BRANCH   6  16
HETATM   16  C   UNL     1     -41.035 -51.292  12.844  1.00  0.00     0.156 C 
BRANCH  16  17
HETATM   17  C   UNL     1     -41.468 -52.608  12.237  1.00  0.00     0.143 C 
HETATM   18  O   UNL     1     -42.546 -53.137  12.482  1.00  0.00    -0.650 OA
BRANCH  17  19
HETATM   19  O   UNL     1     -40.578 -53.149  11.374  1.00  0.00    -0.776 OA
HETATM   20  H   UNL     1     -40.002 -52.491  10.916  1.00  0.00     0.167 HD
ENDBRANCH  17  19
ENDBRANCH  16  17
ENDBRANCH   6  16
TORSDOF 6
ENDMDL
MODEL 2
REMARK VINA RESULT:      -5.7      3.642      4.998
REMARK  6 active torsions:
REMARK  status: ('A' for Active; 'I' for Inactive)
REMARK    1  A    between atoms: C_2  and  C_4 
REMARK    2  A    between atoms: C_4  and  S_5 
REMARK    3  A    between atoms: S_5  and  C_6 
REMARK    4  A    between atoms: C_11  and  C_12 
REMARK    5  A    between atoms: C_12  and  C_13 
REMARK    6  A    between atoms: C_13  and  O_15 
ROOT
HETATM    1  C   UNL     1     -42.325 -52.190  12.512  1.00  0.00     0.147 C 
HETATM    2  N   UNL     1     -42.144 -51.102  11.846  1.00  0.00    -0.340 N 
ATOM      3  HN  UNL     1     -42.888 -50.701  11.275  1.00  0.00     0.167 HD
HETATM    4  C   UNL     1     -40.906 -50.499  11.933  1.00  0.00     0.019 C 
HETATM    5  C   UNL     1     -40.791 -49.191  11.193  1.00  0.00     0.069 C 
HETATM    6  C   UNL     1     -39.867 -51.025  12.609  1.00  0.00     0.042 C 
HETATM    7  C   UNL     1     -40.085 -52.347  13.238  1.00  0.00     0.256 C 
HETATM    8  O   UNL     1     -39.130 -52.997  13.654  1.00  0.00    -0.268 OA
HETATM    9  N   UNL     1     -41.367 -52.794  13.259  1.00  0.00    -0.303 N 
HETATM   10  H   UNL     1     -41.568 -53.688  13.678  1.00  0.00     0.171 HD
ENDROOT
BRANCH   1  11
HETATM   11  S   UNL     1     -43.832 -53.053  12.548  1.00  0.00    -0.089 SA
BRANCH  11  12
HETATM   12  C   UNL     1     -44.587 -52.320  14.026  1.00  0.00     0.115 C 
BRANCH  12  13
HETATM   13  C   UNL     1     -45.978 -51.816  13.709  1.00  0.00    -0.083 C 
HETATM   14  C   UNL     1     -46.847 -51.439  14.878  1.00  0.00     0.043 C 
HETATM   15  C   UNL     1     -46.450 -51.767  12.451  1.00  0.00     0.014 C 
ENDBRANCH  12  13
ENDBRANCH  11  12
ENDBRANCH   1  11
BRANCH   6  16
HETATM   16  C   UNL     1     -38.513 -50.411  12.830  1.00  0.00     0.156 C 
BRANCH  16  17
HETATM   17  C   UNL     1     -37.514 -50.812  11.767  1.00  0.00     0.143 C 
HETATM   18  O   UNL     1     -36.719 -51.733  11.908  1.00  0.00    -0.650 OA
BRANCH  17  19
HETATM   19  O   UNL     1     -37.585 -50.088  10.627  1.00  0.00    -0.776 OA
HETATM   20  H   UNL     1     -37.990 -49.194  10.736  1.00  0.00     0.167 HD
ENDBRANCH  17  19
ENDBRANCH  16  17
ENDBRANCH   6  16
TORSDOF 6
ENDMDL
MODEL 3
REMARK VINA RESULT:      -5.6      3.803      4.856
REMARK  6 active torsions:
REMARK  status: ('A' for Active; 'I' for Inactive)
REMARK    1  A    between atoms: C_2  and  C_4 
REMARK    2  A    between atoms: C_4  and  S_5 
REMARK    3  A    between atoms: S_5  and  C_6 
REMARK    4  A    between atoms: C_11  and  C_12 
REMARK    5  A    between atoms: C_12  and  C_13 
REMARK    6  A    between atoms: C_13  and  O_15 
ROOT
HETATM    1  C   UNL     1     -42.062 -51.801  12.866  1.00  0.00     0.147 C 
HETATM    2  N   UNL     1     -41.243 -51.995  13.841  1.00  0.00    -0.340 N 
ATOM      3  HN  UNL     1     -41.496 -52.583  14.635  1.00  0.00     0.167 HD
HETATM    4  C   UNL     1     -40.011 -51.379  13.771  1.00  0.00     0.019 C 
HETATM    5  C   UNL     1     -39.076 -51.714  14.905  1.00  0.00     0.069 C 
HETATM    6  C   UNL     1     -39.654 -50.534  12.786  1.00  0.00     0.042 C 
HETATM    7  C   UNL     1     -40.684 -50.232  11.766  1.00  0.00     0.256 C 
HETATM    8  O   UNL     1     -40.525 -49.296  10.987  1.00  0.00    -0.268 OA
HETATM    9  N   UNL     1     -41.801 -51.002  11.800  1.00  0.00    -0.303 N 
HETATM   10  H   UNL     1     -42.531 -50.838  11.125  1.00  0.00     0.171 HD
ENDROOT
BRANCH   1  11
HETATM   11  S   UNL     1     -43.634 -52.533  12.773  1.00  0.00    -0.089 SA
BRANCH  11  12
HETATM   12  C   UNL     1     -44.528 -51.532  13.994  1.00  0.00     0.115 C 
BRANCH  12  13
HETATM   13  C   UNL     1     -46.015 -51.577  13.720  1.00  0.00    -0.083 C 
HETATM   14  C   UNL     1     -46.929 -51.446  14.908  1.00  0.00     0.043 C 
HETATM   15  C   UNL     1     -46.509 -51.789  12.487  1.00  0.00     0.014 C 
ENDBRANCH  12  13
ENDBRANCH  11  12
ENDBRANCH   1  11
BRANCH   6  16
HETATM   16  C   UNL     1     -38.317 -49.880  12.578  1.00  0.00     0.156 C 
BRANCH  16  17
HETATM   17  C   UNL     1     -37.433 -50.657  11.626  1.00  0.00     0.143 C 
HETATM   18  O   UNL     1     -36.789 -51.643  11.963  1.00  0.00    -0.650 OA
BRANCH  17  19
HETATM   19  O   UNL     1     -37.431 -50.192  10.356  1.00  0.00    -0.776 OA
HETATM   20  H   UNL     1     -38.172 -50.529   9.797  1.00  0.00     0.167 HD
ENDBRANCH  17  19
ENDBRANCH  16  17
ENDBRANCH   6  16
TORSDOF 6
ENDMDL
MODEL 4
REMARK VINA RESULT:      -5.3      5.063      6.243
REMARK  6 active torsions:
REMARK  status: ('A' for Active; 'I' for Inactive)
REMARK    1  A    between atoms: C_2  and  C_4 
REMARK    2  A    between atoms: C_4  and  S_5 
REMARK    3  A    between atoms: S_5  and  C_6 
REMARK    4  A    between atoms: C_11  and  C_12 
REMARK    5  A    between atoms: C_12  and  C_13 
REMARK    6  A    between atoms: C_13  and  O_15 
ROOT
HETATM    1  C   UNL     1     -43.916 -54.425  14.307  1.00  0.00     0.147 C 
HETATM    2  N   UNL     1     -43.532 -54.521  15.533  1.00  0.00    -0.340 N 
ATOM      3  HN  UNL     1     -44.188 -54.760  16.276  1.00  0.00     0.167 HD
HETATM    4  C   UNL     1     -42.199 -54.287  15.804  1.00  0.00     0.019 C 
HETATM    5  C   UNL     1     -41.806 -54.494  17.244  1.00  0.00     0.069 C 
HETATM    6  C   UNL     1     -41.307 -53.895  14.875  1.00  0.00     0.042 C 
HETATM    7  C   UNL     1     -41.830 -53.661  13.509  1.00  0.00     0.256 C 
HETATM    8  O   UNL     1     -41.143 -53.073  12.678  1.00  0.00    -0.268 OA
HETATM    9  N   UNL     1     -43.101 -54.075  13.279  1.00  0.00    -0.303 N 
HETATM   10  H   UNL     1     -43.503 -53.941  12.364  1.00  0.00     0.171 HD
ENDROOT
BRANCH   1  11
HETATM   11  S   UNL     1     -45.544 -54.728  13.785  1.00  0.00    -0.089 SA
BRANCH  11  12
HETATM   12  C   UNL     1     -46.431 -53.477  14.756  1.00  0.00     0.115 C 
BRANCH  12  13
HETATM   13  C   UNL     1     -46.147 -52.094  14.212  1.00  0.00    -0.083 C 
HETATM   14  C   UNL     1     -45.505 -51.112  15.154  1.00  0.00     0.043 C 
HETATM   15  C   UNL     1     -46.508 -51.726  12.970  1.00  0.00     0.014 C 
ENDBRANCH  12  13
ENDBRANCH  11  12
ENDBRANCH   1  11
BRANCH   6  16
HETATM   16  C   UNL     1     -39.828 -53.695  15.051  1.00  0.00     0.156 C 
BRANCH  16  17
HETATM   17  C   UNL     1     -39.026 -54.911  14.643  1.00  0.00     0.143 C 
HETATM   18  O   UNL     1     -38.720 -55.805  15.423  1.00  0.00    -0.650 OA
BRANCH  17  19
HETATM   19  O   UNL     1     -38.693 -54.951  13.333  1.00  0.00    -0.776 OA
HETATM   20  H   UNL     1     -39.085 -54.226  12.790  1.00  0.00     0.167 HD
ENDBRANCH  17  19
ENDBRANCH  16  17
ENDBRANCH   6  16
TORSDOF 6
ENDMDL
MODEL 5
REMARK VINA RESULT:      -5.3      5.302      6.630
REMARK  6 active torsions:
REMARK  status: ('A' for Active; 'I' for Inactive)
REMARK    1  A    between atoms: C_2  and  C_4 
REMARK    2  A    between atoms: C_4  and  S_5 
REMARK    3  A    between atoms: S_5  and  C_6 
REMARK    4  A    between atoms: C_11  and  C_12 
REMARK    5  A    between atoms: C_12  and  C_13 
REMARK    6  A    between atoms: C_13  and  O_15 
ROOT
HETATM    1  C   UNL     1     -43.030 -54.149  13.891  1.00  0.00     0.147 C 
HETATM    2  N   UNL     1     -41.856 -53.667  13.672  1.00  0.00    -0.340 N 
ATOM      3  HN  UNL     1     -41.663 -53.098  12.848  1.00  0.00     0.167 HD
HETATM    4  C   UNL     1     -40.869 -53.948  14.594  1.00  0.00     0.019 C 
HETATM    5  C   UNL     1     -39.543 -53.288  14.315  1.00  0.00     0.069 C 
HETATM    6  C   UNL     1     -41.049 -54.755  15.657  1.00  0.00     0.042 C 
HETATM    7  C   UNL     1     -42.376 -55.398  15.784  1.00  0.00     0.256 C 
HETATM    8  O   UNL     1     -42.539 -56.325  16.573  1.00  0.00    -0.268 OA
HETATM    9  N   UNL     1     -43.343 -54.942  14.948  1.00  0.00    -0.303 N 
HETATM   10  H   UNL     1     -44.265 -55.346  14.996  1.00  0.00     0.171 HD
ENDROOT
BRANCH   1  11
HETATM   11  S   UNL     1     -44.395 -53.858  12.858  1.00  0.00    -0.089 SA
BRANCH  11  12
HETATM   12  C   UNL     1     -44.636 -52.080  13.136  1.00  0.00     0.115 C 
BRANCH  12  13
HETATM   13  C   UNL     1     -46.111 -51.758  13.219  1.00  0.00    -0.083 C 
HETATM   14  C   UNL     1     -46.880 -51.756  11.925  1.00  0.00     0.043 C 
HETATM   15  C   UNL     1     -46.705 -51.421  14.378  1.00  0.00     0.014 C 
ENDBRANCH  12  13
ENDBRANCH  11  12
ENDBRANCH   1  11
BRANCH   6  16
HETATM   16  C   UNL     1     -40.068 -55.057  16.755  1.00  0.00     0.156 C 
BRANCH  16  17
HETATM   17  C   UNL     1     -39.177 -56.235  16.428  1.00  0.00     0.143 C 
HETATM   18  O   UNL     1     -38.089 -56.121  15.877  1.00  0.00    -0.650 OA
BRANCH  17  19
HETATM   19  O   UNL     1     -39.666 -57.434  16.819  1.00  0.00    -0.776 OA
HETATM   20  H   UNL     1     -39.142 -57.877  17.529  1.00  0.00     0.167 HD
ENDBRANCH  17  19
ENDBRANCH  16  17
ENDBRANCH   6  16
TORSDOF 6
ENDMDL
MODEL 6
REMARK VINA RESULT:      -5.2      4.608      6.367
REMARK  6 active torsions:
REMARK  status: ('A' for Active; 'I' for Inactive)
REMARK    1  A    between atoms: C_2  and  C_4 
REMARK    2  A    between atoms: C_4  and  S_5 
REMARK    3  A    between atoms: S_5  and  C_6 
REMARK    4  A    between atoms: C_11  and  C_12 
REMARK    5  A    between atoms: C_12  and  C_13 
REMARK    6  A    between atoms: C_13  and  O_15 
ROOT
HETATM    1  C   UNL     1     -42.491 -51.961  12.914  1.00  0.00     0.147 C 
HETATM    2  N   UNL     1     -42.046 -52.918  13.653  1.00  0.00    -0.340 N 
ATOM      3  HN  UNL     1     -41.079 -52.933  13.973  1.00  0.00     0.167 HD
HETATM    4  C   UNL     1     -42.929 -53.922  13.995  1.00  0.00     0.019 C 
HETATM    5  C   UNL     1     -42.363 -54.964  14.925  1.00  0.00     0.069 C 
HETATM    6  C   UNL     1     -44.194 -53.991  13.539  1.00  0.00     0.042 C 
HETATM    7  C   UNL     1     -44.610 -52.944  12.578  1.00  0.00     0.256 C 
HETATM    8  O   UNL     1     -45.648 -53.075  11.935  1.00  0.00    -0.268 OA
HETATM    9  N   UNL     1     -43.756 -51.901  12.425  1.00  0.00    -0.303 N 
HETATM   10  H   UNL     1     -43.994 -51.160  11.784  1.00  0.00     0.171 HD
ENDROOT
BRANCH   1  11
HETATM   11  S   UNL     1     -41.530 -50.599  12.426  1.00  0.00    -0.089 SA
BRANCH  11  12
HETATM   12  C   UNL     1     -40.145 -50.749  13.590  1.00  0.00     0.115 C 
BRANCH  12  13
HETATM   13  C   UNL     1     -38.849 -50.355  12.916  1.00  0.00    -0.083 C 
HETATM   14  C   UNL     1     -38.877 -49.118  12.061  1.00  0.00     0.043 C 
HETATM   15  C   UNL     1     -37.736 -51.105  13.013  1.00  0.00     0.014 C 
ENDBRANCH  12  13
ENDBRANCH  11  12
ENDBRANCH   1  11
BRANCH   6  16
HETATM   16  C   UNL     1     -45.250 -54.991  13.914  1.00  0.00     0.156 C 
BRANCH  16  17
HETATM   17  C   UNL     1     -46.215 -54.455  14.949  1.00  0.00     0.143 C 
HETATM   18  O   UNL     1     -46.023 -54.542  16.155  1.00  0.00    -0.650 OA
BRANCH  17  19
HETATM   19  O   UNL     1     -47.305 -53.840  14.434  1.00  0.00    -0.776 OA
HETATM   20  H   UNL     1     -47.114 -53.240  13.673  1.00  0.00     0.167 HD
ENDBRANCH  17  19
ENDBRANCH  16  17
ENDBRANCH   6  16
TORSDOF 6
ENDMDL
MODEL 7
REMARK VINA RESULT:      -5.0      3.764      5.411
REMARK  6 active torsions:
REMARK  status: ('A' for Active; 'I' for Inactive)
REMARK    1  A    between atoms: C_2  and  C_4 
REMARK    2  A    between atoms: C_4  and  S_5 
REMARK    3  A    between atoms: S_5  and  C_6 
REMARK    4  A    between atoms: C_11  and  C_12 
REMARK    5  A    between atoms: C_12  and  C_13 
REMARK    6  A    between atoms: C_13  and  O_15 
ROOT
HETATM    1  C   UNL     1     -42.643 -50.760  12.743  1.00  0.00     0.147 C 
HETATM    2  N   UNL     1     -43.908 -50.646  12.952  1.00  0.00    -0.340 N 
ATOM      3  HN  UNL     1     -44.346 -49.732  13.065  1.00  0.00     0.167 HD
HETATM    4  C   UNL     1     -44.651 -51.807  13.019  1.00  0.00     0.019 C 
HETATM    5  C   UNL     1     -46.133 -51.595  13.186  1.00  0.00     0.069 C 
HETATM    6  C   UNL     1     -44.114 -53.041  12.953  1.00  0.00     0.042 C 
HETATM    7  C   UNL     1     -42.639 -53.118  12.857  1.00  0.00     0.256 C 
HETATM    8  O   UNL     1     -42.064 -54.187  13.039  1.00  0.00    -0.268 OA
HETATM    9  N   UNL     1     -41.994 -51.947  12.621  1.00  0.00    -0.303 N 
HETATM   10  H   UNL     1     -40.989 -51.946  12.545  1.00  0.00     0.171 HD
ENDROOT
BRANCH   1  11
HETATM   11  S   UNL     1     -41.570 -49.404  12.589  1.00  0.00    -0.089 SA
BRANCH  11  12
HETATM   12  C   UNL     1     -40.164 -50.197  11.759  1.00  0.00     0.115 C 
BRANCH  12  13
HETATM   13  C   UNL     1     -38.888 -49.440  12.052  1.00  0.00    -0.083 C 
HETATM   14  C   UNL     1     -37.642 -49.915  11.355  1.00  0.00     0.043 C 
HETATM   15  C   UNL     1     -38.843 -48.432  12.941  1.00  0.00     0.014 C 
ENDBRANCH  12  13
ENDBRANCH  11  12
ENDBRANCH   1  11
BRANCH   6  16
HETATM   16  C   UNL     1     -44.840 -54.356  12.934  1.00  0.00     0.156 C 
BRANCH  16  17
HETATM   17  C   UNL     1     -45.277 -54.797  14.314  1.00  0.00     0.143 C 
HETATM   18  O   UNL     1     -44.526 -54.816  15.281  1.00  0.00    -0.650 OA
BRANCH  17  19
HETATM   19  O   UNL     1     -46.581 -55.146  14.405  1.00  0.00    -0.776 OA
HETATM   20  H   UNL     1     -46.960 -55.530  13.579  1.00  0.00     0.167 HD
ENDBRANCH  17  19
ENDBRANCH  16  17
ENDBRANCH   6  16
TORSDOF 6
ENDMDL
MODEL 8
REMARK VINA RESULT:      -5.0      1.731      2.571
REMARK  6 active torsions:
REMARK  status: ('A' for Active; 'I' for Inactive)
REMARK    1  A    between atoms: C_2  and  C_4 
REMARK    2  A    between atoms: C_4  and  S_5 
REMARK    3  A    between atoms: S_5  and  C_6 
REMARK    4  A    between atoms: C_11  and  C_12 
REMARK    5  A    between atoms: C_12  and  C_13 
REMARK    6  A    between atoms: C_13  and  O_15 
ROOT
HETATM    1  C   UNL     1     -42.253 -49.594  11.756  1.00  0.00     0.147 C 
HETATM    2  N   UNL     1     -43.139 -49.618  12.690  1.00  0.00    -0.340 N 
ATOM      3  HN  UNL     1     -43.689 -48.791  12.919  1.00  0.00     0.167 HD
HETATM    4  C   UNL     1     -43.317 -50.806  13.369  1.00  0.00     0.019 C 
HETATM    5  C   UNL     1     -44.423 -50.784  14.392  1.00  0.00     0.069 C 
HETATM    6  C   UNL     1     -42.567 -51.905  13.160  1.00  0.00     0.042 C 
HETATM    7  C   UNL     1     -41.467 -51.779  12.176  1.00  0.00     0.256 C 
HETATM    8  O   UNL     1     -40.597 -52.644  12.111  1.00  0.00    -0.268 OA
HETATM    9  N   UNL     1     -41.463 -50.648  11.427  1.00  0.00    -0.303 N 
HETATM   10  H   UNL     1     -40.737 -50.516  10.741  1.00  0.00     0.171 HD
ENDROOT
BRANCH   1  11
HETATM   11  S   UNL     1     -41.931 -48.197  10.775  1.00  0.00    -0.089 SA
BRANCH  11  12
HETATM   12  C   UNL     1     -43.561 -47.401  10.804  1.00  0.00     0.115 C 
BRANCH  12  13
HETATM   13  C   UNL     1     -44.203 -47.470   9.436  1.00  0.00    -0.083 C 
HETATM   14  C   UNL     1     -45.707 -47.473   9.390  1.00  0.00     0.043 C 
HETATM   15  C   UNL     1     -43.476 -47.591   8.311  1.00  0.00     0.014 C 
ENDBRANCH  12  13
ENDBRANCH  11  12
ENDBRANCH   1  11
BRANCH   6  16
HETATM   16  C   UNL     1     -42.733 -53.261  13.785  1.00  0.00     0.156 C 
BRANCH  16  17
HETATM   17  C   UNL     1     -43.937 -54.004  13.248  1.00  0.00     0.143 C 
HETATM   18  O   UNL     1     -44.398 -53.813  12.129  1.00  0.00    -0.650 OA
BRANCH  17  19
HETATM   19  O   UNL     1     -44.453 -54.924  14.094  1.00  0.00    -0.776 OA
HETATM   20  H   UNL     1     -44.142 -55.847  13.933  1.00  0.00     0.167 HD
ENDBRANCH  17  19
ENDBRANCH  16  17
ENDBRANCH   6  16
TORSDOF 6
ENDMDL
MODEL 9
REMARK VINA RESULT:      -4.9      3.557      5.550
REMARK  6 active torsions:
REMARK  status: ('A' for Active; 'I' for Inactive)
REMARK    1  A    between atoms: C_2  and  C_4 
REMARK    2  A    between atoms: C_4  and  S_5 
REMARK    3  A    between atoms: S_5  and  C_6 
REMARK    4  A    between atoms: C_11  and  C_12 
REMARK    5  A    between atoms: C_12  and  C_13 
REMARK    6  A    between atoms: C_13  and  O_15 
ROOT
HETATM    1  C   UNL     1     -42.862 -49.224  12.623  1.00  0.00     0.147 C 
HETATM    2  N   UNL     1     -43.056 -48.237  13.428  1.00  0.00    -0.340 N 
ATOM      3  HN  UNL     1     -43.285 -48.391  14.409  1.00  0.00     0.167 HD
HETATM    4  C   UNL     1     -42.940 -46.962  12.912  1.00  0.00     0.019 C 
HETATM    5  C   UNL     1     -43.101 -45.859  13.925  1.00  0.00     0.069 C 
HETATM    6  C   UNL     1     -42.714 -46.702  11.610  1.00  0.00     0.042 C 
HETATM    7  C   UNL     1     -42.642 -47.870  10.703  1.00  0.00     0.256 C 
HETATM    8  O   UNL     1     -42.686 -47.709   9.486  1.00  0.00    -0.268 OA
HETATM    9  N   UNL     1     -42.590 -49.087  11.301  1.00  0.00    -0.303 N 
HETATM   10  H   UNL     1     -42.538 -49.914  10.727  1.00  0.00     0.171 HD
ENDROOT
BRANCH   1  11
HETATM   11  S   UNL     1     -42.926 -50.889  13.115  1.00  0.00    -0.089 SA
BRANCH  11  12
HETATM   12  C   UNL     1     -44.292 -50.821  14.307  1.00  0.00     0.115 C 
BRANCH  12  13
HETATM   13  C   UNL     1     -45.486 -51.585  13.780  1.00  0.00    -0.083 C 
HETATM   14  C   UNL     1     -46.792 -51.388  14.501  1.00  0.00     0.043 C 
HETATM   15  C   UNL     1     -45.384 -52.455  12.759  1.00  0.00     0.014 C 
ENDBRANCH  12  13
ENDBRANCH  11  12
ENDBRANCH   1  11
BRANCH   6  16
HETATM   16  C   UNL     1     -42.493 -45.361  10.969  1.00  0.00     0.156 C 
BRANCH  16  17
HETATM   17  C   UNL     1     -41.026 -45.045  10.778  1.00  0.00     0.143 C 
HETATM   18  O   UNL     1     -40.329 -44.540  11.649  1.00  0.00    -0.650 OA
BRANCH  17  19
HETATM   19  O   UNL     1     -40.530 -45.392   9.568  1.00  0.00    -0.776 OA
HETATM   20  H   UNL     1     -40.859 -44.840   8.818  1.00  0.00     0.167 HD
ENDBRANCH  17  19
ENDBRANCH  16  17
ENDBRANCH   6  16
TORSDOF 6
ENDMDL
