MODEL 1
REMARK VINA RESULT:      -6.3      0.000      0.000
REMARK  4 active torsions:
REMARK  status: ('A' for Active; 'I' for Inactive)
REMARK    1  A    between atoms: C_5  and  N_6 
REMARK       I    between atoms: N_6  and  C_7 
REMARK       I    between atoms: C_7  and  N_9 
REMARK    2  A    between atoms: N_9  and  C_10 
REMARK    3  A    between atoms: C_10  and  C_11 
REMARK    4  A    between atoms: C_14  and  C_16 
REMARK       I    between atoms: C_16  and  N_18 
ROOT
HETATM    1  N   UNL     1     -40.716 -50.806  11.325  1.00  0.00    -0.289 N 
HETATM    2  C   UNL     1     -41.464 -49.664  11.441  1.00  0.00     0.322 C 
HETATM    3  O   UNL     1     -42.120 -49.311  12.413  1.00  0.00    -0.247 OA
HETATM    4  N   UNL     1     -41.369 -48.875  10.312  1.00  0.00    -0.340 N 
HETATM    5  H   UNL     1     -40.026 -50.880  10.597  1.00  0.00     0.172 HD
HETATM    6  H   UNL     1     -41.098 -49.295   9.436  1.00  0.00     0.164 HD
ENDROOT
BRANCH   4   7
HETATM    7  C   UNL     1     -42.022 -47.577  10.248  1.00  0.00     0.156 C 
BRANCH   7   8
HETATM    8  C   UNL     1     -43.318 -47.586   9.438  1.00  0.00     0.140 C 
HETATM    9  C   UNL     1     -43.637 -46.319   8.659  1.00  0.00     0.036 C 
HETATM   10  C   UNL     1     -45.142 -46.157   8.781  1.00  0.00     0.044 C 
HETATM   11  C   UNL     1     -45.604 -47.370   9.573  1.00  0.00     0.213 C 
HETATM   12  O   UNL     1     -44.449 -47.812  10.305  1.00  0.00    -0.370 OA
BRANCH  11  13
HETATM   13  C   UNL     1     -46.175 -48.487   8.676  1.00  0.00     0.244 C 
HETATM   14  O   UNL     1     -46.140 -48.487   7.451  1.00  0.00    -0.271 OA
HETATM   15  N   UNL     1     -46.806 -49.490   9.360  1.00  0.00    -0.368 N 
HETATM   16  H   UNL     1     -46.645 -49.592  10.355  1.00  0.00     0.159 HD
HETATM   17  H   UNL     1     -47.127 -50.289   8.829  1.00  0.00     0.159 HD
ENDBRANCH  11  13
ENDBRANCH   7   8
ENDBRANCH   4   7
BRANCH   1  18
HETATM   18  C   UNL     1     -40.649 -51.714  12.345  1.00  0.00     0.152 A 
HETATM   19  S   UNL     1     -39.250 -51.598  13.314  1.00  0.00    -0.064 SA
HETATM   20  C   UNL     1     -39.862 -52.859  14.309  1.00  0.00     0.077 A 
HETATM   21  C   UNL     1     -41.067 -53.313  13.803  1.00  0.00     0.014 A 
HETATM   22  C   UNL     1     -41.917 -54.407  14.336  1.00  0.00     0.068 C 
HETATM   23  N   UNL     1     -41.501 -52.647  12.673  1.00  0.00    -0.340 N 
ATOM     24  HN  UNL     1     -42.362 -52.855  12.168  1.00  0.00     0.167 HD
ENDBRANCH   1  18
TORSDOF 4
ENDMDL
MODEL 2
REMARK VINA RESULT:      -6.2      2.700      3.371
REMARK  4 active torsions:
REMARK  status: ('A' for Active; 'I' for Inactive)
REMARK    1  A    between atoms: C_5  and  N_6 
REMARK       I    between atoms: N_6  and  C_7 
REMARK       I    between atoms: C_7  and  N_9 
REMARK    2  A    between atoms: N_9  and  C_10 
REMARK    3  A    between atoms: C_10  and  C_11 
REMARK    4  A    between atoms: C_14  and  C_16 
REMARK       I    between atoms: C_16  and  N_18 
ROOT
HETATM    1  N   UNL     1     -42.097 -52.367  11.793  1.00  0.00    -0.289 N 
HETATM    2  C   UNL     1     -41.520 -51.178  12.155  1.00  0.00     0.322 C 
HETATM    3  O   UNL     1     -41.441 -50.713  13.286  1.00  0.00    -0.247 OA
HETATM    4  N   UNL     1     -40.959 -50.533  11.071  1.00  0.00    -0.340 N 
HETATM    5  H   UNL     1     -41.892 -52.770  10.895  1.00  0.00     0.172 HD
HETATM    6  H   UNL     1     -41.285 -50.751  10.142  1.00  0.00     0.164 HD
ENDROOT
BRANCH   4   7
HETATM    7  C   UNL     1     -40.224 -49.289  11.237  1.00  0.00     0.156 C 
BRANCH   7   8
HETATM    8  C   UNL     1     -41.084 -48.042  11.034  1.00  0.00     0.140 C 
HETATM    9  C   UNL     1     -41.577 -47.348  12.296  1.00  0.00     0.036 C 
HETATM   10  C   UNL     1     -42.986 -46.891  11.962  1.00  0.00     0.044 C 
HETATM   11  C   UNL     1     -43.197 -47.297  10.513  1.00  0.00     0.213 C 
HETATM   12  O   UNL     1     -42.268 -48.367  10.275  1.00  0.00    -0.370 OA
BRANCH  11  13
HETATM   13  C   UNL     1     -42.989 -46.129   9.527  1.00  0.00     0.244 C 
HETATM   14  O   UNL     1     -42.872 -44.953   9.852  1.00  0.00    -0.271 OA
HETATM   15  N   UNL     1     -43.007 -46.495   8.209  1.00  0.00    -0.368 N 
HETATM   16  H   UNL     1     -42.889 -47.470   7.962  1.00  0.00     0.159 HD
HETATM   17  H   UNL     1     -42.794 -45.783   7.523  1.00  0.00     0.159 HD
ENDBRANCH  11  13
ENDBRANCH   7   8
ENDBRANCH   4   7
BRANCH   1  18
HETATM   18  C   UNL     1     -42.688 -53.178  12.723  1.00  0.00     0.152 A 
HETATM   19  S   UNL     1     -44.379 -53.338  12.560  1.00  0.00    -0.064 SA
HETATM   20  C   UNL     1     -44.377 -54.443  13.877  1.00  0.00     0.077 A 
HETATM   21  C   UNL     1     -43.095 -54.574  14.379  1.00  0.00     0.014 A 
HETATM   22  C   UNL     1     -42.654 -55.403  15.528  1.00  0.00     0.068 C 
HETATM   23  N   UNL     1     -42.139 -53.837  13.707  1.00  0.00    -0.340 N 
ATOM     24  HN  UNL     1     -41.148 -53.812  13.945  1.00  0.00     0.167 HD
ENDBRANCH   1  18
TORSDOF 4
ENDMDL
MODEL 3
REMARK VINA RESULT:      -6.2      3.248      6.585
REMARK  4 active torsions:
REMARK  status: ('A' for Active; 'I' for Inactive)
REMARK    1  A    between atoms: C_5  and  N_6 
REMARK       I    between atoms: N_6  and  C_7 
REMARK       I    between atoms: C_7  and  N_9 
REMARK    2  A    between atoms: N_9  and  C_10 
REMARK    3  A    between atoms: C_10  and  C_11 
REMARK    4  A    between atoms: C_14  and  C_16 
REMARK       I    between atoms: C_16  and  N_18 
ROOT
HETATM    1  N   UNL     1     -41.297 -49.190  10.410  1.00  0.00    -0.289 N 
HETATM    2  C   UNL     1     -41.136 -49.888  11.579  1.00  0.00     0.322 C 
HETATM    3  O   UNL     1     -41.102 -49.426  12.713  1.00  0.00    -0.247 OA
HETATM    4  N   UNL     1     -41.056 -51.248  11.352  1.00  0.00    -0.340 N 
HETATM    5  H   UNL     1     -41.559 -49.675   9.570  1.00  0.00     0.172 HD
HETATM    6  H   UNL     1     -40.779 -51.583  10.442  1.00  0.00     0.164 HD
ENDROOT
BRANCH   4   7
HETATM    7  C   UNL     1     -40.960 -52.187  12.459  1.00  0.00     0.156 C 
BRANCH   7   8
HETATM    8  C   UNL     1     -42.316 -52.572  13.050  1.00  0.00     0.140 C 
HETATM    9  C   UNL     1     -42.302 -53.650  14.124  1.00  0.00     0.036 C 
HETATM   10  C   UNL     1     -43.548 -54.477  13.859  1.00  0.00     0.044 C 
HETATM   11  C   UNL     1     -44.231 -53.793  12.687  1.00  0.00     0.213 C 
HETATM   12  O   UNL     1     -43.195 -53.059  12.014  1.00  0.00    -0.370 OA
BRANCH  11  13
HETATM   13  C   UNL     1     -45.391 -52.875  13.123  1.00  0.00     0.244 C 
HETATM   14  O   UNL     1     -45.767 -52.726  14.280  1.00  0.00    -0.271 OA
HETATM   15  N   UNL     1     -46.043 -52.261  12.089  1.00  0.00    -0.368 N 
HETATM   16  H   UNL     1     -45.601 -52.219  11.178  1.00  0.00     0.159 HD
HETATM   17  H   UNL     1     -46.758 -51.585  12.321  1.00  0.00     0.159 HD
ENDBRANCH  11  13
ENDBRANCH   7   8
ENDBRANCH   4   7
BRANCH   1  18
HETATM   18  C   UNL     1     -41.426 -47.828  10.414  1.00  0.00     0.152 A 
HETATM   19  S   UNL     1     -43.000 -47.259  10.085  1.00  0.00    -0.064 SA
HETATM   20  C   UNL     1     -42.443 -45.650  10.322  1.00  0.00     0.077 A 
HETATM   21  C   UNL     1     -41.085 -45.657  10.585  1.00  0.00     0.014 A 
HETATM   22  C   UNL     1     -40.203 -44.487  10.822  1.00  0.00     0.068 C 
HETATM   23  N   UNL     1     -40.517 -46.916  10.630  1.00  0.00    -0.340 N 
ATOM     24  HN  UNL     1     -39.531 -47.105  10.806  1.00  0.00     0.167 HD
ENDBRANCH   1  18
TORSDOF 4
ENDMDL
MODEL 4
REMARK VINA RESULT:      -6.1      2.359      2.972
REMARK  4 active torsions:
REMARK  status: ('A' for Active; 'I' for Inactive)
REMARK    1  A    between atoms: C_5  and  N_6 
REMARK       I    between atoms: N_6  and  C_7 
REMARK       I    between atoms: C_7  and  N_9 
REMARK    2  A    between atoms: N_9  and  C_10 
REMARK    3  A    between atoms: C_10  and  C_11 
REMARK    4  A    between atoms: C_14  and  C_16 
REMARK       I    between atoms: C_16  and  N_18 
ROOT
HETATM    1  N   UNL     1     -40.882 -51.508  11.466  1.00  0.00    -0.289 N 
HETATM    2  C   UNL     1     -40.836 -50.226  11.947  1.00  0.00     0.322 C 
HETATM    3  O   UNL     1     -41.390 -49.797  12.952  1.00  0.00    -0.247 OA
HETATM    4  N   UNL     1     -40.022 -49.421  11.175  1.00  0.00    -0.340 N 
HETATM    5  H   UNL     1     -40.204 -51.813  10.790  1.00  0.00     0.172 HD
HETATM    6  H   UNL     1     -39.832 -49.681  10.219  1.00  0.00     0.164 HD
ENDROOT
BRANCH   4   7
HETATM    7  C   UNL     1     -39.767 -48.038  11.545  1.00  0.00     0.156 C 
BRANCH   7   8
HETATM    8  C   UNL     1     -40.689 -47.039  10.844  1.00  0.00     0.140 C 
HETATM    9  C   UNL     1     -40.120 -45.648  10.606  1.00  0.00     0.036 C 
HETATM   10  C   UNL     1     -41.288 -44.707  10.842  1.00  0.00     0.044 C 
HETATM   11  C   UNL     1     -42.469 -45.614  11.146  1.00  0.00     0.213 C 
HETATM   12  O   UNL     1     -41.895 -46.846  11.612  1.00  0.00    -0.370 OA
BRANCH  11  13
HETATM   13  C   UNL     1     -43.383 -45.836   9.923  1.00  0.00     0.244 C 
HETATM   14  O   UNL     1     -43.353 -45.165   8.898  1.00  0.00    -0.271 OA
HETATM   15  N   UNL     1     -44.310 -46.828  10.086  1.00  0.00    -0.368 N 
HETATM   16  H   UNL     1     -44.188 -47.504  10.830  1.00  0.00     0.159 HD
HETATM   17  H   UNL     1     -44.881 -47.071   9.287  1.00  0.00     0.159 HD
ENDBRANCH  11  13
ENDBRANCH   7   8
ENDBRANCH   4   7
BRANCH   1  18
HETATM   18  C   UNL     1     -41.611 -52.475  12.102  1.00  0.00     0.152 A 
HETATM   19  S   UNL     1     -40.700 -53.513  13.105  1.00  0.00    -0.064 SA
HETATM   20  C   UNL     1     -42.154 -54.306  13.564  1.00  0.00     0.077 A 
HETATM   21  C   UNL     1     -43.225 -53.757  12.883  1.00  0.00     0.014 A 
HETATM   22  C   UNL     1     -44.651 -54.162  12.960  1.00  0.00     0.068 C 
HETATM   23  N   UNL     1     -42.894 -52.709  12.045  1.00  0.00    -0.340 N 
ATOM     24  HN  UNL     1     -43.556 -52.194  11.465  1.00  0.00     0.167 HD
ENDBRANCH   1  18
TORSDOF 4
ENDMDL
MODEL 5
REMARK VINA RESULT:      -6.0      3.671      6.825
REMARK  4 active torsions:
REMARK  status: ('A' for Active; 'I' for Inactive)
REMARK    1  A    between atoms: C_5  and  N_6 
REMARK       I    between atoms: N_6  and  C_7 
REMARK       I    between atoms: C_7  and  N_9 
REMARK    2  A    between atoms: N_9  and  C_10 
REMARK    3  A    between atoms: C_10  and  C_11 
REMARK    4  A    between atoms: C_14  and  C_16 
REMARK       I    between atoms: C_16  and  N_18 
ROOT
HETATM    1  N   UNL     1     -41.968 -49.128  10.775  1.00  0.00    -0.289 N 
HETATM    2  C   UNL     1     -41.858 -49.722  12.005  1.00  0.00     0.322 C 
HETATM    3  O   UNL     1     -41.567 -49.176  13.063  1.00  0.00    -0.247 OA
HETATM    4  N   UNL     1     -42.169 -51.066  11.951  1.00  0.00    -0.340 N 
HETATM    5  H   UNL     1     -42.447 -49.603  10.031  1.00  0.00     0.172 HD
HETATM    6  H   UNL     1     -42.102 -51.555  11.071  1.00  0.00     0.164 HD
ENDROOT
BRANCH   4   7
HETATM    7  C   UNL     1     -42.193 -51.879  13.157  1.00  0.00     0.156 C 
BRANCH   7   8
HETATM    8  C   UNL     1     -43.599 -52.315  13.570  1.00  0.00     0.140 C 
HETATM    9  C   UNL     1     -44.505 -51.229  14.133  1.00  0.00     0.036 C 
HETATM   10  C   UNL     1     -45.283 -51.911  15.244  1.00  0.00     0.044 C 
HETATM   11  C   UNL     1     -44.822 -53.358  15.215  1.00  0.00     0.213 C 
HETATM   12  O   UNL     1     -43.530 -53.337  14.586  1.00  0.00    -0.370 OA
BRANCH  11  13
HETATM   13  C   UNL     1     -45.804 -54.285  14.470  1.00  0.00     0.244 C 
HETATM   14  O   UNL     1     -45.531 -55.407  14.059  1.00  0.00    -0.271 OA
HETATM   15  N   UNL     1     -47.031 -53.730  14.232  1.00  0.00    -0.368 N 
HETATM   16  H   UNL     1     -47.315 -52.908  14.753  1.00  0.00     0.159 HD
HETATM   17  H   UNL     1     -47.741 -54.321  13.820  1.00  0.00     0.159 HD
ENDBRANCH  11  13
ENDBRANCH   7   8
ENDBRANCH   4   7
BRANCH   1  18
HETATM   18  C   UNL     1     -41.729 -47.791  10.613  1.00  0.00     0.152 A 
HETATM   19  S   UNL     1     -43.129 -46.835  10.416  1.00  0.00    -0.064 SA
HETATM   20  C   UNL     1     -42.135 -45.433  10.362  1.00  0.00     0.077 A 
HETATM   21  C   UNL     1     -40.804 -45.797  10.448  1.00  0.00     0.014 A 
HETATM   22  C   UNL     1     -39.617 -44.906  10.411  1.00  0.00     0.068 C 
HETATM   23  N   UNL     1     -40.589 -47.155  10.588  1.00  0.00    -0.340 N 
ATOM     24  HN  UNL     1     -39.673 -47.597  10.660  1.00  0.00     0.167 HD
ENDBRANCH   1  18
TORSDOF 4
ENDMDL
MODEL 6
REMARK VINA RESULT:      -6.0      3.572      7.121
REMARK  4 active torsions:
REMARK  status: ('A' for Active; 'I' for Inactive)
REMARK    1  A    between atoms: C_5  and  N_6 
REMARK       I    between atoms: N_6  and  C_7 
REMARK       I    between atoms: C_7  and  N_9 
REMARK    2  A    between atoms: N_9  and  C_10 
REMARK    3  A    between atoms: C_10  and  C_11 
REMARK    4  A    between atoms: C_14  and  C_16 
REMARK       I    between atoms: C_16  and  N_18 
ROOT
HETATM    1  N   UNL     1     -41.298 -49.291  10.529  1.00  0.00    -0.289 N 
HETATM    2  C   UNL     1     -40.837 -50.010  11.601  1.00  0.00     0.322 C 
HETATM    3  O   UNL     1     -40.422 -49.563  12.664  1.00  0.00    -0.247 OA
HETATM    4  N   UNL     1     -40.930 -51.370  11.380  1.00  0.00    -0.340 N 
HETATM    5  H   UNL     1     -41.840 -49.747   9.817  1.00  0.00     0.172 HD
HETATM    6  H   UNL     1     -40.972 -51.716  10.433  1.00  0.00     0.164 HD
ENDROOT
BRANCH   4   7
HETATM    7  C   UNL     1     -40.568 -52.324  12.416  1.00  0.00     0.156 C 
BRANCH   7   8
HETATM    8  C   UNL     1     -41.760 -53.107  12.967  1.00  0.00     0.140 C 
HETATM    9  C   UNL     1     -43.127 -52.733  12.414  1.00  0.00     0.036 C 
HETATM   10  C   UNL     1     -44.066 -52.830  13.603  1.00  0.00     0.044 C 
HETATM   11  C   UNL     1     -43.195 -53.308  14.753  1.00  0.00     0.213 C 
HETATM   12  O   UNL     1     -41.853 -52.938  14.397  1.00  0.00    -0.370 OA
BRANCH  11  13
HETATM   13  C   UNL     1     -43.322 -54.824  15.009  1.00  0.00     0.244 C 
HETATM   14  O   UNL     1     -44.256 -55.521  14.630  1.00  0.00    -0.271 OA
HETATM   15  N   UNL     1     -42.316 -55.352  15.771  1.00  0.00    -0.368 N 
HETATM   16  H   UNL     1     -41.457 -54.828  15.893  1.00  0.00     0.159 HD
HETATM   17  H   UNL     1     -42.304 -56.355  15.901  1.00  0.00     0.159 HD
ENDBRANCH  11  13
ENDBRANCH   7   8
ENDBRANCH   4   7
BRANCH   1  18
HETATM   18  C   UNL     1     -41.318 -47.923  10.553  1.00  0.00     0.152 A 
HETATM   19  S   UNL     1     -42.879 -47.233  10.529  1.00  0.00    -0.064 SA
HETATM   20  C   UNL     1     -42.165 -45.674  10.650  1.00  0.00     0.077 A 
HETATM   21  C   UNL     1     -40.786 -45.787  10.650  1.00  0.00     0.014 A 
HETATM   22  C   UNL     1     -39.788 -44.690  10.711  1.00  0.00     0.068 C 
HETATM   23  N   UNL     1     -40.318 -47.085  10.590  1.00  0.00    -0.340 N 
ATOM     24  HN  UNL     1     -39.334 -47.351  10.576  1.00  0.00     0.167 HD
ENDBRANCH   1  18
TORSDOF 4
ENDMDL
MODEL 7
REMARK VINA RESULT:      -5.9      3.112      4.356
REMARK  4 active torsions:
REMARK  status: ('A' for Active; 'I' for Inactive)
REMARK    1  A    between atoms: C_5  and  N_6 
REMARK       I    between atoms: N_6  and  C_7 
REMARK       I    between atoms: C_7  and  N_9 
REMARK    2  A    between atoms: N_9  and  C_10 
REMARK    3  A    between atoms: C_10  and  C_11 
REMARK    4  A    between atoms: C_14  and  C_16 
REMARK       I    between atoms: C_16  and  N_18 
ROOT
HETATM    1  N   UNL     1     -40.577 -49.783  10.734  1.00  0.00    -0.289 N 
HETATM    2  C   UNL     1     -41.586 -48.871  10.907  1.00  0.00     0.322 C 
HETATM    3  O   UNL     1     -42.428 -48.866  11.796  1.00  0.00    -0.247 OA
HETATM    4  N   UNL     1     -41.537 -47.871   9.956  1.00  0.00    -0.340 N 
HETATM    5  H   UNL     1     -39.802 -49.564  10.133  1.00  0.00     0.172 HD
HETATM    6  H   UNL     1     -41.063 -48.041   9.082  1.00  0.00     0.164 HD
ENDROOT
BRANCH   4   7
HETATM    7  C   UNL     1     -42.467 -46.754   9.995  1.00  0.00     0.156 C 
BRANCH   7   8
HETATM    8  C   UNL     1     -41.822 -45.440  10.437  1.00  0.00     0.140 C 
HETATM    9  C   UNL     1     -40.302 -45.395  10.422  1.00  0.00     0.036 C 
HETATM   10  C   UNL     1     -39.926 -44.583  11.648  1.00  0.00     0.044 C 
HETATM   11  C   UNL     1     -41.251 -44.163  12.262  1.00  0.00     0.213 C 
HETATM   12  O   UNL     1     -42.214 -45.118  11.788  1.00  0.00    -0.370 OA
BRANCH  11  13
HETATM   13  C   UNL     1     -41.649 -42.719  11.893  1.00  0.00     0.244 C 
HETATM   14  O   UNL     1     -42.782 -42.260  11.988  1.00  0.00    -0.271 OA
HETATM   15  N   UNL     1     -40.630 -41.969  11.372  1.00  0.00    -0.368 N 
HETATM   16  H   UNL     1     -39.673 -42.277  11.497  1.00  0.00     0.159 HD
HETATM   17  H   UNL     1     -40.814 -40.992  11.189  1.00  0.00     0.159 HD
ENDBRANCH  11  13
ENDBRANCH   7   8
ENDBRANCH   4   7
BRANCH   1  18
HETATM   18  C   UNL     1     -40.428 -50.842  11.587  1.00  0.00     0.152 A 
HETATM   19  S   UNL     1     -39.227 -50.633  12.781  1.00  0.00    -0.064 SA
HETATM   20  C   UNL     1     -39.647 -52.165  13.438  1.00  0.00     0.077 A 
HETATM   21  C   UNL     1     -40.639 -52.749  12.671  1.00  0.00     0.014 A 
HETATM   22  C   UNL     1     -41.269 -54.079  12.867  1.00  0.00     0.068 C 
HETATM   23  N   UNL     1     -41.072 -51.977  11.610  1.00  0.00    -0.340 N 
ATOM     24  HN  UNL     1     -41.791 -52.254  10.942  1.00  0.00     0.167 HD
ENDBRANCH   1  18
TORSDOF 4
ENDMDL
MODEL 8
REMARK VINA RESULT:      -5.8      3.848      7.442
REMARK  4 active torsions:
REMARK  status: ('A' for Active; 'I' for Inactive)
REMARK    1  A    between atoms: C_5  and  N_6 
REMARK       I    between atoms: N_6  and  C_7 
REMARK       I    between atoms: C_7  and  N_9 
REMARK    2  A    between atoms: N_9  and  C_10 
REMARK    3  A    between atoms: C_10  and  C_11 
REMARK    4  A    between atoms: C_14  and  C_16 
REMARK       I    between atoms: C_16  and  N_18 
ROOT
HETATM    1  N   UNL     1     -40.699 -48.346  10.722  1.00  0.00    -0.289 N 
HETATM    2  C   UNL     1     -39.966 -48.900  11.739  1.00  0.00     0.322 C 
HETATM    3  O   UNL     1     -39.570 -48.335  12.752  1.00  0.00    -0.247 OA
HETATM    4  N   UNL     1     -39.740 -50.245  11.530  1.00  0.00    -0.340 N 
HETATM    5  H   UNL     1     -41.180 -48.941  10.071  1.00  0.00     0.172 HD
HETATM    6  H   UNL     1     -39.791 -50.616  10.593  1.00  0.00     0.164 HD
ENDROOT
BRANCH   4   7
HETATM    7  C   UNL     1     -39.047 -51.052  12.523  1.00  0.00     0.156 C 
BRANCH   7   8
HETATM    8  C   UNL     1     -39.937 -52.110  13.176  1.00  0.00     0.140 C 
HETATM    9  C   UNL     1     -39.285 -52.973  14.247  1.00  0.00     0.036 C 
HETATM   10  C   UNL     1     -39.871 -54.358  14.038  1.00  0.00     0.044 C 
HETATM   11  C   UNL     1     -40.864 -54.197  12.900  1.00  0.00     0.213 C 
HETATM   12  O   UNL     1     -40.438 -53.028  12.181  1.00  0.00    -0.370 OA
BRANCH  11  13
HETATM   13  C   UNL     1     -42.321 -54.066  13.391  1.00  0.00     0.244 C 
HETATM   14  O   UNL     1     -42.701 -54.322  14.528  1.00  0.00    -0.271 OA
HETATM   15  N   UNL     1     -43.210 -53.692  12.422  1.00  0.00    -0.368 N 
HETATM   16  H   UNL     1     -42.866 -53.282  11.562  1.00  0.00     0.159 HD
HETATM   17  H   UNL     1     -44.164 -53.512  12.706  1.00  0.00     0.159 HD
ENDBRANCH  11  13
ENDBRANCH   7   8
ENDBRANCH   4   7
BRANCH   1  18
HETATM   18  C   UNL     1     -41.057 -47.026  10.747  1.00  0.00     0.152 A 
HETATM   19  S   UNL     1     -42.727 -46.736  10.550  1.00  0.00    -0.064 SA
HETATM   20  C   UNL     1     -42.435 -45.054  10.755  1.00  0.00     0.077 A 
HETATM   21  C   UNL     1     -41.080 -44.828  10.910  1.00  0.00     0.014 A 
HETATM   22  C   UNL     1     -40.394 -43.523  11.086  1.00  0.00     0.068 C 
HETATM   23  N   UNL     1     -40.303 -45.971  10.899  1.00  0.00    -0.340 N 
ATOM     24  HN  UNL     1     -39.288 -45.988  10.995  1.00  0.00     0.167 HD
ENDBRANCH   1  18
TORSDOF 4
ENDMDL
MODEL 9
REMARK VINA RESULT:      -5.7      3.203      3.940
REMARK  4 active torsions:
REMARK  status: ('A' for Active; 'I' for Inactive)
REMARK    1  A    between atoms: C_5  and  N_6 
REMARK       I    between atoms: N_6  and  C_7 
REMARK       I    between atoms: C_7  and  N_9 
REMARK    2  A    between atoms: N_9  and  C_10 
REMARK    3  A    between atoms: C_10  and  C_11 
REMARK    4  A    between atoms: C_14  and  C_16 
REMARK       I    between atoms: C_16  and  N_18 
ROOT
HETATM    1  N   UNL     1     -43.679 -52.031  12.585  1.00  0.00    -0.289 N 
HETATM    2  C   UNL     1     -43.047 -50.830  12.773  1.00  0.00     0.322 C 
HETATM    3  O   UNL     1     -43.260 -50.018  13.665  1.00  0.00    -0.247 OA
HETATM    4  N   UNL     1     -42.055 -50.624  11.835  1.00  0.00    -0.340 N 
HETATM    5  H   UNL     1     -43.268 -52.724  11.985  1.00  0.00     0.172 HD
HETATM    6  H   UNL     1     -42.093 -51.120  10.957  1.00  0.00     0.164 HD
ENDROOT
BRANCH   4   7
HETATM    7  C   UNL     1     -41.203 -49.446  11.891  1.00  0.00     0.156 C 
BRANCH   7   8
HETATM    8  C   UNL     1     -41.606 -48.355  10.899  1.00  0.00     0.140 C 
HETATM    9  C   UNL     1     -40.809 -47.061  10.958  1.00  0.00     0.036 C 
HETATM   10  C   UNL     1     -41.830 -45.965  10.713  1.00  0.00     0.044 C 
HETATM   11  C   UNL     1     -43.140 -46.696  10.470  1.00  0.00     0.213 C 
HETATM   12  O   UNL     1     -42.984 -47.980  11.098  1.00  0.00    -0.370 OA
BRANCH  11  13
HETATM   13  C   UNL     1     -43.482 -46.831   8.972  1.00  0.00     0.244 C 
HETATM   14  O   UNL     1     -43.097 -46.065   8.096  1.00  0.00    -0.271 OA
HETATM   15  N   UNL     1     -44.329 -47.865   8.679  1.00  0.00    -0.368 N 
HETATM   16  H   UNL     1     -44.464 -48.604   9.357  1.00  0.00     0.159 HD
HETATM   17  H   UNL     1     -44.521 -48.050   7.703  1.00  0.00     0.159 HD
ENDBRANCH  11  13
ENDBRANCH   7   8
ENDBRANCH   4   7
BRANCH   1  18
HETATM   18  C   UNL     1     -44.678 -52.442  13.424  1.00  0.00     0.152 A 
HETATM   19  S   UNL     1     -44.883 -54.134  13.514  1.00  0.00    -0.064 SA
HETATM   20  C   UNL     1     -46.115 -53.898  14.690  1.00  0.00     0.077 A 
HETATM   21  C   UNL     1     -46.317 -52.545  14.894  1.00  0.00     0.014 A 
HETATM   22  C   UNL     1     -47.303 -51.904  15.800  1.00  0.00     0.068 C 
HETATM   23  N   UNL     1     -45.486 -51.724  14.156  1.00  0.00    -0.340 N 
ATOM     24  HN  UNL     1     -45.502 -50.705  14.179  1.00  0.00     0.167 HD
ENDBRANCH   1  18
TORSDOF 4
ENDMDL
