MODEL 1
REMARK VINA RESULT:      -5.9      0.000      0.000
REMARK  6 active torsions:
REMARK  status: ('A' for Active; 'I' for Inactive)
REMARK    1  A    between atoms: C_2  and  S_5 
REMARK    2  A    between atoms: S_5  and  C_6 
REMARK    3  A    between atoms: C_6  and  C_7 
REMARK    4  A    between atoms: C_7  and  N_8 
REMARK       I    between atoms: N_8  and  C_9 
REMARK    5  A    between atoms: C_9  and  C_11 
REMARK    6  A    between atoms: C_11  and  N_12 
ROOT
HETATM    1  N   UNL     1     -42.262 -48.919  11.048  1.00  0.00    -0.359 N 
HETATM    2  C   UNL     1     -42.001 -48.799  12.396  1.00  0.00     0.235 C 
HETATM    3  O   UNL     1     -42.098 -47.734  13.004  1.00  0.00    -0.272 OA
HETATM    4  H   UNL     1     -42.171 -49.829  10.603  1.00  0.00     0.162 HD
ENDROOT
BRANCH   2   5
HETATM    5  C   UNL     1     -41.650 -50.105  13.103  1.00  0.00     0.235 C 
BRANCH   5   6
HETATM    6  N   UNL     1     -42.676 -51.123  12.891  1.00  0.00    -0.301 N 
HETATM    7  C   UNL     1     -43.945 -50.931  13.398  1.00  0.00     0.102 A 
HETATM    8  C   UNL     1     -44.894 -51.865  13.295  1.00  0.00     0.092 A 
HETATM    9  C   UNL     1     -44.565 -53.137  12.631  1.00  0.00     0.250 A 
HETATM   10  O   UNL     1     -45.369 -54.061  12.599  1.00  0.00    -0.268 OA
HETATM   11  N   UNL     1     -43.324 -53.208  12.066  1.00  0.00    -0.275 N 
HETATM   12  C   UNL     1     -42.338 -52.260  12.172  1.00  0.00     0.329 A 
HETATM   13  H   UNL     1     -43.083 -54.067  11.599  1.00  0.00     0.173 HD
HETATM   14  O   UNL     1     -41.234 -52.441  11.662  1.00  0.00    -0.246 OA
ENDBRANCH   5   6
ENDBRANCH   2   5
BRANCH   1  15
HETATM   15  C   UNL     1     -42.601 -47.776  10.220  1.00  0.00     0.133 C 
BRANCH  15  16
HETATM   16  C   UNL     1     -44.102 -47.469  10.195  1.00  0.00     0.102 C 
BRANCH  16  17
HETATM   17  S   UNL     1     -44.741 -47.469   8.487  1.00  0.00    -0.054 SA
BRANCH  17  18
HETATM   18  C   UNL     1     -46.357 -48.176   8.797  1.00  0.00     0.443 C 
HETATM   19  F   UNL     1     -46.782 -48.972   7.789  1.00  0.00    -0.160 F 
HETATM   20  F   UNL     1     -47.286 -47.205   8.959  1.00  0.00    -0.160 F 
HETATM   21  F   UNL     1     -46.350 -48.923   9.924  1.00  0.00    -0.160 F 
ENDBRANCH  17  18
ENDBRANCH  16  17
ENDBRANCH  15  16
ENDBRANCH   1  15
TORSDOF 6
ENDMDL
MODEL 2
REMARK VINA RESULT:      -5.5      3.227      4.962
REMARK  6 active torsions:
REMARK  status: ('A' for Active; 'I' for Inactive)
REMARK    1  A    between atoms: C_2  and  S_5 
REMARK    2  A    between atoms: S_5  and  C_6 
REMARK    3  A    between atoms: C_6  and  C_7 
REMARK    4  A    between atoms: C_7  and  N_8 
REMARK       I    between atoms: N_8  and  C_9 
REMARK    5  A    between atoms: C_9  and  C_11 
REMARK    6  A    between atoms: C_11  and  N_12 
ROOT
HETATM    1  N   UNL     1     -42.125 -52.112  12.836  1.00  0.00    -0.359 N 
HETATM    2  C   UNL     1     -42.143 -51.089  13.760  1.00  0.00     0.235 C 
HETATM    3  O   UNL     1     -42.799 -51.138  14.798  1.00  0.00    -0.272 OA
HETATM    4  H   UNL     1     -41.556 -52.017  11.998  1.00  0.00     0.162 HD
ENDROOT
BRANCH   2   5
HETATM    5  C   UNL     1     -41.226 -49.913  13.435  1.00  0.00     0.235 C 
BRANCH   5   6
HETATM    6  N   UNL     1     -41.699 -49.170  12.269  1.00  0.00    -0.301 N 
HETATM    7  C   UNL     1     -42.875 -48.452  12.346  1.00  0.00     0.102 A 
HETATM    8  C   UNL     1     -43.385 -47.819  11.286  1.00  0.00     0.092 A 
HETATM    9  C   UNL     1     -42.672 -47.904  10.002  1.00  0.00     0.250 A 
HETATM   10  O   UNL     1     -43.149 -47.425   8.980  1.00  0.00    -0.268 OA
HETATM   11  N   UNL     1     -41.466 -48.544  10.033  1.00  0.00    -0.275 N 
HETATM   12  C   UNL     1     -40.935 -49.205  11.112  1.00  0.00     0.329 A 
HETATM   13  H   UNL     1     -40.959 -48.605   9.165  1.00  0.00     0.173 HD
HETATM   14  O   UNL     1     -39.858 -49.790  11.023  1.00  0.00    -0.246 OA
ENDBRANCH   5   6
ENDBRANCH   2   5
BRANCH   1  15
HETATM   15  C   UNL     1     -42.944 -53.302  12.982  1.00  0.00     0.133 C 
BRANCH  15  16
HETATM   16  C   UNL     1     -44.305 -53.190  12.286  1.00  0.00     0.102 C 
BRANCH  16  17
HETATM   17  S   UNL     1     -45.661 -53.166  13.504  1.00  0.00    -0.054 SA
BRANCH  17  18
HETATM   18  C   UNL     1     -46.305 -51.529  13.169  1.00  0.00     0.443 C 
HETATM   19  F   UNL     1     -47.093 -51.491  12.069  1.00  0.00    -0.160 F 
HETATM   20  F   UNL     1     -45.299 -50.646  12.971  1.00  0.00    -0.160 F 
HETATM   21  F   UNL     1     -47.043 -51.077  14.208  1.00  0.00    -0.160 F 
ENDBRANCH  17  18
ENDBRANCH  16  17
ENDBRANCH  15  16
ENDBRANCH   1  15
TORSDOF 6
ENDMDL
MODEL 3
REMARK VINA RESULT:      -5.5      2.956      4.508
REMARK  6 active torsions:
REMARK  status: ('A' for Active; 'I' for Inactive)
REMARK    1  A    between atoms: C_2  and  S_5 
REMARK    2  A    between atoms: S_5  and  C_6 
REMARK    3  A    between atoms: C_6  and  C_7 
REMARK    4  A    between atoms: C_7  and  N_8 
REMARK       I    between atoms: N_8  and  C_9 
REMARK    5  A    between atoms: C_9  and  C_11 
REMARK    6  A    between atoms: C_11  and  N_12 
ROOT
HETATM    1  N   UNL     1     -42.362 -52.291  11.780  1.00  0.00    -0.359 N 
HETATM    2  C   UNL     1     -42.917 -53.107  12.743  1.00  0.00     0.235 C 
HETATM    3  O   UNL     1     -42.375 -53.331  13.823  1.00  0.00    -0.272 OA
HETATM    4  H   UNL     1     -42.863 -52.139  10.908  1.00  0.00     0.162 HD
ENDROOT
BRANCH   2   5
HETATM    5  C   UNL     1     -44.297 -53.660  12.399  1.00  0.00     0.235 C 
BRANCH   5   6
HETATM    6  N   UNL     1     -45.307 -53.220  13.359  1.00  0.00    -0.301 N 
HETATM    7  C   UNL     1     -45.726 -51.905  13.357  1.00  0.00     0.102 A 
HETATM    8  C   UNL     1     -46.590 -51.439  14.263  1.00  0.00     0.092 A 
HETATM    9  C   UNL     1     -47.095 -52.358  15.295  1.00  0.00     0.250 A 
HETATM   10  O   UNL     1     -47.811 -51.956  16.205  1.00  0.00    -0.268 OA
HETATM   11  N   UNL     1     -46.716 -53.663  15.167  1.00  0.00    -0.275 N 
HETATM   12  C   UNL     1     -45.823 -54.153  14.247  1.00  0.00     0.329 A 
HETATM   13  H   UNL     1     -47.059 -54.309  15.859  1.00  0.00     0.173 HD
HETATM   14  O   UNL     1     -45.512 -55.342  14.244  1.00  0.00    -0.246 OA
ENDBRANCH   5   6
ENDBRANCH   2   5
BRANCH   1  15
HETATM   15  C   UNL     1     -41.050 -51.689  11.938  1.00  0.00     0.133 C 
BRANCH  15  16
HETATM   16  C   UNL     1     -41.092 -50.312  12.608  1.00  0.00     0.102 C 
BRANCH  16  17
HETATM   17  S   UNL     1     -41.461 -49.004  11.392  1.00  0.00    -0.054 SA
BRANCH  17  18
HETATM   18  C   UNL     1     -43.042 -48.464  12.038  1.00  0.00     0.443 C 
HETATM   19  F   UNL     1     -42.926 -47.455  12.931  1.00  0.00    -0.160 F 
HETATM   20  F   UNL     1     -43.681 -49.481  12.663  1.00  0.00    -0.160 F 
HETATM   21  F   UNL     1     -43.848 -48.031  11.043  1.00  0.00    -0.160 F 
ENDBRANCH  17  18
ENDBRANCH  16  17
ENDBRANCH  15  16
ENDBRANCH   1  15
TORSDOF 6
ENDMDL
MODEL 4
REMARK VINA RESULT:      -5.5      1.845      2.320
REMARK  6 active torsions:
REMARK  status: ('A' for Active; 'I' for Inactive)
REMARK    1  A    between atoms: C_2  and  S_5 
REMARK    2  A    between atoms: S_5  and  C_6 
REMARK    3  A    between atoms: C_6  and  C_7 
REMARK    4  A    between atoms: C_7  and  N_8 
REMARK       I    between atoms: N_8  and  C_9 
REMARK    5  A    between atoms: C_9  and  C_11 
REMARK    6  A    between atoms: C_11  and  N_12 
ROOT
HETATM    1  N   UNL     1     -41.838 -49.986  11.477  1.00  0.00    -0.359 N 
HETATM    2  C   UNL     1     -41.503 -50.888  12.464  1.00  0.00     0.235 C 
HETATM    3  O   UNL     1     -41.323 -50.561  13.635  1.00  0.00    -0.272 OA
HETATM    4  H   UNL     1     -41.981 -50.318  10.527  1.00  0.00     0.162 HD
ENDROOT
BRANCH   2   5
HETATM    5  C   UNL     1     -41.440 -52.344  12.011  1.00  0.00     0.235 C 
BRANCH   5   6
HETATM    6  N   UNL     1     -42.422 -53.167  12.711  1.00  0.00    -0.301 N 
HETATM    7  C   UNL     1     -43.757 -53.078  12.372  1.00  0.00     0.102 A 
HETATM    8  C   UNL     1     -44.700 -53.754  13.034  1.00  0.00     0.092 A 
HETATM    9  C   UNL     1     -44.295 -54.608  14.163  1.00  0.00     0.250 A 
HETATM   10  O   UNL     1     -45.130 -55.169  14.863  1.00  0.00    -0.268 OA
HETATM   11  N   UNL     1     -42.951 -54.723  14.369  1.00  0.00    -0.275 N 
HETATM   12  C   UNL     1     -41.974 -54.028  13.702  1.00  0.00     0.329 A 
HETATM   13  H   UNL     1     -42.654 -55.309  15.132  1.00  0.00     0.173 HD
HETATM   14  O   UNL     1     -40.788 -54.171  13.996  1.00  0.00    -0.246 OA
ENDBRANCH   5   6
ENDBRANCH   2   5
BRANCH   1  15
HETATM   15  C   UNL     1     -41.932 -48.559  11.731  1.00  0.00     0.133 C 
BRANCH  15  16
HETATM   16  C   UNL     1     -43.239 -47.939  11.228  1.00  0.00     0.102 C 
BRANCH  16  17
HETATM   17  S   UNL     1     -43.059 -47.334   9.517  1.00  0.00    -0.054 SA
BRANCH  17  18
HETATM   18  C   UNL     1     -44.775 -47.428   9.009  1.00  0.00     0.443 C 
HETATM   19  F   UNL     1     -45.298 -46.218   8.705  1.00  0.00    -0.160 F 
HETATM   20  F   UNL     1     -45.540 -47.961   9.990  1.00  0.00    -0.160 F 
HETATM   21  F   UNL     1     -44.913 -48.212   7.916  1.00  0.00    -0.160 F 
ENDBRANCH  17  18
ENDBRANCH  16  17
ENDBRANCH  15  16
ENDBRANCH   1  15
TORSDOF 6
ENDMDL
MODEL 5
REMARK VINA RESULT:      -5.5      4.981      5.966
REMARK  6 active torsions:
REMARK  status: ('A' for Active; 'I' for Inactive)
REMARK    1  A    between atoms: C_2  and  S_5 
REMARK    2  A    between atoms: S_5  and  C_6 
REMARK    3  A    between atoms: C_6  and  C_7 
REMARK    4  A    between atoms: C_7  and  N_8 
REMARK       I    between atoms: N_8  and  C_9 
REMARK    5  A    between atoms: C_9  and  C_11 
REMARK    6  A    between atoms: C_11  and  N_12 
ROOT
HETATM    1  N   UNL     1     -42.282 -52.540  11.790  1.00  0.00    -0.359 N 
HETATM    2  C   UNL     1     -43.014 -53.217  12.742  1.00  0.00     0.235 C 
HETATM    3  O   UNL     1     -42.575 -53.481  13.859  1.00  0.00    -0.272 OA
HETATM    4  H   UNL     1     -42.703 -52.345  10.885  1.00  0.00     0.162 HD
ENDROOT
BRANCH   2   5
HETATM    5  C   UNL     1     -44.445 -53.555  12.333  1.00  0.00     0.235 C 
BRANCH   5   6
HETATM    6  N   UNL     1     -45.408 -53.131  13.346  1.00  0.00    -0.301 N 
HETATM    7  C   UNL     1     -45.797 -51.808  13.410  1.00  0.00     0.102 A 
HETATM    8  C   UNL     1     -46.616 -51.359  14.365  1.00  0.00     0.092 A 
HETATM    9  C   UNL     1     -47.103 -52.307  15.380  1.00  0.00     0.250 A 
HETATM   10  O   UNL     1     -47.775 -51.924  16.331  1.00  0.00    -0.268 OA
HETATM   11  N   UNL     1     -46.758 -53.613  15.189  1.00  0.00    -0.275 N 
HETATM   12  C   UNL     1     -45.911 -54.086  14.218  1.00  0.00     0.329 A 
HETATM   13  H   UNL     1     -47.089 -54.278  15.869  1.00  0.00     0.173 HD
HETATM   14  O   UNL     1     -45.626 -55.280  14.158  1.00  0.00    -0.246 OA
ENDBRANCH   5   6
ENDBRANCH   2   5
BRANCH   1  15
HETATM   15  C   UNL     1     -40.900 -52.150  12.007  1.00  0.00     0.133 C 
BRANCH  15  16
HETATM   16  C   UNL     1     -40.752 -50.731  12.564  1.00  0.00     0.102 C 
BRANCH  16  17
HETATM   17  S   UNL     1     -39.978 -49.626  11.337  1.00  0.00    -0.054 SA
BRANCH  17  18
HETATM   18  C   UNL     1     -38.295 -49.668  11.949  1.00  0.00     0.443 C 
HETATM   19  F   UNL     1     -37.378 -49.494  10.971  1.00  0.00    -0.160 F 
HETATM   20  F   UNL     1     -38.028 -50.854  12.543  1.00  0.00    -0.160 F 
HETATM   21  F   UNL     1     -38.092 -48.698  12.869  1.00  0.00    -0.160 F 
ENDBRANCH  17  18
ENDBRANCH  16  17
ENDBRANCH  15  16
ENDBRANCH   1  15
TORSDOF 6
ENDMDL
MODEL 6
REMARK VINA RESULT:      -5.3      2.542      3.105
REMARK  6 active torsions:
REMARK  status: ('A' for Active; 'I' for Inactive)
REMARK    1  A    between atoms: C_2  and  S_5 
REMARK    2  A    between atoms: S_5  and  C_6 
REMARK    3  A    between atoms: C_6  and  C_7 
REMARK    4  A    between atoms: C_7  and  N_8 
REMARK       I    between atoms: N_8  and  C_9 
REMARK    5  A    between atoms: C_9  and  C_11 
REMARK    6  A    between atoms: C_11  and  N_12 
ROOT
HETATM    1  N   UNL     1     -42.019 -50.481  11.762  1.00  0.00    -0.359 N 
HETATM    2  C   UNL     1     -40.949 -51.217  12.222  1.00  0.00     0.235 C 
HETATM    3  O   UNL     1     -40.020 -50.722  12.857  1.00  0.00    -0.272 OA
HETATM    4  H   UNL     1     -42.761 -50.950  11.248  1.00  0.00     0.162 HD
ENDROOT
BRANCH   2   5
HETATM    5  C   UNL     1     -41.033 -52.716  11.946  1.00  0.00     0.235 C 
BRANCH   5   6
HETATM    6  N   UNL     1     -41.639 -53.434  13.064  1.00  0.00    -0.301 N 
HETATM    7  C   UNL     1     -40.843 -53.900  14.091  1.00  0.00     0.102 A 
HETATM    8  C   UNL     1     -41.341 -54.626  15.096  1.00  0.00     0.092 A 
HETATM    9  C   UNL     1     -42.778 -54.943  15.094  1.00  0.00     0.250 A 
HETATM   10  O   UNL     1     -43.263 -55.687  15.938  1.00  0.00    -0.268 OA
HETATM   11  N   UNL     1     -43.514 -54.360  14.103  1.00  0.00    -0.275 N 
HETATM   12  C   UNL     1     -43.014 -53.620  13.061  1.00  0.00     0.329 A 
HETATM   13  H   UNL     1     -44.501 -54.558  14.090  1.00  0.00     0.173 HD
HETATM   14  O   UNL     1     -43.759 -53.175  12.191  1.00  0.00    -0.246 OA
ENDBRANCH   5   6
ENDBRANCH   2   5
BRANCH   1  15
HETATM   15  C   UNL     1     -42.098 -49.041  11.928  1.00  0.00     0.133 C 
BRANCH  15  16
HETATM   16  C   UNL     1     -41.818 -48.266  10.637  1.00  0.00     0.102 C 
BRANCH  16  17
HETATM   17  S   UNL     1     -42.884 -46.791  10.516  1.00  0.00    -0.054 SA
BRANCH  17  18
HETATM   18  C   UNL     1     -43.797 -47.230   9.039  1.00  0.00     0.443 C 
HETATM   19  F   UNL     1     -43.108 -48.061   8.225  1.00  0.00    -0.160 F 
HETATM   20  F   UNL     1     -44.106 -46.127   8.317  1.00  0.00    -0.160 F 
HETATM   21  F   UNL     1     -44.959 -47.846   9.354  1.00  0.00    -0.160 F 
ENDBRANCH  17  18
ENDBRANCH  16  17
ENDBRANCH  15  16
ENDBRANCH   1  15
TORSDOF 6
ENDMDL
MODEL 7
REMARK VINA RESULT:      -5.1      4.455      6.382
REMARK  6 active torsions:
REMARK  status: ('A' for Active; 'I' for Inactive)
REMARK    1  A    between atoms: C_2  and  S_5 
REMARK    2  A    between atoms: S_5  and  C_6 
REMARK    3  A    between atoms: C_6  and  C_7 
REMARK    4  A    between atoms: C_7  and  N_8 
REMARK       I    between atoms: N_8  and  C_9 
REMARK    5  A    between atoms: C_9  and  C_11 
REMARK    6  A    between atoms: C_11  and  N_12 
ROOT
HETATM    1  N   UNL     1     -43.577 -51.414  12.651  1.00  0.00    -0.359 N 
HETATM    2  C   UNL     1     -42.416 -52.087  12.967  1.00  0.00     0.235 C 
HETATM    3  O   UNL     1     -42.289 -52.758  13.989  1.00  0.00    -0.272 OA
HETATM    4  H   UNL     1     -43.623 -50.881  11.787  1.00  0.00     0.162 HD
ENDROOT
BRANCH   2   5
HETATM    5  C   UNL     1     -41.314 -51.998  11.914  1.00  0.00     0.235 C 
BRANCH   5   6
HETATM    6  N   UNL     1     -40.248 -51.089  12.329  1.00  0.00    -0.301 N 
HETATM    7  C   UNL     1     -39.260 -51.537  13.182  1.00  0.00     0.102 A 
HETATM    8  C   UNL     1     -38.308 -50.724  13.648  1.00  0.00     0.092 A 
HETATM    9  C   UNL     1     -38.327 -49.309  13.242  1.00  0.00     0.250 A 
HETATM   10  O   UNL     1     -37.537 -48.503  13.719  1.00  0.00    -0.268 OA
HETATM   11  N   UNL     1     -39.271 -48.969  12.316  1.00  0.00    -0.275 N 
HETATM   12  C   UNL     1     -40.259 -49.792  11.837  1.00  0.00     0.329 A 
HETATM   13  H   UNL     1     -39.295 -48.007  12.020  1.00  0.00     0.173 HD
HETATM   14  O   UNL     1     -41.093 -49.374  11.036  1.00  0.00    -0.246 OA
ENDBRANCH   5   6
ENDBRANCH   2   5
BRANCH   1  15
HETATM   15  C   UNL     1     -44.722 -51.385  13.544  1.00  0.00     0.133 C 
BRANCH  15  16
HETATM   16  C   UNL     1     -45.833 -52.357  13.136  1.00  0.00     0.102 C 
BRANCH  16  17
HETATM   17  S   UNL     1     -46.137 -53.589  14.445  1.00  0.00    -0.054 SA
BRANCH  17  18
HETATM   18  C   UNL     1     -45.157 -54.937  13.789  1.00  0.00     0.443 C 
HETATM   19  F   UNL     1     -45.879 -56.066  13.600  1.00  0.00    -0.160 F 
HETATM   20  F   UNL     1     -44.141 -55.248  14.628  1.00  0.00    -0.160 F 
HETATM   21  F   UNL     1     -44.612 -54.603  12.597  1.00  0.00    -0.160 F 
ENDBRANCH  17  18
ENDBRANCH  16  17
ENDBRANCH  15  16
ENDBRANCH   1  15
TORSDOF 6
ENDMDL
MODEL 8
REMARK VINA RESULT:      -5.1      2.968      4.263
REMARK  6 active torsions:
REMARK  status: ('A' for Active; 'I' for Inactive)
REMARK    1  A    between atoms: C_2  and  S_5 
REMARK    2  A    between atoms: S_5  and  C_6 
REMARK    3  A    between atoms: C_6  and  C_7 
REMARK    4  A    between atoms: C_7  and  N_8 
REMARK       I    between atoms: N_8  and  C_9 
REMARK    5  A    between atoms: C_9  and  C_11 
REMARK    6  A    between atoms: C_11  and  N_12 
ROOT
HETATM    1  N   UNL     1     -41.703 -47.823  10.737  1.00  0.00    -0.359 N 
HETATM    2  C   UNL     1     -41.548 -49.023  11.397  1.00  0.00     0.235 C 
HETATM    3  O   UNL     1     -42.405 -49.489  12.145  1.00  0.00    -0.272 OA
HETATM    4  H   UNL     1     -40.961 -47.493  10.125  1.00  0.00     0.162 HD
ENDROOT
BRANCH   2   5
HETATM    5  C   UNL     1     -40.258 -49.772  11.076  1.00  0.00     0.235 C 
BRANCH   5   6
HETATM    6  N   UNL     1     -39.376 -49.846  12.238  1.00  0.00    -0.301 N 
HETATM    7  C   UNL     1     -38.735 -48.707  12.684  1.00  0.00     0.102 A 
HETATM    8  C   UNL     1     -37.862 -48.740  13.694  1.00  0.00     0.092 A 
HETATM    9  C   UNL     1     -37.573 -50.032  14.337  1.00  0.00     0.250 A 
HETATM   10  O   UNL     1     -36.709 -50.130  15.200  1.00  0.00    -0.268 OA
HETATM   11  N   UNL     1     -38.323 -51.089  13.910  1.00  0.00    -0.275 N 
HETATM   12  C   UNL     1     -39.216 -51.071  12.868  1.00  0.00     0.329 A 
HETATM   13  H   UNL     1     -38.146 -51.980  14.344  1.00  0.00     0.173 HD
HETATM   14  O   UNL     1     -39.810 -52.094  12.531  1.00  0.00    -0.246 OA
ENDBRANCH   5   6
ENDBRANCH   2   5
BRANCH   1  15
HETATM   15  C   UNL     1     -42.865 -46.975  10.933  1.00  0.00     0.133 C 
BRANCH  15  16
HETATM   16  C   UNL     1     -43.355 -46.311   9.642  1.00  0.00     0.102 C 
BRANCH  16  17
HETATM   17  S   UNL     1     -43.802 -47.561   8.392  1.00  0.00    -0.054 SA
BRANCH  17  18
HETATM   18  C   UNL     1     -45.550 -47.705   8.758  1.00  0.00     0.443 C 
HETATM   19  F   UNL     1     -46.191 -46.514   8.727  1.00  0.00    -0.160 F 
HETATM   20  F   UNL     1     -45.743 -48.232   9.989  1.00  0.00    -0.160 F 
HETATM   21  F   UNL     1     -46.164 -48.517   7.868  1.00  0.00    -0.160 F 
ENDBRANCH  17  18
ENDBRANCH  16  17
ENDBRANCH  15  16
ENDBRANCH   1  15
TORSDOF 6
ENDMDL
MODEL 9
REMARK VINA RESULT:      -5.0      3.836      5.090
REMARK  6 active torsions:
REMARK  status: ('A' for Active; 'I' for Inactive)
REMARK    1  A    between atoms: C_2  and  S_5 
REMARK    2  A    between atoms: S_5  and  C_6 
REMARK    3  A    between atoms: C_6  and  C_7 
REMARK    4  A    between atoms: C_7  and  N_8 
REMARK       I    between atoms: N_8  and  C_9 
REMARK    5  A    between atoms: C_9  and  C_11 
REMARK    6  A    between atoms: C_11  and  N_12 
ROOT
HETATM    1  N   UNL     1     -42.852 -52.760  12.065  1.00  0.00    -0.359 N 
HETATM    2  C   UNL     1     -43.045 -53.819  12.925  1.00  0.00     0.235 C 
HETATM    3  O   UNL     1     -42.137 -54.312  13.592  1.00  0.00    -0.272 OA
HETATM    4  H   UNL     1     -43.644 -52.390  11.545  1.00  0.00     0.162 HD
ENDROOT
BRANCH   2   5
HETATM    5  C   UNL     1     -44.490 -54.295  13.046  1.00  0.00     0.235 C 
BRANCH   5   6
HETATM    6  N   UNL     1     -45.285 -53.393  13.874  1.00  0.00    -0.301 N 
HETATM    7  C   UNL     1     -45.140 -53.417  15.247  1.00  0.00     0.102 A 
HETATM    8  C   UNL     1     -45.898 -52.665  16.049  1.00  0.00     0.092 A 
HETATM    9  C   UNL     1     -46.922 -51.797  15.444  1.00  0.00     0.250 A 
HETATM   10  O   UNL     1     -47.707 -51.164  16.141  1.00  0.00    -0.268 OA
HETATM   11  N   UNL     1     -46.932 -51.751  14.080  1.00  0.00    -0.275 N 
HETATM   12  C   UNL     1     -46.165 -52.524  13.245  1.00  0.00     0.329 A 
HETATM   13  H   UNL     1     -47.619 -51.156  13.648  1.00  0.00     0.173 HD
HETATM   14  O   UNL     1     -46.282 -52.439  12.024  1.00  0.00    -0.246 OA
ENDBRANCH   5   6
ENDBRANCH   2   5
BRANCH   1  15
HETATM   15  C   UNL     1     -41.539 -52.188  11.822  1.00  0.00     0.133 C 
BRANCH  15  16
HETATM   16  C   UNL     1     -41.469 -50.686  12.113  1.00  0.00     0.102 C 
BRANCH  16  17
HETATM   17  S   UNL     1     -41.673 -50.355  13.895  1.00  0.00    -0.054 SA
BRANCH  17  18
HETATM   18  C   UNL     1     -43.314 -49.636  13.857  1.00  0.00     0.443 C 
HETATM   19  F   UNL     1     -44.129 -50.140  14.812  1.00  0.00    -0.160 F 
HETATM   20  F   UNL     1     -43.910 -49.859  12.663  1.00  0.00    -0.160 F 
HETATM   21  F   UNL     1     -43.259 -48.298  14.040  1.00  0.00    -0.160 F 
ENDBRANCH  17  18
ENDBRANCH  16  17
ENDBRANCH  15  16
ENDBRANCH   1  15
TORSDOF 6
ENDMDL
