MODEL 1
REMARK VINA RESULT:      -6.3      0.000      0.000
REMARK  7 active torsions:
REMARK  status: ('A' for Active; 'I' for Inactive)
REMARK    1  A    between atoms: N_5  and  C_6 
REMARK    2  A    between atoms: C_6  and  C_7 
REMARK    3  A    between atoms: C_7  and  O_8 
REMARK    4  A    between atoms: C_7  and  C_9 
REMARK    5  A    between atoms: C_9  and  N_10 
REMARK    6  A    between atoms: C_11  and  C_12 
REMARK    7  A    between atoms: C_12  and  O_13 
ROOT
HETATM    1  N   UNL     1     -42.580 -51.887  13.174  1.00  0.00    -0.330 N 
HETATM    2  C   UNL     1     -42.181 -53.175  12.878  1.00  0.00     0.108 A 
HETATM    3  N   UNL     1     -43.221 -53.989  12.864  1.00  0.00    -0.342 N 
ATOM      4  HN  UNL     1     -43.221 -54.981  12.629  1.00  0.00     0.167 HD
HETATM    5  C   UNL     1     -44.303 -53.228  13.228  1.00  0.00     0.060 A 
HETATM    6  C   UNL     1     -45.644 -53.604  13.394  1.00  0.00     0.032 A 
HETATM    7  C   UNL     1     -46.569 -52.642  13.814  1.00  0.00     0.002 A 
HETATM    8  C   UNL     1     -46.169 -51.328  14.053  1.00  0.00     0.002 A 
HETATM    9  C   UNL     1     -44.845 -50.928  13.859  1.00  0.00     0.032 A 
HETATM   10  C   UNL     1     -43.930 -51.908  13.452  1.00  0.00     0.062 A 
ENDROOT
BRANCH   1  11
HETATM   11  C   UNL     1     -41.768 -50.693  13.121  1.00  0.00     0.164 C 
BRANCH  11  12
HETATM   12  C   UNL     1     -41.739 -49.952  11.774  1.00  0.00     0.164 C 
BRANCH  12  13
HETATM   13  C   UNL     1     -41.585 -48.423  11.979  1.00  0.00     0.305 C 
BRANCH  13  14
HETATM   14  N   UNL     1     -42.825 -47.619  11.944  1.00  0.00     0.091 N 
HETATM   15  C   UNL     1     -43.765 -47.954  10.866  1.00  0.00     0.273 C 
HETATM   16  C   UNL     1     -43.214 -47.629   9.474  1.00  0.00     0.034 C 
HETATM   17  C   UNL     1     -42.816 -46.152   9.347  1.00  0.00    -0.015 C 
HETATM   18  C   UNL     1     -44.054 -45.266   9.191  1.00  0.00     0.010 C 
HETATM   19  C   UNL     1     -41.953 -45.716  10.542  1.00  0.00     0.034 C 
HETATM   20  C   UNL     1     -42.520 -46.177  11.892  1.00  0.00     0.273 C 
ENDBRANCH  13  14
ENDBRANCH  12  13
BRANCH  12  21
HETATM   21  O   UNL     1     -40.658 -50.530  11.026  1.00  0.00    -0.392 OA
HETATM   22  H   UNL     1     -40.430 -51.384  11.428  1.00  0.00     0.210 HD
ENDBRANCH  12  21
ENDBRANCH  11  12
ENDBRANCH   1  11
BRANCH   2  23
HETATM   23  C   UNL     1     -40.775 -53.606  12.639  1.00  0.00     0.240 C 
BRANCH  23  24
HETATM   24  O   UNL     1     -40.473 -53.416  11.264  1.00  0.00    -0.393 OA
HETATM   25  H   UNL     1     -39.546 -53.696  11.157  1.00  0.00     0.209 HD
ENDBRANCH  23  24
ENDBRANCH   2  23
TORSDOF 7
ENDMDL
MODEL 2
REMARK VINA RESULT:      -6.2      1.117      1.878
REMARK  7 active torsions:
REMARK  status: ('A' for Active; 'I' for Inactive)
REMARK    1  A    between atoms: N_5  and  C_6 
REMARK    2  A    between atoms: C_6  and  C_7 
REMARK    3  A    between atoms: C_7  and  O_8 
REMARK    4  A    between atoms: C_7  and  C_9 
REMARK    5  A    between atoms: C_9  and  N_10 
REMARK    6  A    between atoms: C_11  and  C_12 
REMARK    7  A    between atoms: C_12  and  O_13 
ROOT
HETATM    1  N   UNL     1     -42.618 -51.964  13.191  1.00  0.00    -0.330 N 
HETATM    2  C   UNL     1     -42.232 -53.256  12.896  1.00  0.00     0.108 A 
HETATM    3  N   UNL     1     -43.280 -54.060  12.890  1.00  0.00    -0.342 N 
ATOM      4  HN  UNL     1     -43.289 -55.053  12.658  1.00  0.00     0.167 HD
HETATM    5  C   UNL     1     -44.352 -53.289  13.258  1.00  0.00     0.060 A 
HETATM    6  C   UNL     1     -45.695 -53.653  13.432  1.00  0.00     0.032 A 
HETATM    7  C   UNL     1     -46.610 -52.681  13.855  1.00  0.00     0.002 A 
HETATM    8  C   UNL     1     -46.197 -51.370  14.088  1.00  0.00     0.002 A 
HETATM    9  C   UNL     1     -44.870 -50.983  13.885  1.00  0.00     0.032 A 
HETATM   10  C   UNL     1     -43.967 -51.972  13.476  1.00  0.00     0.062 A 
ENDROOT
BRANCH   1  11
HETATM   11  C   UNL     1     -41.796 -50.777  13.129  1.00  0.00     0.164 C 
BRANCH  11  12
HETATM   12  C   UNL     1     -41.795 -50.021  11.790  1.00  0.00     0.164 C 
BRANCH  12  13
HETATM   13  C   UNL     1     -41.769 -48.487  12.014  1.00  0.00     0.305 C 
BRANCH  13  14
HETATM   14  N   UNL     1     -41.058 -47.679  11.000  1.00  0.00     0.091 N 
HETATM   15  C   UNL     1     -39.818 -47.041  11.458  1.00  0.00     0.273 C 
HETATM   16  C   UNL     1     -40.060 -45.960  12.517  1.00  0.00     0.034 C 
HETATM   17  C   UNL     1     -41.023 -44.875  12.016  1.00  0.00    -0.015 C 
HETATM   18  C   UNL     1     -40.318 -43.928  11.043  1.00  0.00     0.010 C 
HETATM   19  C   UNL     1     -42.275 -45.507  11.386  1.00  0.00     0.034 C 
HETATM   20  C   UNL     1     -41.947 -46.654  10.421  1.00  0.00     0.273 C 
ENDBRANCH  13  14
ENDBRANCH  12  13
BRANCH  12  21
HETATM   21  O   UNL     1     -40.653 -50.502  11.063  1.00  0.00    -0.392 OA
HETATM   22  H   UNL     1     -40.554 -49.965  10.260  1.00  0.00     0.210 HD
ENDBRANCH  12  21
ENDBRANCH  11  12
ENDBRANCH   1  11
BRANCH   2  23
HETATM   23  C   UNL     1     -40.831 -53.700  12.650  1.00  0.00     0.240 C 
BRANCH  23  24
HETATM   24  O   UNL     1     -40.508 -53.440  11.292  1.00  0.00    -0.393 OA
HETATM   25  H   UNL     1     -39.559 -53.642  11.204  1.00  0.00     0.209 HD
ENDBRANCH  23  24
ENDBRANCH   2  23
TORSDOF 7
ENDMDL
MODEL 3
REMARK VINA RESULT:      -6.1      1.795      5.869
REMARK  7 active torsions:
REMARK  status: ('A' for Active; 'I' for Inactive)
REMARK    1  A    between atoms: N_5  and  C_6 
REMARK    2  A    between atoms: C_6  and  C_7 
REMARK    3  A    between atoms: C_7  and  O_8 
REMARK    4  A    between atoms: C_7  and  C_9 
REMARK    5  A    between atoms: C_9  and  N_10 
REMARK    6  A    between atoms: C_11  and  C_12 
REMARK    7  A    between atoms: C_12  and  O_13 
ROOT
HETATM    1  N   UNL     1     -40.626 -49.627  12.451  1.00  0.00    -0.330 N 
HETATM    2  C   UNL     1     -39.337 -49.285  12.091  1.00  0.00     0.108 A 
HETATM    3  N   UNL     1     -39.329 -48.139  11.436  1.00  0.00    -0.342 N 
ATOM      4  HN  UNL     1     -38.512 -47.632  11.096  1.00  0.00     0.167 HD
HETATM    5  C   UNL     1     -40.643 -47.767  11.306  1.00  0.00     0.060 A 
HETATM    6  C   UNL     1     -41.194 -46.645  10.670  1.00  0.00     0.032 A 
HETATM    7  C   UNL     1     -42.587 -46.502  10.638  1.00  0.00     0.002 A 
HETATM    8  C   UNL     1     -43.413 -47.453  11.236  1.00  0.00     0.002 A 
HETATM    9  C   UNL     1     -42.879 -48.558  11.902  1.00  0.00     0.032 A 
HETATM   10  C   UNL     1     -41.485 -48.692  11.913  1.00  0.00     0.062 A 
ENDROOT
BRANCH   1  11
HETATM   11  C   UNL     1     -41.027 -50.713  13.314  1.00  0.00     0.164 C 
BRANCH  11  12
HETATM   12  C   UNL     1     -41.570 -51.970  12.615  1.00  0.00     0.164 C 
BRANCH  12  13
HETATM   13  C   UNL     1     -43.120 -51.957  12.563  1.00  0.00     0.305 C 
BRANCH  13  14
HETATM   14  N   UNL     1     -43.825 -52.838  13.519  1.00  0.00     0.091 N 
HETATM   15  C   UNL     1     -45.155 -53.293  13.095  1.00  0.00     0.273 C 
HETATM   16  C   UNL     1     -46.174 -52.152  13.005  1.00  0.00     0.034 C 
HETATM   17  C   UNL     1     -46.306 -51.397  14.335  1.00  0.00    -0.015 C 
HETATM   18  C   UNL     1     -47.127 -52.207  15.341  1.00  0.00     0.010 C 
HETATM   19  C   UNL     1     -44.921 -51.034  14.894  1.00  0.00     0.034 C 
HETATM   20  C   UNL     1     -43.928 -52.203  14.847  1.00  0.00     0.273 C 
ENDBRANCH  13  14
ENDBRANCH  12  13
BRANCH  12  21
HETATM   21  O   UNL     1     -40.965 -51.993  11.312  1.00  0.00    -0.392 OA
HETATM   22  H   UNL     1     -40.522 -51.141  11.167  1.00  0.00     0.210 HD
ENDBRANCH  12  21
ENDBRANCH  11  12
ENDBRANCH   1  11
BRANCH   2  23
HETATM   23  C   UNL     1     -38.123 -50.103  12.368  1.00  0.00     0.240 C 
BRANCH  23  24
HETATM   24  O   UNL     1     -38.048 -51.140  11.400  1.00  0.00    -0.393 OA
HETATM   25  H   UNL     1     -37.374 -51.761  11.731  1.00  0.00     0.209 HD
ENDBRANCH  23  24
ENDBRANCH   2  23
TORSDOF 7
ENDMDL
MODEL 4
REMARK VINA RESULT:      -6.0      2.358      7.414
REMARK  7 active torsions:
REMARK  status: ('A' for Active; 'I' for Inactive)
REMARK    1  A    between atoms: N_5  and  C_6 
REMARK    2  A    between atoms: C_6  and  C_7 
REMARK    3  A    between atoms: C_7  and  O_8 
REMARK    4  A    between atoms: C_7  and  C_9 
REMARK    5  A    between atoms: C_9  and  N_10 
REMARK    6  A    between atoms: C_11  and  C_12 
REMARK    7  A    between atoms: C_12  and  O_13 
ROOT
HETATM    1  N   UNL     1     -41.301 -47.435  11.553  1.00  0.00    -0.330 N 
HETATM    2  C   UNL     1     -41.894 -46.875  10.439  1.00  0.00     0.108 A 
HETATM    3  N   UNL     1     -41.410 -45.666  10.217  1.00  0.00    -0.342 N 
ATOM      4  HN  UNL     1     -41.637 -45.049   9.438  1.00  0.00     0.167 HD
HETATM    5  C   UNL     1     -40.541 -45.410  11.247  1.00  0.00     0.060 A 
HETATM    6  C   UNL     1     -39.779 -44.262  11.507  1.00  0.00     0.032 A 
HETATM    7  C   UNL     1     -38.984 -44.225  12.659  1.00  0.00     0.002 A 
HETATM    8  C   UNL     1     -38.940 -45.314  13.528  1.00  0.00     0.002 A 
HETATM    9  C   UNL     1     -39.666 -46.478  13.265  1.00  0.00     0.032 A 
HETATM   10  C   UNL     1     -40.467 -46.492  12.116  1.00  0.00     0.062 A 
ENDROOT
BRANCH   1  11
HETATM   11  C   UNL     1     -41.439 -48.796  12.019  1.00  0.00     0.164 C 
BRANCH  11  12
HETATM   12  C   UNL     1     -40.311 -49.764  11.627  1.00  0.00     0.164 C 
BRANCH  12  13
HETATM   13  C   UNL     1     -40.328 -51.032  12.520  1.00  0.00     0.305 C 
BRANCH  13  14
HETATM   14  N   UNL     1     -41.651 -51.501  12.984  1.00  0.00     0.091 N 
HETATM   15  C   UNL     1     -41.795 -51.646  14.438  1.00  0.00     0.273 C 
HETATM   16  C   UNL     1     -40.915 -52.760  15.015  1.00  0.00     0.034 C 
HETATM   17  C   UNL     1     -41.198 -54.114  14.350  1.00  0.00    -0.015 C 
HETATM   18  C   UNL     1     -42.505 -54.715  14.872  1.00  0.00     0.010 C 
HETATM   19  C   UNL     1     -41.209 -53.976  12.819  1.00  0.00     0.034 C 
HETATM   20  C   UNL     1     -42.023 -52.770  12.330  1.00  0.00     0.273 C 
ENDBRANCH  13  14
ENDBRANCH  12  13
BRANCH  12  21
HETATM   21  O   UNL     1     -40.504 -50.056  10.234  1.00  0.00    -0.392 OA
HETATM   22  H   UNL     1     -41.265 -49.543   9.917  1.00  0.00     0.210 HD
ENDBRANCH  12  21
ENDBRANCH  11  12
ENDBRANCH   1  11
BRANCH   2  23
HETATM   23  C   UNL     1     -42.955 -47.519   9.615  1.00  0.00     0.240 C 
BRANCH  23  24
HETATM   24  O   UNL     1     -42.330 -48.308   8.613  1.00  0.00    -0.393 OA
HETATM   25  H   UNL     1     -41.399 -48.396   8.890  1.00  0.00     0.209 HD
ENDBRANCH  23  24
ENDBRANCH   2  23
TORSDOF 7
ENDMDL
MODEL 5
REMARK VINA RESULT:      -5.6      3.179      7.309
REMARK  7 active torsions:
REMARK  status: ('A' for Active; 'I' for Inactive)
REMARK    1  A    between atoms: N_5  and  C_6 
REMARK    2  A    between atoms: C_6  and  C_7 
REMARK    3  A    between atoms: C_7  and  O_8 
REMARK    4  A    between atoms: C_7  and  C_9 
REMARK    5  A    between atoms: C_9  and  N_10 
REMARK    6  A    between atoms: C_11  and  C_12 
REMARK    7  A    between atoms: C_12  and  O_13 
ROOT
HETATM    1  N   UNL     1     -41.897 -52.432  12.503  1.00  0.00    -0.330 N 
HETATM    2  C   UNL     1     -41.727 -51.072  12.335  1.00  0.00     0.108 A 
HETATM    3  N   UNL     1     -42.848 -50.429  12.609  1.00  0.00    -0.342 N 
ATOM      4  HN  UNL     1     -42.991 -49.420  12.611  1.00  0.00     0.167 HD
HETATM    5  C   UNL     1     -43.781 -51.395  12.888  1.00  0.00     0.060 A 
HETATM    6  C   UNL     1     -45.137 -51.258  13.215  1.00  0.00     0.032 A 
HETATM    7  C   UNL     1     -45.903 -52.411  13.423  1.00  0.00     0.002 A 
HETATM    8  C   UNL     1     -45.326 -53.676  13.318  1.00  0.00     0.002 A 
HETATM    9  C   UNL     1     -43.969 -53.829  13.027  1.00  0.00     0.032 A 
HETATM   10  C   UNL     1     -43.221 -52.665  12.809  1.00  0.00     0.062 A 
ENDROOT
BRANCH   1  11
HETATM   11  C   UNL     1     -40.870 -53.447  12.463  1.00  0.00     0.164 C 
BRANCH  11  12
HETATM   12  C   UNL     1     -40.040 -53.624  13.746  1.00  0.00     0.164 C 
BRANCH  12  13
HETATM   13  C   UNL     1     -40.779 -54.522  14.770  1.00  0.00     0.305 C 
BRANCH  13  14
HETATM   14  N   UNL     1     -40.488 -54.280  16.200  1.00  0.00     0.091 N 
HETATM   15  C   UNL     1     -39.074 -54.384  16.582  1.00  0.00     0.273 C 
HETATM   16  C   UNL     1     -38.525 -55.808  16.451  1.00  0.00     0.034 C 
HETATM   17  C   UNL     1     -39.340 -56.813  17.278  1.00  0.00    -0.015 C 
HETATM   18  C   UNL     1     -39.003 -56.695  18.766  1.00  0.00     0.010 C 
HETATM   19  C   UNL     1     -40.845 -56.634  17.021  1.00  0.00     0.034 C 
HETATM   20  C   UNL     1     -41.291 -55.167  17.062  1.00  0.00     0.273 C 
ENDBRANCH  13  14
ENDBRANCH  12  13
BRANCH  12  21
HETATM   21  O   UNL     1     -38.778 -54.167  13.330  1.00  0.00    -0.392 OA
HETATM   22  H   UNL     1     -38.415 -53.599  12.632  1.00  0.00     0.210 HD
ENDBRANCH  12  21
ENDBRANCH  11  12
ENDBRANCH   1  11
BRANCH   2  23
HETATM   23  C   UNL     1     -40.471 -50.413  11.879  1.00  0.00     0.240 C 
BRANCH  23  24
HETATM   24  O   UNL     1     -40.542 -50.236  10.471  1.00  0.00    -0.393 OA
HETATM   25  H   UNL     1     -40.651 -51.130  10.099  1.00  0.00     0.209 HD
ENDBRANCH  23  24
ENDBRANCH   2  23
TORSDOF 7
ENDMDL
MODEL 6
REMARK VINA RESULT:      -5.4      2.059      6.741
REMARK  7 active torsions:
REMARK  status: ('A' for Active; 'I' for Inactive)
REMARK    1  A    between atoms: N_5  and  C_6 
REMARK    2  A    between atoms: C_6  and  C_7 
REMARK    3  A    between atoms: C_7  and  O_8 
REMARK    4  A    between atoms: C_7  and  C_9 
REMARK    5  A    between atoms: C_9  and  N_10 
REMARK    6  A    between atoms: C_11  and  C_12 
REMARK    7  A    between atoms: C_12  and  O_13 
ROOT
HETATM    1  N   UNL     1     -40.641 -49.181  12.151  1.00  0.00    -0.330 N 
HETATM    2  C   UNL     1     -39.401 -48.701  11.780  1.00  0.00     0.108 A 
HETATM    3  N   UNL     1     -39.525 -47.561  11.125  1.00  0.00    -0.342 N 
ATOM      4  HN  UNL     1     -38.771 -46.968  10.778  1.00  0.00     0.167 HD
HETATM    5  C   UNL     1     -40.872 -47.334  11.008  1.00  0.00     0.060 A 
HETATM    6  C   UNL     1     -41.549 -46.280  10.378  1.00  0.00     0.032 A 
HETATM    7  C   UNL     1     -42.949 -46.290  10.359  1.00  0.00     0.002 A 
HETATM    8  C   UNL     1     -43.660 -47.325  10.964  1.00  0.00     0.002 A 
HETATM    9  C   UNL     1     -43.002 -48.365  11.625  1.00  0.00     0.032 A 
HETATM   10  C   UNL     1     -41.602 -48.345  11.622  1.00  0.00     0.062 A 
ENDROOT
BRANCH   1  11
HETATM   11  C   UNL     1     -40.914 -50.304  13.018  1.00  0.00     0.164 C 
BRANCH  11  12
HETATM   12  C   UNL     1     -41.107 -51.664  12.325  1.00  0.00     0.164 C 
BRANCH  12  13
HETATM   13  C   UNL     1     -42.510 -52.251  12.626  1.00  0.00     0.305 C 
BRANCH  13  14
HETATM   14  N   UNL     1     -42.594 -53.717  12.799  1.00  0.00     0.091 N 
HETATM   15  C   UNL     1     -43.741 -54.196  13.581  1.00  0.00     0.273 C 
HETATM   16  C   UNL     1     -43.678 -53.772  15.052  1.00  0.00     0.034 C 
HETATM   17  C   UNL     1     -42.383 -54.244  15.727  1.00  0.00    -0.015 C 
HETATM   18  C   UNL     1     -42.446 -55.740  16.041  1.00  0.00     0.010 C 
HETATM   19  C   UNL     1     -41.160 -53.896  14.863  1.00  0.00     0.034 C 
HETATM   20  C   UNL     1     -41.350 -54.254  13.383  1.00  0.00     0.273 C 
ENDBRANCH  13  14
ENDBRANCH  12  13
BRANCH  12  21
HETATM   21  O   UNL     1     -40.884 -51.432  10.925  1.00  0.00    -0.392 OA
HETATM   22  H   UNL     1     -40.370 -50.614  10.829  1.00  0.00     0.210 HD
ENDBRANCH  12  21
ENDBRANCH  11  12
ENDBRANCH   1  11
BRANCH   2  23
HETATM   23  C   UNL     1     -38.102 -49.381  12.045  1.00  0.00     0.240 C 
BRANCH  23  24
HETATM   24  O   UNL     1     -37.949 -50.438  11.109  1.00  0.00    -0.393 OA
HETATM   25  H   UNL     1     -38.607 -50.268  10.410  1.00  0.00     0.209 HD
ENDBRANCH  23  24
ENDBRANCH   2  23
TORSDOF 7
ENDMDL
MODEL 7
REMARK VINA RESULT:      -5.4      2.012      6.769
REMARK  7 active torsions:
REMARK  status: ('A' for Active; 'I' for Inactive)
REMARK    1  A    between atoms: N_5  and  C_6 
REMARK    2  A    between atoms: C_6  and  C_7 
REMARK    3  A    between atoms: C_7  and  O_8 
REMARK    4  A    between atoms: C_7  and  C_9 
REMARK    5  A    between atoms: C_9  and  N_10 
REMARK    6  A    between atoms: C_11  and  C_12 
REMARK    7  A    between atoms: C_12  and  O_13 
ROOT
HETATM    1  N   UNL     1     -41.904 -47.545  11.057  1.00  0.00    -0.330 N 
HETATM    2  C   UNL     1     -41.023 -46.523  10.766  1.00  0.00     0.108 A 
HETATM    3  N   UNL     1     -41.612 -45.603  10.025  1.00  0.00    -0.342 N 
ATOM      4  HN  UNL     1     -41.209 -44.722   9.706  1.00  0.00     0.167 HD
HETATM    5  C   UNL     1     -42.876 -46.071   9.770  1.00  0.00     0.060 A 
HETATM    6  C   UNL     1     -43.905 -45.497   9.011  1.00  0.00     0.032 A 
HETATM    7  C   UNL     1     -45.109 -46.196   8.865  1.00  0.00     0.002 A 
HETATM    8  C   UNL     1     -45.289 -47.437   9.475  1.00  0.00     0.002 A 
HETATM    9  C   UNL     1     -44.287 -48.007  10.263  1.00  0.00     0.032 A 
HETATM   10  C   UNL     1     -43.084 -47.300  10.386  1.00  0.00     0.062 A 
ENDROOT
BRANCH   1  11
HETATM   11  C   UNL     1     -41.690 -48.643  11.972  1.00  0.00     0.164 C 
BRANCH  11  12
HETATM   12  C   UNL     1     -40.520 -49.584  11.640  1.00  0.00     0.164 C 
BRANCH  12  13
HETATM   13  C   UNL     1     -40.537 -50.840  12.549  1.00  0.00     0.305 C 
BRANCH  13  14
HETATM   14  N   UNL     1     -41.470 -51.923  12.170  1.00  0.00     0.091 N 
HETATM   15  C   UNL     1     -42.778 -51.891  12.835  1.00  0.00     0.273 C 
HETATM   16  C   UNL     1     -42.686 -52.153  14.342  1.00  0.00     0.034 C 
HETATM   17  C   UNL     1     -42.004 -53.493  14.649  1.00  0.00    -0.015 C 
HETATM   18  C   UNL     1     -42.957 -54.662  14.385  1.00  0.00     0.010 C 
HETATM   19  C   UNL     1     -40.699 -53.634  13.850  1.00  0.00     0.034 C 
HETATM   20  C   UNL     1     -40.853 -53.247  12.373  1.00  0.00     0.273 C 
ENDBRANCH  13  14
ENDBRANCH  12  13
BRANCH  12  21
HETATM   21  O   UNL     1     -40.648 -49.900  10.244  1.00  0.00    -0.392 OA
HETATM   22  H   UNL     1     -40.303 -50.796  10.101  1.00  0.00     0.210 HD
ENDBRANCH  12  21
ENDBRANCH  11  12
ENDBRANCH   1  11
BRANCH   2  23
HETATM   23  C   UNL     1     -39.597 -46.471  11.194  1.00  0.00     0.240 C 
BRANCH  23  24
HETATM   24  O   UNL     1     -39.534 -45.865  12.477  1.00  0.00    -0.393 OA
HETATM   25  H   UNL     1     -38.674 -45.408  12.510  1.00  0.00     0.209 HD
ENDBRANCH  23  24
ENDBRANCH   2  23
TORSDOF 7
ENDMDL
MODEL 8
REMARK VINA RESULT:      -5.4      2.406      3.421
REMARK  7 active torsions:
REMARK  status: ('A' for Active; 'I' for Inactive)
REMARK    1  A    between atoms: N_5  and  C_6 
REMARK    2  A    between atoms: C_6  and  C_7 
REMARK    3  A    between atoms: C_7  and  O_8 
REMARK    4  A    between atoms: C_7  and  C_9 
REMARK    5  A    between atoms: C_9  and  N_10 
REMARK    6  A    between atoms: C_11  and  C_12 
REMARK    7  A    between atoms: C_12  and  O_13 
ROOT
HETATM    1  N   UNL     1     -42.903 -52.792  14.190  1.00  0.00    -0.330 N 
HETATM    2  C   UNL     1     -42.564 -52.556  15.507  1.00  0.00     0.108 A 
HETATM    3  N   UNL     1     -43.600 -52.079  16.173  1.00  0.00    -0.342 N 
ATOM      4  HN  UNL     1     -43.642 -51.862  17.168  1.00  0.00     0.167 HD
HETATM    5  C   UNL     1     -44.608 -51.937  15.254  1.00  0.00     0.060 A 
HETATM    6  C   UNL     1     -45.911 -51.447  15.427  1.00  0.00     0.032 A 
HETATM    7  C   UNL     1     -46.755 -51.362  14.313  1.00  0.00     0.002 A 
HETATM    8  C   UNL     1     -46.314 -51.768  13.054  1.00  0.00     0.002 A 
HETATM    9  C   UNL     1     -45.031 -52.291  12.871  1.00  0.00     0.032 A 
HETATM   10  C   UNL     1     -44.196 -52.355  13.994  1.00  0.00     0.062 A 
ENDROOT
BRANCH   1  11
HETATM   11  C   UNL     1     -42.101 -53.463  13.193  1.00  0.00     0.164 C 
BRANCH  11  12
HETATM   12  C   UNL     1     -41.523 -52.575  12.078  1.00  0.00     0.164 C 
BRANCH  12  13
HETATM   13  C   UNL     1     -40.820 -51.325  12.667  1.00  0.00     0.305 C 
BRANCH  13  14
HETATM   14  N   UNL     1     -41.422 -50.012  12.351  1.00  0.00     0.091 N 
HETATM   15  C   UNL     1     -40.725 -49.227  11.324  1.00  0.00     0.273 C 
HETATM   16  C   UNL     1     -39.334 -48.765  11.771  1.00  0.00     0.034 C 
HETATM   17  C   UNL     1     -39.393 -47.948  13.069  1.00  0.00    -0.015 C 
HETATM   18  C   UNL     1     -39.904 -46.531  12.797  1.00  0.00     0.010 C 
HETATM   19  C   UNL     1     -40.247 -48.666  14.126  1.00  0.00     0.034 C 
HETATM   20  C   UNL     1     -41.575 -49.193  13.568  1.00  0.00     0.273 C 
ENDBRANCH  13  14
ENDBRANCH  12  13
BRANCH  12  21
HETATM   21  O   UNL     1     -40.637 -53.414  11.321  1.00  0.00    -0.392 OA
HETATM   22  H   UNL     1     -40.963 -53.458  10.408  1.00  0.00     0.210 HD
ENDBRANCH  12  21
ENDBRANCH  11  12
ENDBRANCH   1  11
BRANCH   2  23
HETATM   23  C   UNL     1     -41.213 -52.772  16.098  1.00  0.00     0.240 C 
BRANCH  23  24
HETATM   24  O   UNL     1     -40.563 -51.513  16.207  1.00  0.00    -0.393 OA
HETATM   25  H   UNL     1     -40.711 -51.067  15.353  1.00  0.00     0.209 HD
ENDBRANCH  23  24
ENDBRANCH   2  23
TORSDOF 7
ENDMDL
MODEL 9
REMARK VINA RESULT:      -5.3      3.612      4.899
REMARK  7 active torsions:
REMARK  status: ('A' for Active; 'I' for Inactive)
REMARK    1  A    between atoms: N_5  and  C_6 
REMARK    2  A    between atoms: C_6  and  C_7 
REMARK    3  A    between atoms: C_7  and  O_8 
REMARK    4  A    between atoms: C_7  and  C_9 
REMARK    5  A    between atoms: C_9  and  N_10 
REMARK    6  A    between atoms: C_11  and  C_12 
REMARK    7  A    between atoms: C_12  and  O_13 
ROOT
HETATM    1  N   UNL     1     -42.588 -52.421  13.936  1.00  0.00    -0.330 N 
HETATM    2  C   UNL     1     -42.390 -53.359  12.943  1.00  0.00     0.108 A 
HETATM    3  N   UNL     1     -43.510 -53.568  12.276  1.00  0.00    -0.342 N 
ATOM      4  HN  UNL     1     -43.637 -54.174  11.465  1.00  0.00     0.167 HD
HETATM    5  C   UNL     1     -44.468 -52.806  12.894  1.00  0.00     0.060 A 
HETATM    6  C   UNL     1     -45.834 -52.681  12.603  1.00  0.00     0.032 A 
HETATM    7  C   UNL     1     -46.626 -51.857  13.413  1.00  0.00     0.002 A 
HETATM    8  C   UNL     1     -46.065 -51.164  14.485  1.00  0.00     0.002 A 
HETATM    9  C   UNL     1     -44.700 -51.251  14.767  1.00  0.00     0.032 A 
HETATM   10  C   UNL     1     -43.926 -52.090  13.955  1.00  0.00     0.062 A 
ENDROOT
BRANCH   1  11
HETATM   11  C   UNL     1     -41.576 -51.806  14.765  1.00  0.00     0.164 C 
BRANCH  11  12
HETATM   12  C   UNL     1     -41.039 -50.448  14.283  1.00  0.00     0.164 C 
BRANCH  12  13
HETATM   13  C   UNL     1     -39.996 -49.875  15.277  1.00  0.00     0.305 C 
BRANCH  13  14
HETATM   14  N   UNL     1     -38.703 -49.438  14.706  1.00  0.00     0.091 N 
HETATM   15  C   UNL     1     -37.523 -50.172  15.180  1.00  0.00     0.273 C 
HETATM   16  C   UNL     1     -37.234 -49.939  16.667  1.00  0.00     0.034 C 
HETATM   17  C   UNL     1     -37.055 -48.449  16.987  1.00  0.00    -0.015 C 
HETATM   18  C   UNL     1     -35.684 -47.953  16.523  1.00  0.00     0.010 C 
HETATM   19  C   UNL     1     -38.196 -47.620  16.375  1.00  0.00     0.034 C 
HETATM   20  C   UNL     1     -38.493 -47.993  14.916  1.00  0.00     0.273 C 
ENDBRANCH  13  14
ENDBRANCH  12  13
BRANCH  12  21
HETATM   21  O   UNL     1     -40.498 -50.677  12.972  1.00  0.00    -0.392 OA
HETATM   22  H   UNL     1     -40.753 -51.570  12.688  1.00  0.00     0.210 HD
ENDBRANCH  12  21
ENDBRANCH  11  12
ENDBRANCH   1  11
BRANCH   2  23
HETATM   23  C   UNL     1     -41.107 -54.067  12.673  1.00  0.00     0.240 C 
BRANCH  23  24
HETATM   24  O   UNL     1     -40.478 -53.449  11.560  1.00  0.00    -0.393 OA
HETATM   25  H   UNL     1     -40.183 -52.575  11.876  1.00  0.00     0.209 HD
ENDBRANCH  23  24
ENDBRANCH   2  23
TORSDOF 7
ENDMDL
