MODEL 1
REMARK VINA RESULT:      -5.8      0.000      0.000
REMARK  4 active torsions:
REMARK  status: ('A' for Active; 'I' for Inactive)
REMARK    1  A    between atoms: N_5  and  C_12 
REMARK    2  A    between atoms: C_12  and  C_14 
REMARK    3  A    between atoms: C_14  and  C_15 
REMARK    4  A    between atoms: C_14  and  O_17 
ROOT
HETATM    1  C   UNL     1     -42.725 -53.206  12.626  1.00  0.00     0.146 A 
HETATM    2  C   UNL     1     -41.798 -53.607  13.552  1.00  0.00     0.141 A 
HETATM    3  N   UNL     1     -41.952 -54.457  14.584  1.00  0.00    -0.336 N 
ATOM      4  HN  UNL     1     -41.191 -54.755  15.194  1.00  0.00     0.168 HD
HETATM    5  N   UNL     1     -44.279 -54.450  13.947  1.00  0.00    -0.306 N 
HETATM    6  C   UNL     1     -44.095 -53.666  12.785  1.00  0.00     0.279 C 
HETATM    7  N   UNL     1     -42.153 -52.393  11.674  1.00  0.00    -0.345 N 
ATOM      8  HN  UNL     1     -42.599 -51.983  10.853  1.00  0.00     0.167 HD
HETATM    9  N   UNL     1     -40.653 -52.936  13.231  1.00  0.00    -0.332 N 
HETATM   10  C   UNL     1     -43.184 -54.854  14.711  1.00  0.00     0.187 C 
HETATM   11  C   UNL     1     -40.898 -52.265  12.060  1.00  0.00     0.184 A 
HETATM   12  O   UNL     1     -44.995 -53.408  11.991  1.00  0.00    -0.265 OA
HETATM   13  C   UNL     1     -39.452 -52.858  14.018  1.00  0.00     0.158 C 
ENDROOT
BRANCH   5  14
HETATM   14  C   UNL     1     -45.642 -54.937  14.227  1.00  0.00     0.165 C 
BRANCH  14  15
HETATM   15  C   UNL     1     -46.635 -53.884  14.774  1.00  0.00     0.140 C 
BRANCH  15  16
HETATM   16  C   UNL     1     -45.939 -52.825  15.622  1.00  0.00     0.016 C 
HETATM   17  C   UNL     1     -46.596 -52.229  16.896  1.00  0.00     0.007 C 
HETATM   18  C   UNL     1     -45.981 -50.872  16.478  1.00  0.00     0.001 C 
HETATM   19  C   UNL     1     -46.032 -51.388  15.028  1.00  0.00     0.007 C 
ENDBRANCH  15  16
BRANCH  15  20
HETATM   20  O   UNL     1     -47.270 -53.172  13.711  1.00  0.00    -0.394 OA
HETATM   21  H   UNL     1     -48.169 -53.529  13.592  1.00  0.00     0.210 HD
ENDBRANCH  15  20
ENDBRANCH  14  15
ENDBRANCH   5  14
TORSDOF 4
ENDMDL
MODEL 2
REMARK VINA RESULT:      -5.6      3.631      5.720
REMARK  4 active torsions:
REMARK  status: ('A' for Active; 'I' for Inactive)
REMARK    1  A    between atoms: N_5  and  C_12 
REMARK    2  A    between atoms: C_12  and  C_14 
REMARK    3  A    between atoms: C_14  and  C_15 
REMARK    4  A    between atoms: C_14  and  O_17 
ROOT
HETATM    1  C   UNL     1     -40.976 -48.817  11.597  1.00  0.00     0.146 A 
HETATM    2  C   UNL     1     -42.346 -48.823  11.632  1.00  0.00     0.141 A 
HETATM    3  N   UNL     1     -43.166 -49.651  12.306  1.00  0.00    -0.336 N 
ATOM      4  HN  UNL     1     -44.181 -49.550  12.331  1.00  0.00     0.168 HD
HETATM    5  N   UNL     1     -41.138 -50.821  12.887  1.00  0.00    -0.306 N 
HETATM    6  C   UNL     1     -40.267 -49.878  12.293  1.00  0.00     0.279 C 
HETATM    7  N   UNL     1     -40.506 -47.754  10.860  1.00  0.00    -0.345 N 
ATOM      8  HN  UNL     1     -39.535 -47.487  10.697  1.00  0.00     0.167 HD
HETATM    9  N   UNL     1     -42.734 -47.809  10.806  1.00  0.00    -0.332 N 
HETATM   10  C   UNL     1     -42.513 -50.594  12.919  1.00  0.00     0.187 C 
HETATM   11  C   UNL     1     -41.594 -47.157  10.411  1.00  0.00     0.184 A 
HETATM   12  O   UNL     1     -39.043 -49.944  12.367  1.00  0.00    -0.265 OA
HETATM   13  C   UNL     1     -44.069 -47.535  10.348  1.00  0.00     0.158 C 
ENDROOT
BRANCH   5  14
HETATM   14  C   UNL     1     -40.523 -51.963  13.588  1.00  0.00     0.165 C 
BRANCH  14  15
HETATM   15  C   UNL     1     -40.491 -53.297  12.806  1.00  0.00     0.140 C 
BRANCH  15  16
HETATM   16  C   UNL     1     -41.558 -54.273  13.291  1.00  0.00     0.016 C 
HETATM   17  C   UNL     1     -43.073 -54.002  13.088  1.00  0.00     0.007 C 
HETATM   18  C   UNL     1     -43.287 -54.619  14.491  1.00  0.00     0.001 C 
HETATM   19  C   UNL     1     -41.851 -54.171  14.818  1.00  0.00     0.007 C 
ENDBRANCH  15  16
BRANCH  15  20
HETATM   20  O   UNL     1     -40.761 -53.088  11.418  1.00  0.00    -0.394 OA
HETATM   21  H   UNL     1     -40.861 -52.132  11.262  1.00  0.00     0.210 HD
ENDBRANCH  15  20
ENDBRANCH  14  15
ENDBRANCH   5  14
TORSDOF 4
ENDMDL
MODEL 3
REMARK VINA RESULT:      -5.5      2.115      3.080
REMARK  4 active torsions:
REMARK  status: ('A' for Active; 'I' for Inactive)
REMARK    1  A    between atoms: N_5  and  C_12 
REMARK    2  A    between atoms: C_12  and  C_14 
REMARK    3  A    between atoms: C_14  and  C_15 
REMARK    4  A    between atoms: C_14  and  O_17 
ROOT
HETATM    1  C   UNL     1     -40.167 -54.337  14.136  1.00  0.00     0.146 A 
HETATM    2  C   UNL     1     -40.801 -54.977  15.168  1.00  0.00     0.141 A 
HETATM    3  N   UNL     1     -42.121 -55.113  15.390  1.00  0.00    -0.336 N 
ATOM      4  HN  UNL     1     -42.517 -55.662  16.153  1.00  0.00     0.168 HD
HETATM    5  N   UNL     1     -42.361 -53.655  13.482  1.00  0.00    -0.306 N 
HETATM    6  C   UNL     1     -40.983 -53.620  13.169  1.00  0.00     0.279 C 
HETATM    7  N   UNL     1     -38.802 -54.496  14.220  1.00  0.00    -0.345 N 
ATOM      8  HN  UNL     1     -38.093 -54.158  13.569  1.00  0.00     0.167 HD
HETATM    9  N   UNL     1     -39.802 -55.445  15.971  1.00  0.00    -0.332 N 
HETATM   10  C   UNL     1     -42.833 -54.463  14.517  1.00  0.00     0.187 C 
HETATM   11  C   UNL     1     -38.617 -55.184  15.330  1.00  0.00     0.184 A 
HETATM   12  O   UNL     1     -40.526 -53.053  12.181  1.00  0.00    -0.265 OA
HETATM   13  C   UNL     1     -39.947 -56.010  17.286  1.00  0.00     0.158 C 
ENDROOT
BRANCH   5  14
HETATM   14  C   UNL     1     -43.278 -52.925  12.587  1.00  0.00     0.165 C 
BRANCH  14  15
HETATM   15  C   UNL     1     -44.776 -52.975  12.971  1.00  0.00     0.140 C 
BRANCH  15  16
HETATM   16  C   UNL     1     -45.154 -51.867  13.949  1.00  0.00     0.016 C 
HETATM   17  C   UNL     1     -45.281 -52.126  15.475  1.00  0.00     0.007 C 
HETATM   18  C   UNL     1     -46.486 -51.156  15.455  1.00  0.00     0.001 C 
HETATM   19  C   UNL     1     -46.680 -51.555  13.981  1.00  0.00     0.007 C 
ENDBRANCH  15  16
BRANCH  15  20
HETATM   20  O   UNL     1     -45.609 -52.780  11.826  1.00  0.00    -0.394 OA
HETATM   21  H   UNL     1     -46.220 -53.536  11.756  1.00  0.00     0.210 HD
ENDBRANCH  15  20
ENDBRANCH  14  15
ENDBRANCH   5  14
TORSDOF 4
ENDMDL
MODEL 4
REMARK VINA RESULT:      -5.5      6.811      8.483
REMARK  4 active torsions:
REMARK  status: ('A' for Active; 'I' for Inactive)
REMARK    1  A    between atoms: N_5  and  C_12 
REMARK    2  A    between atoms: C_12  and  C_14 
REMARK    3  A    between atoms: C_14  and  C_15 
REMARK    4  A    between atoms: C_14  and  O_17 
ROOT
HETATM    1  C   UNL     1     -42.549 -46.237  10.443  1.00  0.00     0.146 A 
HETATM    2  C   UNL     1     -42.643 -47.419   9.756  1.00  0.00     0.141 A 
HETATM    3  N   UNL     1     -42.012 -48.583   9.995  1.00  0.00    -0.336 N 
ATOM      4  HN  UNL     1     -42.184 -49.442   9.473  1.00  0.00     0.168 HD
HETATM    5  N   UNL     1     -40.836 -47.336  11.693  1.00  0.00    -0.306 N 
HETATM    6  C   UNL     1     -41.591 -46.152  11.532  1.00  0.00     0.279 C 
HETATM    7  N   UNL     1     -43.423 -45.301   9.937  1.00  0.00    -0.345 N 
ATOM      8  HN  UNL     1     -43.588 -44.353  10.276  1.00  0.00     0.167 HD
HETATM    9  N   UNL     1     -43.510 -47.174   8.731  1.00  0.00    -0.332 N 
HETATM   10  C   UNL     1     -41.158 -48.485  10.971  1.00  0.00     0.187 C 
HETATM   11  C   UNL     1     -43.998 -45.905   8.915  1.00  0.00     0.184 A 
HETATM   12  O   UNL     1     -41.457 -45.160  12.245  1.00  0.00    -0.265 OA
HETATM   13  C   UNL     1     -43.784 -48.033   7.611  1.00  0.00     0.158 C 
ENDROOT
BRANCH   5  14
HETATM   14  C   UNL     1     -39.805 -47.346  12.747  1.00  0.00     0.165 C 
BRANCH  14  15
HETATM   15  C   UNL     1     -39.590 -48.697  13.468  1.00  0.00     0.140 C 
BRANCH  15  16
HETATM   16  C   UNL     1     -38.233 -49.312  13.142  1.00  0.00     0.016 C 
HETATM   17  C   UNL     1     -37.841 -49.720  11.696  1.00  0.00     0.007 C 
HETATM   18  C   UNL     1     -37.133 -50.945  12.322  1.00  0.00     0.001 C 
HETATM   19  C   UNL     1     -38.135 -50.829  13.485  1.00  0.00     0.007 C 
ENDBRANCH  15  16
BRANCH  15  20
HETATM   20  O   UNL     1     -39.610 -48.534  14.888  1.00  0.00    -0.394 OA
HETATM   21  H   UNL     1     -39.734 -49.409  15.298  1.00  0.00     0.210 HD
ENDBRANCH  15  20
ENDBRANCH  14  15
ENDBRANCH   5  14
TORSDOF 4
ENDMDL
MODEL 5
REMARK VINA RESULT:      -5.4      3.855      5.983
REMARK  4 active torsions:
REMARK  status: ('A' for Active; 'I' for Inactive)
REMARK    1  A    between atoms: N_5  and  C_12 
REMARK    2  A    between atoms: C_12  and  C_14 
REMARK    3  A    between atoms: C_14  and  C_15 
REMARK    4  A    between atoms: C_14  and  O_17 
ROOT
HETATM    1  C   UNL     1     -42.106 -48.274  11.629  1.00  0.00     0.146 A 
HETATM    2  C   UNL     1     -40.860 -47.856  11.240  1.00  0.00     0.141 A 
HETATM    3  N   UNL     1     -39.687 -48.508  11.336  1.00  0.00    -0.336 N 
ATOM      4  HN  UNL     1     -38.806 -48.152  10.963  1.00  0.00     0.168 HD
HETATM    5  N   UNL     1     -40.963 -50.165  12.537  1.00  0.00    -0.306 N 
HETATM    6  C   UNL     1     -42.217 -49.548  12.320  1.00  0.00     0.279 C 
HETATM    7  N   UNL     1     -43.067 -47.353  11.279  1.00  0.00    -0.345 N 
ATOM      8  HN  UNL     1     -44.076 -47.421  11.414  1.00  0.00     0.167 HD
HETATM    9  N   UNL     1     -41.040 -46.599  10.741  1.00  0.00    -0.332 N 
HETATM   10  C   UNL     1     -39.807 -49.643  11.959  1.00  0.00     0.187 C 
HETATM   11  C   UNL     1     -42.391 -46.361  10.731  1.00  0.00     0.184 A 
HETATM   12  O   UNL     1     -43.285 -50.041  12.671  1.00  0.00    -0.265 OA
HETATM   13  C   UNL     1     -40.011 -45.657  10.391  1.00  0.00     0.158 C 
ENDROOT
BRANCH   5  14
HETATM   14  C   UNL     1     -40.956 -51.446  13.266  1.00  0.00     0.165 C 
BRANCH  14  15
HETATM   15  C   UNL     1     -40.749 -52.712  12.402  1.00  0.00     0.140 C 
BRANCH  15  16
HETATM   16  C   UNL     1     -41.437 -53.935  13.000  1.00  0.00     0.016 C 
HETATM   17  C   UNL     1     -42.946 -53.932  13.366  1.00  0.00     0.007 C 
HETATM   18  C   UNL     1     -42.563 -54.778  14.604  1.00  0.00     0.001 C 
HETATM   19  C   UNL     1     -41.174 -54.117  14.525  1.00  0.00     0.007 C 
ENDBRANCH  15  16
BRANCH  15  20
HETATM   20  O   UNL     1     -41.316 -52.549  11.100  1.00  0.00    -0.394 OA
HETATM   21  H   UNL     1     -40.594 -52.401  10.464  1.00  0.00     0.210 HD
ENDBRANCH  15  20
ENDBRANCH  14  15
ENDBRANCH   5  14
TORSDOF 4
ENDMDL
MODEL 6
REMARK VINA RESULT:      -5.4      5.970      8.147
REMARK  4 active torsions:
REMARK  status: ('A' for Active; 'I' for Inactive)
REMARK    1  A    between atoms: N_5  and  C_12 
REMARK    2  A    between atoms: C_12  and  C_14 
REMARK    3  A    between atoms: C_14  and  C_15 
REMARK    4  A    between atoms: C_14  and  O_17 
ROOT
HETATM    1  C   UNL     1     -42.388 -46.793  10.068  1.00  0.00     0.146 A 
HETATM    2  C   UNL     1     -43.484 -47.559  10.364  1.00  0.00     0.141 A 
HETATM    3  N   UNL     1     -43.622 -48.496  11.320  1.00  0.00    -0.336 N 
ATOM      4  HN  UNL     1     -44.497 -48.981  11.520  1.00  0.00     0.168 HD
HETATM    5  N   UNL     1     -41.270 -48.123  11.708  1.00  0.00    -0.306 N 
HETATM    6  C   UNL     1     -41.157 -47.047  10.798  1.00  0.00     0.279 C 
HETATM    7  N   UNL     1     -42.674 -45.884   9.074  1.00  0.00    -0.345 N 
ATOM      8  HN  UNL     1     -42.058 -45.170   8.684  1.00  0.00     0.167 HD
HETATM    9  N   UNL     1     -44.436 -47.195   9.457  1.00  0.00    -0.332 N 
HETATM   10  C   UNL     1     -42.510 -48.710  11.960  1.00  0.00     0.187 C 
HETATM   11  C   UNL     1     -43.924 -46.144   8.739  1.00  0.00     0.184 A 
HETATM   12  O   UNL     1     -40.130 -46.390  10.649  1.00  0.00    -0.265 OA
HETATM   13  C   UNL     1     -45.694 -47.850   9.219  1.00  0.00     0.158 C 
ENDROOT
BRANCH   5  14
HETATM   14  C   UNL     1     -40.067 -48.492  12.475  1.00  0.00     0.165 C 
BRANCH  14  15
HETATM   15  C   UNL     1     -39.048 -49.393  11.739  1.00  0.00     0.140 C 
BRANCH  15  16
HETATM   16  C   UNL     1     -37.867 -49.769  12.627  1.00  0.00     0.016 C 
HETATM   17  C   UNL     1     -37.866 -51.058  13.493  1.00  0.00     0.007 C 
HETATM   18  C   UNL     1     -37.140 -50.229  14.579  1.00  0.00     0.001 C 
HETATM   19  C   UNL     1     -37.825 -48.989  13.976  1.00  0.00     0.007 C 
ENDBRANCH  15  16
BRANCH  15  20
HETATM   20  O   UNL     1     -39.643 -50.631  11.344  1.00  0.00    -0.394 OA
HETATM   21  H   UNL     1     -40.610 -50.552  11.434  1.00  0.00     0.210 HD
ENDBRANCH  15  20
ENDBRANCH  14  15
ENDBRANCH   5  14
TORSDOF 4
ENDMDL
MODEL 7
REMARK VINA RESULT:      -5.4      2.520      3.436
REMARK  4 active torsions:
REMARK  status: ('A' for Active; 'I' for Inactive)
REMARK    1  A    between atoms: N_5  and  C_12 
REMARK    2  A    between atoms: C_12  and  C_14 
REMARK    3  A    between atoms: C_14  and  C_15 
REMARK    4  A    between atoms: C_14  and  O_17 
ROOT
HETATM    1  C   UNL     1     -41.597 -50.820  12.021  1.00  0.00     0.146 A 
HETATM    2  C   UNL     1     -42.181 -49.635  12.383  1.00  0.00     0.141 A 
HETATM    3  N   UNL     1     -43.178 -49.423  13.262  1.00  0.00    -0.336 N 
ATOM      4  HN  UNL     1     -43.517 -48.497  13.526  1.00  0.00     0.168 HD
HETATM    5  N   UNL     1     -43.283 -51.830  13.380  1.00  0.00    -0.306 N 
HETATM    6  C   UNL     1     -42.150 -52.051  12.563  1.00  0.00     0.279 C 
HETATM    7  N   UNL     1     -40.547 -50.610  11.157  1.00  0.00    -0.345 N 
ATOM      8  HN  UNL     1     -39.917 -51.306  10.757  1.00  0.00     0.167 HD
HETATM    9  N   UNL     1     -41.552 -48.680  11.640  1.00  0.00    -0.332 N 
HETATM   10  C   UNL     1     -43.660 -50.535  13.733  1.00  0.00     0.187 C 
HETATM   11  C   UNL     1     -40.537 -49.305  10.961  1.00  0.00     0.184 A 
HETATM   12  O   UNL     1     -41.678 -53.163  12.344  1.00  0.00    -0.265 OA
HETATM   13  C   UNL     1     -41.937 -47.301  11.506  1.00  0.00     0.158 C 
ENDROOT
BRANCH   5  14
HETATM   14  C   UNL     1     -43.947 -53.015  13.953  1.00  0.00     0.165 C 
BRANCH  14  15
HETATM   15  C   UNL     1     -45.304 -53.400  13.318  1.00  0.00     0.140 C 
BRANCH  15  16
HETATM   16  C   UNL     1     -46.485 -52.894  14.139  1.00  0.00     0.016 C 
HETATM   17  C   UNL     1     -46.888 -51.395  14.164  1.00  0.00     0.007 C 
HETATM   18  C   UNL     1     -47.207 -51.590  15.665  1.00  0.00     0.001 C 
HETATM   19  C   UNL     1     -46.167 -52.726  15.655  1.00  0.00     0.007 C 
ENDBRANCH  15  16
BRANCH  15  20
HETATM   20  O   UNL     1     -45.454 -52.813  12.023  1.00  0.00    -0.394 OA
HETATM   21  H   UNL     1     -44.958 -53.351  11.380  1.00  0.00     0.210 HD
ENDBRANCH  15  20
ENDBRANCH  14  15
ENDBRANCH   5  14
TORSDOF 4
ENDMDL
MODEL 8
REMARK VINA RESULT:      -5.4      3.114      6.061
REMARK  4 active torsions:
REMARK  status: ('A' for Active; 'I' for Inactive)
REMARK    1  A    between atoms: N_5  and  C_12 
REMARK    2  A    between atoms: C_12  and  C_14 
REMARK    3  A    between atoms: C_14  and  C_15 
REMARK    4  A    between atoms: C_14  and  O_17 
ROOT
HETATM    1  C   UNL     1     -41.758 -53.923  14.213  1.00  0.00     0.146 A 
HETATM    2  C   UNL     1     -42.882 -53.877  13.431  1.00  0.00     0.141 A 
HETATM    3  N   UNL     1     -43.091 -53.182  12.298  1.00  0.00    -0.336 N 
ATOM      4  HN  UNL     1     -43.939 -53.250  11.736  1.00  0.00     0.168 HD
HETATM    5  N   UNL     1     -40.919 -52.231  12.749  1.00  0.00    -0.306 N 
HETATM    6  C   UNL     1     -40.644 -53.058  13.863  1.00  0.00     0.279 C 
HETATM    7  N   UNL     1     -41.910 -54.823  15.244  1.00  0.00    -0.345 N 
ATOM      8  HN  UNL     1     -41.223 -55.083  15.952  1.00  0.00     0.167 HD
HETATM    9  N   UNL     1     -43.791 -54.680  14.056  1.00  0.00    -0.332 N 
HETATM   10  C   UNL     1     -42.084 -52.412  12.004  1.00  0.00     0.187 C 
HETATM   11  C   UNL     1     -43.142 -55.274  15.109  1.00  0.00     0.184 A 
HETATM   12  O   UNL     1     -39.573 -53.051  14.464  1.00  0.00    -0.265 OA
HETATM   13  C   UNL     1     -45.189 -54.805  13.743  1.00  0.00     0.158 C 
ENDROOT
BRANCH   5  14
HETATM   14  C   UNL     1     -39.870 -51.285  12.331  1.00  0.00     0.165 C 
BRANCH  14  15
HETATM   15  C   UNL     1     -40.366 -49.961  11.703  1.00  0.00     0.140 C 
BRANCH  15  16
HETATM   16  C   UNL     1     -39.517 -48.769  12.131  1.00  0.00     0.016 C 
HETATM   17  C   UNL     1     -38.192 -48.944  12.922  1.00  0.00     0.007 C 
HETATM   18  C   UNL     1     -38.592 -47.675  13.711  1.00  0.00     0.001 C 
HETATM   19  C   UNL     1     -40.055 -48.039  13.397  1.00  0.00     0.007 C 
ENDBRANCH  15  16
BRANCH  15  20
HETATM   20  O   UNL     1     -40.283 -50.003  10.277  1.00  0.00    -0.394 OA
HETATM   21  H   UNL     1     -41.022 -49.486   9.909  1.00  0.00     0.210 HD
ENDBRANCH  15  20
ENDBRANCH  14  15
ENDBRANCH   5  14
TORSDOF 4
ENDMDL
MODEL 9
REMARK VINA RESULT:      -5.3      2.543      6.222
REMARK  4 active torsions:
REMARK  status: ('A' for Active; 'I' for Inactive)
REMARK    1  A    between atoms: N_5  and  C_12 
REMARK    2  A    between atoms: C_12  and  C_14 
REMARK    3  A    between atoms: C_14  and  C_15 
REMARK    4  A    between atoms: C_14  and  O_17 
ROOT
HETATM    1  C   UNL     1     -43.828 -53.345  13.803  1.00  0.00     0.146 A 
HETATM    2  C   UNL     1     -44.598 -52.212  13.809  1.00  0.00     0.141 A 
HETATM    3  N   UNL     1     -44.363 -51.032  13.206  1.00  0.00    -0.336 N 
ATOM      4  HN  UNL     1     -45.020 -50.252  13.205  1.00  0.00     0.168 HD
HETATM    5  N   UNL     1     -42.235 -52.009  12.625  1.00  0.00    -0.306 N 
HETATM    6  C   UNL     1     -42.534 -53.291  13.142  1.00  0.00     0.279 C 
HETATM    7  N   UNL     1     -44.457 -54.373  14.468  1.00  0.00    -0.345 N 
ATOM      8  HN  UNL     1     -44.130 -55.333  14.586  1.00  0.00     0.167 HD
HETATM    9  N   UNL     1     -45.675 -52.511  14.591  1.00  0.00    -0.332 N 
HETATM   10  C   UNL     1     -43.201 -51.003  12.623  1.00  0.00     0.187 C 
HETATM   11  C   UNL     1     -45.577 -53.840  14.917  1.00  0.00     0.184 A 
HETATM   12  O   UNL     1     -41.784 -54.258  13.034  1.00  0.00    -0.265 OA
HETATM   13  C   UNL     1     -46.669 -51.591  15.075  1.00  0.00     0.158 C 
ENDROOT
BRANCH   5  14
HETATM   14  C   UNL     1     -40.928 -51.832  11.967  1.00  0.00     0.165 C 
BRANCH  14  15
HETATM   15  C   UNL     1     -40.486 -50.369  11.730  1.00  0.00     0.140 C 
BRANCH  15  16
HETATM   16  C   UNL     1     -39.130 -50.069  12.362  1.00  0.00     0.016 C 
HETATM   17  C   UNL     1     -37.800 -50.262  11.585  1.00  0.00     0.007 C 
HETATM   18  C   UNL     1     -37.193 -50.769  12.915  1.00  0.00     0.001 C 
HETATM   19  C   UNL     1     -38.619 -51.195  13.310  1.00  0.00     0.007 C 
ENDBRANCH  15  16
BRANCH  15  20
HETATM   20  O   UNL     1     -40.330 -50.095  10.336  1.00  0.00    -0.394 OA
HETATM   21  H   UNL     1     -41.196 -50.201   9.901  1.00  0.00     0.210 HD
ENDBRANCH  15  20
ENDBRANCH  14  15
ENDBRANCH   5  14
TORSDOF 4
ENDMDL
