MODEL 1
REMARK VINA RESULT:      -5.9      0.000      0.000
REMARK  6 active torsions:
REMARK  status: ('A' for Active; 'I' for Inactive)
REMARK    1  A    between atoms: C_4  and  C_8 
REMARK    2  A    between atoms: C_8  and  O_9 
REMARK    3  A    between atoms: C_8  and  C_10 
REMARK    4  A    between atoms: C_10  and  N_11 
REMARK       I    between atoms: N_11  and  C_12 
REMARK    5  A    between atoms: C_12  and  C_14 
REMARK    6  A    between atoms: C_14  and  C_15 
ROOT
HETATM    1  C   UNL     1     -41.950 -48.560  11.541  1.00  0.00     0.159 C 
ENDROOT
BRANCH   1   2
HETATM    2  C   UNL     1     -41.847 -47.861  10.163  1.00  0.00     0.171 C 
BRANCH   2   3
HETATM    3  C   UNL     1     -43.180 -47.711   9.502  1.00  0.00     0.006 A 
HETATM    4  C   UNL     1     -44.413 -47.446  10.069  1.00  0.00     0.120 A 
HETATM    5  N   UNL     1     -45.311 -47.428   9.043  1.00  0.00    -0.307 N 
HETATM    6  C   UNL     1     -46.731 -47.192   9.137  1.00  0.00     0.177 C 
HETATM    7  N   UNL     1     -44.758 -47.678   7.845  1.00  0.00    -0.310 N 
HETATM    8  C   UNL     1     -43.462 -47.834   8.122  1.00  0.00     0.118 A 
ATOM      9  HN  UNL     1     -45.220 -47.736   6.938  1.00  0.00     0.186 HD
ENDBRANCH   2   3
BRANCH   2  10
HETATM   10  O   UNL     1     -41.213 -46.587  10.332  1.00  0.00    -0.389 OA
HETATM   11  H   UNL     1     -40.700 -46.628  11.156  1.00  0.00     0.210 HD
ENDBRANCH   2  10
ENDBRANCH   1   2
BRANCH   1  12
HETATM   12  N   UNL     1     -41.899 -50.013  11.505  1.00  0.00    -0.358 N 
HETATM   13  C   UNL     1     -42.119 -50.751  12.642  1.00  0.00     0.217 C 
HETATM   14  O   UNL     1     -42.381 -50.243  13.728  1.00  0.00    -0.274 OA
HETATM   15  H   UNL     1     -41.526 -50.468  10.679  1.00  0.00     0.162 HD
BRANCH  13  16
HETATM   16  C   UNL     1     -42.085 -52.248  12.448  1.00  0.00     0.107 C 
BRANCH  16  17
HETATM   17  C   UNL     1     -43.145 -52.922  13.311  1.00  0.00    -0.006 C 
HETATM   18  C   UNL     1     -42.601 -54.011  14.243  1.00  0.00     0.005 C 
HETATM   19  C   UNL     1     -43.787 -54.932  14.525  1.00  0.00     0.000 C 
HETATM   20  C   UNL     1     -44.889 -54.516  13.553  1.00  0.00     0.000 C 
HETATM   21  C   UNL     1     -44.181 -53.686  12.492  1.00  0.00     0.005 C 
ENDBRANCH  16  17
ENDBRANCH  13  16
ENDBRANCH   1  12
TORSDOF 6
ENDMDL
MODEL 2
REMARK VINA RESULT:      -5.9      4.382      5.856
REMARK  6 active torsions:
REMARK  status: ('A' for Active; 'I' for Inactive)
REMARK    1  A    between atoms: C_4  and  C_8 
REMARK    2  A    between atoms: C_8  and  O_9 
REMARK    3  A    between atoms: C_8  and  C_10 
REMARK    4  A    between atoms: C_10  and  N_11 
REMARK       I    between atoms: N_11  and  C_12 
REMARK    5  A    between atoms: C_12  and  C_14 
REMARK    6  A    between atoms: C_14  and  C_15 
ROOT
HETATM    1  C   UNL     1     -41.291 -54.278  14.425  1.00  0.00     0.159 C 
ENDROOT
BRANCH   1   2
HETATM    2  C   UNL     1     -40.376 -54.130  13.185  1.00  0.00     0.171 C 
BRANCH   2   3
HETATM    3  C   UNL     1     -40.371 -52.734  12.647  1.00  0.00     0.006 A 
HETATM    4  C   UNL     1     -39.613 -51.647  13.042  1.00  0.00     0.120 A 
HETATM    5  N   UNL     1     -39.998 -50.604  12.253  1.00  0.00    -0.307 N 
HETATM    6  C   UNL     1     -39.489 -49.255  12.289  1.00  0.00     0.177 C 
HETATM    7  N   UNL     1     -40.965 -50.925  11.379  1.00  0.00    -0.310 N 
HETATM    8  C   UNL     1     -41.180 -52.222  11.607  1.00  0.00     0.118 A 
ATOM      9  HN  UNL     1     -41.427 -50.320  10.700  1.00  0.00     0.186 HD
ENDBRANCH   2   3
BRANCH   2  10
HETATM   10  O   UNL     1     -39.050 -54.551  13.530  1.00  0.00    -0.389 OA
HETATM   11  H   UNL     1     -38.791 -54.061  14.327  1.00  0.00     0.210 HD
ENDBRANCH   2  10
ENDBRANCH   1   2
BRANCH   1  12
HETATM   12  N   UNL     1     -42.717 -54.156  14.162  1.00  0.00    -0.358 N 
HETATM   13  C   UNL     1     -43.607 -55.055  14.696  1.00  0.00     0.217 C 
HETATM   14  O   UNL     1     -43.265 -55.984  15.422  1.00  0.00    -0.274 OA
HETATM   15  H   UNL     1     -43.026 -53.514  13.442  1.00  0.00     0.162 HD
BRANCH  13  16
HETATM   16  C   UNL     1     -45.058 -54.779  14.382  1.00  0.00     0.107 C 
BRANCH  16  17
HETATM   17  C   UNL     1     -45.308 -53.278  14.292  1.00  0.00    -0.006 C 
HETATM   18  C   UNL     1     -46.281 -52.737  15.345  1.00  0.00     0.005 C 
HETATM   19  C   UNL     1     -46.856 -51.455  14.745  1.00  0.00     0.000 C 
HETATM   20  C   UNL     1     -46.417 -51.437  13.283  1.00  0.00     0.000 C 
HETATM   21  C   UNL     1     -45.981 -52.865  12.987  1.00  0.00     0.005 C 
ENDBRANCH  16  17
ENDBRANCH  13  16
ENDBRANCH   1  12
TORSDOF 6
ENDMDL
MODEL 3
REMARK VINA RESULT:      -5.8      3.759      6.511
REMARK  6 active torsions:
REMARK  status: ('A' for Active; 'I' for Inactive)
REMARK    1  A    between atoms: C_4  and  C_8 
REMARK    2  A    between atoms: C_8  and  O_9 
REMARK    3  A    between atoms: C_8  and  C_10 
REMARK    4  A    between atoms: C_10  and  N_11 
REMARK       I    between atoms: N_11  and  C_12 
REMARK    5  A    between atoms: C_12  and  C_14 
REMARK    6  A    between atoms: C_14  and  C_15 
ROOT
HETATM    1  C   UNL     1     -42.346 -46.332  12.354  1.00  0.00     0.159 C 
ENDROOT
BRANCH   1   2
HETATM    2  C   UNL     1     -42.166 -47.759  12.927  1.00  0.00     0.171 C 
BRANCH   2   3
HETATM    3  C   UNL     1     -41.105 -48.530  12.209  1.00  0.00     0.006 A 
HETATM    4  C   UNL     1     -39.769 -48.686  12.529  1.00  0.00     0.120 A 
HETATM    5  N   UNL     1     -39.228 -49.463  11.548  1.00  0.00    -0.307 N 
HETATM    6  C   UNL     1     -37.857 -49.900  11.444  1.00  0.00     0.177 C 
HETATM    7  N   UNL     1     -40.109 -49.814  10.598  1.00  0.00    -0.310 N 
HETATM    8  C   UNL     1     -41.252 -49.261  11.008  1.00  0.00     0.118 A 
ATOM      9  HN  UNL     1     -39.944 -50.371   9.760  1.00  0.00     0.186 HD
ENDBRANCH   2   3
BRANCH   2  10
HETATM   10  O   UNL     1     -41.873 -47.666  14.327  1.00  0.00    -0.389 OA
HETATM   11  H   UNL     1     -42.664 -47.960  14.807  1.00  0.00     0.210 HD
ENDBRANCH   2  10
ENDBRANCH   1   2
BRANCH   1  12
HETATM   12  N   UNL     1     -43.295 -46.219  11.257  1.00  0.00    -0.358 N 
HETATM   13  C   UNL     1     -42.880 -45.827  10.009  1.00  0.00     0.217 C 
HETATM   14  O   UNL     1     -41.709 -45.569   9.743  1.00  0.00    -0.274 OA
HETATM   15  H   UNL     1     -44.286 -46.259  11.464  1.00  0.00     0.162 HD
BRANCH  13  16
HETATM   16  C   UNL     1     -43.962 -45.801   8.955  1.00  0.00     0.107 C 
BRANCH  16  17
HETATM   17  C   UNL     1     -44.943 -46.947   9.171  1.00  0.00    -0.006 C 
HETATM   18  C   UNL     1     -44.882 -48.041   8.099  1.00  0.00     0.005 C 
HETATM   19  C   UNL     1     -46.254 -48.712   8.125  1.00  0.00     0.000 C 
HETATM   20  C   UNL     1     -47.142 -47.829   8.999  1.00  0.00     0.000 C 
HETATM   21  C   UNL     1     -46.401 -46.503   9.096  1.00  0.00     0.005 C 
ENDBRANCH  16  17
ENDBRANCH  13  16
ENDBRANCH   1  12
TORSDOF 6
ENDMDL
MODEL 4
REMARK VINA RESULT:      -5.7      3.777      5.476
REMARK  6 active torsions:
REMARK  status: ('A' for Active; 'I' for Inactive)
REMARK    1  A    between atoms: C_4  and  C_8 
REMARK    2  A    between atoms: C_8  and  O_9 
REMARK    3  A    between atoms: C_8  and  C_10 
REMARK    4  A    between atoms: C_10  and  N_11 
REMARK       I    between atoms: N_11  and  C_12 
REMARK    5  A    between atoms: C_12  and  C_14 
REMARK    6  A    between atoms: C_14  and  C_15 
ROOT
HETATM    1  C   UNL     1     -40.932 -51.967  11.783  1.00  0.00     0.159 C 
ENDROOT
BRANCH   1   2
HETATM    2  C   UNL     1     -40.613 -50.455  11.680  1.00  0.00     0.171 C 
BRANCH   2   3
HETATM    3  C   UNL     1     -39.464 -50.057  12.551  1.00  0.00     0.006 A 
HETATM    4  C   UNL     1     -39.166 -48.821  13.095  1.00  0.00     0.120 A 
HETATM    5  N   UNL     1     -38.006 -48.980  13.793  1.00  0.00    -0.307 N 
HETATM    6  C   UNL     1     -37.295 -47.969  14.537  1.00  0.00     0.177 C 
HETATM    7  N   UNL     1     -37.513 -50.227  13.733  1.00  0.00    -0.310 N 
HETATM    8  C   UNL     1     -38.406 -50.885  12.992  1.00  0.00     0.118 A 
ATOM      9  HN  UNL     1     -36.656 -50.587  14.154  1.00  0.00     0.186 HD
ENDBRANCH   2   3
BRANCH   2  10
HETATM   10  O   UNL     1     -40.355 -50.125  10.309  1.00  0.00    -0.389 OA
HETATM   11  H   UNL     1     -40.079 -49.195  10.284  1.00  0.00     0.210 HD
ENDBRANCH   2  10
ENDBRANCH   1   2
BRANCH   1  12
HETATM   12  N   UNL     1     -42.346 -52.306  11.751  1.00  0.00    -0.358 N 
HETATM   13  C   UNL     1     -42.878 -53.180  12.667  1.00  0.00     0.217 C 
HETATM   14  O   UNL     1     -42.213 -53.703  13.556  1.00  0.00    -0.274 OA
HETATM   15  H   UNL     1     -42.894 -52.034  10.943  1.00  0.00     0.162 HD
BRANCH  13  16
HETATM   16  C   UNL     1     -44.367 -53.402  12.547  1.00  0.00     0.107 C 
BRANCH  16  17
HETATM   17  C   UNL     1     -45.097 -52.766  13.724  1.00  0.00    -0.006 C 
HETATM   18  C   UNL     1     -46.138 -53.675  14.386  1.00  0.00     0.005 C 
HETATM   19  C   UNL     1     -47.130 -52.730  15.063  1.00  0.00     0.000 C 
HETATM   20  C   UNL     1     -46.797 -51.329  14.553  1.00  0.00     0.000 C 
HETATM   21  C   UNL     1     -45.935 -51.556  13.320  1.00  0.00     0.005 C 
ENDBRANCH  16  17
ENDBRANCH  13  16
ENDBRANCH   1  12
TORSDOF 6
ENDMDL
MODEL 5
REMARK VINA RESULT:      -5.7      4.661      7.169
REMARK  6 active torsions:
REMARK  status: ('A' for Active; 'I' for Inactive)
REMARK    1  A    between atoms: C_4  and  C_8 
REMARK    2  A    between atoms: C_8  and  O_9 
REMARK    3  A    between atoms: C_8  and  C_10 
REMARK    4  A    between atoms: C_10  and  N_11 
REMARK       I    between atoms: N_11  and  C_12 
REMARK    5  A    between atoms: C_12  and  C_14 
REMARK    6  A    between atoms: C_14  and  C_15 
ROOT
HETATM    1  C   UNL     1     -42.565 -53.643  12.749  1.00  0.00     0.159 C 
ENDROOT
BRANCH   1   2
HETATM    2  C   UNL     1     -41.176 -52.966  12.658  1.00  0.00     0.171 C 
BRANCH   2   3
HETATM    3  C   UNL     1     -40.277 -53.361  13.786  1.00  0.00     0.006 A 
HETATM    4  C   UNL     1     -39.759 -54.605  14.097  1.00  0.00     0.120 A 
HETATM    5  N   UNL     1     -39.017 -54.438  15.229  1.00  0.00    -0.307 N 
HETATM    6  C   UNL     1     -38.279 -55.453  15.940  1.00  0.00     0.177 C 
HETATM    7  N   UNL     1     -39.024 -53.178  15.691  1.00  0.00    -0.310 N 
HETATM    8  C   UNL     1     -39.776 -52.520  14.807  1.00  0.00     0.118 A 
ATOM      9  HN  UNL     1     -38.563 -52.809  16.523  1.00  0.00     0.186 HD
ENDBRANCH   2   3
BRANCH   2  10
HETATM   10  O   UNL     1     -40.582 -53.285  11.393  1.00  0.00    -0.389 OA
HETATM   11  H   UNL     1     -40.154 -54.151  11.487  1.00  0.00     0.210 HD
ENDBRANCH   2  10
ENDBRANCH   1   2
BRANCH   1  12
HETATM   12  N   UNL     1     -43.701 -52.764  12.518  1.00  0.00    -0.358 N 
HETATM   13  C   UNL     1     -44.986 -53.231  12.648  1.00  0.00     0.217 C 
HETATM   14  O   UNL     1     -45.249 -54.384  12.974  1.00  0.00    -0.274 OA
HETATM   15  H   UNL     1     -43.538 -51.861  12.089  1.00  0.00     0.162 HD
BRANCH  13  16
HETATM   16  C   UNL     1     -46.065 -52.197  12.428  1.00  0.00     0.107 C 
BRANCH  16  17
HETATM   17  C   UNL     1     -46.437 -51.527  13.745  1.00  0.00    -0.006 C 
HETATM   18  C   UNL     1     -45.239 -51.024  14.559  1.00  0.00     0.005 C 
HETATM   19  C   UNL     1     -45.724 -50.974  16.006  1.00  0.00     0.000 C 
HETATM   20  C   UNL     1     -47.072 -51.693  16.028  1.00  0.00     0.000 C 
HETATM   21  C   UNL     1     -47.117 -52.479  14.725  1.00  0.00     0.005 C 
ENDBRANCH  16  17
ENDBRANCH  13  16
ENDBRANCH   1  12
TORSDOF 6
ENDMDL
MODEL 6
REMARK VINA RESULT:      -5.7      2.608      6.780
REMARK  6 active torsions:
REMARK  status: ('A' for Active; 'I' for Inactive)
REMARK    1  A    between atoms: C_4  and  C_8 
REMARK    2  A    between atoms: C_8  and  O_9 
REMARK    3  A    between atoms: C_8  and  C_10 
REMARK    4  A    between atoms: C_10  and  N_11 
REMARK       I    between atoms: N_11  and  C_12 
REMARK    5  A    between atoms: C_12  and  C_14 
REMARK    6  A    between atoms: C_14  and  C_15 
ROOT
HETATM    1  C   UNL     1     -41.953 -49.321  11.664  1.00  0.00     0.159 C 
ENDROOT
BRANCH   1   2
HETATM    2  C   UNL     1     -40.573 -50.022  11.622  1.00  0.00     0.171 C 
BRANCH   2   3
HETATM    3  C   UNL     1     -40.621 -51.405  12.189  1.00  0.00     0.006 A 
HETATM    4  C   UNL     1     -39.865 -51.961  13.205  1.00  0.00     0.120 A 
HETATM    5  N   UNL     1     -40.281 -53.254  13.329  1.00  0.00    -0.307 N 
HETATM    6  C   UNL     1     -39.786 -54.239  14.258  1.00  0.00     0.177 C 
HETATM    7  N   UNL     1     -41.245 -53.590  12.457  1.00  0.00    -0.310 N 
HETATM    8  C   UNL     1     -41.463 -52.463  11.776  1.00  0.00     0.118 A 
ATOM      9  HN  UNL     1     -41.703 -54.494  12.342  1.00  0.00     0.186 HD
ENDBRANCH   2   3
BRANCH   2  10
HETATM   10  O   UNL     1     -40.099 -50.039  10.269  1.00  0.00    -0.389 OA
HETATM   11  H   UNL     1     -39.760 -49.151  10.072  1.00  0.00     0.210 HD
ENDBRANCH   2  10
ENDBRANCH   1   2
BRANCH   1  12
HETATM   12  N   UNL     1     -42.266 -48.496  10.508  1.00  0.00    -0.358 N 
HETATM   13  C   UNL     1     -42.941 -47.310  10.656  1.00  0.00     0.217 C 
HETATM   14  O   UNL     1     -43.300 -46.876  11.746  1.00  0.00    -0.274 OA
HETATM   15  H   UNL     1     -42.140 -48.887   9.582  1.00  0.00     0.162 HD
BRANCH  13  16
HETATM   16  C   UNL     1     -43.154 -46.533   9.378  1.00  0.00     0.107 C 
BRANCH  16  17
HETATM   17  C   UNL     1     -44.449 -46.965   8.701  1.00  0.00    -0.006 C 
HETATM   18  C   UNL     1     -45.512 -47.511   9.662  1.00  0.00     0.005 C 
HETATM   19  C   UNL     1     -46.404 -48.412   8.811  1.00  0.00     0.000 C 
HETATM   20  C   UNL     1     -45.688 -48.576   7.472  1.00  0.00     0.000 C 
HETATM   21  C   UNL     1     -44.257 -48.131   7.737  1.00  0.00     0.005 C 
ENDBRANCH  16  17
ENDBRANCH  13  16
ENDBRANCH   1  12
TORSDOF 6
ENDMDL
MODEL 7
REMARK VINA RESULT:      -5.7      4.307      5.821
REMARK  6 active torsions:
REMARK  status: ('A' for Active; 'I' for Inactive)
REMARK    1  A    between atoms: C_4  and  C_8 
REMARK    2  A    between atoms: C_8  and  O_9 
REMARK    3  A    between atoms: C_8  and  C_10 
REMARK    4  A    between atoms: C_10  and  N_11 
REMARK       I    between atoms: N_11  and  C_12 
REMARK    5  A    between atoms: C_12  and  C_14 
REMARK    6  A    between atoms: C_14  and  C_15 
ROOT
HETATM    1  C   UNL     1     -42.506 -53.015  12.668  1.00  0.00     0.159 C 
ENDROOT
BRANCH   1   2
HETATM    2  C   UNL     1     -41.322 -52.383  11.896  1.00  0.00     0.171 C 
BRANCH   2   3
HETATM    3  C   UNL     1     -40.458 -51.537  12.775  1.00  0.00     0.006 A 
HETATM    4  C   UNL     1     -40.454 -50.164  12.939  1.00  0.00     0.120 A 
HETATM    5  N   UNL     1     -39.466 -49.887  13.837  1.00  0.00    -0.307 N 
HETATM    6  C   UNL     1     -39.078 -48.588  14.327  1.00  0.00     0.177 C 
HETATM    7  N   UNL     1     -38.810 -50.979  14.262  1.00  0.00    -0.310 N 
HETATM    8  C   UNL     1     -39.423 -51.982  13.630  1.00  0.00     0.118 A 
ATOM      9  HN  UNL     1     -38.028 -51.030  14.914  1.00  0.00     0.186 HD
ENDBRANCH   2   3
BRANCH   2  10
HETATM   10  O   UNL     1     -40.559 -53.426  11.276  1.00  0.00    -0.389 OA
HETATM   11  H   UNL     1     -40.989 -54.268  11.497  1.00  0.00     0.210 HD
ENDBRANCH   2  10
ENDBRANCH   1   2
BRANCH   1  12
HETATM   12  N   UNL     1     -43.783 -52.339  12.508  1.00  0.00    -0.358 N 
HETATM   13  C   UNL     1     -44.962 -53.039  12.587  1.00  0.00     0.217 C 
HETATM   14  O   UNL     1     -45.009 -54.246  12.807  1.00  0.00    -0.274 OA
HETATM   15  H   UNL     1     -43.791 -51.386  12.163  1.00  0.00     0.162 HD
BRANCH  13  16
HETATM   16  C   UNL     1     -46.212 -52.202  12.451  1.00  0.00     0.107 C 
BRANCH  16  17
HETATM   17  C   UNL     1     -46.587 -51.583  13.792  1.00  0.00    -0.006 C 
HETATM   18  C   UNL     1     -45.398 -51.031  14.587  1.00  0.00     0.005 C 
HETATM   19  C   UNL     1     -45.847 -51.039  16.047  1.00  0.00     0.000 C 
HETATM   20  C   UNL     1     -47.150 -51.835  16.086  1.00  0.00     0.000 C 
HETATM   21  C   UNL     1     -47.185 -52.593  14.767  1.00  0.00     0.005 C 
ENDBRANCH  16  17
ENDBRANCH  13  16
ENDBRANCH   1  12
TORSDOF 6
ENDMDL
MODEL 8
REMARK VINA RESULT:      -5.5      1.908      2.310
REMARK  6 active torsions:
REMARK  status: ('A' for Active; 'I' for Inactive)
REMARK    1  A    between atoms: C_4  and  C_8 
REMARK    2  A    between atoms: C_8  and  O_9 
REMARK    3  A    between atoms: C_8  and  C_10 
REMARK    4  A    between atoms: C_10  and  N_11 
REMARK       I    between atoms: N_11  and  C_12 
REMARK    5  A    between atoms: C_12  and  C_14 
REMARK    6  A    between atoms: C_14  and  C_15 
ROOT
HETATM    1  C   UNL     1     -41.424 -49.778  12.363  1.00  0.00     0.159 C 
ENDROOT
BRANCH   1   2
HETATM    2  C   UNL     1     -40.831 -49.297  11.016  1.00  0.00     0.171 C 
BRANCH   2   3
HETATM    3  C   UNL     1     -41.454 -48.020  10.545  1.00  0.00     0.006 A 
HETATM    4  C   UNL     1     -42.653 -47.824   9.885  1.00  0.00     0.120 A 
HETATM    5  N   UNL     1     -42.752 -46.482   9.663  1.00  0.00    -0.307 N 
HETATM    6  C   UNL     1     -43.832 -45.789   9.003  1.00  0.00     0.177 C 
HETATM    7  N   UNL     1     -41.697 -45.786  10.117  1.00  0.00    -0.310 N 
HETATM    8  C   UNL     1     -40.916 -46.718  10.666  1.00  0.00     0.118 A 
ATOM      9  HN  UNL     1     -41.531 -44.782  10.055  1.00  0.00     0.186 HD
ENDBRANCH   2   3
BRANCH   2  10
HETATM   10  O   UNL     1     -39.412 -49.153  11.156  1.00  0.00    -0.389 OA
HETATM   11  H   UNL     1     -39.158 -48.339  10.693  1.00  0.00     0.210 HD
ENDBRANCH   2  10
ENDBRANCH   1   2
BRANCH   1  12
HETATM   12  N   UNL     1     -41.784 -51.186  12.414  1.00  0.00    -0.358 N 
HETATM   13  C   UNL     1     -40.819 -52.151  12.566  1.00  0.00     0.217 C 
HETATM   14  O   UNL     1     -39.625 -51.890  12.680  1.00  0.00    -0.274 OA
HETATM   15  H   UNL     1     -42.727 -51.458  12.160  1.00  0.00     0.162 HD
BRANCH  13  16
HETATM   16  C   UNL     1     -41.340 -53.566  12.653  1.00  0.00     0.107 C 
BRANCH  16  17
HETATM   17  C   UNL     1     -42.670 -53.600  13.396  1.00  0.00    -0.006 C 
HETATM   18  C   UNL     1     -42.761 -54.681  14.479  1.00  0.00     0.005 C 
HETATM   19  C   UNL     1     -44.253 -54.960  14.650  1.00  0.00     0.000 C 
HETATM   20  C   UNL     1     -44.953 -54.248  13.494  1.00  0.00     0.000 C 
HETATM   21  C   UNL     1     -43.848 -53.949  12.491  1.00  0.00     0.005 C 
ENDBRANCH  16  17
ENDBRANCH  13  16
ENDBRANCH   1  12
TORSDOF 6
ENDMDL
MODEL 9
REMARK VINA RESULT:      -5.5      3.263      4.333
REMARK  6 active torsions:
REMARK  status: ('A' for Active; 'I' for Inactive)
REMARK    1  A    between atoms: C_4  and  C_8 
REMARK    2  A    between atoms: C_8  and  O_9 
REMARK    3  A    between atoms: C_8  and  C_10 
REMARK    4  A    between atoms: C_10  and  N_11 
REMARK       I    between atoms: N_11  and  C_12 
REMARK    5  A    between atoms: C_12  and  C_14 
REMARK    6  A    between atoms: C_14  and  C_15 
ROOT
HETATM    1  C   UNL     1     -41.284 -50.493  12.230  1.00  0.00     0.159 C 
ENDROOT
BRANCH   1   2
HETATM    2  C   UNL     1     -41.079 -49.377  11.176  1.00  0.00     0.171 C 
BRANCH   2   3
HETATM    3  C   UNL     1     -40.454 -48.151  11.762  1.00  0.00     0.006 A 
HETATM    4  C   UNL     1     -39.814 -47.992  12.977  1.00  0.00     0.120 A 
HETATM    5  N   UNL     1     -39.443 -46.681  13.046  1.00  0.00    -0.307 N 
HETATM    6  C   UNL     1     -38.744 -46.032  14.127  1.00  0.00     0.177 C 
HETATM    7  N   UNL     1     -39.809 -45.966  11.970  1.00  0.00    -0.310 N 
HETATM    8  C   UNL     1     -40.409 -46.862  11.183  1.00  0.00     0.118 A 
ATOM      9  HN  UNL     1     -39.664 -44.972  11.795  1.00  0.00     0.186 HD
ENDBRANCH   2   3
BRANCH   2  10
HETATM   10  O   UNL     1     -40.284 -49.893  10.099  1.00  0.00    -0.389 OA
HETATM   11  H   UNL     1     -39.371 -49.956  10.421  1.00  0.00     0.210 HD
ENDBRANCH   2  10
ENDBRANCH   1   2
BRANCH   1  12
HETATM   12  N   UNL     1     -42.562 -51.184  12.161  1.00  0.00    -0.358 N 
HETATM   13  C   UNL     1     -42.659 -52.514  12.487  1.00  0.00     0.217 C 
HETATM   14  O   UNL     1     -41.699 -53.182  12.863  1.00  0.00    -0.274 OA
HETATM   15  H   UNL     1     -43.340 -50.725  11.702  1.00  0.00     0.162 HD
BRANCH  13  16
HETATM   16  C   UNL     1     -44.053 -53.089  12.418  1.00  0.00     0.107 C 
BRANCH  16  17
HETATM   17  C   UNL     1     -44.894 -52.590  13.588  1.00  0.00    -0.006 C 
HETATM   18  C   UNL     1     -45.787 -53.660  14.225  1.00  0.00     0.005 C 
HETATM   19  C   UNL     1     -46.927 -52.893  14.892  1.00  0.00     0.000 C 
HETATM   20  C   UNL     1     -46.813 -51.451  14.401  1.00  0.00     0.000 C 
HETATM   21  C   UNL     1     -45.907 -51.525  13.180  1.00  0.00     0.005 C 
ENDBRANCH  16  17
ENDBRANCH  13  16
ENDBRANCH   1  12
TORSDOF 6
ENDMDL
