MODEL 1
REMARK VINA RESULT:      -6.2      0.000      0.000
REMARK  5 active torsions:
REMARK  status: ('A' for Active; 'I' for Inactive)
REMARK    1  A    between atoms: O_2  and  C_3 
REMARK    2  A    between atoms: C_6  and  N_7 
REMARK       I    between atoms: N_7  and  C_8 
REMARK       I    between atoms: C_8  and  N_10 
REMARK    3  A    between atoms: N_10  and  C_11 
REMARK    4  A    between atoms: C_11  and  C_12 
REMARK    5  A    between atoms: C_12  and  N_15 
ROOT
HETATM    1  N   UNL     1     -42.215 -49.207  11.038  1.00  0.00    -0.308 N 
HETATM    2  C   UNL     1     -42.107 -49.898  12.224  1.00  0.00     0.320 C 
HETATM    3  O   UNL     1     -41.945 -49.394  13.327  1.00  0.00    -0.247 OA
HETATM    4  N   UNL     1     -42.156 -51.260  12.047  1.00  0.00    -0.341 N 
HETATM    5  H   UNL     1     -42.608 -49.701  10.252  1.00  0.00     0.170 HD
HETATM    6  H   UNL     1     -42.618 -51.627  11.229  1.00  0.00     0.164 HD
ENDROOT
BRANCH   1   7
HETATM    7  C   UNL     1     -42.047 -47.811  10.917  1.00  0.00     0.051 A 
HETATM    8  C   UNL     1     -40.797 -47.192  10.905  1.00  0.00     0.035 A 
HETATM    9  C   UNL     1     -40.706 -45.806  10.827  1.00  0.00     0.058 A 
HETATM   10  C   UNL     1     -41.879 -45.076  10.774  1.00  0.00     0.141 A 
HETATM   11  N   UNL     1     -43.110 -45.632  10.733  1.00  0.00    -0.345 N 
HETATM   12  C   UNL     1     -43.162 -46.985  10.793  1.00  0.00     0.119 A 
ATOM     13  HN  UNL     1     -43.954 -45.064  10.661  1.00  0.00     0.167 HD
BRANCH  10  14
HETATM   14  O   UNL     1     -41.736 -43.705  10.732  1.00  0.00    -0.341 OA
HETATM   15  C   UNL     1     -40.463 -43.285  11.204  1.00  0.00     0.211 C 
ENDBRANCH  10  14
ENDBRANCH   1   7
BRANCH   4  16
HETATM   16  C   UNL     1     -41.989 -52.150  13.190  1.00  0.00     0.154 C 
BRANCH  16  17
HETATM   17  C   UNL     1     -43.280 -52.938  13.645  1.00  0.00     0.036 C 
HETATM   18  C   UNL     1     -44.146 -53.173  12.390  1.00  0.00     0.039 C 
HETATM   19  C   UNL     1     -42.859 -54.338  14.164  1.00  0.00     0.039 C 
BRANCH  17  20
HETATM   20  N   UNL     1     -43.963 -52.218  14.766  1.00  0.00    -0.400 N 
HETATM   21  C   UNL     1     -44.605 -53.026  15.822  1.00  0.00     0.147 C 
HETATM   22  C   UNL     1     -46.077 -53.434  15.559  1.00  0.00     0.291 C 
HETATM   23  N   UNL     1     -46.977 -52.363  15.088  1.00  0.00     0.087 N 
HETATM   24  C   UNL     1     -47.478 -51.568  16.206  1.00  0.00     0.310 C 
HETATM   25  C   UNL     1     -46.308 -51.513  14.087  1.00  0.00     0.291 C 
HETATM   26  C   UNL     1     -44.862 -51.099  14.437  1.00  0.00     0.147 C 
ENDBRANCH  17  20
ENDBRANCH  16  17
ENDBRANCH   4  16
TORSDOF 5
ENDMDL
MODEL 2
REMARK VINA RESULT:      -5.9      1.380      2.678
REMARK  5 active torsions:
REMARK  status: ('A' for Active; 'I' for Inactive)
REMARK    1  A    between atoms: O_2  and  C_3 
REMARK    2  A    between atoms: C_6  and  N_7 
REMARK       I    between atoms: N_7  and  C_8 
REMARK       I    between atoms: C_8  and  N_10 
REMARK    3  A    between atoms: N_10  and  C_11 
REMARK    4  A    between atoms: C_11  and  C_12 
REMARK    5  A    between atoms: C_12  and  N_15 
ROOT
HETATM    1  N   UNL     1     -42.281 -49.454  11.451  1.00  0.00    -0.308 N 
HETATM    2  C   UNL     1     -42.929 -49.670  12.646  1.00  0.00     0.320 C 
HETATM    3  O   UNL     1     -43.198 -48.811  13.475  1.00  0.00    -0.247 OA
HETATM    4  N   UNL     1     -43.222 -50.998  12.852  1.00  0.00    -0.341 N 
HETATM    5  H   UNL     1     -42.357 -50.173  10.749  1.00  0.00     0.170 HD
HETATM    6  H   UNL     1     -43.309 -51.606  12.053  1.00  0.00     0.164 HD
ENDROOT
BRANCH   1   7
HETATM    7  C   UNL     1     -41.736 -48.211  11.060  1.00  0.00     0.051 A 
HETATM    8  C   UNL     1     -40.511 -47.735  11.528  1.00  0.00     0.035 A 
HETATM    9  C   UNL     1     -40.055 -46.481  11.135  1.00  0.00     0.058 A 
HETATM   10  C   UNL     1     -40.851 -45.732  10.288  1.00  0.00     0.141 A 
HETATM   11  N   UNL     1     -42.020 -46.169   9.771  1.00  0.00    -0.345 N 
HETATM   12  C   UNL     1     -42.426 -47.402  10.160  1.00  0.00     0.119 A 
ATOM     13  HN  UNL     1     -42.566 -45.603   9.123  1.00  0.00     0.167 HD
BRANCH  10  14
HETATM   14  O   UNL     1     -40.370 -44.483   9.955  1.00  0.00    -0.341 OA
HETATM   15  C   UNL     1     -40.286 -43.623  11.085  1.00  0.00     0.211 C 
ENDBRANCH  10  14
ENDBRANCH   1   7
BRANCH   4  16
HETATM   16  C   UNL     1     -43.849 -51.419  14.099  1.00  0.00     0.154 C 
BRANCH  16  17
HETATM   17  C   UNL     1     -45.126 -52.339  13.953  1.00  0.00     0.036 C 
HETATM   18  C   UNL     1     -46.364 -51.457  14.216  1.00  0.00     0.039 C 
HETATM   19  C   UNL     1     -45.230 -52.825  12.483  1.00  0.00     0.039 C 
BRANCH  17  20
HETATM   20  N   UNL     1     -45.003 -53.547  14.829  1.00  0.00    -0.400 N 
HETATM   21  C   UNL     1     -44.616 -53.345  16.239  1.00  0.00     0.147 C 
HETATM   22  C   UNL     1     -43.092 -53.328  16.526  1.00  0.00     0.291 C 
HETATM   23  N   UNL     1     -42.299 -54.407  15.906  1.00  0.00     0.087 N 
HETATM   24  C   UNL     1     -42.356 -55.628  16.705  1.00  0.00     0.310 C 
HETATM   25  C   UNL     1     -42.737 -54.655  14.520  1.00  0.00     0.291 C 
HETATM   26  C   UNL     1     -44.266 -54.714  14.315  1.00  0.00     0.147 C 
ENDBRANCH  17  20
ENDBRANCH  16  17
ENDBRANCH   4  16
TORSDOF 5
ENDMDL
MODEL 3
REMARK VINA RESULT:      -5.7      2.191      2.651
REMARK  5 active torsions:
REMARK  status: ('A' for Active; 'I' for Inactive)
REMARK    1  A    between atoms: O_2  and  C_3 
REMARK    2  A    between atoms: C_6  and  N_7 
REMARK       I    between atoms: N_7  and  C_8 
REMARK       I    between atoms: C_8  and  N_10 
REMARK    3  A    between atoms: N_10  and  C_11 
REMARK    4  A    between atoms: C_11  and  C_12 
REMARK    5  A    between atoms: C_12  and  N_15 
ROOT
HETATM    1  N   UNL     1     -39.771 -48.773  11.411  1.00  0.00    -0.308 N 
HETATM    2  C   UNL     1     -40.827 -49.623  11.654  1.00  0.00     0.320 C 
HETATM    3  O   UNL     1     -41.936 -49.285  12.043  1.00  0.00    -0.247 OA
HETATM    4  N   UNL     1     -40.497 -50.942  11.453  1.00  0.00    -0.341 N 
HETATM    5  H   UNL     1     -39.014 -49.129  10.849  1.00  0.00     0.170 HD
HETATM    6  H   UNL     1     -39.736 -51.163  10.830  1.00  0.00     0.164 HD
ENDROOT
BRANCH   1   7
HETATM    7  C   UNL     1     -39.792 -47.388  11.682  1.00  0.00     0.051 A 
HETATM    8  C   UNL     1     -40.136 -46.430  10.728  1.00  0.00     0.035 A 
HETATM    9  C   UNL     1     -40.094 -45.078  11.051  1.00  0.00     0.058 A 
HETATM   10  C   UNL     1     -39.693 -44.723  12.327  1.00  0.00     0.141 A 
HETATM   11  N   UNL     1     -39.397 -45.614  13.298  1.00  0.00    -0.345 N 
HETATM   12  C   UNL     1     -39.466 -46.924  12.954  1.00  0.00     0.119 A 
ATOM     13  HN  UNL     1     -39.137 -45.318  14.238  1.00  0.00     0.167 HD
BRANCH  10  14
HETATM   14  O   UNL     1     -39.635 -43.370  12.587  1.00  0.00    -0.341 OA
HETATM   15  C   UNL     1     -40.536 -42.629  11.774  1.00  0.00     0.211 C 
ENDBRANCH  10  14
ENDBRANCH   1   7
BRANCH   4  16
HETATM   16  C   UNL     1     -41.476 -51.987  11.729  1.00  0.00     0.154 C 
BRANCH  16  17
HETATM   17  C   UNL     1     -41.324 -52.725  13.117  1.00  0.00     0.036 C 
HETATM   18  C   UNL     1     -40.900 -54.179  12.825  1.00  0.00     0.039 C 
HETATM   19  C   UNL     1     -40.159 -52.073  13.909  1.00  0.00     0.039 C 
BRANCH  17  20
HETATM   20  N   UNL     1     -42.573 -52.574  13.929  1.00  0.00    -0.400 N 
HETATM   21  C   UNL     1     -42.787 -53.505  15.054  1.00  0.00     0.147 C 
HETATM   22  C   UNL     1     -43.508 -54.833  14.705  1.00  0.00     0.291 C 
HETATM   23  N   UNL     1     -44.721 -54.717  13.872  1.00  0.00     0.087 N 
HETATM   24  C   UNL     1     -45.888 -54.388  14.685  1.00  0.00     0.310 C 
HETATM   25  C   UNL     1     -44.528 -53.732  12.791  1.00  0.00     0.291 C 
HETATM   26  C   UNL     1     -43.854 -52.411  13.220  1.00  0.00     0.147 C 
ENDBRANCH  17  20
ENDBRANCH  16  17
ENDBRANCH   4  16
TORSDOF 5
ENDMDL
MODEL 4
REMARK VINA RESULT:      -5.7      1.793      3.470
REMARK  5 active torsions:
REMARK  status: ('A' for Active; 'I' for Inactive)
REMARK    1  A    between atoms: O_2  and  C_3 
REMARK    2  A    between atoms: C_6  and  N_7 
REMARK       I    between atoms: N_7  and  C_8 
REMARK       I    between atoms: C_8  and  N_10 
REMARK    3  A    between atoms: N_10  and  C_11 
REMARK    4  A    between atoms: C_11  and  C_12 
REMARK    5  A    between atoms: C_12  and  N_15 
ROOT
HETATM    1  N   UNL     1     -43.472 -49.074  11.950  1.00  0.00    -0.308 N 
HETATM    2  C   UNL     1     -43.290 -49.779  13.118  1.00  0.00     0.320 C 
HETATM    3  O   UNL     1     -42.513 -49.480  14.015  1.00  0.00    -0.247 OA
HETATM    4  N   UNL     1     -44.060 -50.917  13.171  1.00  0.00    -0.341 N 
HETATM    5  H   UNL     1     -44.312 -49.261  11.425  1.00  0.00     0.170 HD
HETATM    6  H   UNL     1     -44.903 -50.959  12.621  1.00  0.00     0.164 HD
ENDROOT
BRANCH   1   7
HETATM    7  C   UNL     1     -42.702 -47.952  11.574  1.00  0.00     0.051 A 
HETATM    8  C   UNL     1     -42.985 -46.655  12.000  1.00  0.00     0.035 A 
HETATM    9  C   UNL     1     -42.209 -45.590  11.556  1.00  0.00     0.058 A 
HETATM   10  C   UNL     1     -41.171 -45.857  10.681  1.00  0.00     0.141 A 
HETATM   11  N   UNL     1     -40.827 -47.100  10.279  1.00  0.00    -0.345 N 
HETATM   12  C   UNL     1     -41.594 -48.117  10.745  1.00  0.00     0.119 A 
ATOM     13  HN  UNL     1     -40.035 -47.265   9.659  1.00  0.00     0.167 HD
BRANCH  10  14
HETATM   14  O   UNL     1     -40.453 -44.764  10.244  1.00  0.00    -0.341 OA
HETATM   15  C   UNL     1     -40.591 -43.649  11.115  1.00  0.00     0.211 C 
ENDBRANCH  10  14
ENDBRANCH   1   7
BRANCH   4  16
HETATM   16  C   UNL     1     -43.944 -51.821  14.309  1.00  0.00     0.154 C 
BRANCH  16  17
HETATM   17  C   UNL     1     -43.985 -53.364  13.970  1.00  0.00     0.036 C 
HETATM   18  C   UNL     1     -45.139 -53.986  14.783  1.00  0.00     0.039 C 
HETATM   19  C   UNL     1     -44.350 -53.541  12.472  1.00  0.00     0.039 C 
BRANCH  17  20
HETATM   20  N   UNL     1     -42.640 -53.984  14.192  1.00  0.00    -0.400 N 
HETATM   21  C   UNL     1     -41.882 -53.586  15.394  1.00  0.00     0.147 C 
HETATM   22  C   UNL     1     -40.972 -52.341  15.238  1.00  0.00     0.291 C 
HETATM   23  N   UNL     1     -40.118 -52.304  14.034  1.00  0.00     0.087 N 
HETATM   24  C   UNL     1     -38.895 -53.076  14.232  1.00  0.00     0.310 C 
HETATM   25  C   UNL     1     -40.858 -52.770  12.847  1.00  0.00     0.291 C 
HETATM   26  C   UNL     1     -41.702 -54.046  13.059  1.00  0.00     0.147 C 
ENDBRANCH  17  20
ENDBRANCH  16  17
ENDBRANCH   4  16
TORSDOF 5
ENDMDL
MODEL 5
REMARK VINA RESULT:      -5.7      1.321      1.483
REMARK  5 active torsions:
REMARK  status: ('A' for Active; 'I' for Inactive)
REMARK    1  A    between atoms: O_2  and  C_3 
REMARK    2  A    between atoms: C_6  and  N_7 
REMARK       I    between atoms: N_7  and  C_8 
REMARK       I    between atoms: C_8  and  N_10 
REMARK    3  A    between atoms: N_10  and  C_11 
REMARK    4  A    between atoms: C_11  and  C_12 
REMARK    5  A    between atoms: C_12  and  N_15 
ROOT
HETATM    1  N   UNL     1     -42.016 -49.548  11.405  1.00  0.00    -0.308 N 
HETATM    2  C   UNL     1     -41.887 -49.976  12.708  1.00  0.00     0.320 C 
HETATM    3  O   UNL     1     -41.995 -49.270  13.701  1.00  0.00    -0.247 OA
HETATM    4  N   UNL     1     -41.571 -51.311  12.794  1.00  0.00    -0.341 N 
HETATM    5  H   UNL     1     -42.173 -50.253  10.702  1.00  0.00     0.170 HD
HETATM    6  H   UNL     1     -41.820 -51.919  12.030  1.00  0.00     0.164 HD
ENDROOT
BRANCH   1   7
HETATM    7  C   UNL     1     -42.190 -48.198  11.029  1.00  0.00     0.051 A 
HETATM    8  C   UNL     1     -41.125 -47.322  10.820  1.00  0.00     0.035 A 
HETATM    9  C   UNL     1     -41.370 -45.992  10.494  1.00  0.00     0.058 A 
HETATM   10  C   UNL     1     -42.685 -45.574  10.397  1.00  0.00     0.141 A 
HETATM   11  N   UNL     1     -43.748 -46.395  10.542  1.00  0.00    -0.345 N 
HETATM   12  C   UNL     1     -43.473 -47.689  10.842  1.00  0.00     0.119 A 
ATOM     13  HN  UNL     1     -44.704 -46.061  10.432  1.00  0.00     0.167 HD
BRANCH  10  14
HETATM   14  O   UNL     1     -42.874 -44.240  10.105  1.00  0.00    -0.341 OA
HETATM   15  C   UNL     1     -42.701 -43.412  11.247  1.00  0.00     0.211 C 
ENDBRANCH  10  14
ENDBRANCH   1   7
BRANCH   4  16
HETATM   16  C   UNL     1     -41.329 -51.919  14.096  1.00  0.00     0.154 C 
BRANCH  16  17
HETATM   17  C   UNL     1     -41.882 -53.387  14.285  1.00  0.00     0.036 C 
HETATM   18  C   UNL     1     -42.010 -54.017  12.883  1.00  0.00     0.039 C 
HETATM   19  C   UNL     1     -40.828 -54.226  15.055  1.00  0.00     0.039 C 
BRANCH  17  20
HETATM   20  N   UNL     1     -43.140 -53.371  15.096  1.00  0.00    -0.400 N 
HETATM   21  C   UNL     1     -44.028 -54.548  15.023  1.00  0.00     0.147 C 
HETATM   22  C   UNL     1     -45.089 -54.524  13.892  1.00  0.00     0.291 C 
HETATM   23  N   UNL     1     -45.853 -53.271  13.739  1.00  0.00     0.087 N 
HETATM   24  C   UNL     1     -46.968 -53.217  14.680  1.00  0.00     0.310 C 
HETATM   25  C   UNL     1     -44.974 -52.096  13.886  1.00  0.00     0.291 C 
HETATM   26  C   UNL     1     -43.979 -52.162  15.064  1.00  0.00     0.147 C 
ENDBRANCH  17  20
ENDBRANCH  16  17
ENDBRANCH   4  16
TORSDOF 5
ENDMDL
MODEL 6
REMARK VINA RESULT:      -5.6      2.581      8.124
REMARK  5 active torsions:
REMARK  status: ('A' for Active; 'I' for Inactive)
REMARK    1  A    between atoms: O_2  and  C_3 
REMARK    2  A    between atoms: C_6  and  N_7 
REMARK       I    between atoms: N_7  and  C_8 
REMARK       I    between atoms: C_8  and  N_10 
REMARK    3  A    between atoms: N_10  and  C_11 
REMARK    4  A    between atoms: C_11  and  C_12 
REMARK    5  A    between atoms: C_12  and  N_15 
ROOT
HETATM    1  N   UNL     1     -41.062 -51.120  11.478  1.00  0.00    -0.308 N 
HETATM    2  C   UNL     1     -40.545 -49.963  12.018  1.00  0.00     0.320 C 
HETATM    3  O   UNL     1     -40.500 -49.695  13.211  1.00  0.00    -0.247 OA
HETATM    4  N   UNL     1     -40.105 -49.085  11.057  1.00  0.00    -0.341 N 
HETATM    5  H   UNL     1     -40.802 -51.341  10.529  1.00  0.00     0.170 HD
HETATM    6  H   UNL     1     -39.838 -49.446  10.155  1.00  0.00     0.164 HD
ENDROOT
BRANCH   1   7
HETATM    7  C   UNL     1     -41.714 -52.121  12.229  1.00  0.00     0.051 A 
HETATM    8  C   UNL     1     -41.079 -53.284  12.664  1.00  0.00     0.035 A 
HETATM    9  C   UNL     1     -41.795 -54.250  13.364  1.00  0.00     0.058 A 
HETATM   10  C   UNL     1     -43.140 -54.025  13.597  1.00  0.00     0.141 A 
HETATM   11  N   UNL     1     -43.787 -52.895  13.238  1.00  0.00    -0.345 N 
HETATM   12  C   UNL     1     -43.055 -51.967  12.574  1.00  0.00     0.119 A 
ATOM     13  HN  UNL     1     -44.773 -52.748  13.455  1.00  0.00     0.167 HD
BRANCH  10  14
HETATM   14  O   UNL     1     -43.812 -55.028  14.264  1.00  0.00    -0.341 OA
HETATM   15  C   UNL     1     -45.189 -55.076  13.910  1.00  0.00     0.211 C 
ENDBRANCH  10  14
ENDBRANCH   1   7
BRANCH   4  16
HETATM   16  C   UNL     1     -39.588 -47.778  11.447  1.00  0.00     0.154 C 
BRANCH  16  17
HETATM   17  C   UNL     1     -40.585 -46.564  11.277  1.00  0.00     0.036 C 
HETATM   18  C   UNL     1     -39.841 -45.461  10.496  1.00  0.00     0.039 C 
HETATM   19  C   UNL     1     -41.777 -47.012  10.389  1.00  0.00     0.039 C 
BRANCH  17  20
HETATM   20  N   UNL     1     -41.133 -46.148  12.606  1.00  0.00    -0.400 N 
HETATM   21  C   UNL     1     -41.920 -44.901  12.674  1.00  0.00     0.147 C 
HETATM   22  C   UNL     1     -41.109 -43.602  12.915  1.00  0.00     0.291 C 
HETATM   23  N   UNL     1     -40.101 -43.652  13.990  1.00  0.00     0.087 N 
HETATM   24  C   UNL     1     -40.712 -43.420  15.296  1.00  0.00     0.310 C 
HETATM   25  C   UNL     1     -39.365 -44.930  13.965  1.00  0.00     0.291 C 
HETATM   26  C   UNL     1     -40.239 -46.188  13.776  1.00  0.00     0.147 C 
ENDBRANCH  17  20
ENDBRANCH  16  17
ENDBRANCH   4  16
TORSDOF 5
ENDMDL
MODEL 7
REMARK VINA RESULT:      -5.4      2.528      3.521
REMARK  5 active torsions:
REMARK  status: ('A' for Active; 'I' for Inactive)
REMARK    1  A    between atoms: O_2  and  C_3 
REMARK    2  A    between atoms: C_6  and  N_7 
REMARK       I    between atoms: N_7  and  C_8 
REMARK       I    between atoms: C_8  and  N_10 
REMARK    3  A    between atoms: N_10  and  C_11 
REMARK    4  A    between atoms: C_11  and  C_12 
REMARK    5  A    between atoms: C_12  and  N_15 
ROOT
HETATM    1  N   UNL     1     -40.157 -48.610  13.129  1.00  0.00    -0.308 N 
HETATM    2  C   UNL     1     -39.673 -49.872  12.864  1.00  0.00     0.320 C 
HETATM    3  O   UNL     1     -39.691 -50.425  11.773  1.00  0.00    -0.247 OA
HETATM    4  N   UNL     1     -39.186 -50.495  13.988  1.00  0.00    -0.341 N 
HETATM    5  H   UNL     1     -39.847 -48.167  13.980  1.00  0.00     0.170 HD
HETATM    6  H   UNL     1     -38.871 -49.928  14.760  1.00  0.00     0.164 HD
ENDROOT
BRANCH   1   7
HETATM    7  C   UNL     1     -40.844 -47.813  12.188  1.00  0.00     0.051 A 
HETATM    8  C   UNL     1     -42.236 -47.732  12.130  1.00  0.00     0.035 A 
HETATM    9  C   UNL     1     -42.849 -46.960  11.148  1.00  0.00     0.058 A 
HETATM   10  C   UNL     1     -42.043 -46.296  10.241  1.00  0.00     0.141 A 
HETATM   11  N   UNL     1     -40.693 -46.304  10.287  1.00  0.00    -0.345 N 
HETATM   12  C   UNL     1     -40.128 -47.052  11.267  1.00  0.00     0.119 A 
ATOM     13  HN  UNL     1     -40.129 -45.776   9.621  1.00  0.00     0.167 HD
BRANCH  10  14
HETATM   14  O   UNL     1     -42.699 -45.572   9.268  1.00  0.00    -0.341 OA
HETATM   15  C   UNL     1     -43.791 -46.292   8.709  1.00  0.00     0.211 C 
ENDBRANCH  10  14
ENDBRANCH   1   7
BRANCH   4  16
HETATM   16  C   UNL     1     -38.695 -51.865  13.906  1.00  0.00     0.154 C 
BRANCH  16  17
HETATM   17  C   UNL     1     -39.509 -52.940  14.729  1.00  0.00     0.036 C 
HETATM   18  C   UNL     1     -39.197 -54.323  14.120  1.00  0.00     0.039 C 
HETATM   19  C   UNL     1     -38.978 -52.966  16.187  1.00  0.00     0.039 C 
BRANCH  17  20
HETATM   20  N   UNL     1     -40.960 -52.574  14.774  1.00  0.00    -0.400 N 
HETATM   21  C   UNL     1     -41.731 -52.937  15.979  1.00  0.00     0.147 C 
HETATM   22  C   UNL     1     -42.375 -54.348  15.970  1.00  0.00     0.291 C 
HETATM   23  N   UNL     1     -43.099 -54.727  14.742  1.00  0.00     0.087 N 
HETATM   24  C   UNL     1     -44.458 -54.192  14.747  1.00  0.00     0.310 C 
HETATM   25  C   UNL     1     -42.361 -54.298  13.540  1.00  0.00     0.291 C 
HETATM   26  C   UNL     1     -41.793 -52.863  13.594  1.00  0.00     0.147 C 
ENDBRANCH  17  20
ENDBRANCH  16  17
ENDBRANCH   4  16
TORSDOF 5
ENDMDL
MODEL 8
REMARK VINA RESULT:      -5.2      3.578      8.520
REMARK  5 active torsions:
REMARK  status: ('A' for Active; 'I' for Inactive)
REMARK    1  A    between atoms: O_2  and  C_3 
REMARK    2  A    between atoms: C_6  and  N_7 
REMARK       I    between atoms: N_7  and  C_8 
REMARK       I    between atoms: C_8  and  N_10 
REMARK    3  A    between atoms: N_10  and  C_11 
REMARK    4  A    between atoms: C_11  and  C_12 
REMARK    5  A    between atoms: C_12  and  N_15 
ROOT
HETATM    1  N   UNL     1     -40.831 -52.837  12.668  1.00  0.00    -0.308 N 
HETATM    2  C   UNL     1     -40.271 -51.607  12.400  1.00  0.00     0.320 C 
HETATM    3  O   UNL     1     -39.331 -51.109  13.004  1.00  0.00    -0.247 OA
HETATM    4  N   UNL     1     -40.914 -50.947  11.381  1.00  0.00    -0.341 N 
HETATM    5  H   UNL     1     -41.406 -53.247  11.949  1.00  0.00     0.170 HD
HETATM    6  H   UNL     1     -41.427 -51.486  10.701  1.00  0.00     0.164 HD
ENDROOT
BRANCH   1   7
HETATM    7  C   UNL     1     -40.461 -53.654  13.758  1.00  0.00     0.051 A 
HETATM    8  C   UNL     1     -39.172 -54.157  13.931  1.00  0.00     0.035 A 
HETATM    9  C   UNL     1     -38.888 -54.993  15.006  1.00  0.00     0.058 A 
HETATM   10  C   UNL     1     -39.915 -55.312  15.875  1.00  0.00     0.141 A 
HETATM   11  N   UNL     1     -41.166 -54.812  15.777  1.00  0.00    -0.345 N 
HETATM   12  C   UNL     1     -41.404 -53.986  14.729  1.00  0.00     0.119 A 
ATOM     13  HN  UNL     1     -41.892 -55.043  16.455  1.00  0.00     0.167 HD
BRANCH  10  14
HETATM   14  O   UNL     1     -39.590 -56.171  16.904  1.00  0.00    -0.341 OA
HETATM   15  C   UNL     1     -40.670 -57.030  17.246  1.00  0.00     0.211 C 
ENDBRANCH  10  14
ENDBRANCH   1   7
BRANCH   4  16
HETATM   16  C   UNL     1     -40.497 -49.601  11.008  1.00  0.00     0.154 C 
BRANCH  16  17
HETATM   17  C   UNL     1     -41.532 -48.448  11.316  1.00  0.00     0.036 C 
HETATM   18  C   UNL     1     -42.206 -48.063   9.983  1.00  0.00     0.039 C 
HETATM   19  C   UNL     1     -42.650 -49.007  12.236  1.00  0.00     0.039 C 
BRANCH  17  20
HETATM   20  N   UNL     1     -40.860 -47.323  12.041  1.00  0.00    -0.400 N 
HETATM   21  C   UNL     1     -41.698 -46.427  12.861  1.00  0.00     0.147 C 
HETATM   22  C   UNL     1     -42.314 -45.212  12.121  1.00  0.00     0.291 C 
HETATM   23  N   UNL     1     -41.398 -44.441  11.258  1.00  0.00     0.087 N 
HETATM   24  C   UNL     1     -40.628 -43.476  12.038  1.00  0.00     0.310 C 
HETATM   25  C   UNL     1     -40.513 -45.338  10.493  1.00  0.00     0.291 C 
HETATM   26  C   UNL     1     -39.890 -46.495  11.304  1.00  0.00     0.147 C 
ENDBRANCH  17  20
ENDBRANCH  16  17
ENDBRANCH   4  16
TORSDOF 5
ENDMDL
MODEL 9
REMARK VINA RESULT:      -5.2      2.413      8.166
REMARK  5 active torsions:
REMARK  status: ('A' for Active; 'I' for Inactive)
REMARK    1  A    between atoms: O_2  and  C_3 
REMARK    2  A    between atoms: C_6  and  N_7 
REMARK       I    between atoms: N_7  and  C_8 
REMARK       I    between atoms: C_8  and  N_10 
REMARK    3  A    between atoms: N_10  and  C_11 
REMARK    4  A    between atoms: C_11  and  C_12 
REMARK    5  A    between atoms: C_12  and  N_15 
ROOT
HETATM    1  N   UNL     1     -42.243 -51.566  11.867  1.00  0.00    -0.308 N 
HETATM    2  C   UNL     1     -41.544 -50.409  12.132  1.00  0.00     0.320 C 
HETATM    3  O   UNL     1     -40.948 -50.162  13.171  1.00  0.00    -0.247 OA
HETATM    4  N   UNL     1     -41.613 -49.504  11.099  1.00  0.00    -0.341 N 
HETATM    5  H   UNL     1     -42.456 -51.764  10.902  1.00  0.00     0.170 HD
HETATM    6  H   UNL     1     -41.797 -49.843  10.168  1.00  0.00     0.164 HD
ENDROOT
BRANCH   1   7
HETATM    7  C   UNL     1     -42.459 -52.593  12.810  1.00  0.00     0.051 A 
HETATM    8  C   UNL     1     -41.479 -53.519  13.167  1.00  0.00     0.035 A 
HETATM    9  C   UNL     1     -41.774 -54.533  14.072  1.00  0.00     0.058 A 
HETATM   10  C   UNL     1     -43.056 -54.597  14.587  1.00  0.00     0.141 A 
HETATM   11  N   UNL     1     -44.024 -53.696  14.310  1.00  0.00    -0.345 N 
HETATM   12  C   UNL     1     -43.697 -52.711  13.438  1.00  0.00     0.119 A 
ATOM     13  HN  UNL     1     -44.950 -53.755  14.733  1.00  0.00     0.167 HD
BRANCH  10  14
HETATM   14  O   UNL     1     -43.307 -55.640  15.453  1.00  0.00    -0.341 OA
HETATM   15  C   UNL     1     -42.219 -55.877  16.337  1.00  0.00     0.211 C 
ENDBRANCH  10  14
ENDBRANCH   1   7
BRANCH   4  16
HETATM   16  C   UNL     1     -40.986 -48.195  11.235  1.00  0.00     0.154 C 
BRANCH  16  17
HETATM   17  C   UNL     1     -41.972 -46.963  11.304  1.00  0.00     0.036 C 
HETATM   18  C   UNL     1     -42.606 -46.799   9.907  1.00  0.00     0.039 C 
HETATM   19  C   UNL     1     -43.130 -47.297  12.281  1.00  0.00     0.039 C 
BRANCH  17  20
HETATM   20  N   UNL     1     -41.261 -45.754  11.829  1.00  0.00    -0.400 N 
HETATM   21  C   UNL     1     -41.468 -45.386  13.243  1.00  0.00     0.147 C 
HETATM   22  C   UNL     1     -42.675 -44.456  13.531  1.00  0.00     0.291 C 
HETATM   23  N   UNL     1     -42.817 -43.281  12.650  1.00  0.00     0.087 N 
HETATM   24  C   UNL     1     -41.965 -42.183  13.096  1.00  0.00     0.310 C 
HETATM   25  C   UNL     1     -42.539 -43.636  11.246  1.00  0.00     0.291 C 
HETATM   26  C   UNL     1     -41.292 -44.519  11.027  1.00  0.00     0.147 C 
ENDBRANCH  17  20
ENDBRANCH  16  17
ENDBRANCH   4  16
TORSDOF 5
ENDMDL
