MODEL 1
REMARK VINA RESULT:      -6.2      0.000      0.000
REMARK  3 active torsions:
REMARK  status: ('A' for Active; 'I' for Inactive)
REMARK    1  A    between atoms: C_8  and  N_9 
REMARK       I    between atoms: N_9  and  C_10 
REMARK       I    between atoms: C_10  and  N_12 
REMARK    2  A    between atoms: N_12  and  C_13 
REMARK    3  A    between atoms: C_13  and  C_14 
ROOT
HETATM    1  N   UNL     1     -43.097 -53.010  12.772  1.00  0.00    -0.295 N 
HETATM    2  C   UNL     1     -42.035 -52.323  12.257  1.00  0.00     0.321 C 
HETATM    3  O   UNL     1     -40.967 -52.904  12.065  1.00  0.00    -0.247 OA
HETATM    4  N   UNL     1     -42.206 -50.986  12.063  1.00  0.00    -0.342 N 
HETATM    5  H   UNL     1     -42.876 -53.963  13.016  1.00  0.00     0.172 HD
HETATM    6  H   UNL     1     -43.179 -50.701  11.941  1.00  0.00     0.164 HD
ENDROOT
BRANCH   1   7
HETATM    7  C   UNL     1     -44.372 -52.520  13.065  1.00  0.00     0.109 A 
HETATM    8  N   UNL     1     -45.262 -52.370  12.062  1.00  0.00    -0.346 N 
HETATM    9  C   UNL     1     -46.482 -51.866  12.343  1.00  0.00     0.007 A 
ATOM     10  HN  UNL     1     -45.018 -52.634  11.107  1.00  0.00     0.167 HD
HETATM   11  C   UNL     1     -46.845 -51.473  13.622  1.00  0.00     0.031 A 
HETATM   12  C   UNL     1     -47.419 -51.747  11.182  1.00  0.00     0.068 C 
HETATM   13  C   UNL     1     -45.925 -51.629  14.663  1.00  0.00    -0.057 A 
HETATM   14  C   UNL     1     -46.258 -51.182  16.055  1.00  0.00     0.048 C 
HETATM   15  C   UNL     1     -44.675 -52.185  14.378  1.00  0.00     0.055 A 
ENDBRANCH   1   7
BRANCH   4  16
HETATM   16  C   UNL     1     -41.160 -50.131  11.555  1.00  0.00     0.139 C 
BRANCH  16  17
HETATM   17  C   UNL     1     -41.410 -48.630  11.738  1.00  0.00     0.065 C 
HETATM   18  C   UNL     1     -42.398 -48.251  12.843  1.00  0.00     0.017 C 
HETATM   19  C   UNL     1     -42.967 -46.847  12.582  1.00  0.00     0.011 C 
HETATM   20  C   UNL     1     -42.496 -46.316  11.237  1.00  0.00     0.074 C 
HETATM   21  S   UNL     1     -42.113 -47.797  10.286  1.00  0.00    -0.163 SA
ENDBRANCH  16  17
ENDBRANCH   4  16
TORSDOF 3
ENDMDL
MODEL 2
REMARK VINA RESULT:      -6.1      2.336      5.428
REMARK  3 active torsions:
REMARK  status: ('A' for Active; 'I' for Inactive)
REMARK    1  A    between atoms: C_8  and  N_9 
REMARK       I    between atoms: N_9  and  C_10 
REMARK       I    between atoms: C_10  and  N_12 
REMARK    2  A    between atoms: N_12  and  C_13 
REMARK    3  A    between atoms: C_13  and  C_14 
ROOT
HETATM    1  N   UNL     1     -40.892 -50.137  11.506  1.00  0.00    -0.295 N 
HETATM    2  C   UNL     1     -41.290 -51.374  11.922  1.00  0.00     0.321 C 
HETATM    3  O   UNL     1     -40.465 -52.283  12.015  1.00  0.00    -0.247 OA
HETATM    4  N   UNL     1     -42.625 -51.551  12.132  1.00  0.00    -0.342 N 
HETATM    5  H   UNL     1     -39.920 -50.097  11.241  1.00  0.00     0.172 HD
HETATM    6  H   UNL     1     -43.133 -50.691  12.343  1.00  0.00     0.164 HD
ENDROOT
BRANCH   1   7
HETATM    7  C   UNL     1     -41.682 -48.997  11.331  1.00  0.00     0.109 A 
HETATM    8  N   UNL     1     -42.142 -48.703  10.097  1.00  0.00    -0.346 N 
HETATM    9  C   UNL     1     -42.877 -47.585   9.926  1.00  0.00     0.007 A 
ATOM     10  HN  UNL     1     -41.938 -49.316   9.307  1.00  0.00     0.167 HD
HETATM   11  C   UNL     1     -43.158 -46.714  10.968  1.00  0.00     0.031 A 
HETATM   12  C   UNL     1     -43.367 -47.337   8.534  1.00  0.00     0.068 C 
HETATM   13  C   UNL     1     -42.684 -47.018  12.248  1.00  0.00    -0.057 A 
HETATM   14  C   UNL     1     -42.926 -46.087  13.398  1.00  0.00     0.048 C 
HETATM   15  C   UNL     1     -41.952 -48.195  12.432  1.00  0.00     0.055 A 
ENDBRANCH   1   7
BRANCH   4  16
HETATM   16  C   UNL     1     -43.189 -52.814  12.543  1.00  0.00     0.139 C 
BRANCH  16  17
HETATM   17  C   UNL     1     -44.681 -52.768  12.893  1.00  0.00     0.065 C 
HETATM   18  C   UNL     1     -45.234 -51.391  13.262  1.00  0.00     0.017 C 
HETATM   19  C   UNL     1     -46.521 -51.544  14.089  1.00  0.00     0.011 C 
HETATM   20  C   UNL     1     -46.779 -53.006  14.418  1.00  0.00     0.074 C 
HETATM   21  S   UNL     1     -45.152 -53.773  14.330  1.00  0.00    -0.163 SA
ENDBRANCH  16  17
ENDBRANCH   4  16
TORSDOF 3
ENDMDL
MODEL 3
REMARK VINA RESULT:      -5.6      2.210      2.461
REMARK  3 active torsions:
REMARK  status: ('A' for Active; 'I' for Inactive)
REMARK    1  A    between atoms: C_8  and  N_9 
REMARK       I    between atoms: N_9  and  C_10 
REMARK       I    between atoms: C_10  and  N_12 
REMARK    2  A    between atoms: N_12  and  C_13 
REMARK    3  A    between atoms: C_13  and  C_14 
ROOT
HETATM    1  N   UNL     1     -43.539 -53.890  13.506  1.00  0.00    -0.295 N 
HETATM    2  C   UNL     1     -42.337 -53.588  12.934  1.00  0.00     0.321 C 
HETATM    3  O   UNL     1     -41.429 -54.420  12.945  1.00  0.00    -0.247 OA
HETATM    4  N   UNL     1     -42.187 -52.323  12.450  1.00  0.00    -0.342 N 
HETATM    5  H   UNL     1     -43.551 -54.789  13.962  1.00  0.00     0.172 HD
HETATM    6  H   UNL     1     -43.065 -51.864  12.202  1.00  0.00     0.164 HD
ENDROOT
BRANCH   1   7
HETATM    7  C   UNL     1     -44.671 -53.075  13.598  1.00  0.00     0.109 A 
HETATM    8  N   UNL     1     -45.364 -52.789  12.476  1.00  0.00    -0.346 N 
HETATM    9  C   UNL     1     -46.437 -51.976  12.563  1.00  0.00     0.007 A 
ATOM     10  HN  UNL     1     -45.082 -53.181  11.577  1.00  0.00     0.167 HD
HETATM   11  C   UNL     1     -46.839 -51.404  13.760  1.00  0.00     0.031 A 
HETATM   12  C   UNL     1     -47.164 -51.721  11.280  1.00  0.00     0.068 C 
HETATM   13  C   UNL     1     -46.124 -51.700  14.924  1.00  0.00    -0.057 A 
HETATM   14  C   UNL     1     -46.496 -51.073  16.235  1.00  0.00     0.048 C 
HETATM   15  C   UNL     1     -45.034 -52.571  14.840  1.00  0.00     0.055 A 
ENDBRANCH   1   7
BRANCH   4  16
HETATM   16  C   UNL     1     -40.961 -51.858  11.847  1.00  0.00     0.139 C 
BRANCH  16  17
HETATM   17  C   UNL     1     -40.343 -50.626  12.517  1.00  0.00     0.065 C 
HETATM   18  C   UNL     1     -39.962 -49.480  11.577  1.00  0.00     0.017 C 
HETATM   19  C   UNL     1     -38.903 -48.585  12.240  1.00  0.00     0.011 C 
HETATM   20  C   UNL     1     -38.443 -49.181  13.561  1.00  0.00     0.074 C 
HETATM   21  S   UNL     1     -38.786 -50.942  13.394  1.00  0.00    -0.163 SA
ENDBRANCH  16  17
ENDBRANCH   4  16
TORSDOF 3
ENDMDL
MODEL 4
REMARK VINA RESULT:      -5.6      2.967      6.154
REMARK  3 active torsions:
REMARK  status: ('A' for Active; 'I' for Inactive)
REMARK    1  A    between atoms: C_8  and  N_9 
REMARK       I    between atoms: N_9  and  C_10 
REMARK       I    between atoms: C_10  and  N_12 
REMARK    2  A    between atoms: N_12  and  C_13 
REMARK    3  A    between atoms: C_13  and  C_14 
ROOT
HETATM    1  N   UNL     1     -40.382 -50.758  11.328  1.00  0.00    -0.295 N 
HETATM    2  C   UNL     1     -41.119 -51.818  11.773  1.00  0.00     0.321 C 
HETATM    3  O   UNL     1     -40.640 -52.951  11.742  1.00  0.00    -0.247 OA
HETATM    4  N   UNL     1     -42.401 -51.557  12.153  1.00  0.00    -0.342 N 
HETATM    5  H   UNL     1     -39.491 -51.025  10.938  1.00  0.00     0.172 HD
HETATM    6  H   UNL     1     -42.564 -50.591  12.443  1.00  0.00     0.164 HD
ENDROOT
BRANCH   1   7
HETATM    7  C   UNL     1     -40.762 -49.414  11.276  1.00  0.00     0.109 A 
HETATM    8  N   UNL     1     -41.708 -49.034  10.392  1.00  0.00    -0.346 N 
HETATM    9  C   UNL     1     -42.048 -47.731  10.321  1.00  0.00     0.007 A 
ATOM     10  HN  UNL     1     -42.158 -49.721   9.786  1.00  0.00     0.167 HD
HETATM   11  C   UNL     1     -41.444 -46.762  11.109  1.00  0.00     0.031 A 
HETATM   12  C   UNL     1     -43.117 -47.391   9.330  1.00  0.00     0.068 C 
HETATM   13  C   UNL     1     -40.465 -47.154  12.027  1.00  0.00    -0.057 A 
HETATM   14  C   UNL     1     -39.754 -46.138  12.871  1.00  0.00     0.048 C 
HETATM   15  C   UNL     1     -40.138 -48.509  12.125  1.00  0.00     0.055 A 
ENDBRANCH   1   7
BRANCH   4  16
HETATM   16  C   UNL     1     -43.302 -52.586  12.615  1.00  0.00     0.139 C 
BRANCH  16  17
HETATM   17  C   UNL     1     -43.056 -53.059  14.052  1.00  0.00     0.065 C 
HETATM   18  C   UNL     1     -42.606 -54.513  14.204  1.00  0.00     0.017 C 
HETATM   19  C   UNL     1     -42.914 -55.013  15.625  1.00  0.00     0.011 C 
HETATM   20  C   UNL     1     -43.702 -53.972  16.404  1.00  0.00     0.074 C 
HETATM   21  S   UNL     1     -44.513 -52.988  15.132  1.00  0.00    -0.163 SA
ENDBRANCH  16  17
ENDBRANCH   4  16
TORSDOF 3
ENDMDL
MODEL 5
REMARK VINA RESULT:      -5.6      2.369      3.239
REMARK  3 active torsions:
REMARK  status: ('A' for Active; 'I' for Inactive)
REMARK    1  A    between atoms: C_8  and  N_9 
REMARK       I    between atoms: N_9  and  C_10 
REMARK       I    between atoms: C_10  and  N_12 
REMARK    2  A    between atoms: N_12  and  C_13 
REMARK    3  A    between atoms: C_13  and  C_14 
ROOT
HETATM    1  N   UNL     1     -43.490 -53.859  13.774  1.00  0.00    -0.295 N 
HETATM    2  C   UNL     1     -42.279 -53.649  13.179  1.00  0.00     0.321 C 
HETATM    3  O   UNL     1     -41.403 -54.511  13.256  1.00  0.00    -0.247 OA
HETATM    4  N   UNL     1     -42.084 -52.433  12.596  1.00  0.00    -0.342 N 
HETATM    5  H   UNL     1     -43.534 -54.718  14.300  1.00  0.00     0.172 HD
HETATM    6  H   UNL     1     -42.945 -51.962  12.313  1.00  0.00     0.164 HD
ENDROOT
BRANCH   1   7
HETATM    7  C   UNL     1     -44.590 -52.997  13.802  1.00  0.00     0.109 A 
HETATM    8  N   UNL     1     -44.960 -52.446  14.977  1.00  0.00    -0.346 N 
HETATM    9  C   UNL     1     -46.042 -51.641  15.006  1.00  0.00     0.007 A 
ATOM     10  HN  UNL     1     -44.430 -52.634  15.828  1.00  0.00     0.167 HD
HETATM   11  C   UNL     1     -46.803 -51.379  13.877  1.00  0.00     0.031 A 
HETATM   12  C   UNL     1     -46.378 -51.053  16.341  1.00  0.00     0.068 C 
HETATM   13  C   UNL     1     -46.420 -51.947  12.658  1.00  0.00    -0.057 A 
HETATM   14  C   UNL     1     -47.234 -51.726  11.418  1.00  0.00     0.048 C 
HETATM   15  C   UNL     1     -45.278 -52.752  12.621  1.00  0.00     0.055 A 
ENDBRANCH   1   7
BRANCH   4  16
HETATM   16  C   UNL     1     -40.843 -52.064  11.958  1.00  0.00     0.139 C 
BRANCH  16  17
HETATM   17  C   UNL     1     -40.207 -50.774  12.488  1.00  0.00     0.065 C 
HETATM   18  C   UNL     1     -40.007 -49.660  11.459  1.00  0.00     0.017 C 
HETATM   19  C   UNL     1     -38.918 -48.688  11.940  1.00  0.00     0.011 C 
HETATM   20  C   UNL     1     -38.263 -49.199  13.214  1.00  0.00     0.074 C 
HETATM   21  S   UNL     1     -38.536 -50.979  13.168  1.00  0.00    -0.163 SA
ENDBRANCH  16  17
ENDBRANCH   4  16
TORSDOF 3
ENDMDL
MODEL 6
REMARK VINA RESULT:      -5.4      2.261      5.684
REMARK  3 active torsions:
REMARK  status: ('A' for Active; 'I' for Inactive)
REMARK    1  A    between atoms: C_8  and  N_9 
REMARK       I    between atoms: N_9  and  C_10 
REMARK       I    between atoms: C_10  and  N_12 
REMARK    2  A    between atoms: N_12  and  C_13 
REMARK    3  A    between atoms: C_13  and  C_14 
ROOT
HETATM    1  N   UNL     1     -40.436 -52.382  12.039  1.00  0.00    -0.295 N 
HETATM    2  C   UNL     1     -41.239 -53.168  12.814  1.00  0.00     0.321 C 
HETATM    3  O   UNL     1     -41.213 -54.391  12.676  1.00  0.00    -0.247 OA
HETATM    4  N   UNL     1     -42.100 -52.528  13.652  1.00  0.00    -0.342 N 
HETATM    5  H   UNL     1     -39.915 -52.900  11.348  1.00  0.00     0.172 HD
HETATM    6  H   UNL     1     -41.807 -51.585  13.914  1.00  0.00     0.164 HD
ENDROOT
BRANCH   1   7
HETATM    7  C   UNL     1     -40.339 -50.988  12.047  1.00  0.00     0.109 A 
HETATM    8  N   UNL     1     -41.135 -50.272  11.226  1.00  0.00    -0.346 N 
HETATM    9  C   UNL     1     -41.016 -48.928  11.212  1.00  0.00     0.007 A 
ATOM     10  HN  UNL     1     -41.816 -50.738  10.626  1.00  0.00     0.167 HD
HETATM   11  C   UNL     1     -40.088 -48.257  11.994  1.00  0.00     0.031 A 
HETATM   12  C   UNL     1     -41.946 -48.203  10.290  1.00  0.00     0.068 C 
HETATM   13  C   UNL     1     -39.264 -48.997  12.847  1.00  0.00    -0.057 A 
HETATM   14  C   UNL     1     -38.217 -48.320  13.681  1.00  0.00     0.048 C 
HETATM   15  C   UNL     1     -39.412 -50.386  12.887  1.00  0.00     0.055 A 
ENDBRANCH   1   7
BRANCH   4  16
HETATM   16  C   UNL     1     -43.028 -53.232  14.506  1.00  0.00     0.139 C 
BRANCH  16  17
HETATM   17  C   UNL     1     -44.506 -52.929  14.237  1.00  0.00     0.065 C 
HETATM   18  C   UNL     1     -44.965 -53.095  12.787  1.00  0.00     0.017 C 
HETATM   19  C   UNL     1     -46.242 -52.275  12.542  1.00  0.00     0.011 C 
HETATM   20  C   UNL     1     -46.584 -51.432  13.760  1.00  0.00     0.074 C 
HETATM   21  S   UNL     1     -45.009 -51.225  14.610  1.00  0.00    -0.163 SA
ENDBRANCH  16  17
ENDBRANCH   4  16
TORSDOF 3
ENDMDL
MODEL 7
REMARK VINA RESULT:      -5.3      4.521      5.994
REMARK  3 active torsions:
REMARK  status: ('A' for Active; 'I' for Inactive)
REMARK    1  A    between atoms: C_8  and  N_9 
REMARK       I    between atoms: N_9  and  C_10 
REMARK       I    between atoms: C_10  and  N_12 
REMARK    2  A    between atoms: N_12  and  C_13 
REMARK    3  A    between atoms: C_13  and  C_14 
ROOT
HETATM    1  N   UNL     1     -41.783 -49.145  10.587  1.00  0.00    -0.295 N 
HETATM    2  C   UNL     1     -42.218 -47.891  10.268  1.00  0.00     0.321 C 
HETATM    3  O   UNL     1     -43.184 -47.751   9.519  1.00  0.00    -0.247 OA
HETATM    4  N   UNL     1     -41.482 -46.848  10.744  1.00  0.00    -0.342 N 
HETATM    5  H   UNL     1     -42.283 -49.877  10.105  1.00  0.00     0.172 HD
HETATM    6  H   UNL     1     -40.941 -47.065  11.583  1.00  0.00     0.164 HD
ENDROOT
BRANCH   1   7
HETATM    7  C   UNL     1     -40.705 -49.496  11.405  1.00  0.00     0.109 A 
HETATM    8  N   UNL     1     -39.483 -49.641  10.851  1.00  0.00    -0.346 N 
HETATM    9  C   UNL     1     -38.452 -50.011  11.637  1.00  0.00     0.007 A 
ATOM     10  HN  UNL     1     -39.342 -49.473   9.854  1.00  0.00     0.167 HD
HETATM   11  C   UNL     1     -38.606 -50.271  12.990  1.00  0.00     0.031 A 
HETATM   12  C   UNL     1     -37.126 -50.133  10.954  1.00  0.00     0.068 C 
HETATM   13  C   UNL     1     -39.871 -50.119  13.567  1.00  0.00    -0.057 A 
HETATM   14  C   UNL     1     -40.096 -50.428  15.017  1.00  0.00     0.048 C 
HETATM   15  C   UNL     1     -40.932 -49.701  12.759  1.00  0.00     0.055 A 
ENDBRANCH   1   7
BRANCH   4  16
HETATM   16  C   UNL     1     -41.807 -45.470  10.460  1.00  0.00     0.139 C 
BRANCH  16  17
HETATM   17  C   UNL     1     -40.921 -44.441  11.171  1.00  0.00     0.065 C 
HETATM   18  C   UNL     1     -39.624 -44.984  11.773  1.00  0.00     0.017 C 
HETATM   19  C   UNL     1     -39.120 -44.041  12.877  1.00  0.00     0.011 C 
HETATM   20  C   UNL     1     -40.130 -42.935  13.144  1.00  0.00     0.074 C 
HETATM   21  S   UNL     1     -41.700 -43.628  12.595  1.00  0.00    -0.163 SA
ENDBRANCH  16  17
ENDBRANCH   4  16
TORSDOF 3
ENDMDL
MODEL 8
REMARK VINA RESULT:      -5.2      3.344      4.799
REMARK  3 active torsions:
REMARK  status: ('A' for Active; 'I' for Inactive)
REMARK    1  A    between atoms: C_8  and  N_9 
REMARK       I    between atoms: N_9  and  C_10 
REMARK       I    between atoms: C_10  and  N_12 
REMARK    2  A    between atoms: N_12  and  C_13 
REMARK    3  A    between atoms: C_13  and  C_14 
ROOT
HETATM    1  N   UNL     1     -41.150 -51.080  11.228  1.00  0.00    -0.295 N 
HETATM    2  C   UNL     1     -40.833 -49.820  11.647  1.00  0.00     0.321 C 
HETATM    3  O   UNL     1     -40.581 -48.946  10.818  1.00  0.00    -0.247 OA
HETATM    4  N   UNL     1     -40.728 -49.629  12.992  1.00  0.00    -0.342 N 
HETATM    5  H   UNL     1     -41.086 -51.198  10.229  1.00  0.00     0.172 HD
HETATM    6  H   UNL     1     -41.262 -50.295  13.552  1.00  0.00     0.164 HD
ENDROOT
BRANCH   1   7
HETATM    7  C   UNL     1     -41.452 -52.193  12.017  1.00  0.00     0.109 A 
HETATM    8  N   UNL     1     -42.732 -52.613  12.095  1.00  0.00    -0.346 N 
HETATM    9  C   UNL     1     -43.025 -53.668  12.884  1.00  0.00     0.007 A 
ATOM     10  HN  UNL     1     -43.466 -52.141  11.567  1.00  0.00     0.167 HD
HETATM   11  C   UNL     1     -42.061 -54.322  13.636  1.00  0.00     0.031 A 
HETATM   12  C   UNL     1     -44.462 -54.085  12.903  1.00  0.00     0.068 C 
HETATM   13  C   UNL     1     -40.733 -53.891  13.555  1.00  0.00    -0.057 A 
HETATM   14  C   UNL     1     -39.663 -54.540  14.380  1.00  0.00     0.048 C 
HETATM   15  C   UNL     1     -40.425 -52.820  12.710  1.00  0.00     0.055 A 
ENDBRANCH   1   7
BRANCH   4  16
HETATM   16  C   UNL     1     -40.368 -48.358  13.574  1.00  0.00     0.139 C 
BRANCH  16  17
HETATM   17  C   UNL     1     -38.902 -48.239  14.003  1.00  0.00     0.065 C 
HETATM   18  C   UNL     1     -38.196 -49.556  14.328  1.00  0.00     0.017 C 
HETATM   19  C   UNL     1     -36.980 -49.294  15.231  1.00  0.00     0.011 C 
HETATM   20  C   UNL     1     -36.926 -47.833  15.651  1.00  0.00     0.074 C 
HETATM   21  S   UNL     1     -38.632 -47.270  15.514  1.00  0.00    -0.163 SA
ENDBRANCH  16  17
ENDBRANCH   4  16
TORSDOF 3
ENDMDL
MODEL 9
REMARK VINA RESULT:      -5.2      2.940      6.051
REMARK  3 active torsions:
REMARK  status: ('A' for Active; 'I' for Inactive)
REMARK    1  A    between atoms: C_8  and  N_9 
REMARK       I    between atoms: N_9  and  C_10 
REMARK       I    between atoms: C_10  and  N_12 
REMARK    2  A    between atoms: N_12  and  C_13 
REMARK    3  A    between atoms: C_13  and  C_14 
ROOT
HETATM    1  N   UNL     1     -42.186 -52.340  11.763  1.00  0.00    -0.295 N 
HETATM    2  C   UNL     1     -42.952 -52.831  12.780  1.00  0.00     0.321 C 
HETATM    3  O   UNL     1     -43.738 -53.754  12.563  1.00  0.00    -0.247 OA
HETATM    4  N   UNL     1     -42.857 -52.196  13.982  1.00  0.00    -0.342 N 
HETATM    5  H   UNL     1     -42.390 -52.759  10.869  1.00  0.00     0.172 HD
HETATM    6  H   UNL     1     -41.976 -51.699  14.124  1.00  0.00     0.164 HD
ENDROOT
BRANCH   1   7
HETATM    7  C   UNL     1     -41.255 -51.298  11.818  1.00  0.00     0.109 A 
HETATM    8  N   UNL     1     -41.620 -50.072  11.388  1.00  0.00    -0.346 N 
HETATM    9  C   UNL     1     -40.710 -49.076  11.412  1.00  0.00     0.007 A 
ATOM     10  HN  UNL     1     -42.568 -49.901  11.051  1.00  0.00     0.167 HD
HETATM   11  C   UNL     1     -39.406 -49.273  11.841  1.00  0.00     0.031 A 
HETATM   12  C   UNL     1     -41.195 -47.742  10.937  1.00  0.00     0.068 C 
HETATM   13  C   UNL     1     -39.027 -50.542  12.289  1.00  0.00    -0.057 A 
HETATM   14  C   UNL     1     -37.617 -50.814  12.723  1.00  0.00     0.048 C 
HETATM   15  C   UNL     1     -39.980 -51.564  12.297  1.00  0.00     0.055 A 
ENDBRANCH   1   7
BRANCH   4  16
HETATM   16  C   UNL     1     -43.631 -52.588  15.135  1.00  0.00     0.139 C 
BRANCH  16  17
HETATM   17  C   UNL     1     -44.963 -51.848  15.297  1.00  0.00     0.065 C 
HETATM   18  C   UNL     1     -45.130 -51.058  16.597  1.00  0.00     0.017 C 
HETATM   19  C   UNL     1     -46.623 -50.833  16.888  1.00  0.00     0.011 C 
HETATM   20  C   UNL     1     -47.487 -51.583  15.886  1.00  0.00     0.074 C 
HETATM   21  S   UNL     1     -46.429 -52.919  15.303  1.00  0.00    -0.163 SA
ENDBRANCH  16  17
ENDBRANCH   4  16
TORSDOF 3
ENDMDL
