MODEL 1
REMARK VINA RESULT:      -6.2      0.000      0.000
REMARK  5 active torsions:
REMARK  status: ('A' for Active; 'I' for Inactive)
REMARK    1  A    between atoms: C_2  and  C_5 
REMARK    2  A    between atoms: C_8  and  C_9 
REMARK    3  A    between atoms: C_9  and  C_10 
REMARK    4  A    between atoms: C_10  and  N_11 
REMARK       I    between atoms: N_11  and  C_12 
REMARK    5  A    between atoms: C_12  and  C_14 
ROOT
HETATM    1  C   UNL     1     -41.077 -49.657  12.355  1.00  0.00     0.084 C 
ENDROOT
BRANCH   1   2
HETATM    2  C   UNL     1     -41.559 -48.517  11.512  1.00  0.00     0.052 A 
HETATM    3  S   UNL     1     -40.687 -47.034  11.532  1.00  0.00    -0.087 SA
HETATM    4  C   UNL     1     -41.797 -46.380  10.407  1.00  0.00     0.077 A 
HETATM    5  C   UNL     1     -42.764 -47.313  10.076  1.00  0.00     0.024 A 
HETATM    6  N   UNL     1     -42.622 -48.529  10.736  1.00  0.00    -0.356 N 
ATOM      7  HN  UNL     1     -43.255 -49.322  10.634  1.00  0.00     0.166 HD
BRANCH   5   8
HETATM    8  C   UNL     1     -43.912 -47.114   9.094  1.00  0.00    -0.008 C 
HETATM    9  C   UNL     1     -44.123 -45.610   8.822  1.00  0.00     0.021 C 
HETATM   10  C   UNL     1     -45.214 -47.703   9.672  1.00  0.00     0.021 C 
HETATM   11  C   UNL     1     -43.629 -47.806   7.746  1.00  0.00     0.021 C 
ENDBRANCH   5   8
ENDBRANCH   1   2
BRANCH   1  12
HETATM   12  C   UNL     1     -40.719 -50.894  11.533  1.00  0.00     0.129 C 
BRANCH  12  13
HETATM   13  N   UNL     1     -41.515 -52.049  11.931  1.00  0.00    -0.360 N 
HETATM   14  C   UNL     1     -40.980 -53.068  12.692  1.00  0.00     0.221 C 
HETATM   15  O   UNL     1     -39.801 -53.107  13.021  1.00  0.00    -0.273 OA
HETATM   16  H   UNL     1     -42.503 -52.055  11.711  1.00  0.00     0.162 HD
BRANCH  14  17
HETATM   17  C   UNL     1     -41.997 -54.129  13.086  1.00  0.00     0.078 C 
HETATM   18  C   UNL     1     -43.432 -53.695  12.760  1.00  0.00     0.014 C 
HETATM   19  C   UNL     1     -44.304 -54.153  13.929  1.00  0.00     0.001 C 
HETATM   20  C   UNL     1     -43.404 -55.001  14.814  1.00  0.00     0.001 C 
HETATM   21  C   UNL     1     -42.020 -54.419  14.586  1.00  0.00     0.014 C 
ENDBRANCH  14  17
ENDBRANCH  12  13
ENDBRANCH   1  12
TORSDOF 5
ENDMDL
MODEL 2
REMARK VINA RESULT:      -6.0      2.060      2.496
REMARK  5 active torsions:
REMARK  status: ('A' for Active; 'I' for Inactive)
REMARK    1  A    between atoms: C_2  and  C_5 
REMARK    2  A    between atoms: C_8  and  C_9 
REMARK    3  A    between atoms: C_9  and  C_10 
REMARK    4  A    between atoms: C_10  and  N_11 
REMARK       I    between atoms: N_11  and  C_12 
REMARK    5  A    between atoms: C_12  and  C_14 
ROOT
HETATM    1  C   UNL     1     -40.329 -49.864  11.365  1.00  0.00     0.084 C 
ENDROOT
BRANCH   1   2
HETATM    2  C   UNL     1     -41.208 -48.689  11.070  1.00  0.00     0.052 A 
HETATM    3  S   UNL     1     -41.003 -47.241  11.978  1.00  0.00    -0.087 SA
HETATM    4  C   UNL     1     -42.256 -46.510  11.073  1.00  0.00     0.077 A 
HETATM    5  C   UNL     1     -42.762 -47.394  10.135  1.00  0.00     0.024 A 
HETATM    6  N   UNL     1     -42.160 -48.648  10.163  1.00  0.00    -0.356 N 
ATOM      7  HN  UNL     1     -42.421 -49.430   9.561  1.00  0.00     0.166 HD
BRANCH   5   8
HETATM    8  C   UNL     1     -43.872 -47.109   9.132  1.00  0.00    -0.008 C 
HETATM    9  C   UNL     1     -43.986 -45.590   8.883  1.00  0.00     0.021 C 
HETATM   10  C   UNL     1     -45.220 -47.629   9.668  1.00  0.00     0.021 C 
HETATM   11  C   UNL     1     -43.599 -47.793   7.777  1.00  0.00     0.021 C 
ENDBRANCH   5   8
ENDBRANCH   1   2
BRANCH   1  12
HETATM   12  C   UNL     1     -40.852 -50.722  12.517  1.00  0.00     0.129 C 
BRANCH  12  13
HETATM   13  N   UNL     1     -42.262 -50.463  12.779  1.00  0.00    -0.360 N 
HETATM   14  C   UNL     1     -43.054 -51.375  13.446  1.00  0.00     0.221 C 
HETATM   15  O   UNL     1     -42.651 -52.478  13.797  1.00  0.00    -0.273 OA
HETATM   16  H   UNL     1     -42.640 -49.556  12.538  1.00  0.00     0.162 HD
BRANCH  14  17
HETATM   17  C   UNL     1     -44.466 -50.875  13.709  1.00  0.00     0.078 C 
HETATM   18  C   UNL     1     -44.812 -50.894  15.203  1.00  0.00     0.014 C 
HETATM   19  C   UNL     1     -46.259 -51.374  15.312  1.00  0.00     0.001 C 
HETATM   20  C   UNL     1     -46.784 -51.443  13.886  1.00  0.00     0.001 C 
HETATM   21  C   UNL     1     -45.545 -51.740  13.059  1.00  0.00     0.014 C 
ENDBRANCH  14  17
ENDBRANCH  12  13
ENDBRANCH   1  12
TORSDOF 5
ENDMDL
MODEL 3
REMARK VINA RESULT:      -6.0      3.023      6.865
REMARK  5 active torsions:
REMARK  status: ('A' for Active; 'I' for Inactive)
REMARK    1  A    between atoms: C_2  and  C_5 
REMARK    2  A    between atoms: C_8  and  C_9 
REMARK    3  A    between atoms: C_9  and  C_10 
REMARK    4  A    between atoms: C_10  and  N_11 
REMARK       I    between atoms: N_11  and  C_12 
REMARK    5  A    between atoms: C_12  and  C_14 
ROOT
HETATM    1  C   UNL     1     -42.065 -49.417  12.030  1.00  0.00     0.084 C 
ENDROOT
BRANCH   1   2
HETATM    2  C   UNL     1     -42.869 -50.312  12.920  1.00  0.00     0.052 A 
HETATM    3  S   UNL     1     -42.150 -50.927  14.358  1.00  0.00    -0.087 SA
HETATM    4  C   UNL     1     -43.608 -51.741  14.725  1.00  0.00     0.077 A 
HETATM    5  C   UNL     1     -44.559 -51.507  13.746  1.00  0.00     0.024 A 
HETATM    6  N   UNL     1     -44.108 -50.700  12.707  1.00  0.00    -0.356 N 
ATOM      7  HN  UNL     1     -44.663 -50.442  11.890  1.00  0.00     0.166 HD
BRANCH   5   8
HETATM    8  C   UNL     1     -45.985 -52.043  13.726  1.00  0.00    -0.008 C 
HETATM    9  C   UNL     1     -46.813 -51.390  14.852  1.00  0.00     0.021 C 
HETATM   10  C   UNL     1     -45.982 -53.570  13.930  1.00  0.00     0.021 C 
HETATM   11  C   UNL     1     -46.683 -51.740  12.385  1.00  0.00     0.021 C 
ENDBRANCH   5   8
ENDBRANCH   1   2
BRANCH   1  12
HETATM   12  C   UNL     1     -42.660 -48.015  11.902  1.00  0.00     0.129 C 
BRANCH  12  13
HETATM   13  N   UNL     1     -43.649 -47.950  10.833  1.00  0.00    -0.360 N 
HETATM   14  C   UNL     1     -43.517 -47.069   9.779  1.00  0.00     0.221 C 
HETATM   15  O   UNL     1     -42.612 -46.247   9.706  1.00  0.00    -0.273 OA
HETATM   16  H   UNL     1     -44.401 -48.627  10.827  1.00  0.00     0.162 HD
BRANCH  14  17
HETATM   17  C   UNL     1     -44.597 -47.226   8.718  1.00  0.00     0.078 C 
HETATM   18  C   UNL     1     -45.919 -47.724   9.317  1.00  0.00     0.014 C 
HETATM   19  C   UNL     1     -46.495 -48.734   8.326  1.00  0.00     0.001 C 
HETATM   20  C   UNL     1     -45.605 -48.666   7.094  1.00  0.00     0.001 C 
HETATM   21  C   UNL     1     -44.250 -48.263   7.650  1.00  0.00     0.014 C 
ENDBRANCH  14  17
ENDBRANCH  12  13
ENDBRANCH   1  12
TORSDOF 5
ENDMDL
MODEL 4
REMARK VINA RESULT:      -5.9      3.741      5.405
REMARK  5 active torsions:
REMARK  status: ('A' for Active; 'I' for Inactive)
REMARK    1  A    between atoms: C_2  and  C_5 
REMARK    2  A    between atoms: C_8  and  C_9 
REMARK    3  A    between atoms: C_9  and  C_10 
REMARK    4  A    between atoms: C_10  and  N_11 
REMARK       I    between atoms: N_11  and  C_12 
REMARK    5  A    between atoms: C_12  and  C_14 
ROOT
HETATM    1  C   UNL     1     -41.192 -54.063  12.880  1.00  0.00     0.084 C 
ENDROOT
BRANCH   1   2
HETATM    2  C   UNL     1     -40.216 -52.960  13.147  1.00  0.00     0.052 A 
HETATM    3  S   UNL     1     -39.197 -53.060  14.531  1.00  0.00    -0.087 SA
HETATM    4  C   UNL     1     -38.481 -51.569  14.096  1.00  0.00     0.077 A 
HETATM    5  C   UNL     1     -39.046 -51.075  12.933  1.00  0.00     0.024 A 
HETATM    6  N   UNL     1     -40.055 -51.880  12.413  1.00  0.00    -0.356 N 
ATOM      7  HN  UNL     1     -40.598 -51.662  11.577  1.00  0.00     0.166 HD
BRANCH   5   8
HETATM    8  C   UNL     1     -38.664 -49.784  12.220  1.00  0.00    -0.008 C 
HETATM    9  C   UNL     1     -38.203 -48.728  13.247  1.00  0.00     0.021 C 
HETATM   10  C   UNL     1     -39.873 -49.229  11.442  1.00  0.00     0.021 C 
HETATM   11  C   UNL     1     -37.512 -50.010  11.220  1.00  0.00     0.021 C 
ENDBRANCH   5   8
ENDBRANCH   1   2
BRANCH   1  12
HETATM   12  C   UNL     1     -42.104 -54.350  14.072  1.00  0.00     0.129 C 
BRANCH  12  13
HETATM   13  N   UNL     1     -43.409 -53.721  13.911  1.00  0.00    -0.360 N 
HETATM   14  C   UNL     1     -44.580 -54.415  14.138  1.00  0.00     0.221 C 
HETATM   15  O   UNL     1     -44.605 -55.608  14.418  1.00  0.00    -0.273 OA
HETATM   16  H   UNL     1     -43.447 -52.730  13.709  1.00  0.00     0.162 HD
BRANCH  14  17
HETATM   17  C   UNL     1     -45.829 -53.555  14.013  1.00  0.00     0.078 C 
HETATM   18  C   UNL     1     -45.897 -52.836  12.659  1.00  0.00     0.014 C 
HETATM   19  C   UNL     1     -46.421 -51.429  12.937  1.00  0.00     0.001 C 
HETATM   20  C   UNL     1     -46.824 -51.415  14.404  1.00  0.00     0.001 C 
HETATM   21  C   UNL     1     -45.893 -52.428  15.044  1.00  0.00     0.014 C 
ENDBRANCH  14  17
ENDBRANCH  12  13
ENDBRANCH   1  12
TORSDOF 5
ENDMDL
MODEL 5
REMARK VINA RESULT:      -5.9      2.741      6.693
REMARK  5 active torsions:
REMARK  status: ('A' for Active; 'I' for Inactive)
REMARK    1  A    between atoms: C_2  and  C_5 
REMARK    2  A    between atoms: C_8  and  C_9 
REMARK    3  A    between atoms: C_9  and  C_10 
REMARK    4  A    between atoms: C_10  and  N_11 
REMARK       I    between atoms: N_11  and  C_12 
REMARK    5  A    between atoms: C_12  and  C_14 
ROOT
HETATM    1  C   UNL     1     -41.507 -51.818  11.732  1.00  0.00     0.084 C 
ENDROOT
BRANCH   1   2
HETATM    2  C   UNL     1     -42.559 -52.343  12.659  1.00  0.00     0.052 A 
HETATM    3  S   UNL     1     -42.187 -53.680  13.676  1.00  0.00    -0.087 SA
HETATM    4  C   UNL     1     -43.765 -53.608  14.329  1.00  0.00     0.077 A 
HETATM    5  C   UNL     1     -44.489 -52.581  13.747  1.00  0.00     0.024 A 
HETATM    6  N   UNL     1     -43.784 -51.878  12.775  1.00  0.00    -0.356 N 
ATOM      7  HN  UNL     1     -44.165 -51.107  12.227  1.00  0.00     0.166 HD
BRANCH   5   8
HETATM    8  C   UNL     1     -45.923 -52.187  14.076  1.00  0.00    -0.008 C 
HETATM    9  C   UNL     1     -46.601 -51.567  12.836  1.00  0.00     0.021 C 
HETATM   10  C   UNL     1     -45.942 -51.157  15.222  1.00  0.00     0.021 C 
HETATM   11  C   UNL     1     -46.758 -53.408  14.514  1.00  0.00     0.021 C 
ENDBRANCH   5   8
ENDBRANCH   1   2
BRANCH   1  12
HETATM   12  C   UNL     1     -41.073 -50.392  12.071  1.00  0.00     0.129 C 
BRANCH  12  13
HETATM   13  N   UNL     1     -41.733 -49.416  11.214  1.00  0.00    -0.360 N 
HETATM   14  C   UNL     1     -42.780 -48.642  11.671  1.00  0.00     0.221 C 
HETATM   15  O   UNL     1     -43.265 -48.770  12.789  1.00  0.00    -0.273 OA
HETATM   16  H   UNL     1     -41.354 -49.247  10.290  1.00  0.00     0.162 HD
BRANCH  14  17
HETATM   17  C   UNL     1     -43.264 -47.615  10.658  1.00  0.00     0.078 C 
HETATM   18  C   UNL     1     -44.754 -47.786  10.336  1.00  0.00     0.014 C 
HETATM   19  C   UNL     1     -44.906 -47.556   8.833  1.00  0.00     0.001 C 
HETATM   20  C   UNL     1     -43.548 -47.075   8.345  1.00  0.00     0.001 C 
HETATM   21  C   UNL     1     -42.568 -47.728   9.302  1.00  0.00     0.014 C 
ENDBRANCH  14  17
ENDBRANCH  12  13
ENDBRANCH   1  12
TORSDOF 5
ENDMDL
MODEL 6
REMARK VINA RESULT:      -5.8      3.838      5.504
REMARK  5 active torsions:
REMARK  status: ('A' for Active; 'I' for Inactive)
REMARK    1  A    between atoms: C_2  and  C_5 
REMARK    2  A    between atoms: C_8  and  C_9 
REMARK    3  A    between atoms: C_9  and  C_10 
REMARK    4  A    between atoms: C_10  and  N_11 
REMARK       I    between atoms: N_11  and  C_12 
REMARK    5  A    between atoms: C_12  and  C_14 
ROOT
HETATM    1  C   UNL     1     -41.388 -53.684  12.496  1.00  0.00     0.084 C 
ENDROOT
BRANCH   1   2
HETATM    2  C   UNL     1     -40.348 -52.699  12.928  1.00  0.00     0.052 A 
HETATM    3  S   UNL     1     -39.476 -52.985  14.385  1.00  0.00    -0.087 SA
HETATM    4  C   UNL     1     -38.593 -51.544  14.126  1.00  0.00     0.077 A 
HETATM    5  C   UNL     1     -39.001 -50.924  12.957  1.00  0.00     0.024 A 
HETATM    6  N   UNL     1     -40.024 -51.593  12.293  1.00  0.00    -0.356 N 
ATOM      7  HN  UNL     1     -40.464 -51.270  11.431  1.00  0.00     0.166 HD
BRANCH   5   8
HETATM    8  C   UNL     1     -38.440 -49.631  12.378  1.00  0.00    -0.008 C 
HETATM    9  C   UNL     1     -39.581 -48.776  11.788  1.00  0.00     0.021 C 
HETATM   10  C   UNL     1     -37.424 -49.945  11.262  1.00  0.00     0.021 C 
HETATM   11  C   UNL     1     -37.725 -48.792  13.456  1.00  0.00     0.021 C 
ENDBRANCH   5   8
ENDBRANCH   1   2
BRANCH   1  12
HETATM   12  C   UNL     1     -42.300 -54.125  13.641  1.00  0.00     0.129 C 
BRANCH  12  13
HETATM   13  N   UNL     1     -43.303 -53.112  13.946  1.00  0.00    -0.360 N 
HETATM   14  C   UNL     1     -44.541 -53.113  13.336  1.00  0.00     0.221 C 
HETATM   15  O   UNL     1     -44.852 -53.910  12.459  1.00  0.00    -0.273 OA
HETATM   16  H   UNL     1     -43.110 -52.447  14.683  1.00  0.00     0.162 HD
BRANCH  14  17
HETATM   17  C   UNL     1     -45.478 -52.036  13.863  1.00  0.00     0.078 C 
HETATM   18  C   UNL     1     -44.811 -51.177  14.945  1.00  0.00     0.014 C 
HETATM   19  C   UNL     1     -45.871 -50.922  16.016  1.00  0.00     0.001 C 
HETATM   20  C   UNL     1     -47.173 -51.470  15.453  1.00  0.00     0.001 C 
HETATM   21  C   UNL     1     -46.726 -52.599  14.542  1.00  0.00     0.014 C 
ENDBRANCH  14  17
ENDBRANCH  12  13
ENDBRANCH   1  12
TORSDOF 5
ENDMDL
MODEL 7
REMARK VINA RESULT:      -5.5      1.859      2.627
REMARK  5 active torsions:
REMARK  status: ('A' for Active; 'I' for Inactive)
REMARK    1  A    between atoms: C_2  and  C_5 
REMARK    2  A    between atoms: C_8  and  C_9 
REMARK    3  A    between atoms: C_9  and  C_10 
REMARK    4  A    between atoms: C_10  and  N_11 
REMARK       I    between atoms: N_11  and  C_12 
REMARK    5  A    between atoms: C_12  and  C_14 
ROOT
HETATM    1  C   UNL     1     -42.839 -49.799  13.237  1.00  0.00     0.084 C 
ENDROOT
BRANCH   1   2
HETATM    2  C   UNL     1     -42.668 -48.866  12.078  1.00  0.00     0.052 A 
HETATM    3  S   UNL     1     -41.143 -48.108  11.832  1.00  0.00    -0.087 SA
HETATM    4  C   UNL     1     -41.769 -47.325  10.447  1.00  0.00     0.077 A 
HETATM    5  C   UNL     1     -43.093 -47.676  10.243  1.00  0.00     0.024 A 
HETATM    6  N   UNL     1     -43.597 -48.547  11.203  1.00  0.00    -0.356 N 
ATOM      7  HN  UNL     1     -44.557 -48.893  11.226  1.00  0.00     0.166 HD
BRANCH   5   8
HETATM    8  C   UNL     1     -43.988 -47.201   9.106  1.00  0.00    -0.008 C 
HETATM    9  C   UNL     1     -43.543 -47.844   7.775  1.00  0.00     0.021 C 
HETATM   10  C   UNL     1     -43.907 -45.668   8.970  1.00  0.00     0.021 C 
HETATM   11  C   UNL     1     -45.462 -47.584   9.349  1.00  0.00     0.021 C 
ENDBRANCH   5   8
ENDBRANCH   1   2
BRANCH   1  12
HETATM   12  C   UNL     1     -42.578 -51.259  12.868  1.00  0.00     0.129 C 
BRANCH  12  13
HETATM   13  N   UNL     1     -41.503 -51.829  13.670  1.00  0.00    -0.360 N 
HETATM   14  C   UNL     1     -40.597 -52.722  13.135  1.00  0.00     0.221 C 
HETATM   15  O   UNL     1     -40.675 -53.145  11.988  1.00  0.00    -0.273 OA
HETATM   16  H   UNL     1     -41.373 -51.493  14.615  1.00  0.00     0.162 HD
BRANCH  14  17
HETATM   17  C   UNL     1     -39.494 -53.122  14.104  1.00  0.00     0.078 C 
HETATM   18  C   UNL     1     -39.146 -54.612  13.994  1.00  0.00     0.014 C 
HETATM   19  C   UNL     1     -38.920 -55.115  15.418  1.00  0.00     0.001 C 
HETATM   20  C   UNL     1     -38.953 -53.881  16.308  1.00  0.00     0.001 C 
HETATM   21  C   UNL     1     -39.879 -52.930  15.571  1.00  0.00     0.014 C 
ENDBRANCH  14  17
ENDBRANCH  12  13
ENDBRANCH   1  12
TORSDOF 5
ENDMDL
MODEL 8
REMARK VINA RESULT:      -5.4      1.889      2.793
REMARK  5 active torsions:
REMARK  status: ('A' for Active; 'I' for Inactive)
REMARK    1  A    between atoms: C_2  and  C_5 
REMARK    2  A    between atoms: C_8  and  C_9 
REMARK    3  A    between atoms: C_9  and  C_10 
REMARK    4  A    between atoms: C_10  and  N_11 
REMARK       I    between atoms: N_11  and  C_12 
REMARK    5  A    between atoms: C_12  and  C_14 
ROOT
HETATM    1  C   UNL     1     -40.447 -49.976  11.331  1.00  0.00     0.084 C 
ENDROOT
BRANCH   1   2
HETATM    2  C   UNL     1     -40.920 -48.557  11.290  1.00  0.00     0.052 A 
HETATM    3  S   UNL     1     -42.610 -48.236  11.361  1.00  0.00    -0.087 SA
HETATM    4  C   UNL     1     -42.282 -46.560  11.283  1.00  0.00     0.077 A 
HETATM    5  C   UNL     1     -40.919 -46.330  11.208  1.00  0.00     0.024 A 
HETATM    6  N   UNL     1     -40.154 -47.492  11.193  1.00  0.00    -0.356 N 
ATOM      7  HN  UNL     1     -39.137 -47.515  11.117  1.00  0.00     0.166 HD
BRANCH   5   8
HETATM    8  C   UNL     1     -40.234 -44.971  11.142  1.00  0.00    -0.008 C 
HETATM    9  C   UNL     1     -39.307 -44.784  12.361  1.00  0.00     0.021 C 
HETATM   10  C   UNL     1     -41.287 -43.845  11.138  1.00  0.00     0.021 C 
HETATM   11  C   UNL     1     -39.377 -44.831   9.867  1.00  0.00     0.021 C 
ENDBRANCH   5   8
ENDBRANCH   1   2
BRANCH   1  12
HETATM   12  C   UNL     1     -40.360 -50.533  12.752  1.00  0.00     0.129 C 
BRANCH  12  13
HETATM   13  N   UNL     1     -41.163 -51.739  12.903  1.00  0.00    -0.360 N 
HETATM   14  C   UNL     1     -40.585 -52.968  13.150  1.00  0.00     0.221 C 
HETATM   15  O   UNL     1     -39.373 -53.139  13.189  1.00  0.00    -0.273 OA
HETATM   16  H   UNL     1     -42.172 -51.652  12.910  1.00  0.00     0.162 HD
BRANCH  14  17
HETATM   17  C   UNL     1     -41.598 -54.081  13.375  1.00  0.00     0.078 C 
HETATM   18  C   UNL     1     -43.015 -53.656  12.971  1.00  0.00     0.014 C 
HETATM   19  C   UNL     1     -43.961 -54.227  14.026  1.00  0.00     0.001 C 
HETATM   20  C   UNL     1     -43.108 -55.123  14.910  1.00  0.00     0.001 C 
HETATM   21  C   UNL     1     -41.729 -54.492  14.841  1.00  0.00     0.014 C 
ENDBRANCH  14  17
ENDBRANCH  12  13
ENDBRANCH   1  12
TORSDOF 5
ENDMDL
MODEL 9
REMARK VINA RESULT:      -5.3      4.183      6.297
REMARK  5 active torsions:
REMARK  status: ('A' for Active; 'I' for Inactive)
REMARK    1  A    between atoms: C_2  and  C_5 
REMARK    2  A    between atoms: C_8  and  C_9 
REMARK    3  A    between atoms: C_9  and  C_10 
REMARK    4  A    between atoms: C_10  and  N_11 
REMARK       I    between atoms: N_11  and  C_12 
REMARK    5  A    between atoms: C_12  and  C_14 
ROOT
HETATM    1  C   UNL     1     -41.524 -54.362  14.530  1.00  0.00     0.084 C 
ENDROOT
BRANCH   1   2
HETATM    2  C   UNL     1     -42.981 -54.078  14.335  1.00  0.00     0.052 A 
HETATM    3  S   UNL     1     -44.122 -55.338  14.604  1.00  0.00    -0.087 SA
HETATM    4  C   UNL     1     -45.388 -54.258  14.213  1.00  0.00     0.077 A 
HETATM    5  C   UNL     1     -44.886 -53.006  13.900  1.00  0.00     0.024 A 
HETATM    6  N   UNL     1     -43.498 -52.929  13.957  1.00  0.00    -0.356 N 
ATOM      7  HN  UNL     1     -42.954 -52.094  13.736  1.00  0.00     0.166 HD
BRANCH   5   8
HETATM    8  C   UNL     1     -45.698 -51.776  13.518  1.00  0.00    -0.008 C 
HETATM    9  C   UNL     1     -46.637 -51.379  14.676  1.00  0.00     0.021 C 
HETATM   10  C   UNL     1     -46.547 -52.068  12.265  1.00  0.00     0.021 C 
HETATM   11  C   UNL     1     -44.787 -50.570  13.210  1.00  0.00     0.021 C 
ENDBRANCH   5   8
ENDBRANCH   1   2
BRANCH   1  12
HETATM   12  C   UNL     1     -40.698 -54.124  13.267  1.00  0.00     0.129 C 
BRANCH  12  13
HETATM   13  N   UNL     1     -40.046 -52.820  13.292  1.00  0.00    -0.360 N 
HETATM   14  C   UNL     1     -40.553 -51.744  12.592  1.00  0.00     0.221 C 
HETATM   15  O   UNL     1     -41.530 -51.827  11.857  1.00  0.00    -0.273 OA
HETATM   16  H   UNL     1     -39.253 -52.687  13.906  1.00  0.00     0.162 HD
BRANCH  14  17
HETATM   17  C   UNL     1     -39.787 -50.451  12.829  1.00  0.00     0.078 C 
HETATM   18  C   UNL     1     -39.028 -49.997  11.575  1.00  0.00     0.014 C 
HETATM   19  C   UNL     1     -37.675 -49.469  12.049  1.00  0.00     0.001 C 
HETATM   20  C   UNL     1     -37.744 -49.449  13.568  1.00  0.00     0.001 C 
HETATM   21  C   UNL     1     -38.705 -50.577  13.901  1.00  0.00     0.014 C 
ENDBRANCH  14  17
ENDBRANCH  12  13
ENDBRANCH   1  12
TORSDOF 5
ENDMDL
