MODEL 1
REMARK VINA RESULT:      -6.8      0.000      0.000
REMARK  4 active torsions:
REMARK  status: ('A' for Active; 'I' for Inactive)
REMARK    1  A    between atoms: N_1  and  C_7 
REMARK    2  A    between atoms: N_2  and  C_8 
REMARK    3  A    between atoms: C_7  and  C_9 
REMARK    4  A    between atoms: C_9  and  C_12 
ROOT
HETATM    1  N   UNL     1     -39.092 -51.161  13.576  1.00  0.00    -0.256 N 
HETATM    2  N   UNL     1     -40.248 -49.340  12.620  1.00  0.00    -0.279 N 
HETATM    3  C   UNL     1     -40.167 -50.278  13.643  1.00  0.00     0.334 C 
HETATM    4  C   UNL     1     -38.013 -51.012  12.716  1.00  0.00     0.292 C 
HETATM    5  C   UNL     1     -38.114 -49.887  11.764  1.00  0.00     0.200 C 
HETATM    6  C   UNL     1     -39.208 -49.129  11.735  1.00  0.00     0.146 C 
HETATM    7  O   UNL     1     -40.993 -50.316  14.556  1.00  0.00    -0.246 OA
HETATM    8  O   UNL     1     -37.013 -51.727  12.742  1.00  0.00    -0.264 OA
HETATM    9  F   UNL     1     -37.086 -49.698  10.915  1.00  0.00    -0.199 F 
ENDROOT
BRANCH   1  10
HETATM   10  C   UNL     1     -39.055 -52.261  14.530  1.00  0.00     0.221 C 
BRANCH  10  11
HETATM   11  C   UNL     1     -39.562 -53.599  13.979  1.00  0.00     0.177 C 
HETATM   12  O   UNL     1     -38.823 -54.467  13.513  1.00  0.00    -0.291 OA
BRANCH  11  13
HETATM   13  C   UNL     1     -41.048 -53.839  14.031  1.00  0.00     0.011 A 
HETATM   14  C   UNL     1     -41.637 -54.494  15.124  1.00  0.00     0.016 A 
HETATM   15  C   UNL     1     -42.994 -54.831  15.113  1.00  0.00     0.020 A 
HETATM   16  C   UNL     1     -43.778 -54.498  14.016  1.00  0.00     0.011 A 
HETATM   17  C   UNL     1     -43.231 -53.782  12.951  1.00  0.00     0.020 A 
HETATM   18 BR   UNL     1     -45.583 -55.059  13.963  1.00  0.00    -0.051 Br
HETATM   19  C   UNL     1     -41.871 -53.448  12.957  1.00  0.00     0.016 A 
ENDBRANCH  11  13
ENDBRANCH  10  11
ENDBRANCH   1  10
BRANCH   2  20
HETATM   20  C   UNL     1     -41.539 -48.711  12.431  1.00  0.00     0.232 C 
HETATM   21  O   UNL     1     -41.942 -48.768  11.055  1.00  0.00    -0.366 OA
HETATM   22  C   UNL     1     -42.949 -47.762  10.870  1.00  0.00     0.170 C 
HETATM   23  C   UNL     1     -43.010 -46.946  12.152  1.00  0.00     0.031 C 
HETATM   24  C   UNL     1     -41.673 -47.246  12.807  1.00  0.00     0.056 C 
ENDBRANCH   2  20
TORSDOF 4
ENDMDL
MODEL 2
REMARK VINA RESULT:      -6.3      3.610      6.245
REMARK  4 active torsions:
REMARK  status: ('A' for Active; 'I' for Inactive)
REMARK    1  A    between atoms: N_1  and  C_7 
REMARK    2  A    between atoms: N_2  and  C_8 
REMARK    3  A    between atoms: C_7  and  C_9 
REMARK    4  A    between atoms: C_9  and  C_12 
ROOT
HETATM    1  N   UNL     1     -42.074 -53.456  13.408  1.00  0.00    -0.256 N 
HETATM    2  N   UNL     1     -41.734 -54.825  15.300  1.00  0.00    -0.279 N 
HETATM    3  C   UNL     1     -42.627 -54.283  14.382  1.00  0.00     0.334 C 
HETATM    4  C   UNL     1     -40.713 -53.336  13.169  1.00  0.00     0.292 C 
HETATM    5  C   UNL     1     -39.839 -54.077  14.102  1.00  0.00     0.200 C 
HETATM    6  C   UNL     1     -40.367 -54.754  15.119  1.00  0.00     0.146 C 
HETATM    7  O   UNL     1     -43.833 -54.531  14.426  1.00  0.00    -0.246 OA
HETATM    8  O   UNL     1     -40.236 -52.696  12.234  1.00  0.00    -0.264 OA
HETATM    9  F   UNL     1     -38.510 -53.997  13.903  1.00  0.00    -0.199 F 
ENDROOT
BRANCH   1  10
HETATM   10  C   UNL     1     -42.986 -52.737  12.528  1.00  0.00     0.221 C 
BRANCH  10  11
HETATM   11  C   UNL     1     -43.321 -51.313  12.985  1.00  0.00     0.177 C 
HETATM   12  O   UNL     1     -42.716 -50.314  12.597  1.00  0.00    -0.291 OA
BRANCH  11  13
HETATM   13  C   UNL     1     -44.465 -51.159  13.954  1.00  0.00     0.011 A 
HETATM   14  C   UNL     1     -44.241 -50.752  15.278  1.00  0.00     0.016 A 
HETATM   15  C   UNL     1     -45.284 -50.735  16.210  1.00  0.00     0.020 A 
HETATM   16  C   UNL     1     -46.563 -51.107  15.819  1.00  0.00     0.011 A 
HETATM   17  C   UNL     1     -46.824 -51.445  14.491  1.00  0.00     0.020 A 
HETATM   18 BR   UNL     1     -47.939 -51.189  17.114  1.00  0.00    -0.051 Br
HETATM   19  C   UNL     1     -45.780 -51.468  13.557  1.00  0.00     0.016 A 
ENDBRANCH  11  13
ENDBRANCH  10  11
ENDBRANCH   1  10
BRANCH   2  20
HETATM   20  C   UNL     1     -42.308 -55.322  16.533  1.00  0.00     0.232 C 
HETATM   21  O   UNL     1     -42.492 -54.260  17.479  1.00  0.00    -0.366 OA
HETATM   22  C   UNL     1     -42.611 -54.867  18.775  1.00  0.00     0.170 C 
HETATM   23  C   UNL     1     -42.293 -56.345  18.609  1.00  0.00     0.031 C 
HETATM   24  C   UNL     1     -41.532 -56.382  17.296  1.00  0.00     0.056 C 
ENDBRANCH   2  20
TORSDOF 4
ENDMDL
MODEL 3
REMARK VINA RESULT:      -6.1      5.156      6.821
REMARK  4 active torsions:
REMARK  status: ('A' for Active; 'I' for Inactive)
REMARK    1  A    between atoms: N_1  and  C_7 
REMARK    2  A    between atoms: N_2  and  C_8 
REMARK    3  A    between atoms: C_7  and  C_9 
REMARK    4  A    between atoms: C_9  and  C_12 
ROOT
HETATM    1  N   UNL     1     -45.340 -53.786  14.488  1.00  0.00    -0.256 N 
HETATM    2  N   UNL     1     -46.287 -52.092  15.831  1.00  0.00    -0.279 N 
HETATM    3  C   UNL     1     -45.527 -53.254  15.762  1.00  0.00     0.334 C 
HETATM    4  C   UNL     1     -45.655 -53.121  13.312  1.00  0.00     0.292 C 
HETATM    5  C   UNL     1     -46.322 -51.814  13.484  1.00  0.00     0.200 C 
HETATM    6  C   UNL     1     -46.627 -51.372  14.703  1.00  0.00     0.146 C 
HETATM    7  O   UNL     1     -45.042 -53.774  16.769  1.00  0.00    -0.246 OA
HETATM    8  O   UNL     1     -45.381 -53.545  12.192  1.00  0.00    -0.264 OA
HETATM    9  F   UNL     1     -46.639 -51.128  12.370  1.00  0.00    -0.199 F 
ENDROOT
BRANCH   1  10
HETATM   10  C   UNL     1     -44.692 -55.087  14.383  1.00  0.00     0.221 C 
BRANCH  10  11
HETATM   11  C   UNL     1     -43.249 -55.122  14.897  1.00  0.00     0.177 C 
HETATM   12  O   UNL     1     -42.828 -55.967  15.687  1.00  0.00    -0.291 OA
BRANCH  11  13
HETATM   13  C   UNL     1     -42.316 -54.057  14.383  1.00  0.00     0.011 A 
HETATM   14  C   UNL     1     -41.837 -54.090  13.064  1.00  0.00     0.016 A 
HETATM   15  C   UNL     1     -40.872 -53.176  12.628  1.00  0.00     0.020 A 
HETATM   16  C   UNL     1     -40.392 -52.210  13.503  1.00  0.00     0.011 A 
HETATM   17  C   UNL     1     -40.907 -52.113  14.796  1.00  0.00     0.020 A 
HETATM   18 BR   UNL     1     -39.007 -51.055  12.936  1.00  0.00    -0.051 Br
HETATM   19  C   UNL     1     -41.869 -53.029  15.237  1.00  0.00     0.016 A 
ENDBRANCH  11  13
ENDBRANCH  10  11
ENDBRANCH   1  10
BRANCH   2  20
HETATM   20  C   UNL     1     -46.840 -51.766  17.130  1.00  0.00     0.232 C 
HETATM   21  O   UNL     1     -48.245 -51.493  17.036  1.00  0.00    -0.366 OA
HETATM   22  C   UNL     1     -48.608 -50.753  18.211  1.00  0.00     0.170 C 
HETATM   23  C   UNL     1     -47.319 -50.409  18.942  1.00  0.00     0.031 C 
HETATM   24  C   UNL     1     -46.266 -50.565  17.860  1.00  0.00     0.056 C 
ENDBRANCH   2  20
TORSDOF 4
ENDMDL
MODEL 4
REMARK VINA RESULT:      -6.0      5.062      6.670
REMARK  4 active torsions:
REMARK  status: ('A' for Active; 'I' for Inactive)
REMARK    1  A    between atoms: N_1  and  C_7 
REMARK    2  A    between atoms: N_2  and  C_8 
REMARK    3  A    between atoms: C_7  and  C_9 
REMARK    4  A    between atoms: C_9  and  C_12 
ROOT
HETATM    1  N   UNL     1     -44.857 -53.260  14.178  1.00  0.00    -0.256 N 
HETATM    2  N   UNL     1     -46.086 -51.837  15.604  1.00  0.00    -0.279 N 
HETATM    3  C   UNL     1     -45.015 -52.709  15.448  1.00  0.00     0.334 C 
HETATM    4  C   UNL     1     -45.537 -52.824  13.050  1.00  0.00     0.292 C 
HETATM    5  C   UNL     1     -46.553 -51.778  13.288  1.00  0.00     0.200 C 
HETATM    6  C   UNL     1     -46.800 -51.353  14.525  1.00  0.00     0.146 C 
HETATM    7  O   UNL     1     -44.248 -52.968  16.377  1.00  0.00    -0.246 OA
HETATM    8  O   UNL     1     -45.310 -53.233  11.914  1.00  0.00    -0.264 OA
HETATM    9  F   UNL     1     -47.232 -51.317  12.220  1.00  0.00    -0.199 F 
ENDROOT
BRANCH   1  10
HETATM   10  C   UNL     1     -43.852 -54.300  14.009  1.00  0.00     0.221 C 
BRANCH  10  11
HETATM   11  C   UNL     1     -42.445 -53.781  13.694  1.00  0.00     0.177 C 
HETATM   12  O   UNL     1     -42.215 -52.892  12.874  1.00  0.00    -0.291 OA
BRANCH  11  13
HETATM   13  C   UNL     1     -41.303 -54.405  14.453  1.00  0.00     0.011 A 
HETATM   14  C   UNL     1     -41.511 -55.017  15.698  1.00  0.00     0.016 A 
HETATM   15  C   UNL     1     -40.432 -55.480  16.459  1.00  0.00     0.020 A 
HETATM   16  C   UNL     1     -39.138 -55.350  15.972  1.00  0.00     0.011 A 
HETATM   17  C   UNL     1     -38.914 -54.812  14.705  1.00  0.00     0.020 A 
HETATM   18 BR   UNL     1     -37.683 -55.875  17.059  1.00  0.00    -0.051 Br
HETATM   19  C   UNL     1     -39.991 -54.343  13.943  1.00  0.00     0.016 A 
ENDBRANCH  11  13
ENDBRANCH  10  11
ENDBRANCH   1  10
BRANCH   2  20
HETATM   20  C   UNL     1     -46.517 -51.592  16.966  1.00  0.00     0.232 C 
HETATM   21  O   UNL     1     -47.943 -51.703  17.081  1.00  0.00    -0.366 OA
HETATM   22  C   UNL     1     -48.321 -51.016  18.284  1.00  0.00     0.170 C 
HETATM   23  C   UNL     1     -47.082 -50.305  18.804  1.00  0.00     0.031 C 
HETATM   24  C   UNL     1     -46.189 -50.241  17.578  1.00  0.00     0.056 C 
ENDBRANCH   2  20
TORSDOF 4
ENDMDL
MODEL 5
REMARK VINA RESULT:      -6.0      3.915      6.427
REMARK  4 active torsions:
REMARK  status: ('A' for Active; 'I' for Inactive)
REMARK    1  A    between atoms: N_1  and  C_7 
REMARK    2  A    between atoms: N_2  and  C_8 
REMARK    3  A    between atoms: C_7  and  C_9 
REMARK    4  A    between atoms: C_9  and  C_12 
ROOT
HETATM    1  N   UNL     1     -40.910 -50.944  13.322  1.00  0.00    -0.256 N 
HETATM    2  N   UNL     1     -43.193 -51.532  13.218  1.00  0.00    -0.279 N 
HETATM    3  C   UNL     1     -42.237 -50.524  13.275  1.00  0.00     0.334 C 
HETATM    4  C   UNL     1     -40.496 -52.247  13.086  1.00  0.00     0.292 C 
HETATM    5  C   UNL     1     -41.582 -53.227  12.879  1.00  0.00     0.200 C 
HETATM    6  C   UNL     1     -42.855 -52.848  12.974  1.00  0.00     0.146 C 
HETATM    7  O   UNL     1     -42.550 -49.332  13.274  1.00  0.00    -0.246 OA
HETATM    8  O   UNL     1     -39.318 -52.588  13.013  1.00  0.00    -0.264 OA
HETATM    9  F   UNL     1     -41.228 -54.504  12.637  1.00  0.00    -0.199 F 
ENDROOT
BRANCH   1  10
HETATM   10  C   UNL     1     -39.885 -49.934  13.546  1.00  0.00     0.221 C 
BRANCH  10  11
HETATM   11  C   UNL     1     -39.440 -49.187  12.284  1.00  0.00     0.177 C 
HETATM   12  O   UNL     1     -38.838 -49.722  11.353  1.00  0.00    -0.291 OA
BRANCH  11  13
HETATM   13  C   UNL     1     -39.779 -47.721  12.204  1.00  0.00     0.011 A 
HETATM   14  C   UNL     1     -40.444 -47.193  11.087  1.00  0.00     0.016 A 
HETATM   15  C   UNL     1     -40.643 -45.814  10.955  1.00  0.00     0.020 A 
HETATM   16  C   UNL     1     -40.195 -44.955  11.949  1.00  0.00     0.011 A 
HETATM   17  C   UNL     1     -39.597 -45.464  13.103  1.00  0.00     0.020 A 
HETATM   18 BR   UNL     1     -40.368 -43.088  11.707  1.00  0.00    -0.051 Br
HETATM   19  C   UNL     1     -39.392 -46.843  13.235  1.00  0.00     0.016 A 
ENDBRANCH  11  13
ENDBRANCH  10  11
ENDBRANCH   1  10
BRANCH   2  20
HETATM   20  C   UNL     1     -44.542 -51.155  13.589  1.00  0.00     0.232 C 
HETATM   21  O   UNL     1     -44.720 -51.217  15.011  1.00  0.00    -0.366 OA
HETATM   22  C   UNL     1     -46.133 -51.290  15.254  1.00  0.00     0.170 C 
HETATM   23  C   UNL     1     -46.812 -51.471  13.906  1.00  0.00     0.031 C 
HETATM   24  C   UNL     1     -45.686 -51.980  13.025  1.00  0.00     0.056 C 
ENDBRANCH   2  20
TORSDOF 4
ENDMDL
MODEL 6
REMARK VINA RESULT:      -5.9      5.183      7.548
REMARK  4 active torsions:
REMARK  status: ('A' for Active; 'I' for Inactive)
REMARK    1  A    between atoms: N_1  and  C_7 
REMARK    2  A    between atoms: N_2  and  C_8 
REMARK    3  A    between atoms: C_7  and  C_9 
REMARK    4  A    between atoms: C_9  and  C_12 
ROOT
HETATM    1  N   UNL     1     -44.862 -53.905  14.465  1.00  0.00    -0.256 N 
HETATM    2  N   UNL     1     -43.166 -54.509  15.991  1.00  0.00    -0.279 N 
HETATM    3  C   UNL     1     -44.521 -54.301  15.756  1.00  0.00     0.334 C 
HETATM    4  C   UNL     1     -43.992 -53.934  13.385  1.00  0.00     0.292 C 
HETATM    5  C   UNL     1     -42.602 -54.321  13.704  1.00  0.00     0.200 C 
HETATM    6  C   UNL     1     -42.245 -54.563  14.963  1.00  0.00     0.146 C 
HETATM    7  O   UNL     1     -45.365 -54.468  16.638  1.00  0.00    -0.246 OA
HETATM    8  O   UNL     1     -44.329 -53.695  12.228  1.00  0.00    -0.264 OA
HETATM    9  F   UNL     1     -41.723 -54.371  12.685  1.00  0.00    -0.199 F 
ENDROOT
BRANCH   1  10
HETATM   10  C   UNL     1     -46.244 -53.518  14.216  1.00  0.00     0.221 C 
BRANCH  10  11
HETATM   11  C   UNL     1     -46.501 -52.008  14.263  1.00  0.00     0.177 C 
HETATM   12  O   UNL     1     -46.632 -51.308  13.259  1.00  0.00    -0.291 OA
BRANCH  11  13
HETATM   13  C   UNL     1     -46.602 -51.375  15.627  1.00  0.00     0.011 A 
HETATM   14  C   UNL     1     -47.797 -51.424  16.360  1.00  0.00     0.016 A 
HETATM   15  C   UNL     1     -47.929 -50.727  17.566  1.00  0.00     0.020 A 
HETATM   16  C   UNL     1     -46.859 -49.991  18.057  1.00  0.00     0.011 A 
HETATM   17  C   UNL     1     -45.637 -49.989  17.383  1.00  0.00     0.020 A 
HETATM   18 BR   UNL     1     -47.085 -48.963  19.628  1.00  0.00    -0.051 Br
HETATM   19  C   UNL     1     -45.505 -50.681  16.173  1.00  0.00     0.016 A 
ENDBRANCH  11  13
ENDBRANCH  10  11
ENDBRANCH   1  10
BRANCH   2  20
HETATM   20  C   UNL     1     -42.750 -54.503  17.379  1.00  0.00     0.232 C 
HETATM   21  O   UNL     1     -41.572 -53.705  17.558  1.00  0.00    -0.366 OA
HETATM   22  C   UNL     1     -40.975 -54.110  18.800  1.00  0.00     0.170 C 
HETATM   23  C   UNL     1     -41.734 -55.336  19.283  1.00  0.00     0.031 C 
HETATM   24  C   UNL     1     -42.408 -55.837  18.019  1.00  0.00     0.056 C 
ENDBRANCH   2  20
TORSDOF 4
ENDMDL
MODEL 7
REMARK VINA RESULT:      -5.9      3.800      6.231
REMARK  4 active torsions:
REMARK  status: ('A' for Active; 'I' for Inactive)
REMARK    1  A    between atoms: N_1  and  C_7 
REMARK    2  A    between atoms: N_2  and  C_8 
REMARK    3  A    between atoms: C_7  and  C_9 
REMARK    4  A    between atoms: C_9  and  C_12 
ROOT
HETATM    1  N   UNL     1     -40.561 -51.658  12.950  1.00  0.00    -0.256 N 
HETATM    2  N   UNL     1     -42.813 -52.072  13.519  1.00  0.00    -0.279 N 
HETATM    3  C   UNL     1     -41.900 -51.303  12.806  1.00  0.00     0.334 C 
HETATM    4  C   UNL     1     -40.125 -52.830  13.550  1.00  0.00     0.292 C 
HETATM    5  C   UNL     1     -41.186 -53.667  14.147  1.00  0.00     0.200 C 
HETATM    6  C   UNL     1     -42.452 -53.256  14.132  1.00  0.00     0.146 C 
HETATM    7  O   UNL     1     -42.260 -50.372  12.085  1.00  0.00    -0.246 OA
HETATM    8  O   UNL     1     -38.951 -53.194  13.570  1.00  0.00    -0.264 OA
HETATM    9  F   UNL     1     -40.811 -54.820  14.733  1.00  0.00    -0.199 F 
ENDROOT
BRANCH   1  10
HETATM   10  C   UNL     1     -39.558 -50.784  12.355  1.00  0.00     0.221 C 
BRANCH  10  11
HETATM   11  C   UNL     1     -39.069 -49.659  13.273  1.00  0.00     0.177 C 
HETATM   12  O   UNL     1     -38.383 -49.850  14.277  1.00  0.00    -0.291 OA
BRANCH  11  13
HETATM   13  C   UNL     1     -39.457 -48.253  12.895  1.00  0.00     0.011 A 
HETATM   14  C   UNL     1     -39.898 -47.949  11.598  1.00  0.00     0.016 A 
HETATM   15  C   UNL     1     -40.134 -46.625  11.213  1.00  0.00     0.020 A 
HETATM   16  C   UNL     1     -39.946 -45.596  12.127  1.00  0.00     0.011 A 
HETATM   17  C   UNL     1     -39.579 -45.882  13.442  1.00  0.00     0.020 A 
HETATM   18 BR   UNL     1     -40.158 -43.805  11.561  1.00  0.00    -0.051 Br
HETATM   19  C   UNL     1     -39.338 -47.206  13.830  1.00  0.00     0.016 A 
ENDBRANCH  11  13
ENDBRANCH  10  11
ENDBRANCH   1  10
BRANCH   2  20
HETATM   20  C   UNL     1     -44.121 -51.483  13.725  1.00  0.00     0.232 C 
HETATM   21  O   UNL     1     -44.466 -51.470  15.117  1.00  0.00    -0.366 OA
HETATM   22  C   UNL     1     -45.891 -51.321  15.195  1.00  0.00     0.170 C 
HETATM   23  C   UNL     1     -46.434 -51.442  13.779  1.00  0.00     0.031 C 
HETATM   24  C   UNL     1     -45.307 -52.145  13.044  1.00  0.00     0.056 C 
ENDBRANCH   2  20
TORSDOF 4
ENDMDL
MODEL 8
REMARK VINA RESULT:      -5.9      3.458      5.969
REMARK  4 active torsions:
REMARK  status: ('A' for Active; 'I' for Inactive)
REMARK    1  A    between atoms: N_1  and  C_7 
REMARK    2  A    between atoms: N_2  and  C_8 
REMARK    3  A    between atoms: C_7  and  C_9 
REMARK    4  A    between atoms: C_9  and  C_12 
ROOT
HETATM    1  N   UNL     1     -42.010 -52.488  13.456  1.00  0.00    -0.256 N 
HETATM    2  N   UNL     1     -40.311 -53.462  14.772  1.00  0.00    -0.279 N 
HETATM    3  C   UNL     1     -41.152 -53.564  13.669  1.00  0.00     0.334 C 
HETATM    4  C   UNL     1     -41.913 -51.271  14.114  1.00  0.00     0.292 C 
HETATM    5  C   UNL     1     -40.881 -51.204  15.169  1.00  0.00     0.200 C 
HETATM    6  C   UNL     1     -40.155 -52.279  15.467  1.00  0.00     0.146 C 
HETATM    7  O   UNL     1     -41.128 -54.544  12.923  1.00  0.00    -0.246 OA
HETATM    8  O   UNL     1     -42.598 -50.288  13.840  1.00  0.00    -0.264 OA
HETATM    9  F   UNL     1     -40.744 -50.038  15.830  1.00  0.00    -0.199 F 
ENDROOT
BRANCH   1  10
HETATM   10  C   UNL     1     -43.019 -52.620  12.413  1.00  0.00     0.221 C 
BRANCH  10  11
HETATM   11  C   UNL     1     -44.284 -53.371  12.843  1.00  0.00     0.177 C 
HETATM   12  O   UNL     1     -44.641 -54.442  12.353  1.00  0.00    -0.291 OA
BRANCH  11  13
HETATM   13  C   UNL     1     -45.111 -52.743  13.935  1.00  0.00     0.011 A 
HETATM   14  C   UNL     1     -45.012 -53.186  15.263  1.00  0.00     0.016 A 
HETATM   15  C   UNL     1     -45.871 -52.693  16.251  1.00  0.00     0.020 A 
HETATM   16  C   UNL     1     -46.824 -51.739  15.921  1.00  0.00     0.011 A 
HETATM   17  C   UNL     1     -46.893 -51.230  14.624  1.00  0.00     0.020 A 
HETATM   18 BR   UNL     1     -48.053 -51.165  17.239  1.00  0.00    -0.051 Br
HETATM   19  C   UNL     1     -46.037 -51.726  13.633  1.00  0.00     0.016 A 
ENDBRANCH  11  13
ENDBRANCH  10  11
ENDBRANCH   1  10
BRANCH   2  20
HETATM   20  C   UNL     1     -39.734 -54.702  15.251  1.00  0.00     0.232 C 
HETATM   21  O   UNL     1     -40.682 -55.441  16.034  1.00  0.00    -0.366 OA
HETATM   22  C   UNL     1     -39.934 -56.373  16.830  1.00  0.00     0.170 C 
HETATM   23  C   UNL     1     -38.462 -56.039  16.647  1.00  0.00     0.031 C 
HETATM   24  C   UNL     1     -38.500 -54.611  16.132  1.00  0.00     0.056 C 
ENDBRANCH   2  20
TORSDOF 4
ENDMDL
MODEL 9
REMARK VINA RESULT:      -5.8      3.685      6.431
REMARK  4 active torsions:
REMARK  status: ('A' for Active; 'I' for Inactive)
REMARK    1  A    between atoms: N_1  and  C_7 
REMARK    2  A    between atoms: N_2  and  C_8 
REMARK    3  A    between atoms: C_7  and  C_9 
REMARK    4  A    between atoms: C_9  and  C_12 
ROOT
HETATM    1  N   UNL     1     -41.294 -53.030  12.886  1.00  0.00    -0.256 N 
HETATM    2  N   UNL     1     -43.103 -53.956  14.086  1.00  0.00    -0.279 N 
HETATM    3  C   UNL     1     -42.668 -53.239  12.978  1.00  0.00     0.334 C 
HETATM    4  C   UNL     1     -40.354 -53.673  13.679  1.00  0.00     0.292 C 
HETATM    5  C   UNL     1     -40.908 -54.543  14.737  1.00  0.00     0.200 C 
HETATM    6  C   UNL     1     -42.225 -54.630  14.912  1.00  0.00     0.146 C 
HETATM    7  O   UNL     1     -43.454 -52.823  12.125  1.00  0.00    -0.246 OA
HETATM    8  O   UNL     1     -39.140 -53.575  13.517  1.00  0.00    -0.264 OA
HETATM    9  F   UNL     1     -40.032 -55.195  15.526  1.00  0.00    -0.199 F 
ENDROOT
BRANCH   1  10
HETATM   10  C   UNL     1     -40.808 -52.148  11.834  1.00  0.00     0.221 C 
BRANCH  10  11
HETATM   11  C   UNL     1     -40.880 -50.655  12.172  1.00  0.00     0.177 C 
HETATM   12  O   UNL     1     -41.743 -49.897  11.730  1.00  0.00    -0.291 OA
BRANCH  11  13
HETATM   13  C   UNL     1     -39.827 -50.116  13.105  1.00  0.00     0.011 A 
HETATM   14  C   UNL     1     -40.181 -49.467  14.298  1.00  0.00     0.016 A 
HETATM   15  C   UNL     1     -39.211 -48.855  15.098  1.00  0.00     0.020 A 
HETATM   16  C   UNL     1     -37.875 -48.903  14.720  1.00  0.00     0.011 A 
HETATM   17  C   UNL     1     -37.492 -49.606  13.577  1.00  0.00     0.020 A 
HETATM   18 BR   UNL     1     -36.588 -47.975  15.748  1.00  0.00    -0.051 Br
HETATM   19  C   UNL     1     -38.462 -50.215  12.772  1.00  0.00     0.016 A 
ENDBRANCH  11  13
ENDBRANCH  10  11
ENDBRANCH   1  10
BRANCH   2  20
HETATM   20  C   UNL     1     -44.505 -53.823  14.423  1.00  0.00     0.232 C 
HETATM   21  O   UNL     1     -44.684 -53.703  15.841  1.00  0.00    -0.366 OA
HETATM   22  C   UNL     1     -46.052 -54.038  16.122  1.00  0.00     0.170 C 
HETATM   23  C   UNL     1     -46.659 -54.565  14.831  1.00  0.00     0.031 C 
HETATM   24  C   UNL     1     -45.439 -54.951  14.015  1.00  0.00     0.056 C 
ENDBRANCH   2  20
TORSDOF 4
ENDMDL
