MODEL 1
REMARK VINA RESULT:      -6.0      0.000      0.000
REMARK  5 active torsions:
REMARK  status: ('A' for Active; 'I' for Inactive)
REMARK    1  A    between atoms: N_6  and  C_7 
REMARK    2  A    between atoms: C_7  and  C_8 
REMARK    3  A    between atoms: C_8  and  N_9 
REMARK       I    between atoms: N_9  and  C_10 
REMARK    4  A    between atoms: C_10  and  C_12 
REMARK    5  A    between atoms: C_12  and  C_13 
ROOT
HETATM    1  N   UNL     1     -41.390 -53.268  14.284  1.00  0.00    -0.359 N 
HETATM    2  C   UNL     1     -40.580 -52.877  13.235  1.00  0.00     0.222 C 
HETATM    3  O   UNL     1     -40.501 -53.505  12.184  1.00  0.00    -0.273 OA
HETATM    4  H   UNL     1     -41.604 -52.566  14.983  1.00  0.00     0.162 HD
ENDROOT
BRANCH   2   5
HETATM    5  C   UNL     1     -39.736 -51.645  13.504  1.00  0.00     0.145 C 
BRANCH   5   6
HETATM    6  C   UNL     1     -39.949 -50.533  12.527  1.00  0.00    -0.002 A 
HETATM    7  C   UNL     1     -38.979 -49.847  11.739  1.00  0.00     0.030 A 
HETATM    8  C   UNL     1     -37.513 -50.059  11.624  1.00  0.00     0.070 C 
HETATM    9  N   UNL     1     -39.528 -48.846  11.044  1.00  0.00    -0.303 N 
HETATM   10  N   UNL     1     -40.823 -48.866  11.382  1.00  0.00    -0.300 N 
ATOM     11  HN  UNL     1     -39.063 -48.207  10.399  1.00  0.00     0.186 HD
HETATM   12  C   UNL     1     -41.693 -47.847  10.844  1.00  0.00     0.177 C 
HETATM   13  C   UNL     1     -41.144 -49.878  12.249  1.00  0.00     0.033 A 
HETATM   14  C   UNL     1     -42.517 -50.116  12.762  1.00  0.00     0.070 C 
ENDBRANCH   5   6
ENDBRANCH   2   5
BRANCH   1  15
HETATM   15  C   UNL     1     -42.326 -54.381  14.151  1.00  0.00     0.152 C 
BRANCH  15  16
HETATM   16  C   UNL     1     -43.517 -54.328  15.138  1.00  0.00     0.292 C 
BRANCH  16  17
HETATM   17  N   UNL     1     -44.693 -53.571  14.649  1.00  0.00     0.090 N 
HETATM   18  C   UNL     1     -44.745 -53.505  13.183  1.00  0.00     0.272 C 
HETATM   19  C   UNL     1     -45.960 -52.717  12.686  1.00  0.00     0.031 C 
HETATM   20  C   UNL     1     -46.018 -51.324  13.303  1.00  0.00     0.007 C 
HETATM   21  C   UNL     1     -45.909 -51.383  14.830  1.00  0.00     0.010 C 
HETATM   22  C   UNL     1     -47.195 -51.920  15.470  1.00  0.00     0.011 C 
HETATM   23  C   UNL     1     -44.681 -52.216  15.236  1.00  0.00     0.276 C 
ENDBRANCH  16  17
ENDBRANCH  15  16
ENDBRANCH   1  15
TORSDOF 5
ENDMDL
MODEL 2
REMARK VINA RESULT:      -5.8      1.800      6.811
REMARK  5 active torsions:
REMARK  status: ('A' for Active; 'I' for Inactive)
REMARK    1  A    between atoms: N_6  and  C_7 
REMARK    2  A    between atoms: C_7  and  C_8 
REMARK    3  A    between atoms: C_8  and  N_9 
REMARK       I    between atoms: N_9  and  C_10 
REMARK    4  A    between atoms: C_10  and  C_12 
REMARK    5  A    between atoms: C_12  and  C_13 
ROOT
HETATM    1  N   UNL     1     -43.159 -52.873  12.104  1.00  0.00    -0.359 N 
HETATM    2  C   UNL     1     -43.383 -53.815  13.090  1.00  0.00     0.222 C 
HETATM    3  O   UNL     1     -42.477 -54.343  13.725  1.00  0.00    -0.273 OA
HETATM    4  H   UNL     1     -43.948 -52.298  11.831  1.00  0.00     0.162 HD
ENDROOT
BRANCH   2   5
HETATM    5  C   UNL     1     -44.838 -54.202  13.284  1.00  0.00     0.145 C 
BRANCH   5   6
HETATM    6  C   UNL     1     -45.644 -53.192  14.037  1.00  0.00    -0.002 A 
HETATM    7  C   UNL     1     -46.437 -52.127  13.520  1.00  0.00     0.030 A 
HETATM    8  C   UNL     1     -46.726 -51.740  12.115  1.00  0.00     0.070 C 
HETATM    9  N   UNL     1     -46.945 -51.371  14.499  1.00  0.00    -0.303 N 
HETATM   10  N   UNL     1     -46.481 -51.920  15.628  1.00  0.00    -0.300 N 
ATOM     11  HN  UNL     1     -47.551 -50.556  14.407  1.00  0.00     0.186 HD
HETATM   12  C   UNL     1     -46.799 -51.284  16.886  1.00  0.00     0.177 C 
HETATM   13  C   UNL     1     -45.716 -53.037  15.417  1.00  0.00     0.033 A 
HETATM   14  C   UNL     1     -45.100 -53.830  16.511  1.00  0.00     0.070 C 
ENDBRANCH   5   6
ENDBRANCH   2   5
BRANCH   1  15
HETATM   15  C   UNL     1     -41.825 -52.331  11.856  1.00  0.00     0.152 C 
BRANCH  15  16
HETATM   16  C   UNL     1     -41.642 -50.865  12.316  1.00  0.00     0.292 C 
BRANCH  16  17
HETATM   17  N   UNL     1     -40.242 -50.479  12.610  1.00  0.00     0.090 N 
HETATM   18  C   UNL     1     -39.565 -49.899  11.443  1.00  0.00     0.272 C 
HETATM   19  C   UNL     1     -38.118 -49.507  11.754  1.00  0.00     0.031 C 
HETATM   20  C   UNL     1     -37.328 -50.680  12.324  1.00  0.00     0.007 C 
HETATM   21  C   UNL     1     -38.056 -51.323  13.508  1.00  0.00     0.010 C 
HETATM   22  C   UNL     1     -37.997 -50.439  14.759  1.00  0.00     0.011 C 
HETATM   23  C   UNL     1     -39.505 -51.655  13.114  1.00  0.00     0.276 C 
ENDBRANCH  16  17
ENDBRANCH  15  16
ENDBRANCH   1  15
TORSDOF 5
ENDMDL
MODEL 3
REMARK VINA RESULT:      -5.7      2.551      4.011
REMARK  5 active torsions:
REMARK  status: ('A' for Active; 'I' for Inactive)
REMARK    1  A    between atoms: N_6  and  C_7 
REMARK    2  A    between atoms: C_7  and  C_8 
REMARK    3  A    between atoms: C_8  and  N_9 
REMARK       I    between atoms: N_9  and  C_10 
REMARK    4  A    between atoms: C_10  and  C_12 
REMARK    5  A    between atoms: C_12  and  C_13 
ROOT
HETATM    1  N   UNL     1     -41.674 -50.649  11.762  1.00  0.00    -0.359 N 
HETATM    2  C   UNL     1     -42.098 -49.334  11.800  1.00  0.00     0.222 C 
HETATM    3  O   UNL     1     -42.870 -48.908  12.652  1.00  0.00    -0.273 OA
HETATM    4  H   UNL     1     -40.845 -50.848  11.212  1.00  0.00     0.162 HD
ENDROOT
BRANCH   2   5
HETATM    5  C   UNL     1     -41.591 -48.467  10.662  1.00  0.00     0.145 C 
BRANCH   5   6
HETATM    6  C   UNL     1     -42.200 -47.102  10.616  1.00  0.00    -0.002 A 
HETATM    7  C   UNL     1     -43.297 -46.646   9.829  1.00  0.00     0.030 A 
HETATM    8  C   UNL     1     -44.168 -47.385   8.878  1.00  0.00     0.070 C 
HETATM    9  N   UNL     1     -43.506 -45.335   9.986  1.00  0.00    -0.303 N 
HETATM   10  N   UNL     1     -42.557 -44.940  10.843  1.00  0.00    -0.300 N 
ATOM     11  HN  UNL     1     -44.228 -44.762   9.550  1.00  0.00     0.186 HD
HETATM   12  C   UNL     1     -42.465 -43.537  11.172  1.00  0.00     0.177 C 
HETATM   13  C   UNL     1     -41.758 -45.964  11.281  1.00  0.00     0.033 A 
HETATM   14  C   UNL     1     -40.642 -45.781  12.245  1.00  0.00     0.070 C 
ENDBRANCH   5   6
ENDBRANCH   2   5
BRANCH   1  15
HETATM   15  C   UNL     1     -42.003 -51.588  12.831  1.00  0.00     0.152 C 
BRANCH  15  16
HETATM   16  C   UNL     1     -43.154 -52.562  12.487  1.00  0.00     0.292 C 
BRANCH  16  17
HETATM   17  N   UNL     1     -44.211 -52.661  13.520  1.00  0.00     0.090 N 
HETATM   18  C   UNL     1     -44.855 -53.982  13.536  1.00  0.00     0.272 C 
HETATM   19  C   UNL     1     -45.950 -54.074  14.603  1.00  0.00     0.031 C 
HETATM   20  C   UNL     1     -46.979 -52.960  14.451  1.00  0.00     0.007 C 
HETATM   21  C   UNL     1     -46.310 -51.584  14.379  1.00  0.00     0.010 C 
HETATM   22  C   UNL     1     -45.766 -51.146  15.744  1.00  0.00     0.011 C 
HETATM   23  C   UNL     1     -45.209 -51.593  13.305  1.00  0.00     0.276 C 
ENDBRANCH  16  17
ENDBRANCH  15  16
ENDBRANCH   1  15
TORSDOF 5
ENDMDL
MODEL 4
REMARK VINA RESULT:      -5.7      1.916      6.336
REMARK  5 active torsions:
REMARK  status: ('A' for Active; 'I' for Inactive)
REMARK    1  A    between atoms: N_6  and  C_7 
REMARK    2  A    between atoms: C_7  and  C_8 
REMARK    3  A    between atoms: C_8  and  N_9 
REMARK       I    between atoms: N_9  and  C_10 
REMARK    4  A    between atoms: C_10  and  C_12 
REMARK    5  A    between atoms: C_12  and  C_13 
ROOT
HETATM    1  N   UNL     1     -40.902 -51.727  11.564  1.00  0.00    -0.359 N 
HETATM    2  C   UNL     1     -40.537 -52.475  12.667  1.00  0.00     0.222 C 
HETATM    3  O   UNL     1     -39.763 -52.062  13.525  1.00  0.00    -0.273 OA
HETATM    4  H   UNL     1     -41.734 -52.022  11.066  1.00  0.00     0.162 HD
ENDROOT
BRANCH   2   5
HETATM    5  C   UNL     1     -41.111 -53.879  12.705  1.00  0.00     0.145 C 
BRANCH   5   6
HETATM    6  C   UNL     1     -42.200 -54.067  13.712  1.00  0.00    -0.002 A 
HETATM    7  C   UNL     1     -42.103 -54.586  15.036  1.00  0.00     0.030 A 
HETATM    8  C   UNL     1     -40.914 -55.040  15.804  1.00  0.00     0.070 C 
HETATM    9  N   UNL     1     -43.304 -54.690  15.614  1.00  0.00    -0.303 N 
HETATM   10  N   UNL     1     -44.167 -54.265  14.684  1.00  0.00    -0.300 N 
ATOM     11  HN  UNL     1     -43.517 -55.020  16.555  1.00  0.00     0.186 HD
HETATM   12  C   UNL     1     -45.580 -54.318  14.977  1.00  0.00     0.177 C 
HETATM   13  C   UNL     1     -43.560 -53.848  13.527  1.00  0.00     0.033 A 
HETATM   14  C   UNL     1     -44.302 -53.322  12.353  1.00  0.00     0.070 C 
ENDBRANCH   5   6
ENDBRANCH   2   5
BRANCH   1  15
HETATM   15  C   UNL     1     -40.504 -50.328  11.424  1.00  0.00     0.152 C 
BRANCH  15  16
HETATM   16  C   UNL     1     -41.579 -49.316  11.886  1.00  0.00     0.292 C 
BRANCH  16  17
HETATM   17  N   UNL     1     -41.871 -48.236  10.915  1.00  0.00     0.090 N 
HETATM   18  C   UNL     1     -41.139 -46.999  11.217  1.00  0.00     0.272 C 
HETATM   19  C   UNL     1     -41.451 -45.887  10.212  1.00  0.00     0.031 C 
HETATM   20  C   UNL     1     -42.949 -45.629  10.104  1.00  0.00     0.007 C 
HETATM   21  C   UNL     1     -43.723 -46.925   9.843  1.00  0.00     0.010 C 
HETATM   22  C   UNL     1     -43.521 -47.427   8.408  1.00  0.00     0.011 C 
HETATM   23  C   UNL     1     -43.327 -47.990  10.880  1.00  0.00     0.276 C 
ENDBRANCH  16  17
ENDBRANCH  15  16
ENDBRANCH   1  15
TORSDOF 5
ENDMDL
MODEL 5
REMARK VINA RESULT:      -5.6      1.891      6.927
REMARK  5 active torsions:
REMARK  status: ('A' for Active; 'I' for Inactive)
REMARK    1  A    between atoms: N_6  and  C_7 
REMARK    2  A    between atoms: C_7  and  C_8 
REMARK    3  A    between atoms: C_8  and  N_9 
REMARK       I    between atoms: N_9  and  C_10 
REMARK    4  A    between atoms: C_10  and  C_12 
REMARK    5  A    between atoms: C_12  and  C_13 
ROOT
HETATM    1  N   UNL     1     -42.757 -50.955  12.142  1.00  0.00    -0.359 N 
HETATM    2  C   UNL     1     -42.472 -52.255  12.514  1.00  0.00     0.222 C 
HETATM    3  O   UNL     1     -41.369 -52.605  12.920  1.00  0.00    -0.273 OA
HETATM    4  H   UNL     1     -43.736 -50.699  12.086  1.00  0.00     0.162 HD
ENDROOT
BRANCH   2   5
HETATM    5  C   UNL     1     -43.609 -53.240  12.316  1.00  0.00     0.145 C 
BRANCH   5   6
HETATM    6  C   UNL     1     -44.579 -53.290  13.453  1.00  0.00    -0.002 A 
HETATM    7  C   UNL     1     -45.809 -52.584  13.602  1.00  0.00     0.030 A 
HETATM    8  C   UNL     1     -46.495 -51.646  12.675  1.00  0.00     0.070 C 
HETATM    9  N   UNL     1     -46.367 -52.812  14.795  1.00  0.00    -0.303 N 
HETATM   10  N   UNL     1     -45.515 -53.636  15.417  1.00  0.00    -0.300 N 
ATOM     11  HN  UNL     1     -47.247 -52.442  15.152  1.00  0.00     0.186 HD
HETATM   12  C   UNL     1     -45.801 -54.025  16.778  1.00  0.00     0.177 C 
HETATM   13  C   UNL     1     -44.434 -53.983  14.649  1.00  0.00     0.033 A 
HETATM   14  C   UNL     1     -43.356 -54.894  15.112  1.00  0.00     0.070 C 
ENDBRANCH   5   6
ENDBRANCH   2   5
BRANCH   1  15
HETATM   15  C   UNL     1     -41.798 -49.873  12.353  1.00  0.00     0.152 C 
BRANCH  15  16
HETATM   16  C   UNL     1     -41.029 -49.452  11.077  1.00  0.00     0.292 C 
BRANCH  16  17
HETATM   17  N   UNL     1     -41.398 -48.120  10.544  1.00  0.00     0.090 N 
HETATM   18  C   UNL     1     -40.568 -47.045  11.101  1.00  0.00     0.272 C 
HETATM   19  C   UNL     1     -40.960 -45.671  10.548  1.00  0.00     0.031 C 
HETATM   20  C   UNL     1     -42.443 -45.385  10.752  1.00  0.00     0.007 C 
HETATM   21  C   UNL     1     -43.313 -46.529  10.221  1.00  0.00     0.010 C 
HETATM   22  C   UNL     1     -43.341 -46.556   8.689  1.00  0.00     0.011 C 
HETATM   23  C   UNL     1     -42.830 -47.868  10.806  1.00  0.00     0.276 C 
ENDBRANCH  16  17
ENDBRANCH  15  16
ENDBRANCH   1  15
TORSDOF 5
ENDMDL
MODEL 6
REMARK VINA RESULT:      -5.5      1.398      2.640
REMARK  5 active torsions:
REMARK  status: ('A' for Active; 'I' for Inactive)
REMARK    1  A    between atoms: N_6  and  C_7 
REMARK    2  A    between atoms: C_7  and  C_8 
REMARK    3  A    between atoms: C_8  and  N_9 
REMARK       I    between atoms: N_9  and  C_10 
REMARK    4  A    between atoms: C_10  and  C_12 
REMARK    5  A    between atoms: C_12  and  C_13 
ROOT
HETATM    1  N   UNL     1     -42.026 -52.966  12.998  1.00  0.00    -0.359 N 
HETATM    2  C   UNL     1     -40.783 -52.482  12.638  1.00  0.00     0.222 C 
HETATM    3  O   UNL     1     -39.735 -52.959  13.061  1.00  0.00    -0.273 OA
HETATM    4  H   UNL     1     -42.807 -52.706  12.406  1.00  0.00     0.162 HD
ENDROOT
BRANCH   2   5
HETATM    5  C   UNL     1     -40.809 -51.266  11.732  1.00  0.00     0.145 C 
BRANCH   5   6
HETATM    6  C   UNL     1     -40.677 -49.963  12.454  1.00  0.00    -0.002 A 
HETATM    7  C   UNL     1     -41.706 -49.159  13.026  1.00  0.00     0.030 A 
HETATM    8  C   UNL     1     -43.171 -49.393  13.112  1.00  0.00     0.070 C 
HETATM    9  N   UNL     1     -41.222 -48.013  13.515  1.00  0.00    -0.303 N 
HETATM   10  N   UNL     1     -39.910 -48.059  13.253  1.00  0.00    -0.300 N 
ATOM     11  HN  UNL     1     -41.737 -47.267  13.983  1.00  0.00     0.186 HD
HETATM   12  C   UNL     1     -39.096 -46.917  13.601  1.00  0.00     0.177 C 
HETATM   13  C   UNL     1     -39.517 -49.221  12.642  1.00  0.00     0.033 A 
HETATM   14  C   UNL     1     -38.111 -49.515  12.262  1.00  0.00     0.070 C 
ENDBRANCH   5   6
ENDBRANCH   2   5
BRANCH   1  15
HETATM   15  C   UNL     1     -42.171 -54.182  13.794  1.00  0.00     0.152 C 
BRANCH  15  16
HETATM   16  C   UNL     1     -43.548 -54.327  14.484  1.00  0.00     0.292 C 
BRANCH  16  17
HETATM   17  N   UNL     1     -44.419 -53.133  14.384  1.00  0.00     0.090 N 
HETATM   18  C   UNL     1     -44.432 -52.346  15.625  1.00  0.00     0.272 C 
HETATM   19  C   UNL     1     -45.339 -51.117  15.515  1.00  0.00     0.031 C 
HETATM   20  C   UNL     1     -46.752 -51.495  15.087  1.00  0.00     0.007 C 
HETATM   21  C   UNL     1     -46.741 -52.362  13.824  1.00  0.00     0.010 C 
HETATM   22  C   UNL     1     -46.386 -51.544  12.578  1.00  0.00     0.011 C 
HETATM   23  C   UNL     1     -45.786 -53.553  14.014  1.00  0.00     0.276 C 
ENDBRANCH  16  17
ENDBRANCH  15  16
ENDBRANCH   1  15
TORSDOF 5
ENDMDL
MODEL 7
REMARK VINA RESULT:      -5.4      2.034      2.799
REMARK  5 active torsions:
REMARK  status: ('A' for Active; 'I' for Inactive)
REMARK    1  A    between atoms: N_6  and  C_7 
REMARK    2  A    between atoms: C_7  and  C_8 
REMARK    3  A    between atoms: C_8  and  N_9 
REMARK       I    between atoms: N_9  and  C_10 
REMARK    4  A    between atoms: C_10  and  C_12 
REMARK    5  A    between atoms: C_12  and  C_13 
ROOT
HETATM    1  N   UNL     1     -40.820 -51.131  12.868  1.00  0.00    -0.359 N 
HETATM    2  C   UNL     1     -39.478 -51.086  12.543  1.00  0.00     0.222 C 
HETATM    3  O   UNL     1     -38.657 -51.879  12.991  1.00  0.00    -0.273 OA
HETATM    4  H   UNL     1     -41.457 -50.631  12.258  1.00  0.00     0.162 HD
ENDROOT
BRANCH   2   5
HETATM    5  C   UNL     1     -39.078 -49.933  11.641  1.00  0.00     0.145 C 
BRANCH   5   6
HETATM    6  C   UNL     1     -39.439 -48.584  12.177  1.00  0.00    -0.002 A 
HETATM    7  C   UNL     1     -40.455 -47.693  11.724  1.00  0.00     0.030 A 
HETATM    8  C   UNL     1     -41.460 -47.854  10.642  1.00  0.00     0.070 C 
HETATM    9  N   UNL     1     -40.427 -46.534  12.391  1.00  0.00    -0.303 N 
HETATM   10  N   UNL     1     -39.407 -46.659  13.248  1.00  0.00    -0.300 N 
ATOM     11  HN  UNL     1     -41.046 -45.732  12.273  1.00  0.00     0.186 HD
HETATM   12  C   UNL     1     -39.063 -45.531  14.082  1.00  0.00     0.177 C 
HETATM   13  C   UNL     1     -38.791 -47.883  13.187  1.00  0.00     0.033 A 
HETATM   14  C   UNL     1     -37.642 -48.268  14.046  1.00  0.00     0.070 C 
ENDBRANCH   5   6
ENDBRANCH   2   5
BRANCH   1  15
HETATM   15  C   UNL     1     -41.378 -52.228  13.655  1.00  0.00     0.152 C 
BRANCH  15  16
HETATM   16  C   UNL     1     -42.434 -51.787  14.696  1.00  0.00     0.292 C 
BRANCH  16  17
HETATM   17  N   UNL     1     -43.827 -52.167  14.365  1.00  0.00     0.090 N 
HETATM   18  C   UNL     1     -43.890 -53.288  13.417  1.00  0.00     0.272 C 
HETATM   19  C   UNL     1     -45.333 -53.671  13.076  1.00  0.00     0.031 C 
HETATM   20  C   UNL     1     -46.128 -52.474  12.568  1.00  0.00     0.007 C 
HETATM   21  C   UNL     1     -46.022 -51.284  13.527  1.00  0.00     0.010 C 
HETATM   22  C   UNL     1     -46.833 -51.512  14.807  1.00  0.00     0.011 C 
HETATM   23  C   UNL     1     -44.543 -50.990  13.834  1.00  0.00     0.276 C 
ENDBRANCH  16  17
ENDBRANCH  15  16
ENDBRANCH   1  15
TORSDOF 5
ENDMDL
MODEL 8
REMARK VINA RESULT:      -5.4      2.291      3.852
REMARK  5 active torsions:
REMARK  status: ('A' for Active; 'I' for Inactive)
REMARK    1  A    between atoms: N_6  and  C_7 
REMARK    2  A    between atoms: C_7  and  C_8 
REMARK    3  A    between atoms: C_8  and  N_9 
REMARK       I    between atoms: N_9  and  C_10 
REMARK    4  A    between atoms: C_10  and  C_12 
REMARK    5  A    between atoms: C_12  and  C_13 
ROOT
HETATM    1  N   UNL     1     -41.928 -50.374  11.751  1.00  0.00    -0.359 N 
HETATM    2  C   UNL     1     -40.799 -49.586  11.866  1.00  0.00     0.222 C 
HETATM    3  O   UNL     1     -39.945 -49.767  12.727  1.00  0.00    -0.273 OA
HETATM    4  H   UNL     1     -42.427 -50.334  10.869  1.00  0.00     0.162 HD
ENDROOT
BRANCH   2   5
HETATM    5  C   UNL     1     -40.726 -48.428  10.887  1.00  0.00     0.145 C 
BRANCH   5   6
HETATM    6  C   UNL     1     -41.525 -47.232  11.296  1.00  0.00    -0.002 A 
HETATM    7  C   UNL     1     -42.801 -46.813  10.818  1.00  0.00     0.030 A 
HETATM    8  C   UNL     1     -43.713 -47.449   9.831  1.00  0.00     0.070 C 
HETATM    9  N   UNL     1     -43.166 -45.642  11.350  1.00  0.00    -0.303 N 
HETATM   10  N   UNL     1     -42.146 -45.296  12.144  1.00  0.00    -0.300 N 
ATOM     11  HN  UNL     1     -44.030 -45.126  11.188  1.00  0.00     0.186 HD
HETATM   12  C   UNL     1     -42.200 -44.023  12.824  1.00  0.00     0.177 C 
HETATM   13  C   UNL     1     -41.140 -46.227  12.176  1.00  0.00     0.033 A 
HETATM   14  C   UNL     1     -39.907 -46.078  12.991  1.00  0.00     0.070 C 
ENDBRANCH   5   6
ENDBRANCH   2   5
BRANCH   1  15
HETATM   15  C   UNL     1     -42.104 -51.577  12.560  1.00  0.00     0.152 C 
BRANCH  15  16
HETATM   16  C   UNL     1     -42.779 -51.325  13.930  1.00  0.00     0.292 C 
BRANCH  16  17
HETATM   17  N   UNL     1     -44.259 -51.362  13.907  1.00  0.00     0.090 N 
HETATM   18  C   UNL     1     -44.842 -51.254  15.251  1.00  0.00     0.272 C 
HETATM   19  C   UNL     1     -46.373 -51.298  15.219  1.00  0.00     0.031 C 
HETATM   20  C   UNL     1     -46.885 -52.537  14.494  1.00  0.00     0.007 C 
HETATM   21  C   UNL     1     -46.239 -52.685  13.112  1.00  0.00     0.010 C 
HETATM   22  C   UNL     1     -46.785 -51.653  12.119  1.00  0.00     0.011 C 
HETATM   23  C   UNL     1     -44.708 -52.600  13.238  1.00  0.00     0.276 C 
ENDBRANCH  16  17
ENDBRANCH  15  16
ENDBRANCH   1  15
TORSDOF 5
ENDMDL
MODEL 9
REMARK VINA RESULT:      -5.4      2.324      7.162
REMARK  5 active torsions:
REMARK  status: ('A' for Active; 'I' for Inactive)
REMARK    1  A    between atoms: N_6  and  C_7 
REMARK    2  A    between atoms: C_7  and  C_8 
REMARK    3  A    between atoms: C_8  and  N_9 
REMARK       I    between atoms: N_9  and  C_10 
REMARK    4  A    between atoms: C_10  and  C_12 
REMARK    5  A    between atoms: C_12  and  C_13 
ROOT
HETATM    1  N   UNL     1     -40.525 -50.506  11.136  1.00  0.00    -0.359 N 
HETATM    2  C   UNL     1     -41.000 -51.288  12.172  1.00  0.00     0.222 C 
HETATM    3  O   UNL     1     -41.097 -50.879  13.324  1.00  0.00    -0.273 OA
HETATM    4  H   UNL     1     -40.733 -50.818  10.194  1.00  0.00     0.162 HD
ENDROOT
BRANCH   2   5
HETATM    5  C   UNL     1     -41.327 -52.720  11.792  1.00  0.00     0.145 C 
BRANCH   5   6
HETATM    6  C   UNL     1     -41.919 -53.527  12.903  1.00  0.00    -0.002 A 
HETATM    7  C   UNL     1     -43.294 -53.730  13.216  1.00  0.00     0.030 A 
HETATM    8  C   UNL     1     -44.518 -53.248  12.523  1.00  0.00     0.070 C 
HETATM    9  N   UNL     1     -43.445 -54.441  14.338  1.00  0.00    -0.303 N 
HETATM   10  N   UNL     1     -42.197 -54.683  14.757  1.00  0.00    -0.300 N 
ATOM     11  HN  UNL     1     -44.317 -54.734  14.778  1.00  0.00     0.186 HD
HETATM   12  C   UNL     1     -42.012 -55.386  16.006  1.00  0.00     0.177 C 
HETATM   13  C   UNL     1     -41.234 -54.184  13.919  1.00  0.00     0.033 A 
HETATM   14  C   UNL     1     -39.776 -54.334  14.161  1.00  0.00     0.070 C 
ENDBRANCH   5   6
ENDBRANCH   2   5
BRANCH   1  15
HETATM   15  C   UNL     1     -40.249 -49.083  11.319  1.00  0.00     0.152 C 
BRANCH  15  16
HETATM   16  C   UNL     1     -41.424 -48.155  10.929  1.00  0.00     0.292 C 
BRANCH  16  17
HETATM   17  N   UNL     1     -41.287 -46.755  11.394  1.00  0.00     0.090 N 
HETATM   18  C   UNL     1     -42.347 -45.885  10.868  1.00  0.00     0.272 C 
HETATM   19  C   UNL     1     -42.196 -44.439  11.349  1.00  0.00     0.031 C 
HETATM   20  C   UNL     1     -40.814 -43.881  11.027  1.00  0.00     0.007 C 
HETATM   21  C   UNL     1     -39.704 -44.811  11.526  1.00  0.00     0.010 C 
HETATM   22  C   UNL     1     -39.569 -44.765  13.052  1.00  0.00     0.011 C 
HETATM   23  C   UNL     1     -39.953 -46.242  11.019  1.00  0.00     0.276 C 
ENDBRANCH  16  17
ENDBRANCH  15  16
ENDBRANCH   1  15
TORSDOF 5
ENDMDL
