MODEL 1
REMARK VINA RESULT:      -6.3      0.000      0.000
REMARK  4 active torsions:
REMARK  status: ('A' for Active; 'I' for Inactive)
REMARK    1  A    between atoms: O_2  and  C_3 
REMARK    2  A    between atoms: C_9  and  N_10 
REMARK       I    between atoms: N_10  and  C_11 
REMARK       I    between atoms: C_11  and  N_13 
REMARK    3  A    between atoms: N_13  and  C_14 
REMARK       I    between atoms: N_17  and  C_20 
REMARK    4  A    between atoms: C_20  and  C_22 
ROOT
HETATM    1  N   UNL     1     -44.698 -50.784  12.829  1.00  0.00    -0.305 N 
HETATM    2  C   UNL     1     -43.401 -50.440  13.137  1.00  0.00     0.321 C 
HETATM    3  O   UNL     1     -42.713 -50.971  14.003  1.00  0.00    -0.247 OA
HETATM    4  N   UNL     1     -42.914 -49.395  12.377  1.00  0.00    -0.338 N 
HETATM    5  H   UNL     1     -45.068 -50.512  11.929  1.00  0.00     0.171 HD
HETATM    6  H   UNL     1     -43.450 -49.097  11.579  1.00  0.00     0.164 HD
ENDROOT
BRANCH   1   7
HETATM    7  C   UNL     1     -45.524 -51.663  13.583  1.00  0.00     0.087 A 
HETATM    8  C   UNL     1     -45.643 -53.015  13.234  1.00  0.00     0.169 A 
HETATM    9  N   UNL     1     -46.495 -53.890  13.827  1.00  0.00    -0.345 N 
HETATM   10  C   UNL     1     -47.215 -53.428  14.862  1.00  0.00     0.090 A 
ATOM     11  HN  UNL     1     -46.584 -54.853  13.502  1.00  0.00     0.167 HD
HETATM   12  C   UNL     1     -47.127 -52.136  15.337  1.00  0.00     0.019 A 
HETATM   13  C   UNL     1     -46.279 -51.242  14.679  1.00  0.00     0.035 A 
BRANCH   8  14
HETATM   14  O   UNL     1     -44.801 -53.516  12.254  1.00  0.00    -0.339 OA
HETATM   15  C   UNL     1     -43.692 -54.190  12.862  1.00  0.00     0.211 C 
ENDBRANCH   8  14
ENDBRANCH   1   7
BRANCH   4  16
HETATM   16  C   UNL     1     -41.512 -48.982  12.504  1.00  0.00     0.089 C 
HETATM   17  C   UNL     1     -41.314 -47.809  13.467  1.00  0.00     0.045 C 
HETATM   18  C   UNL     1     -41.747 -46.466  12.892  1.00  0.00     0.127 C 
HETATM   19  N   UNL     1     -41.258 -46.230  11.537  1.00  0.00    -0.352 N 
HETATM   20  C   UNL     1     -41.398 -47.335  10.592  1.00  0.00     0.127 C 
HETATM   21  C   UNL     1     -41.099 -44.951  10.987  1.00  0.00     0.224 C 
HETATM   22  C   UNL     1     -40.886 -48.657  11.147  1.00  0.00     0.045 C 
HETATM   23  O   UNL     1     -40.739 -44.773   9.825  1.00  0.00    -0.273 OA
BRANCH  21  24
HETATM   24  C   UNL     1     -41.390 -43.761  11.847  1.00  0.00     0.078 A 
HETATM   25  C   UNL     1     -42.722 -43.051  11.733  1.00  0.00     0.015 A 
HETATM   26  C   UNL     1     -41.475 -42.379  11.239  1.00  0.00     0.015 A 
ENDBRANCH  21  24
ENDBRANCH   4  16
TORSDOF 4
ENDMDL
MODEL 2
REMARK VINA RESULT:      -6.0      2.899      8.284
REMARK  4 active torsions:
REMARK  status: ('A' for Active; 'I' for Inactive)
REMARK    1  A    between atoms: O_2  and  C_3 
REMARK    2  A    between atoms: C_9  and  N_10 
REMARK       I    between atoms: N_10  and  C_11 
REMARK       I    between atoms: C_11  and  N_13 
REMARK    3  A    between atoms: N_13  and  C_14 
REMARK       I    between atoms: N_17  and  C_20 
REMARK    4  A    between atoms: C_20  and  C_22 
ROOT
HETATM    1  N   UNL     1     -41.146 -50.564  13.271  1.00  0.00    -0.305 N 
HETATM    2  C   UNL     1     -42.079 -51.525  12.953  1.00  0.00     0.321 C 
HETATM    3  O   UNL     1     -41.870 -52.515  12.260  1.00  0.00    -0.247 OA
HETATM    4  N   UNL     1     -43.330 -51.273  13.482  1.00  0.00    -0.338 N 
HETATM    5  H   UNL     1     -41.319 -49.970  14.070  1.00  0.00     0.171 HD
HETATM    6  H   UNL     1     -43.418 -50.541  14.167  1.00  0.00     0.164 HD
ENDROOT
BRANCH   1   7
HETATM    7  C   UNL     1     -39.850 -50.444  12.696  1.00  0.00     0.087 A 
HETATM    8  C   UNL     1     -39.663 -49.781  11.476  1.00  0.00     0.169 A 
HETATM    9  N   UNL     1     -38.484 -49.724  10.806  1.00  0.00    -0.345 N 
HETATM   10  C   UNL     1     -37.419 -50.285  11.402  1.00  0.00     0.090 A 
ATOM     11  HN  UNL     1     -38.410 -49.275   9.893  1.00  0.00     0.167 HD
HETATM   12  C   UNL     1     -37.472 -50.901  12.635  1.00  0.00     0.019 A 
HETATM   13  C   UNL     1     -38.706 -50.990  13.281  1.00  0.00     0.035 A 
BRANCH   8  14
HETATM   14  O   UNL     1     -40.735 -49.092  10.933  1.00  0.00    -0.339 OA
HETATM   15  C   UNL     1     -40.620 -47.696  11.236  1.00  0.00     0.211 C 
ENDBRANCH   8  14
ENDBRANCH   1   7
BRANCH   4  16
HETATM   16  C   UNL     1     -44.407 -52.257  13.329  1.00  0.00     0.089 C 
HETATM   17  C   UNL     1     -45.804 -51.634  13.369  1.00  0.00     0.045 C 
HETATM   18  C   UNL     1     -46.254 -51.232  14.769  1.00  0.00     0.127 C 
HETATM   19  N   UNL     1     -46.019 -52.266  15.772  1.00  0.00    -0.352 N 
HETATM   20  C   UNL     1     -44.709 -52.911  15.750  1.00  0.00     0.127 C 
HETATM   21  C   UNL     1     -46.741 -52.355  16.970  1.00  0.00     0.224 C 
HETATM   22  C   UNL     1     -44.305 -53.382  14.360  1.00  0.00     0.045 C 
HETATM   23  O   UNL     1     -46.492 -53.198  17.830  1.00  0.00    -0.273 OA
BRANCH  21  24
HETATM   24  C   UNL     1     -47.848 -51.378  17.213  1.00  0.00     0.078 A 
HETATM   25  C   UNL     1     -47.600 -50.145  18.056  1.00  0.00     0.015 A 
HETATM   26  C   UNL     1     -48.468 -51.248  18.586  1.00  0.00     0.015 A 
ENDBRANCH  21  24
ENDBRANCH   4  16
TORSDOF 4
ENDMDL
MODEL 3
REMARK VINA RESULT:      -5.9      1.630      2.102
REMARK  4 active torsions:
REMARK  status: ('A' for Active; 'I' for Inactive)
REMARK    1  A    between atoms: O_2  and  C_3 
REMARK    2  A    between atoms: C_9  and  N_10 
REMARK       I    between atoms: N_10  and  C_11 
REMARK       I    between atoms: C_11  and  N_13 
REMARK    3  A    between atoms: N_13  and  C_14 
REMARK       I    between atoms: N_17  and  C_20 
REMARK    4  A    between atoms: C_20  and  C_22 
ROOT
HETATM    1  N   UNL     1     -43.256 -51.427  13.487  1.00  0.00    -0.305 N 
HETATM    2  C   UNL     1     -42.160 -51.287  12.666  1.00  0.00     0.321 C 
HETATM    3  O   UNL     1     -41.797 -52.100  11.822  1.00  0.00    -0.247 OA
HETATM    4  N   UNL     1     -41.458 -50.118  12.883  1.00  0.00    -0.338 N 
HETATM    5  H   UNL     1     -43.643 -50.600  13.920  1.00  0.00     0.171 HD
HETATM    6  H   UNL     1     -41.875 -49.413  13.467  1.00  0.00     0.164 HD
ENDROOT
BRANCH   1   7
HETATM    7  C   UNL     1     -44.030 -52.610  13.641  1.00  0.00     0.087 A 
HETATM    8  C   UNL     1     -45.401 -52.616  13.348  1.00  0.00     0.169 A 
HETATM    9  N   UNL     1     -46.231 -53.666  13.577  1.00  0.00    -0.345 N 
HETATM   10  C   UNL     1     -45.671 -54.791  14.051  1.00  0.00     0.090 A 
ATOM     11  HN  UNL     1     -47.233 -53.604  13.397  1.00  0.00     0.167 HD
HETATM   12  C   UNL     1     -44.322 -54.921  14.308  1.00  0.00     0.019 A 
HETATM   13  C   UNL     1     -43.497 -53.812  14.111  1.00  0.00     0.035 A 
BRANCH   8  14
HETATM   14  O   UNL     1     -45.946 -51.499  12.736  1.00  0.00    -0.339 OA
HETATM   15  C   UNL     1     -46.885 -51.904  11.732  1.00  0.00     0.211 C 
ENDBRANCH   8  14
ENDBRANCH   1   7
BRANCH   4  16
HETATM   16  C   UNL     1     -40.329 -49.765  12.014  1.00  0.00     0.089 C 
HETATM   17  C   UNL     1     -39.364 -48.765  12.656  1.00  0.00     0.045 C 
HETATM   18  C   UNL     1     -39.895 -47.337  12.689  1.00  0.00     0.127 C 
HETATM   19  N   UNL     1     -40.468 -46.902  11.419  1.00  0.00    -0.352 N 
HETATM   20  C   UNL     1     -41.370 -47.839  10.755  1.00  0.00     0.127 C 
HETATM   21  C   UNL     1     -40.574 -45.556  11.043  1.00  0.00     0.224 C 
HETATM   22  C   UNL     1     -40.794 -49.244  10.654  1.00  0.00     0.045 C 
HETATM   23  O   UNL     1     -41.110 -45.204   9.994  1.00  0.00    -0.273 OA
BRANCH  21  24
HETATM   24  C   UNL     1     -40.023 -44.511  11.961  1.00  0.00     0.078 A 
HETATM   25  C   UNL     1     -40.943 -43.777  12.914  1.00  0.00     0.015 A 
HETATM   26  C   UNL     1     -40.349 -43.050  11.743  1.00  0.00     0.015 A 
ENDBRANCH  21  24
ENDBRANCH   4  16
TORSDOF 4
ENDMDL
MODEL 4
REMARK VINA RESULT:      -5.8      2.711      8.596
REMARK  4 active torsions:
REMARK  status: ('A' for Active; 'I' for Inactive)
REMARK    1  A    between atoms: O_2  and  C_3 
REMARK    2  A    between atoms: C_9  and  N_10 
REMARK       I    between atoms: N_10  and  C_11 
REMARK       I    between atoms: C_11  and  N_13 
REMARK    3  A    between atoms: N_13  and  C_14 
REMARK       I    between atoms: N_17  and  C_20 
REMARK    4  A    between atoms: C_20  and  C_22 
ROOT
HETATM    1  N   UNL     1     -42.290 -49.286  11.497  1.00  0.00    -0.305 N 
HETATM    2  C   UNL     1     -43.056 -49.497  12.621  1.00  0.00     0.321 C 
HETATM    3  O   UNL     1     -43.439 -48.625  13.394  1.00  0.00    -0.247 OA
HETATM    4  N   UNL     1     -43.364 -50.827  12.833  1.00  0.00    -0.338 N 
HETATM    5  H   UNL     1     -42.281 -49.996  10.778  1.00  0.00     0.171 HD
HETATM    6  H   UNL     1     -43.166 -51.485  12.098  1.00  0.00     0.164 HD
ENDROOT
BRANCH   1   7
HETATM    7  C   UNL     1     -41.646 -48.065  11.151  1.00  0.00     0.087 A 
HETATM    8  C   UNL     1     -42.217 -47.191  10.216  1.00  0.00     0.169 A 
HETATM    9  N   UNL     1     -41.615 -46.068   9.746  1.00  0.00    -0.345 N 
HETATM   10  C   UNL     1     -40.422 -45.753  10.275  1.00  0.00     0.090 A 
ATOM     11  HN  UNL     1     -42.049 -45.492   9.024  1.00  0.00     0.167 HD
HETATM   12  C   UNL     1     -39.799 -46.501  11.252  1.00  0.00     0.019 A 
HETATM   13  C   UNL     1     -40.415 -47.677  11.684  1.00  0.00     0.035 A 
BRANCH   8  14
HETATM   14  O   UNL     1     -43.504 -47.453   9.774  1.00  0.00    -0.339 OA
HETATM   15  C   UNL     1     -43.517 -47.550   8.344  1.00  0.00     0.211 C 
ENDBRANCH   8  14
ENDBRANCH   1   7
BRANCH   4  16
HETATM   16  C   UNL     1     -44.266 -51.209  13.925  1.00  0.00     0.089 C 
HETATM   17  C   UNL     1     -43.568 -51.290  15.285  1.00  0.00     0.045 C 
HETATM   18  C   UNL     1     -42.699 -52.530  15.454  1.00  0.00     0.127 C 
HETATM   19  N   UNL     1     -43.360 -53.762  15.035  1.00  0.00    -0.352 N 
HETATM   20  C   UNL     1     -44.067 -53.722  13.758  1.00  0.00     0.127 C 
HETATM   21  C   UNL     1     -43.001 -55.030  15.513  1.00  0.00     0.224 C 
HETATM   22  C   UNL     1     -44.995 -52.521  13.633  1.00  0.00     0.045 C 
HETATM   23  O   UNL     1     -43.531 -56.063  15.107  1.00  0.00    -0.273 OA
BRANCH  21  24
HETATM   24  C   UNL     1     -41.924 -55.126  16.547  1.00  0.00     0.078 A 
HETATM   25  C   UNL     1     -40.496 -55.410  16.131  1.00  0.00     0.015 A 
HETATM   26  C   UNL     1     -41.281 -56.458  16.862  1.00  0.00     0.015 A 
ENDBRANCH  21  24
ENDBRANCH   4  16
TORSDOF 4
ENDMDL
MODEL 5
REMARK VINA RESULT:      -5.5      2.501      8.538
REMARK  4 active torsions:
REMARK  status: ('A' for Active; 'I' for Inactive)
REMARK    1  A    between atoms: O_2  and  C_3 
REMARK    2  A    between atoms: C_9  and  N_10 
REMARK       I    between atoms: N_10  and  C_11 
REMARK       I    between atoms: C_11  and  N_13 
REMARK    3  A    between atoms: N_13  and  C_14 
REMARK       I    between atoms: N_17  and  C_20 
REMARK    4  A    between atoms: C_20  and  C_22 
ROOT
HETATM    1  N   UNL     1     -40.626 -47.377  13.461  1.00  0.00    -0.305 N 
HETATM    2  C   UNL     1     -40.158 -48.522  12.857  1.00  0.00     0.321 C 
HETATM    3  O   UNL     1     -39.358 -48.559  11.929  1.00  0.00    -0.247 OA
HETATM    4  N   UNL     1     -40.694 -49.680  13.386  1.00  0.00    -0.338 N 
HETATM    5  H   UNL     1     -41.030 -47.449  14.385  1.00  0.00     0.171 HD
HETATM    6  H   UNL     1     -41.220 -49.614  14.242  1.00  0.00     0.164 HD
ENDROOT
BRANCH   1   7
HETATM    7  C   UNL     1     -40.423 -46.050  12.991  1.00  0.00     0.087 A 
HETATM    8  C   UNL     1     -41.268 -45.492  12.023  1.00  0.00     0.169 A 
HETATM    9  N   UNL     1     -41.076 -44.281  11.439  1.00  0.00    -0.345 N 
HETATM   10  C   UNL     1     -40.039 -43.552  11.883  1.00  0.00     0.090 A 
ATOM     11  HN  UNL     1     -41.690 -43.941  10.699  1.00  0.00     0.167 HD
HETATM   12  C   UNL     1     -39.184 -43.971  12.882  1.00  0.00     0.019 A 
HETATM   13  C   UNL     1     -39.374 -45.240  13.432  1.00  0.00     0.035 A 
BRANCH   8  14
HETATM   14  O   UNL     1     -42.409 -46.193  11.666  1.00  0.00    -0.339 OA
HETATM   15  C   UNL     1     -42.731 -45.934  10.294  1.00  0.00     0.211 C 
ENDBRANCH   8  14
ENDBRANCH   1   7
BRANCH   4  16
HETATM   16  C   UNL     1     -40.215 -50.989  12.929  1.00  0.00     0.089 C 
HETATM   17  C   UNL     1     -41.125 -51.632  11.880  1.00  0.00     0.045 C 
HETATM   18  C   UNL     1     -42.413 -52.208  12.458  1.00  0.00     0.127 C 
HETATM   19  N   UNL     1     -42.200 -53.015  13.655  1.00  0.00    -0.352 N 
HETATM   20  C   UNL     1     -41.311 -52.455  14.670  1.00  0.00     0.127 C 
HETATM   21  C   UNL     1     -43.090 -54.010  14.082  1.00  0.00     0.224 C 
HETATM   22  C   UNL     1     -39.994 -51.956  14.093  1.00  0.00     0.045 C 
HETATM   23  O   UNL     1     -42.924 -54.642  15.124  1.00  0.00    -0.273 OA
BRANCH  21  24
HETATM   24  C   UNL     1     -44.292 -54.304  13.241  1.00  0.00     0.078 A 
HETATM   25  C   UNL     1     -45.633 -53.696  13.596  1.00  0.00     0.015 A 
HETATM   26  C   UNL     1     -45.410 -55.168  13.777  1.00  0.00     0.015 A 
ENDBRANCH  21  24
ENDBRANCH   4  16
TORSDOF 4
ENDMDL
MODEL 6
REMARK VINA RESULT:      -5.5      4.025      8.521
REMARK  4 active torsions:
REMARK  status: ('A' for Active; 'I' for Inactive)
REMARK    1  A    between atoms: O_2  and  C_3 
REMARK    2  A    between atoms: C_9  and  N_10 
REMARK       I    between atoms: N_10  and  C_11 
REMARK       I    between atoms: C_11  and  N_13 
REMARK    3  A    between atoms: N_13  and  C_14 
REMARK       I    between atoms: N_17  and  C_20 
REMARK    4  A    between atoms: C_20  and  C_22 
ROOT
HETATM    1  N   UNL     1     -38.531 -51.062  15.535  1.00  0.00    -0.305 N 
HETATM    2  C   UNL     1     -38.829 -51.437  14.244  1.00  0.00     0.321 C 
HETATM    3  O   UNL     1     -38.215 -51.083  13.243  1.00  0.00    -0.247 OA
HETATM    4  N   UNL     1     -39.929 -52.266  14.153  1.00  0.00    -0.338 N 
HETATM    5  H   UNL     1     -38.885 -51.625  16.295  1.00  0.00     0.171 HD
HETATM    6  H   UNL     1     -40.304 -52.655  15.003  1.00  0.00     0.164 HD
ENDROOT
BRANCH   1   7
HETATM    7  C   UNL     1     -37.600 -50.054  15.912  1.00  0.00     0.087 A 
HETATM    8  C   UNL     1     -37.939 -48.696  15.833  1.00  0.00     0.169 A 
HETATM    9  N   UNL     1     -37.075 -47.674  16.062  1.00  0.00    -0.345 N 
HETATM   10  C   UNL     1     -35.836 -48.005  16.458  1.00  0.00     0.090 A 
ATOM     11  HN  UNL     1     -37.355 -46.701  15.940  1.00  0.00     0.167 HD
HETATM   12  C   UNL     1     -35.413 -49.306  16.637  1.00  0.00     0.019 A 
HETATM   13  C   UNL     1     -36.305 -50.340  16.348  1.00  0.00     0.035 A 
BRANCH   8  14
HETATM   14  O   UNL     1     -39.255 -48.364  15.554  1.00  0.00    -0.339 OA
HETATM   15  C   UNL     1     -39.326 -47.666  14.305  1.00  0.00     0.211 C 
ENDBRANCH   8  14
ENDBRANCH   1   7
BRANCH   4  16
HETATM   16  C   UNL     1     -40.312 -52.844  12.860  1.00  0.00     0.089 C 
HETATM   17  C   UNL     1     -41.222 -51.931  12.036  1.00  0.00     0.045 C 
HETATM   18  C   UNL     1     -42.661 -51.887  12.538  1.00  0.00     0.127 C 
HETATM   19  N   UNL     1     -43.216 -53.207  12.821  1.00  0.00    -0.352 N 
HETATM   20  C   UNL     1     -42.368 -54.124  13.578  1.00  0.00     0.127 C 
HETATM   21  C   UNL     1     -44.591 -53.480  12.822  1.00  0.00     0.224 C 
HETATM   22  C   UNL     1     -40.956 -54.222  13.018  1.00  0.00     0.045 C 
HETATM   23  O   UNL     1     -45.045 -54.584  13.118  1.00  0.00    -0.273 OA
BRANCH  21  24
HETATM   24  C   UNL     1     -45.539 -52.380  12.460  1.00  0.00     0.078 A 
HETATM   25  C   UNL     1     -45.873 -51.304  13.471  1.00  0.00     0.015 A 
HETATM   26  C   UNL     1     -46.913 -52.315  13.089  1.00  0.00     0.015 A 
ENDBRANCH  21  24
ENDBRANCH   4  16
TORSDOF 4
ENDMDL
MODEL 7
REMARK VINA RESULT:      -5.4      3.531      4.784
REMARK  4 active torsions:
REMARK  status: ('A' for Active; 'I' for Inactive)
REMARK    1  A    between atoms: O_2  and  C_3 
REMARK    2  A    between atoms: C_9  and  N_10 
REMARK       I    between atoms: N_10  and  C_11 
REMARK       I    between atoms: C_11  and  N_13 
REMARK    3  A    between atoms: N_13  and  C_14 
REMARK       I    between atoms: N_17  and  C_20 
REMARK    4  A    between atoms: C_20  and  C_22 
ROOT
HETATM    1  N   UNL     1     -43.064 -51.871  13.628  1.00  0.00    -0.305 N 
HETATM    2  C   UNL     1     -41.884 -51.873  12.920  1.00  0.00     0.321 C 
HETATM    3  O   UNL     1     -41.535 -52.738  12.124  1.00  0.00    -0.247 OA
HETATM    4  N   UNL     1     -41.077 -50.786  13.195  1.00  0.00    -0.338 N 
HETATM    5  H   UNL     1     -43.395 -50.997  14.014  1.00  0.00     0.171 HD
HETATM    6  H   UNL     1     -41.466 -50.027  13.729  1.00  0.00     0.164 HD
ENDROOT
BRANCH   1   7
HETATM    7  C   UNL     1     -43.980 -52.956  13.715  1.00  0.00     0.087 A 
HETATM    8  C   UNL     1     -45.331 -52.785  13.381  1.00  0.00     0.169 A 
HETATM    9  N   UNL     1     -46.289 -53.734  13.546  1.00  0.00    -0.345 N 
HETATM   10  C   UNL     1     -45.885 -54.933  13.994  1.00  0.00     0.090 A 
ATOM     11  HN  UNL     1     -47.270 -53.544  13.338  1.00  0.00     0.167 HD
HETATM   12  C   UNL     1     -44.571 -55.235  14.287  1.00  0.00     0.019 A 
HETATM   13  C   UNL     1     -43.612 -54.229  14.156  1.00  0.00     0.035 A 
BRANCH   8  14
HETATM   14  O   UNL     1     -45.716 -51.591  12.795  1.00  0.00    -0.339 OA
HETATM   15  C   UNL     1     -46.798 -51.822  11.885  1.00  0.00     0.211 C 
ENDBRANCH   8  14
ENDBRANCH   1   7
BRANCH   4  16
HETATM   16  C   UNL     1     -39.835 -50.581  12.441  1.00  0.00     0.089 C 
HETATM   17  C   UNL     1     -38.610 -51.201  13.115  1.00  0.00     0.045 C 
HETATM   18  C   UNL     1     -38.110 -50.413  14.320  1.00  0.00     0.127 C 
HETATM   19  N   UNL     1     -38.006 -48.979  14.072  1.00  0.00    -0.352 N 
HETATM   20  C   UNL     1     -39.141 -48.349  13.400  1.00  0.00     0.127 C 
HETATM   21  C   UNL     1     -37.158 -48.130  14.796  1.00  0.00     0.224 C 
HETATM   22  C   UNL     1     -39.580 -49.101  12.151  1.00  0.00     0.045 C 
HETATM   23  O   UNL     1     -37.125 -46.915  14.611  1.00  0.00    -0.273 OA
BRANCH  21  24
HETATM   24  C   UNL     1     -36.269 -48.729  15.840  1.00  0.00     0.078 A 
HETATM   25  C   UNL     1     -36.668 -48.671  17.299  1.00  0.00     0.015 A 
HETATM   26  C   UNL     1     -35.519 -47.842  16.808  1.00  0.00     0.015 A 
ENDBRANCH  21  24
ENDBRANCH   4  16
TORSDOF 4
ENDMDL
MODEL 8
REMARK VINA RESULT:      -5.3      4.821      7.508
REMARK  4 active torsions:
REMARK  status: ('A' for Active; 'I' for Inactive)
REMARK    1  A    between atoms: O_2  and  C_3 
REMARK    2  A    between atoms: C_9  and  N_10 
REMARK       I    between atoms: N_10  and  C_11 
REMARK       I    between atoms: C_11  and  N_13 
REMARK    3  A    between atoms: N_13  and  C_14 
REMARK       I    between atoms: N_17  and  C_20 
REMARK    4  A    between atoms: C_20  and  C_22 
ROOT
HETATM    1  N   UNL     1     -41.051 -47.399  12.998  1.00  0.00    -0.305 N 
HETATM    2  C   UNL     1     -40.405 -48.542  13.411  1.00  0.00     0.321 C 
HETATM    3  O   UNL     1     -40.263 -49.559  12.740  1.00  0.00    -0.247 OA
HETATM    4  N   UNL     1     -39.919 -48.462  14.701  1.00  0.00    -0.338 N 
HETATM    5  H   UNL     1     -40.858 -46.533  13.483  1.00  0.00     0.171 HD
HETATM    6  H   UNL     1     -39.918 -47.564  15.155  1.00  0.00     0.164 HD
ENDROOT
BRANCH   1   7
HETATM    7  C   UNL     1     -41.832 -47.269  11.816  1.00  0.00     0.087 A 
HETATM    8  C   UNL     1     -41.320 -46.621  10.683  1.00  0.00     0.169 A 
HETATM    9  N   UNL     1     -42.037 -46.354   9.561  1.00  0.00    -0.345 N 
HETATM   10  C   UNL     1     -43.299 -46.811   9.525  1.00  0.00     0.090 A 
ATOM     11  HN  UNL     1     -41.636 -45.832   8.783  1.00  0.00     0.167 HD
HETATM   12  C   UNL     1     -43.883 -47.522  10.553  1.00  0.00     0.019 A 
HETATM   13  C   UNL     1     -43.142 -47.742  11.715  1.00  0.00     0.035 A 
BRANCH   8  14
HETATM   14  O   UNL     1     -39.980 -46.271  10.677  1.00  0.00    -0.339 OA
HETATM   15  C   UNL     1     -39.845 -44.867  10.429  1.00  0.00     0.211 C 
ENDBRANCH   8  14
ENDBRANCH   1   7
BRANCH   4  16
HETATM   16  C   UNL     1     -39.109 -49.554  15.252  1.00  0.00     0.089 C 
HETATM   17  C   UNL     1     -38.979 -49.501  16.776  1.00  0.00     0.045 C 
HETATM   18  C   UNL     1     -38.020 -48.424  17.271  1.00  0.00     0.127 C 
HETATM   19  N   UNL     1     -36.750 -48.405  16.551  1.00  0.00    -0.352 N 
HETATM   20  C   UNL     1     -36.825 -48.487  15.094  1.00  0.00     0.127 C 
HETATM   21  C   UNL     1     -35.567 -47.880  17.089  1.00  0.00     0.224 C 
HETATM   22  C   UNL     1     -37.722 -49.618  14.611  1.00  0.00     0.045 C 
HETATM   23  O   UNL     1     -34.520 -47.820  16.448  1.00  0.00    -0.273 OA
BRANCH  21  24
HETATM   24  C   UNL     1     -35.588 -47.364  18.494  1.00  0.00     0.078 A 
HETATM   25  C   UNL     1     -35.749 -45.881  18.754  1.00  0.00     0.015 A 
HETATM   26  C   UNL     1     -34.433 -46.546  19.026  1.00  0.00     0.015 A 
ENDBRANCH  21  24
ENDBRANCH   4  16
TORSDOF 4
ENDMDL
MODEL 9
REMARK VINA RESULT:      -5.3      3.520      8.378
REMARK  4 active torsions:
REMARK  status: ('A' for Active; 'I' for Inactive)
REMARK    1  A    between atoms: O_2  and  C_3 
REMARK    2  A    between atoms: C_9  and  N_10 
REMARK       I    between atoms: N_10  and  C_11 
REMARK       I    between atoms: C_11  and  N_13 
REMARK    3  A    between atoms: N_13  and  C_14 
REMARK       I    between atoms: N_17  and  C_20 
REMARK    4  A    between atoms: C_20  and  C_22 
ROOT
HETATM    1  N   UNL     1     -40.191 -45.823  12.883  1.00  0.00    -0.305 N 
HETATM    2  C   UNL     1     -39.910 -46.807  11.962  1.00  0.00     0.321 C 
HETATM    3  O   UNL     1     -40.019 -46.693  10.746  1.00  0.00    -0.247 OA
HETATM    4  N   UNL     1     -39.491 -47.992  12.536  1.00  0.00    -0.338 N 
HETATM    5  H   UNL     1     -39.793 -45.900  13.809  1.00  0.00     0.171 HD
HETATM    6  H   UNL     1     -39.266 -47.993  13.516  1.00  0.00     0.164 HD
ENDROOT
BRANCH   1   7
HETATM    7  C   UNL     1     -40.841 -44.589  12.604  1.00  0.00     0.087 A 
HETATM    8  C   UNL     1     -42.232 -44.463  12.728  1.00  0.00     0.169 A 
HETATM    9  N   UNL     1     -42.939 -43.360  12.372  1.00  0.00    -0.345 N 
HETATM   10  C   UNL     1     -42.234 -42.302  11.940  1.00  0.00     0.090 A 
ATOM     11  HN  UNL     1     -43.957 -43.336  12.431  1.00  0.00     0.167 HD
HETATM   12  C   UNL     1     -40.858 -42.288  11.845  1.00  0.00     0.019 A 
HETATM   13  C   UNL     1     -40.157 -43.451  12.171  1.00  0.00     0.035 A 
BRANCH   8  14
HETATM   14  O   UNL     1     -42.936 -45.511  13.299  1.00  0.00    -0.339 OA
HETATM   15  C   UNL     1     -43.254 -45.198  14.661  1.00  0.00     0.211 C 
ENDBRANCH   8  14
ENDBRANCH   1   7
BRANCH   4  16
HETATM   16  C   UNL     1     -39.045 -49.103  11.688  1.00  0.00     0.089 C 
HETATM   17  C   UNL     1     -40.196 -49.978  11.184  1.00  0.00     0.045 C 
HETATM   18  C   UNL     1     -40.770 -50.906  12.248  1.00  0.00     0.127 C 
HETATM   19  N   UNL     1     -39.748 -51.622  13.005  1.00  0.00    -0.352 N 
HETATM   20  C   UNL     1     -38.613 -50.833  13.478  1.00  0.00     0.127 C 
HETATM   21  C   UNL     1     -39.986 -52.835  13.666  1.00  0.00     0.224 C 
HETATM   22  C   UNL     1     -37.996 -49.970  12.386  1.00  0.00     0.045 C 
HETATM   23  O   UNL     1     -39.129 -53.396  14.346  1.00  0.00    -0.273 OA
BRANCH  21  24
HETATM   24  C   UNL     1     -41.340 -53.461  13.546  1.00  0.00     0.078 A 
HETATM   25  C   UNL     1     -42.408 -53.162  14.577  1.00  0.00     0.015 A 
HETATM   26  C   UNL     1     -41.782 -54.524  14.526  1.00  0.00     0.015 A 
ENDBRANCH  21  24
ENDBRANCH   4  16
TORSDOF 4
ENDMDL
