MODEL 1
REMARK VINA RESULT:      -5.5      0.000      0.000
REMARK  4 active torsions:
REMARK  status: ('A' for Active; 'I' for Inactive)
REMARK    1  A    between atoms: C_2  and  S_3 
REMARK    2  A    between atoms: S_3  and  C_4 
REMARK    3  A    between atoms: C_8  and  N_9 
REMARK       I    between atoms: N_9  and  C_10 
REMARK       I    between atoms: C_10  and  N_12 
REMARK    4  A    between atoms: N_12  and  C_13 
ROOT
HETATM    1  N   UNL     1     -39.693 -51.206  13.751  1.00  0.00    -0.337 N 
HETATM    2  C   UNL     1     -40.539 -52.212  13.353  1.00  0.00     0.322 C 
HETATM    3  O   UNL     1     -40.147 -53.192  12.730  1.00  0.00    -0.247 OA
HETATM    4  N   UNL     1     -41.852 -51.987  13.696  1.00  0.00    -0.293 N 
HETATM    5  H   UNL     1     -40.053 -50.533  14.413  1.00  0.00     0.164 HD
HETATM    6  H   UNL     1     -42.136 -51.061  13.971  1.00  0.00     0.172 HD
ENDROOT
BRANCH   1   7
HETATM    7  C   UNL     1     -38.237 -51.160  13.525  1.00  0.00     0.100 C 
HETATM    8  C   UNL     1     -37.531 -50.077  14.375  1.00  0.00     0.070 C 
HETATM    9  C   UNL     1     -37.677 -48.789  13.550  1.00  0.00     0.017 C 
HETATM   10  C   UNL     1     -37.848 -49.238  12.097  1.00  0.00     0.003 C 
HETATM   11  C   UNL     1     -37.739 -50.761  12.127  1.00  0.00     0.026 C 
BRANCH   8  12
HETATM   12  S   UNL     1     -38.128 -49.819  16.081  1.00  0.00    -0.163 SA
BRANCH  12  13
HETATM   13  C   UNL     1     -36.614 -49.174  16.851  1.00  0.00     0.070 C 
HETATM   14  C   UNL     1     -35.426 -49.970  16.339  1.00  0.00     0.016 C 
ENDBRANCH  12  13
ENDBRANCH   8  12
ENDBRANCH   1   7
BRANCH   4  15
HETATM   15  C   UNL     1     -42.847 -52.893  13.357  1.00  0.00     0.132 A 
HETATM   16  C   UNL     1     -43.507 -53.762  14.263  1.00  0.00     0.084 A 
HETATM   17  C   UNL     1     -44.479 -54.375  13.504  1.00  0.00     0.076 A 
HETATM   18  C   UNL     1     -45.582 -55.313  13.764  1.00  0.00     0.079 C 
HETATM   19  O   UNL     1     -44.361 -53.966  12.218  1.00  0.00    -0.241 OA
HETATM   20  N   UNL     1     -43.334 -53.063  12.124  1.00  0.00    -0.245 N 
ATOM     21  HN  UNL     1     -43.004 -52.607  11.274  1.00  0.00     0.196 HD
ENDBRANCH   4  15
TORSDOF 4
ENDMDL
MODEL 2
REMARK VINA RESULT:      -5.4      4.655      7.512
REMARK  4 active torsions:
REMARK  status: ('A' for Active; 'I' for Inactive)
REMARK    1  A    between atoms: C_2  and  S_3 
REMARK    2  A    between atoms: S_3  and  C_4 
REMARK    3  A    between atoms: C_8  and  N_9 
REMARK       I    between atoms: N_9  and  C_10 
REMARK       I    between atoms: C_10  and  N_12 
REMARK    4  A    between atoms: N_12  and  C_13 
ROOT
HETATM    1  N   UNL     1     -43.845 -50.094  12.459  1.00  0.00    -0.337 N 
HETATM    2  C   UNL     1     -42.789 -49.218  12.404  1.00  0.00     0.322 C 
HETATM    3  O   UNL     1     -41.984 -49.101  13.322  1.00  0.00    -0.247 OA
HETATM    4  N   UNL     1     -42.752 -48.479  11.245  1.00  0.00    -0.293 N 
HETATM    5  H   UNL     1     -44.349 -50.265  11.601  1.00  0.00     0.164 HD
HETATM    6  H   UNL     1     -43.572 -48.441  10.661  1.00  0.00     0.172 HD
ENDROOT
BRANCH   1   7
HETATM    7  C   UNL     1     -44.151 -51.013  13.571  1.00  0.00     0.100 C 
HETATM    8  C   UNL     1     -43.691 -52.463  13.295  1.00  0.00     0.070 C 
HETATM    9  C   UNL     1     -44.846 -53.084  12.495  1.00  0.00     0.017 C 
HETATM   10  C   UNL     1     -46.094 -52.281  12.867  1.00  0.00     0.003 C 
HETATM   11  C   UNL     1     -45.628 -51.265  13.908  1.00  0.00     0.026 C 
BRANCH   8  12
HETATM   12  S   UNL     1     -42.105 -52.696  12.421  1.00  0.00    -0.163 SA
BRANCH  12  13
HETATM   13  C   UNL     1     -41.498 -54.190  13.259  1.00  0.00     0.070 C 
HETATM   14  C   UNL     1     -42.112 -54.256  14.647  1.00  0.00     0.016 C 
ENDBRANCH  12  13
ENDBRANCH   8  12
ENDBRANCH   1   7
BRANCH   4  15
HETATM   15  C   UNL     1     -41.761 -47.531  11.028  1.00  0.00     0.132 A 
HETATM   16  C   UNL     1     -41.981 -46.142  10.856  1.00  0.00     0.084 A 
HETATM   17  C   UNL     1     -40.716 -45.601  10.791  1.00  0.00     0.076 A 
HETATM   18  C   UNL     1     -40.155 -44.243  10.709  1.00  0.00     0.079 C 
HETATM   19  O   UNL     1     -39.803 -46.600  10.839  1.00  0.00    -0.241 OA
HETATM   20  N   UNL     1     -40.454 -47.799  10.965  1.00  0.00    -0.245 N 
ATOM     21  HN  UNL     1     -40.021 -48.722  11.003  1.00  0.00     0.196 HD
ENDBRANCH   4  15
TORSDOF 4
ENDMDL
MODEL 3
REMARK VINA RESULT:      -5.4      2.235      2.733
REMARK  4 active torsions:
REMARK  status: ('A' for Active; 'I' for Inactive)
REMARK    1  A    between atoms: C_2  and  S_3 
REMARK    2  A    between atoms: S_3  and  C_4 
REMARK    3  A    between atoms: C_8  and  N_9 
REMARK       I    between atoms: N_9  and  C_10 
REMARK       I    between atoms: C_10  and  N_12 
REMARK    4  A    between atoms: N_12  and  C_13 
ROOT
HETATM    1  N   UNL     1     -40.321 -51.251  12.366  1.00  0.00    -0.337 N 
HETATM    2  C   UNL     1     -41.472 -51.779  12.898  1.00  0.00     0.322 C 
HETATM    3  O   UNL     1     -41.734 -51.714  14.094  1.00  0.00    -0.247 OA
HETATM    4  N   UNL     1     -42.267 -52.404  11.966  1.00  0.00    -0.293 N 
HETATM    5  H   UNL     1     -40.266 -51.181  11.360  1.00  0.00     0.164 HD
HETATM    6  H   UNL     1     -41.877 -52.642  11.068  1.00  0.00     0.172 HD
ENDROOT
BRANCH   1   7
HETATM    7  C   UNL     1     -39.274 -50.530  13.113  1.00  0.00     0.100 C 
HETATM    8  C   UNL     1     -38.891 -49.182  12.459  1.00  0.00     0.070 C 
HETATM    9  C   UNL     1     -37.844 -49.557  11.398  1.00  0.00     0.017 C 
HETATM   10  C   UNL     1     -37.219 -50.871  11.871  1.00  0.00     0.003 C 
HETATM   11  C   UNL     1     -37.885 -51.179  13.211  1.00  0.00     0.026 C 
BRANCH   8  12
HETATM   12  S   UNL     1     -40.232 -48.190  11.716  1.00  0.00    -0.163 SA
BRANCH  12  13
HETATM   13  C   UNL     1     -40.667 -47.136  13.131  1.00  0.00     0.070 C 
HETATM   14  C   UNL     1     -39.397 -46.515  13.688  1.00  0.00     0.016 C 
ENDBRANCH  12  13
ENDBRANCH   8  12
ENDBRANCH   1   7
BRANCH   4  15
HETATM   15  C   UNL     1     -43.462 -53.009  12.330  1.00  0.00     0.132 A 
HETATM   16  C   UNL     1     -43.580 -54.263  12.980  1.00  0.00     0.084 A 
HETATM   17  C   UNL     1     -44.927 -54.389  13.239  1.00  0.00     0.076 A 
HETATM   18  C   UNL     1     -45.776 -55.359  13.947  1.00  0.00     0.079 C 
HETATM   19  O   UNL     1     -45.582 -53.327  12.712  1.00  0.00    -0.241 OA
HETATM   20  N   UNL     1     -44.674 -52.481  12.130  1.00  0.00    -0.245 N 
ATOM     21  HN  UNL     1     -44.884 -51.614  11.636  1.00  0.00     0.196 HD
ENDBRANCH   4  15
TORSDOF 4
ENDMDL
MODEL 4
REMARK VINA RESULT:      -4.7      4.753      5.982
REMARK  4 active torsions:
REMARK  status: ('A' for Active; 'I' for Inactive)
REMARK    1  A    between atoms: C_2  and  S_3 
REMARK    2  A    between atoms: S_3  and  C_4 
REMARK    3  A    between atoms: C_8  and  N_9 
REMARK       I    between atoms: N_9  and  C_10 
REMARK       I    between atoms: C_10  and  N_12 
REMARK    4  A    between atoms: N_12  and  C_13 
ROOT
HETATM    1  N   UNL     1     -39.399 -48.457  12.768  1.00  0.00    -0.337 N 
HETATM    2  C   UNL     1     -40.069 -47.544  11.991  1.00  0.00     0.322 C 
HETATM    3  O   UNL     1     -39.759 -46.358  11.957  1.00  0.00    -0.247 OA
HETATM    4  N   UNL     1     -41.123 -48.088  11.296  1.00  0.00    -0.293 N 
HETATM    5  H   UNL     1     -39.592 -49.435  12.603  1.00  0.00     0.164 HD
HETATM    6  H   UNL     1     -41.474 -48.993  11.566  1.00  0.00     0.172 HD
ENDROOT
BRANCH   1   7
HETATM    7  C   UNL     1     -38.234 -48.175  13.626  1.00  0.00     0.100 C 
HETATM    8  C   UNL     1     -37.612 -49.453  14.234  1.00  0.00     0.070 C 
HETATM    9  C   UNL     1     -38.447 -49.722  15.496  1.00  0.00     0.017 C 
HETATM   10  C   UNL     1     -39.030 -48.369  15.909  1.00  0.00     0.003 C 
HETATM   11  C   UNL     1     -38.467 -47.361  14.909  1.00  0.00     0.026 C 
BRANCH   8  12
HETATM   12  S   UNL     1     -37.541 -50.943  13.181  1.00  0.00    -0.163 SA
BRANCH  12  13
HETATM   13  C   UNL     1     -38.853 -51.938  13.951  1.00  0.00     0.070 C 
HETATM   14  C   UNL     1     -40.035 -52.011  13.000  1.00  0.00     0.016 C 
ENDBRANCH  12  13
ENDBRANCH   8  12
ENDBRANCH   1   7
BRANCH   4  15
HETATM   15  C   UNL     1     -41.922 -47.305  10.474  1.00  0.00     0.132 A 
HETATM   16  C   UNL     1     -43.307 -47.505  10.247  1.00  0.00     0.084 A 
HETATM   17  C   UNL     1     -43.685 -46.432   9.470  1.00  0.00     0.076 A 
HETATM   18  C   UNL     1     -44.952 -45.922   8.925  1.00  0.00     0.079 C 
HETATM   19  O   UNL     1     -42.592 -45.685   9.183  1.00  0.00    -0.241 OA
HETATM   20  N   UNL     1     -41.495 -46.240   9.789  1.00  0.00    -0.245 N 
ATOM     21  HN  UNL     1     -40.534 -45.903   9.729  1.00  0.00     0.196 HD
ENDBRANCH   4  15
TORSDOF 4
ENDMDL
MODEL 5
REMARK VINA RESULT:      -4.6      1.452      1.819
REMARK  4 active torsions:
REMARK  status: ('A' for Active; 'I' for Inactive)
REMARK    1  A    between atoms: C_2  and  S_3 
REMARK    2  A    between atoms: S_3  and  C_4 
REMARK    3  A    between atoms: C_8  and  N_9 
REMARK       I    between atoms: N_9  and  C_10 
REMARK       I    between atoms: C_10  and  N_12 
REMARK    4  A    between atoms: N_12  and  C_13 
ROOT
HETATM    1  N   UNL     1     -40.276 -50.688  13.574  1.00  0.00    -0.337 N 
HETATM    2  C   UNL     1     -40.997 -51.825  13.301  1.00  0.00     0.322 C 
HETATM    3  O   UNL     1     -40.470 -52.857  12.902  1.00  0.00    -0.247 OA
HETATM    4  N   UNL     1     -42.350 -51.670  13.490  1.00  0.00    -0.293 N 
HETATM    5  H   UNL     1     -40.751 -49.947  14.069  1.00  0.00     0.164 HD
HETATM    6  H   UNL     1     -42.733 -50.741  13.566  1.00  0.00     0.172 HD
ENDROOT
BRANCH   1   7
HETATM    7  C   UNL     1     -38.813 -50.543  13.460  1.00  0.00     0.100 C 
HETATM    8  C   UNL     1     -38.123 -50.338  14.829  1.00  0.00     0.070 C 
HETATM    9  C   UNL     1     -38.229 -48.828  15.088  1.00  0.00     0.017 C 
HETATM   10  C   UNL     1     -38.360 -48.174  13.711  1.00  0.00     0.003 C 
HETATM   11  C   UNL     1     -38.269 -49.320  12.706  1.00  0.00     0.026 C 
BRANCH   8  12
HETATM   12  S   UNL     1     -38.769 -51.282  16.252  1.00  0.00    -0.163 SA
BRANCH  12  13
HETATM   13  C   UNL     1     -39.705 -49.976  17.100  1.00  0.00     0.070 C 
HETATM   14  C   UNL     1     -41.186 -50.306  17.024  1.00  0.00     0.016 C 
ENDBRANCH  12  13
ENDBRANCH   8  12
ENDBRANCH   1   7
BRANCH   4  15
HETATM   15  C   UNL     1     -43.233 -52.713  13.245  1.00  0.00     0.132 A 
HETATM   16  C   UNL     1     -43.855 -53.510  14.238  1.00  0.00     0.084 A 
HETATM   17  C   UNL     1     -44.719 -54.321  13.536  1.00  0.00     0.076 A 
HETATM   18  C   UNL     1     -45.739 -55.323  13.883  1.00  0.00     0.079 C 
HETATM   19  O   UNL     1     -44.570 -54.086  12.211  1.00  0.00    -0.241 OA
HETATM   20  N   UNL     1     -43.632 -53.103  12.030  1.00  0.00    -0.245 N 
ATOM     21  HN  UNL     1     -43.301 -52.738  11.137  1.00  0.00     0.196 HD
ENDBRANCH   4  15
TORSDOF 4
ENDMDL
MODEL 6
REMARK VINA RESULT:      -4.6      4.732      5.468
REMARK  4 active torsions:
REMARK  status: ('A' for Active; 'I' for Inactive)
REMARK    1  A    between atoms: C_2  and  S_3 
REMARK    2  A    between atoms: S_3  and  C_4 
REMARK    3  A    between atoms: C_8  and  N_9 
REMARK       I    between atoms: N_9  and  C_10 
REMARK       I    between atoms: C_10  and  N_12 
REMARK    4  A    between atoms: N_12  and  C_13 
ROOT
HETATM    1  N   UNL     1     -40.112 -48.364  12.420  1.00  0.00    -0.337 N 
HETATM    2  C   UNL     1     -41.287 -48.577  11.741  1.00  0.00     0.322 C 
HETATM    3  O   UNL     1     -42.005 -49.546  11.959  1.00  0.00    -0.247 OA
HETATM    4  N   UNL     1     -41.546 -47.621  10.788  1.00  0.00    -0.293 N 
HETATM    5  H   UNL     1     -39.676 -47.459  12.317  1.00  0.00     0.164 HD
HETATM    6  H   UNL     1     -40.803 -47.010  10.489  1.00  0.00     0.172 HD
ENDROOT
BRANCH   1   7
HETATM    7  C   UNL     1     -39.565 -49.216  13.492  1.00  0.00     0.100 C 
HETATM    8  C   UNL     1     -39.676 -48.567  14.891  1.00  0.00     0.070 C 
HETATM    9  C   UNL     1     -38.430 -47.674  14.997  1.00  0.00     0.017 C 
HETATM   10  C   UNL     1     -37.398 -48.279  14.044  1.00  0.00     0.003 C 
HETATM   11  C   UNL     1     -38.061 -49.527  13.465  1.00  0.00     0.026 C 
BRANCH   8  12
HETATM   12  S   UNL     1     -41.187 -47.611  15.262  1.00  0.00    -0.163 SA
BRANCH  12  13
HETATM   13  C   UNL     1     -42.122 -48.850  16.206  1.00  0.00     0.070 C 
HETATM   14  C   UNL     1     -42.980 -49.654  15.244  1.00  0.00     0.016 C 
ENDBRANCH  12  13
ENDBRANCH   8  12
ENDBRANCH   1   7
BRANCH   4  15
HETATM   15  C   UNL     1     -42.683 -47.688   9.994  1.00  0.00     0.132 A 
HETATM   16  C   UNL     1     -44.006 -47.433  10.435  1.00  0.00     0.084 A 
HETATM   17  C   UNL     1     -44.769 -47.505   9.290  1.00  0.00     0.076 A 
HETATM   18  C   UNL     1     -46.181 -47.274   8.951  1.00  0.00     0.079 C 
HETATM   19  O   UNL     1     -43.976 -47.856   8.250  1.00  0.00    -0.241 OA
HETATM   20  N   UNL     1     -42.685 -47.990   8.692  1.00  0.00    -0.245 N 
ATOM     21  HN  UNL     1     -41.879 -48.268   8.132  1.00  0.00     0.196 HD
ENDBRANCH   4  15
TORSDOF 4
ENDMDL
MODEL 7
REMARK VINA RESULT:      -4.5      3.338      7.039
REMARK  4 active torsions:
REMARK  status: ('A' for Active; 'I' for Inactive)
REMARK    1  A    between atoms: C_2  and  S_3 
REMARK    2  A    between atoms: S_3  and  C_4 
REMARK    3  A    between atoms: C_8  and  N_9 
REMARK       I    between atoms: N_9  and  C_10 
REMARK       I    between atoms: C_10  and  N_12 
REMARK    4  A    between atoms: N_12  and  C_13 
ROOT
HETATM    1  N   UNL     1     -44.014 -51.653  14.557  1.00  0.00    -0.337 N 
HETATM    2  C   UNL     1     -43.132 -50.846  13.880  1.00  0.00     0.322 C 
HETATM    3  O   UNL     1     -43.294 -49.635  13.780  1.00  0.00    -0.247 OA
HETATM    4  N   UNL     1     -42.087 -51.536  13.313  1.00  0.00    -0.293 N 
HETATM    5  H   UNL     1     -43.719 -52.599  14.752  1.00  0.00     0.164 HD
HETATM    6  H   UNL     1     -42.153 -52.537  13.216  1.00  0.00     0.172 HD
ENDROOT
BRANCH   1   7
HETATM    7  C   UNL     1     -45.229 -51.206  15.262  1.00  0.00     0.100 C 
HETATM    8  C   UNL     1     -45.507 -52.016  16.550  1.00  0.00     0.070 C 
HETATM    9  C   UNL     1     -46.273 -53.256  16.063  1.00  0.00     0.017 C 
HETATM   10  C   UNL     1     -46.937 -52.849  14.746  1.00  0.00     0.003 C 
HETATM   11  C   UNL     1     -46.578 -51.378  14.548  1.00  0.00     0.026 C 
BRANCH   8  12
HETATM   12  S   UNL     1     -44.073 -52.506  17.569  1.00  0.00    -0.163 SA
BRANCH  12  13
HETATM   13  C   UNL     1     -44.020 -54.286  17.206  1.00  0.00     0.070 C 
HETATM   14  C   UNL     1     -42.774 -54.582  16.389  1.00  0.00     0.016 C 
ENDBRANCH  12  13
ENDBRANCH   8  12
ENDBRANCH   1   7
BRANCH   4  15
HETATM   15  C   UNL     1     -41.109 -50.881  12.577  1.00  0.00     0.132 A 
HETATM   16  C   UNL     1     -39.732 -50.825  12.910  1.00  0.00     0.084 A 
HETATM   17  C   UNL     1     -39.147 -50.179  11.843  1.00  0.00     0.076 A 
HETATM   18  C   UNL     1     -37.773 -49.841  11.443  1.00  0.00     0.079 C 
HETATM   19  O   UNL     1     -40.111 -49.803  10.970  1.00  0.00    -0.241 OA
HETATM   20  N   UNL     1     -41.330 -50.221  11.436  1.00  0.00    -0.245 N 
ATOM     21  HN  UNL     1     -42.236 -50.057  10.995  1.00  0.00     0.196 HD
ENDBRANCH   4  15
TORSDOF 4
ENDMDL
MODEL 8
REMARK VINA RESULT:      -4.4     17.094     18.674
REMARK  4 active torsions:
REMARK  status: ('A' for Active; 'I' for Inactive)
REMARK    1  A    between atoms: C_2  and  S_3 
REMARK    2  A    between atoms: S_3  and  C_4 
REMARK    3  A    between atoms: C_8  and  N_9 
REMARK       I    between atoms: N_9  and  C_10 
REMARK       I    between atoms: C_10  and  N_12 
REMARK    4  A    between atoms: N_12  and  C_13 
ROOT
HETATM    1  N   UNL     1     -51.449 -51.611  -0.864  1.00  0.00    -0.337 N 
HETATM    2  C   UNL     1     -50.868 -50.679  -0.039  1.00  0.00     0.322 C 
HETATM    3  O   UNL     1     -50.049 -50.983   0.821  1.00  0.00    -0.247 OA
HETATM    4  N   UNL     1     -51.322 -49.399  -0.256  1.00  0.00    -0.293 N 
HETATM    5  H   UNL     1     -51.967 -51.265  -1.659  1.00  0.00     0.164 HD
HETATM    6  H   UNL     1     -52.166 -49.261  -0.788  1.00  0.00     0.172 HD
ENDROOT
BRANCH   1   7
HETATM    7  C   UNL     1     -51.171 -53.058  -0.866  1.00  0.00     0.100 C 
HETATM    8  C   UNL     1     -50.628 -53.564  -2.222  1.00  0.00     0.070 C 
HETATM    9  C   UNL     1     -51.887 -53.828  -3.063  1.00  0.00     0.017 C 
HETATM   10  C   UNL     1     -53.014 -54.086  -2.062  1.00  0.00     0.003 C 
HETATM   11  C   UNL     1     -52.358 -54.018  -0.684  1.00  0.00     0.026 C 
BRANCH   8  12
HETATM   12  S   UNL     1     -49.467 -52.482  -3.125  1.00  0.00    -0.163 SA
BRANCH  12  13
HETATM   13  C   UNL     1     -48.078 -52.460  -1.953  1.00  0.00     0.070 C 
HETATM   14  C   UNL     1     -47.647 -51.020  -1.732  1.00  0.00     0.016 C 
ENDBRANCH  12  13
ENDBRANCH   8  12
ENDBRANCH   1   7
BRANCH   4  15
HETATM   15  C   UNL     1     -50.855 -48.333   0.500  1.00  0.00     0.132 A 
HETATM   16  C   UNL     1     -50.060 -47.266   0.010  1.00  0.00     0.084 A 
HETATM   17  C   UNL     1     -49.946 -46.405   1.079  1.00  0.00     0.076 A 
HETATM   18  C   UNL     1     -49.357 -45.075   1.300  1.00  0.00     0.079 C 
HETATM   19  O   UNL     1     -50.558 -46.951   2.156  1.00  0.00    -0.241 OA
HETATM   20  N   UNL     1     -51.103 -48.157   1.802  1.00  0.00    -0.245 N 
ATOM     21  HN  UNL     1     -51.604 -48.800   2.416  1.00  0.00     0.196 HD
ENDBRANCH   4  15
TORSDOF 4
ENDMDL
MODEL 9
REMARK VINA RESULT:      -4.4      5.752      7.165
REMARK  4 active torsions:
REMARK  status: ('A' for Active; 'I' for Inactive)
REMARK    1  A    between atoms: C_2  and  S_3 
REMARK    2  A    between atoms: S_3  and  C_4 
REMARK    3  A    between atoms: C_8  and  N_9 
REMARK       I    between atoms: N_9  and  C_10 
REMARK       I    between atoms: C_10  and  N_12 
REMARK    4  A    between atoms: N_12  and  C_13 
ROOT
HETATM    1  N   UNL     1     -40.159 -47.386  12.133  1.00  0.00    -0.337 N 
HETATM    2  C   UNL     1     -41.273 -46.614  11.912  1.00  0.00     0.322 C 
HETATM    3  O   UNL     1     -42.411 -47.061  12.005  1.00  0.00    -0.247 OA
HETATM    4  N   UNL     1     -40.977 -45.320  11.551  1.00  0.00    -0.293 N 
HETATM    5  H   UNL     1     -39.274 -46.907  12.219  1.00  0.00     0.164 HD
HETATM    6  H   UNL     1     -40.043 -45.096  11.247  1.00  0.00     0.172 HD
ENDROOT
BRANCH   1   7
HETATM    7  C   UNL     1     -40.154 -48.807  12.526  1.00  0.00     0.100 C 
HETATM    8  C   UNL     1     -39.099 -49.126  13.610  1.00  0.00     0.070 C 
HETATM    9  C   UNL     1     -37.802 -49.365  12.821  1.00  0.00     0.017 C 
HETATM   10  C   UNL     1     -38.237 -49.796  11.419  1.00  0.00     0.003 C 
HETATM   11  C   UNL     1     -39.763 -49.845  11.464  1.00  0.00     0.026 C 
BRANCH   8  12
HETATM   12  S   UNL     1     -38.833 -47.887  14.924  1.00  0.00    -0.163 SA
BRANCH  12  13
HETATM   13  C   UNL     1     -37.060 -47.558  14.695  1.00  0.00     0.070 C 
HETATM   14  C   UNL     1     -36.321 -47.954  15.962  1.00  0.00     0.016 C 
ENDBRANCH  12  13
ENDBRANCH   8  12
ENDBRANCH   1   7
BRANCH   4  15
HETATM   15  C   UNL     1     -41.983 -44.405  11.272  1.00  0.00     0.132 A 
HETATM   16  C   UNL     1     -42.190 -43.182  11.959  1.00  0.00     0.084 A 
HETATM   17  C   UNL     1     -43.210 -42.569  11.265  1.00  0.00     0.076 A 
HETATM   18  C   UNL     1     -43.893 -41.267  11.331  1.00  0.00     0.079 C 
HETATM   19  O   UNL     1     -43.640 -43.396  10.284  1.00  0.00    -0.241 OA
HETATM   20  N   UNL     1     -42.892 -44.544  10.302  1.00  0.00    -0.245 N 
ATOM     21  HN  UNL     1     -43.007 -45.353   9.691  1.00  0.00     0.196 HD
ENDBRANCH   4  15
TORSDOF 4
ENDMDL
