MODEL 1
REMARK VINA RESULT:      -5.6      0.000      0.000
REMARK  6 active torsions:
REMARK  status: ('A' for Active; 'I' for Inactive)
REMARK    1  A    between atoms: C_2  and  C_3 
REMARK    2  A    between atoms: C_2  and  N_10 
REMARK    3  A    between atoms: C_3  and  N_4 
REMARK    4  A    between atoms: N_10  and  C_11 
REMARK    5  A    between atoms: C_11  and  C_12 
REMARK    6  A    between atoms: C_12  and  O_13 
ROOT
HETATM    1  N   UNL     1     -43.401 -52.751  12.230  1.00  0.00     0.092 N 
HETATM    2  H   UNL     1     -43.827 -53.665  12.073  1.00  0.00     0.316 HD
ENDROOT
BRANCH   1   3
HETATM    3  C   UNL     1     -42.142 -52.923  13.003  1.00  0.00     0.236 C 
HETATM    4  C   UNL     1     -42.045 -54.339  13.594  1.00  0.00     0.044 C 
BRANCH   3   5
HETATM    5  C   UNL     1     -40.888 -52.687  12.137  1.00  0.00     0.183 C 
BRANCH   5   6
HETATM    6  N   UNL     1     -40.472 -51.301  12.077  1.00  0.00    -0.302 N 
HETATM    7  C   UNL     1     -39.949 -50.568  13.102  1.00  0.00     0.111 A 
HETATM    8  C   UNL     1     -39.766 -49.302  12.607  1.00  0.00     0.037 A 
HETATM    9  C   UNL     1     -40.228 -49.366  11.279  1.00  0.00     0.108 A 
HETATM   10  N   UNL     1     -40.680 -50.581  10.955  1.00  0.00    -0.310 N 
ATOM     11  HN  UNL     1     -41.084 -50.890  10.071  1.00  0.00     0.186 HD
ENDBRANCH   5   6
ENDBRANCH   3   5
ENDBRANCH   1   3
BRANCH   1  12
HETATM   12  C   UNL     1     -44.364 -51.914  12.974  1.00  0.00     0.307 C 
BRANCH  12  13
HETATM   13  C   UNL     1     -45.814 -52.472  13.026  1.00  0.00     0.084 C 
HETATM   14  C   UNL     1     -46.832 -51.533  13.698  1.00  0.00     0.039 C 
HETATM   15  C   UNL     1     -46.631 -51.403  15.207  1.00  0.00     0.003 C 
HETATM   16  C   UNL     1     -46.562 -52.761  15.902  1.00  0.00     0.000 C 
HETATM   17  C   UNL     1     -45.545 -53.693  15.250  1.00  0.00     0.003 C 
HETATM   18  C   UNL     1     -45.808 -53.832  13.752  1.00  0.00     0.039 C 
BRANCH  13  19
HETATM   19  O   UNL     1     -46.244 -52.708  11.675  1.00  0.00    -0.388 OA
HETATM   20  H   UNL     1     -45.633 -53.373  11.309  1.00  0.00     0.210 HD
ENDBRANCH  13  19
ENDBRANCH  12  13
ENDBRANCH   1  12
TORSDOF 6
ENDMDL
MODEL 2
REMARK VINA RESULT:      -5.6      2.161      6.211
REMARK  6 active torsions:
REMARK  status: ('A' for Active; 'I' for Inactive)
REMARK    1  A    between atoms: C_2  and  C_3 
REMARK    2  A    between atoms: C_2  and  N_10 
REMARK    3  A    between atoms: C_3  and  N_4 
REMARK    4  A    between atoms: N_10  and  C_11 
REMARK    5  A    between atoms: C_11  and  C_12 
REMARK    6  A    between atoms: C_12  and  O_13 
ROOT
HETATM    1  N   UNL     1     -41.272 -52.207  11.408  1.00  0.00     0.092 N 
HETATM    2  H   UNL     1     -41.611 -51.636  10.634  1.00  0.00     0.316 HD
ENDROOT
BRANCH   1   3
HETATM    3  C   UNL     1     -42.430 -52.676  12.215  1.00  0.00     0.236 C 
HETATM    4  C   UNL     1     -42.023 -53.828  13.149  1.00  0.00     0.044 C 
BRANCH   3   5
HETATM    5  C   UNL     1     -43.028 -51.553  13.086  1.00  0.00     0.183 C 
BRANCH   5   6
HETATM    6  N   UNL     1     -44.470 -51.613  13.209  1.00  0.00    -0.302 N 
HETATM    7  C   UNL     1     -45.211 -51.187  14.272  1.00  0.00     0.111 A 
HETATM    8  C   UNL     1     -46.512 -51.501  13.976  1.00  0.00     0.037 A 
HETATM    9  C   UNL     1     -46.453 -52.134  12.721  1.00  0.00     0.108 A 
HETATM   10  N   UNL     1     -45.204 -52.223  12.255  1.00  0.00    -0.310 N 
ATOM     11  HN  UNL     1     -44.882 -52.650  11.386  1.00  0.00     0.186 HD
ENDBRANCH   5   6
ENDBRANCH   3   5
ENDBRANCH   1   3
BRANCH   1  12
HETATM   12  C   UNL     1     -40.360 -51.383  12.227  1.00  0.00     0.307 C 
BRANCH  12  13
HETATM   13  C   UNL     1     -39.918 -50.045  11.569  1.00  0.00     0.084 C 
HETATM   14  C   UNL     1     -38.395 -49.832  11.524  1.00  0.00     0.039 C 
HETATM   15  C   UNL     1     -37.779 -49.573  12.898  1.00  0.00     0.003 C 
HETATM   16  C   UNL     1     -38.490 -48.450  13.650  1.00  0.00     0.000 C 
HETATM   17  C   UNL     1     -40.000 -48.661  13.711  1.00  0.00     0.003 C 
HETATM   18  C   UNL     1     -40.583 -48.870  12.315  1.00  0.00     0.039 C 
BRANCH  13  19
HETATM   19  O   UNL     1     -40.414 -50.034  10.220  1.00  0.00    -0.388 OA
HETATM   20  H   UNL     1     -40.965 -49.235  10.141  1.00  0.00     0.210 HD
ENDBRANCH  13  19
ENDBRANCH  12  13
ENDBRANCH   1  12
TORSDOF 6
ENDMDL
MODEL 3
REMARK VINA RESULT:      -5.4      3.227      4.986
REMARK  6 active torsions:
REMARK  status: ('A' for Active; 'I' for Inactive)
REMARK    1  A    between atoms: C_2  and  C_3 
REMARK    2  A    between atoms: C_2  and  N_10 
REMARK    3  A    between atoms: C_3  and  N_4 
REMARK    4  A    between atoms: N_10  and  C_11 
REMARK    5  A    between atoms: C_11  and  C_12 
REMARK    6  A    between atoms: C_12  and  O_13 
ROOT
HETATM    1  N   UNL     1     -41.322 -50.627  11.483  1.00  0.00     0.092 N 
HETATM    2  H   UNL     1     -40.340 -50.593  11.756  1.00  0.00     0.316 HD
ENDROOT
BRANCH   1   3
HETATM    3  C   UNL     1     -41.955 -49.309  11.763  1.00  0.00     0.236 C 
HETATM    4  C   UNL     1     -41.818 -48.935  13.247  1.00  0.00     0.044 C 
BRANCH   3   5
HETATM    5  C   UNL     1     -41.329 -48.172  10.930  1.00  0.00     0.183 C 
BRANCH   5   6
HETATM    6  N   UNL     1     -42.257 -47.537  10.018  1.00  0.00    -0.302 N 
HETATM    7  C   UNL     1     -42.853 -46.321  10.185  1.00  0.00     0.111 A 
HETATM    8  C   UNL     1     -43.693 -46.161   9.113  1.00  0.00     0.037 A 
HETATM    9  C   UNL     1     -43.550 -47.344   8.365  1.00  0.00     0.108 A 
HETATM   10  N   UNL     1     -42.688 -48.198   8.923  1.00  0.00    -0.310 N 
ATOM     11  HN  UNL     1     -42.419 -49.128   8.600  1.00  0.00     0.186 HD
ENDBRANCH   5   6
ENDBRANCH   3   5
ENDBRANCH   1   3
BRANCH   1  12
HETATM   12  C   UNL     1     -41.981 -51.700  12.255  1.00  0.00     0.307 C 
BRANCH  12  13
HETATM   13  C   UNL     1     -41.078 -52.925  12.574  1.00  0.00     0.084 C 
HETATM   14  C   UNL     1     -41.818 -54.107  13.225  1.00  0.00     0.039 C 
HETATM   15  C   UNL     1     -42.263 -53.827  14.659  1.00  0.00     0.003 C 
HETATM   16  C   UNL     1     -41.118 -53.321  15.533  1.00  0.00     0.000 C 
HETATM   17  C   UNL     1     -40.387 -52.140  14.902  1.00  0.00     0.003 C 
HETATM   18  C   UNL     1     -39.919 -52.476  13.487  1.00  0.00     0.039 C 
BRANCH  13  19
HETATM   19  O   UNL     1     -40.501 -53.381  11.339  1.00  0.00    -0.388 OA
HETATM   20  H   UNL     1     -39.564 -53.118  11.365  1.00  0.00     0.210 HD
ENDBRANCH  13  19
ENDBRANCH  12  13
ENDBRANCH   1  12
TORSDOF 6
ENDMDL
MODEL 4
REMARK VINA RESULT:      -5.4      3.210      4.558
REMARK  6 active torsions:
REMARK  status: ('A' for Active; 'I' for Inactive)
REMARK    1  A    between atoms: C_2  and  C_3 
REMARK    2  A    between atoms: C_2  and  N_10 
REMARK    3  A    between atoms: C_3  and  N_4 
REMARK    4  A    between atoms: N_10  and  C_11 
REMARK    5  A    between atoms: C_11  and  C_12 
REMARK    6  A    between atoms: C_12  and  O_13 
ROOT
HETATM    1  N   UNL     1     -39.386 -51.321  13.069  1.00  0.00     0.092 N 
HETATM    2  H   UNL     1     -38.913 -51.230  13.968  1.00  0.00     0.316 HD
ENDROOT
BRANCH   1   3
HETATM    3  C   UNL     1     -39.505 -49.979  12.438  1.00  0.00     0.236 C 
HETATM    4  C   UNL     1     -38.121 -49.394  12.118  1.00  0.00     0.044 C 
BRANCH   3   5
HETATM    5  C   UNL     1     -40.314 -50.021  11.126  1.00  0.00     0.183 C 
BRANCH   5   6
HETATM    6  N   UNL     1     -41.362 -49.024  11.053  1.00  0.00    -0.302 N 
HETATM    7  C   UNL     1     -42.208 -48.663  12.061  1.00  0.00     0.111 A 
HETATM    8  C   UNL     1     -43.067 -47.740  11.522  1.00  0.00     0.037 A 
HETATM    9  C   UNL     1     -42.673 -47.625  10.176  1.00  0.00     0.108 A 
HETATM   10  N   UNL     1     -41.643 -48.423   9.878  1.00  0.00    -0.310 N 
ATOM     11  HN  UNL     1     -41.180 -48.548   8.977  1.00  0.00     0.186 HD
ENDBRANCH   5   6
ENDBRANCH   3   5
ENDBRANCH   1   3
BRANCH   1  12
HETATM   12  C   UNL     1     -40.720 -51.910  13.306  1.00  0.00     0.307 C 
BRANCH  12  13
HETATM   13  C   UNL     1     -40.844 -53.417  12.941  1.00  0.00     0.084 C 
HETATM   14  C   UNL     1     -42.245 -54.011  13.169  1.00  0.00     0.039 C 
HETATM   15  C   UNL     1     -42.612 -54.149  14.645  1.00  0.00     0.003 C 
HETATM   16  C   UNL     1     -41.541 -54.891  15.442  1.00  0.00     0.000 C 
HETATM   17  C   UNL     1     -40.151 -54.299  15.233  1.00  0.00     0.003 C 
HETATM   18  C   UNL     1     -39.804 -54.221  13.747  1.00  0.00     0.039 C 
BRANCH  13  19
HETATM   19  O   UNL     1     -40.515 -53.561  11.549  1.00  0.00    -0.388 OA
HETATM   20  H   UNL     1     -39.634 -53.976  11.522  1.00  0.00     0.210 HD
ENDBRANCH  13  19
ENDBRANCH  12  13
ENDBRANCH   1  12
TORSDOF 6
ENDMDL
MODEL 5
REMARK VINA RESULT:      -5.4      1.181      1.643
REMARK  6 active torsions:
REMARK  status: ('A' for Active; 'I' for Inactive)
REMARK    1  A    between atoms: C_2  and  C_3 
REMARK    2  A    between atoms: C_2  and  N_10 
REMARK    3  A    between atoms: C_3  and  N_4 
REMARK    4  A    between atoms: N_10  and  C_11 
REMARK    5  A    between atoms: C_11  and  C_12 
REMARK    6  A    between atoms: C_12  and  O_13 
ROOT
HETATM    1  N   UNL     1     -43.075 -53.869  13.183  1.00  0.00     0.092 N 
HETATM    2  H   UNL     1     -42.400 -54.613  13.357  1.00  0.00     0.316 HD
ENDROOT
BRANCH   1   3
HETATM    3  C   UNL     1     -42.357 -52.572  13.063  1.00  0.00     0.236 C 
HETATM    4  C   UNL     1     -42.363 -51.811  14.399  1.00  0.00     0.044 C 
BRANCH   3   5
HETATM    5  C   UNL     1     -40.887 -52.756  12.633  1.00  0.00     0.183 C 
BRANCH   5   6
HETATM    6  N   UNL     1     -40.245 -51.530  12.206  1.00  0.00    -0.302 N 
HETATM    7  C   UNL     1     -39.132 -50.964  12.755  1.00  0.00     0.111 A 
HETATM    8  C   UNL     1     -38.930 -49.790  12.076  1.00  0.00     0.037 A 
HETATM    9  C   UNL     1     -39.986 -49.725  11.148  1.00  0.00     0.108 A 
HETATM   10  N   UNL     1     -40.805 -50.777  11.236  1.00  0.00    -0.310 N 
ATOM     11  HN  UNL     1     -41.652 -50.966  10.698  1.00  0.00     0.186 HD
ENDBRANCH   5   6
ENDBRANCH   3   5
ENDBRANCH   1   3
BRANCH   1  12
HETATM   12  C   UNL     1     -44.031 -53.838  14.308  1.00  0.00     0.307 C 
BRANCH  12  13
HETATM   13  C   UNL     1     -45.529 -53.926  13.897  1.00  0.00     0.084 C 
HETATM   14  C   UNL     1     -45.962 -52.882  12.853  1.00  0.00     0.039 C 
HETATM   15  C   UNL     1     -46.007 -51.458  13.404  1.00  0.00     0.003 C 
HETATM   16  C   UNL     1     -46.828 -51.357  14.687  1.00  0.00     0.000 C 
HETATM   17  C   UNL     1     -46.395 -52.380  15.732  1.00  0.00     0.003 C 
HETATM   18  C   UNL     1     -46.409 -53.795  15.157  1.00  0.00     0.039 C 
BRANCH  13  19
HETATM   19  O   UNL     1     -45.758 -55.234  13.347  1.00  0.00    -0.388 OA
HETATM   20  H   UNL     1     -46.372 -55.110  12.602  1.00  0.00     0.210 HD
ENDBRANCH  13  19
ENDBRANCH  12  13
ENDBRANCH   1  12
TORSDOF 6
ENDMDL
MODEL 6
REMARK VINA RESULT:      -5.2      3.169      4.272
REMARK  6 active torsions:
REMARK  status: ('A' for Active; 'I' for Inactive)
REMARK    1  A    between atoms: C_2  and  C_3 
REMARK    2  A    between atoms: C_2  and  N_10 
REMARK    3  A    between atoms: C_3  and  N_4 
REMARK    4  A    between atoms: N_10  and  C_11 
REMARK    5  A    between atoms: C_11  and  C_12 
REMARK    6  A    between atoms: C_12  and  O_13 
ROOT
HETATM    1  N   UNL     1     -41.478 -50.831  11.375  1.00  0.00     0.092 N 
HETATM    2  H   UNL     1     -40.469 -50.958  11.303  1.00  0.00     0.316 HD
ENDROOT
BRANCH   1   3
HETATM    3  C   UNL     1     -41.771 -49.421  11.748  1.00  0.00     0.236 C 
HETATM    4  C   UNL     1     -42.251 -49.323  13.205  1.00  0.00     0.044 C 
BRANCH   3   5
HETATM    5  C   UNL     1     -40.537 -48.509  11.596  1.00  0.00     0.183 C 
BRANCH   5   6
HETATM    6  N   UNL     1     -39.282 -49.170  11.891  1.00  0.00    -0.302 N 
HETATM    7  C   UNL     1     -38.638 -49.186  13.094  1.00  0.00     0.111 A 
HETATM    8  C   UNL     1     -37.468 -49.870  12.887  1.00  0.00     0.037 A 
HETATM    9  C   UNL     1     -37.487 -50.210  11.522  1.00  0.00     0.108 A 
HETATM   10  N   UNL     1     -38.585 -49.767  10.902  1.00  0.00    -0.310 N 
ATOM     11  HN  UNL     1     -38.836 -49.859   9.918  1.00  0.00     0.186 HD
ENDBRANCH   5   6
ENDBRANCH   3   5
ENDBRANCH   1   3
BRANCH   1  12
HETATM   12  C   UNL     1     -41.990 -51.763  12.400  1.00  0.00     0.307 C 
BRANCH  12  13
HETATM   13  C   UNL     1     -41.098 -53.010  12.655  1.00  0.00     0.084 C 
HETATM   14  C   UNL     1     -41.838 -54.201  13.289  1.00  0.00     0.039 C 
HETATM   15  C   UNL     1     -42.237 -53.961  14.744  1.00  0.00     0.003 C 
HETATM   16  C   UNL     1     -41.059 -53.500  15.600  1.00  0.00     0.000 C 
HETATM   17  C   UNL     1     -40.327 -52.311  14.984  1.00  0.00     0.003 C 
HETATM   18  C   UNL     1     -39.906 -52.608  13.547  1.00  0.00     0.039 C 
BRANCH  13  19
HETATM   19  O   UNL     1     -40.564 -53.435  11.389  1.00  0.00    -0.388 OA
HETATM   20  H   UNL     1     -39.801 -52.858  11.211  1.00  0.00     0.210 HD
ENDBRANCH  13  19
ENDBRANCH  12  13
ENDBRANCH   1  12
TORSDOF 6
ENDMDL
MODEL 7
REMARK VINA RESULT:      -5.0      2.363      6.102
REMARK  6 active torsions:
REMARK  status: ('A' for Active; 'I' for Inactive)
REMARK    1  A    between atoms: C_2  and  C_3 
REMARK    2  A    between atoms: C_2  and  N_10 
REMARK    3  A    between atoms: C_3  and  N_4 
REMARK    4  A    between atoms: N_10  and  C_11 
REMARK    5  A    between atoms: C_11  and  C_12 
REMARK    6  A    between atoms: C_12  and  O_13 
ROOT
HETATM    1  N   UNL     1     -41.218 -52.101  11.392  1.00  0.00     0.092 N 
HETATM    2  H   UNL     1     -41.526 -52.141  10.420  1.00  0.00     0.316 HD
ENDROOT
BRANCH   1   3
HETATM    3  C   UNL     1     -42.282 -52.662  12.267  1.00  0.00     0.236 C 
HETATM    4  C   UNL     1     -41.714 -53.737  13.208  1.00  0.00     0.044 C 
BRANCH   3   5
HETATM    5  C   UNL     1     -42.952 -51.580  13.139  1.00  0.00     0.183 C 
BRANCH   5   6
HETATM    6  N   UNL     1     -44.397 -51.669  13.171  1.00  0.00    -0.302 N 
HETATM    7  C   UNL     1     -45.216 -51.195  14.154  1.00  0.00     0.111 A 
HETATM    8  C   UNL     1     -46.488 -51.559  13.795  1.00  0.00     0.037 A 
HETATM    9  C   UNL     1     -46.333 -52.268  12.590  1.00  0.00     0.108 A 
HETATM   10  N   UNL     1     -45.054 -52.356  12.213  1.00  0.00    -0.310 N 
ATOM     11  HN  UNL     1     -44.666 -52.829  11.396  1.00  0.00     0.186 HD
ENDBRANCH   5   6
ENDBRANCH   3   5
ENDBRANCH   1   3
BRANCH   1  12
HETATM   12  C   UNL     1     -40.946 -50.690  11.734  1.00  0.00     0.307 C 
BRANCH  12  13
HETATM   13  C   UNL     1     -39.557 -50.430  12.382  1.00  0.00     0.084 C 
HETATM   14  C   UNL     1     -39.598 -50.210  13.904  1.00  0.00     0.039 C 
HETATM   15  C   UNL     1     -40.240 -48.883  14.307  1.00  0.00     0.003 C 
HETATM   16  C   UNL     1     -39.621 -47.694  13.575  1.00  0.00     0.000 C 
HETATM   17  C   UNL     1     -39.588 -47.899  12.063  1.00  0.00     0.003 C 
HETATM   18  C   UNL     1     -38.899 -49.213  11.701  1.00  0.00     0.039 C 
BRANCH  13  19
HETATM   19  O   UNL     1     -38.726 -51.573  12.115  1.00  0.00    -0.388 OA
HETATM   20  H   UNL     1     -39.186 -52.338  12.505  1.00  0.00     0.210 HD
ENDBRANCH  13  19
ENDBRANCH  12  13
ENDBRANCH   1  12
TORSDOF 6
ENDMDL
MODEL 8
REMARK VINA RESULT:      -4.8      2.448      5.721
REMARK  6 active torsions:
REMARK  status: ('A' for Active; 'I' for Inactive)
REMARK    1  A    between atoms: C_2  and  C_3 
REMARK    2  A    between atoms: C_2  and  N_10 
REMARK    3  A    between atoms: C_3  and  N_4 
REMARK    4  A    between atoms: N_10  and  C_11 
REMARK    5  A    between atoms: C_11  and  C_12 
REMARK    6  A    between atoms: C_12  and  O_13 
ROOT
HETATM    1  N   UNL     1     -43.650 -52.990  12.079  1.00  0.00     0.092 N 
HETATM    2  H   UNL     1     -43.929 -52.778  11.121  1.00  0.00     0.316 HD
ENDROOT
BRANCH   1   3
HETATM    3  C   UNL     1     -44.772 -52.668  13.001  1.00  0.00     0.236 C 
HETATM    4  C   UNL     1     -46.056 -52.350  12.219  1.00  0.00     0.044 C 
BRANCH   3   5
HETATM    5  C   UNL     1     -45.085 -53.827  13.968  1.00  0.00     0.183 C 
BRANCH   5   6
HETATM    6  N   UNL     1     -45.102 -53.436  15.363  1.00  0.00    -0.302 N 
HETATM    7  C   UNL     1     -45.839 -54.011  16.356  1.00  0.00     0.111 A 
HETATM    8  C   UNL     1     -45.587 -53.277  17.487  1.00  0.00     0.037 A 
HETATM    9  C   UNL     1     -44.701 -52.267  17.070  1.00  0.00     0.108 A 
HETATM   10  N   UNL     1     -44.415 -52.347  15.767  1.00  0.00    -0.310 N 
ATOM     11  HN  UNL     1     -43.820 -51.732  15.211  1.00  0.00     0.186 HD
ENDBRANCH   5   6
ENDBRANCH   3   5
ENDBRANCH   1   3
BRANCH   1  12
HETATM   12  C   UNL     1     -42.456 -52.184  12.403  1.00  0.00     0.307 C 
BRANCH  12  13
HETATM   13  C   UNL     1     -41.131 -52.991  12.512  1.00  0.00     0.084 C 
HETATM   14  C   UNL     1     -41.265 -54.331  13.257  1.00  0.00     0.039 C 
HETATM   15  C   UNL     1     -41.506 -54.170  14.756  1.00  0.00     0.003 C 
HETATM   16  C   UNL     1     -40.477 -53.252  15.413  1.00  0.00     0.000 C 
HETATM   17  C   UNL     1     -40.348 -51.916  14.689  1.00  0.00     0.003 C 
HETATM   18  C   UNL     1     -40.062 -52.120  13.203  1.00  0.00     0.039 C 
BRANCH  13  19
HETATM   19  O   UNL     1     -40.669 -53.261  11.178  1.00  0.00    -0.388 OA
HETATM   20  H   UNL     1     -39.727 -53.491  11.260  1.00  0.00     0.210 HD
ENDBRANCH  13  19
ENDBRANCH  12  13
ENDBRANCH   1  12
TORSDOF 6
ENDMDL
MODEL 9
REMARK VINA RESULT:      -4.6      2.554      6.498
REMARK  6 active torsions:
REMARK  status: ('A' for Active; 'I' for Inactive)
REMARK    1  A    between atoms: C_2  and  C_3 
REMARK    2  A    between atoms: C_2  and  N_10 
REMARK    3  A    between atoms: C_3  and  N_4 
REMARK    4  A    between atoms: N_10  and  C_11 
REMARK    5  A    between atoms: C_11  and  C_12 
REMARK    6  A    between atoms: C_12  and  O_13 
ROOT
HETATM    1  N   UNL     1     -41.772 -50.922  13.613  1.00  0.00     0.092 N 
HETATM    2  H   UNL     1     -42.383 -50.993  14.427  1.00  0.00     0.316 HD
ENDROOT
BRANCH   1   3
HETATM    3  C   UNL     1     -42.208 -51.903  12.583  1.00  0.00     0.236 C 
HETATM    4  C   UNL     1     -41.018 -52.724  12.063  1.00  0.00     0.044 C 
BRANCH   3   5
HETATM    5  C   UNL     1     -43.261 -52.890  13.127  1.00  0.00     0.183 C 
BRANCH   5   6
HETATM    6  N   UNL     1     -44.604 -52.350  13.163  1.00  0.00    -0.302 N 
HETATM    7  C   UNL     1     -45.226 -51.797  14.244  1.00  0.00     0.111 A 
HETATM    8  C   UNL     1     -46.496 -51.487  13.832  1.00  0.00     0.037 A 
HETATM    9  C   UNL     1     -46.553 -51.910  12.492  1.00  0.00     0.108 A 
HETATM   10  N   UNL     1     -45.405 -52.457  12.082  1.00  0.00    -0.310 N 
ATOM     11  HN  UNL     1     -45.185 -52.859  11.170  1.00  0.00     0.186 HD
ENDBRANCH   5   6
ENDBRANCH   3   5
ENDBRANCH   1   3
BRANCH   1  12
HETATM   12  C   UNL     1     -40.388 -51.197  14.048  1.00  0.00     0.307 C 
BRANCH  12  13
HETATM   13  C   UNL     1     -39.462 -49.949  14.117  1.00  0.00     0.084 C 
HETATM   14  C   UNL     1     -39.630 -48.969  12.943  1.00  0.00     0.039 C 
HETATM   15  C   UNL     1     -39.102 -49.516  11.618  1.00  0.00     0.003 C 
HETATM   16  C   UNL     1     -37.669 -50.029  11.732  1.00  0.00     0.000 C 
HETATM   17  C   UNL     1     -37.497 -51.012  12.886  1.00  0.00     0.003 C 
HETATM   18  C   UNL     1     -37.994 -50.411  14.200  1.00  0.00     0.039 C 
BRANCH  13  19
HETATM   19  O   UNL     1     -39.761 -49.247  15.336  1.00  0.00    -0.388 OA
HETATM   20  H   UNL     1     -40.228 -49.883  15.906  1.00  0.00     0.210 HD
ENDBRANCH  13  19
ENDBRANCH  12  13
ENDBRANCH   1  12
TORSDOF 6
ENDMDL
