MODEL 1
REMARK VINA RESULT:      -6.1      0.000      0.000
REMARK  6 active torsions:
REMARK  status: ('A' for Active; 'I' for Inactive)
REMARK    1  A    between atoms: C_2  and  C_5 
REMARK    2  A    between atoms: C_10  and  N_11 
REMARK       I    between atoms: N_11  and  C_12 
REMARK    3  A    between atoms: C_12  and  C_14 
REMARK    4  A    between atoms: C_14  and  O_15 
REMARK    5  A    between atoms: O_15  and  C_16 
REMARK    6  A    between atoms: C_16  and  C_17 
ROOT
HETATM    1  C   UNL     1     -45.393 -47.226   9.319  1.00  0.00     0.065 A 
HETATM    2  C   UNL     1     -45.300 -45.979   8.829  1.00  0.00     0.107 A 
HETATM    3  N   UNL     1     -44.227 -45.178   9.140  1.00  0.00    -0.331 N 
HETATM    4  C   UNL     1     -43.175 -45.573   9.936  1.00  0.00     0.272 A 
HETATM    5  O   UNL     1     -42.217 -44.842  10.179  1.00  0.00    -0.266 OA
HETATM    6  C   UNL     1     -43.255 -46.966  10.502  1.00  0.00     0.104 A 
HETATM    7  C   UNL     1     -44.341 -47.700  10.205  1.00  0.00     0.052 A 
HETATM    8  H   UNL     1     -44.163 -44.240   8.758  1.00  0.00     0.168 HD
ENDROOT
BRANCH   6   9
HETATM    9  N   UNL     1     -42.214 -47.381  11.303  1.00  0.00    -0.321 N 
HETATM   10  C   UNL     1     -42.097 -47.239  12.675  1.00  0.00     0.246 C 
HETATM   11  O   UNL     1     -42.932 -46.743  13.427  1.00  0.00    -0.271 OA
HETATM   12  H   UNL     1     -41.448 -47.842  10.811  1.00  0.00     0.169 HD
BRANCH  10  13
HETATM   13  C   UNL     1     -40.774 -47.767  13.218  1.00  0.00     0.270 C 
BRANCH  13  14
HETATM   14  O   UNL     1     -39.862 -48.127  12.190  1.00  0.00    -0.382 OA
BRANCH  14  15
HETATM   15  C   UNL     1     -39.473 -49.500  12.282  1.00  0.00     0.172 C 
BRANCH  15  16
HETATM   16  C   UNL     1     -37.983 -49.555  12.260  1.00  0.00     0.009 A 
HETATM   17  C   UNL     1     -37.254 -50.033  11.031  1.00  0.00     0.007 A 
HETATM   18  C   UNL     1     -37.261 -50.881  12.272  1.00  0.00     0.007 A 
ENDBRANCH  15  16
ENDBRANCH  14  15
ENDBRANCH  13  14
ENDBRANCH  10  13
ENDBRANCH   6   9
BRANCH   1  19
HETATM   19  C   UNL     1     -46.512 -48.167   8.971  1.00  0.00     0.418 C 
HETATM   20  F   UNL     1     -47.736 -47.578   8.985  1.00  0.00    -0.166 F 
HETATM   21  F   UNL     1     -46.572 -49.206   9.841  1.00  0.00    -0.166 F 
HETATM   22  F   UNL     1     -46.355 -48.700   7.732  1.00  0.00    -0.166 F 
ENDBRANCH   1  19
TORSDOF 6
ENDMDL
MODEL 2
REMARK VINA RESULT:      -6.1      5.605      7.338
REMARK  6 active torsions:
REMARK  status: ('A' for Active; 'I' for Inactive)
REMARK    1  A    between atoms: C_2  and  C_5 
REMARK    2  A    between atoms: C_10  and  N_11 
REMARK       I    between atoms: N_11  and  C_12 
REMARK    3  A    between atoms: C_12  and  C_14 
REMARK    4  A    between atoms: C_14  and  O_15 
REMARK    5  A    between atoms: O_15  and  C_16 
REMARK    6  A    between atoms: C_16  and  C_17 
ROOT
HETATM    1  C   UNL     1     -42.198 -49.622  12.171  1.00  0.00     0.065 A 
HETATM    2  C   UNL     1     -41.108 -49.903  11.439  1.00  0.00     0.107 A 
HETATM    3  N   UNL     1     -40.573 -51.170  11.430  1.00  0.00    -0.331 N 
HETATM    4  C   UNL     1     -41.099 -52.234  12.128  1.00  0.00     0.272 A 
HETATM    5  O   UNL     1     -40.612 -53.362  12.082  1.00  0.00    -0.266 OA
HETATM    6  C   UNL     1     -42.320 -51.946  12.959  1.00  0.00     0.104 A 
HETATM    7  C   UNL     1     -42.786 -50.685  12.972  1.00  0.00     0.052 A 
HETATM    8  H   UNL     1     -39.753 -51.373  10.867  1.00  0.00     0.168 HD
ENDROOT
BRANCH   6   9
HETATM    9  N   UNL     1     -42.861 -52.997  13.668  1.00  0.00    -0.321 N 
HETATM   10  C   UNL     1     -43.908 -53.819  13.289  1.00  0.00     0.246 C 
HETATM   11  O   UNL     1     -44.518 -53.773  12.225  1.00  0.00    -0.271 OA
HETATM   12  H   UNL     1     -42.429 -53.173  14.575  1.00  0.00     0.169 HD
BRANCH  10  13
HETATM   13  C   UNL     1     -44.278 -54.842  14.357  1.00  0.00     0.270 C 
BRANCH  13  14
HETATM   14  O   UNL     1     -45.639 -54.756  14.754  1.00  0.00    -0.382 OA
BRANCH  14  15
HETATM   15  C   UNL     1     -45.856 -53.686  15.676  1.00  0.00     0.172 C 
BRANCH  15  16
HETATM   16  C   UNL     1     -46.911 -52.798  15.106  1.00  0.00     0.009 A 
HETATM   17  C   UNL     1     -46.537 -51.509  14.422  1.00  0.00     0.007 A 
HETATM   18  C   UNL     1     -47.235 -51.473  15.753  1.00  0.00     0.007 A 
ENDBRANCH  15  16
ENDBRANCH  14  15
ENDBRANCH  13  14
ENDBRANCH  10  13
ENDBRANCH   6   9
BRANCH   1  19
HETATM   19  C   UNL     1     -42.860 -48.272  12.179  1.00  0.00     0.418 C 
HETATM   20  F   UNL     1     -43.331 -47.909  13.399  1.00  0.00    -0.166 F 
HETATM   21  F   UNL     1     -43.916 -48.236  11.329  1.00  0.00    -0.166 F 
HETATM   22  F   UNL     1     -42.006 -47.291  11.787  1.00  0.00    -0.166 F 
ENDBRANCH   1  19
TORSDOF 6
ENDMDL
MODEL 3
REMARK VINA RESULT:      -5.9      5.719      6.888
REMARK  6 active torsions:
REMARK  status: ('A' for Active; 'I' for Inactive)
REMARK    1  A    between atoms: C_2  and  C_5 
REMARK    2  A    between atoms: C_10  and  N_11 
REMARK       I    between atoms: N_11  and  C_12 
REMARK    3  A    between atoms: C_12  and  C_14 
REMARK    4  A    between atoms: C_14  and  O_15 
REMARK    5  A    between atoms: O_15  and  C_16 
REMARK    6  A    between atoms: C_16  and  C_17 
ROOT
HETATM    1  C   UNL     1     -45.401 -52.768  13.512  1.00  0.00     0.065 A 
HETATM    2  C   UNL     1     -45.978 -53.933  13.851  1.00  0.00     0.107 A 
HETATM    3  N   UNL     1     -45.237 -54.950  14.406  1.00  0.00    -0.331 N 
HETATM    4  C   UNL     1     -43.890 -54.864  14.676  1.00  0.00     0.272 A 
HETATM    5  O   UNL     1     -43.259 -55.783  15.195  1.00  0.00    -0.266 OA
HETATM    6  C   UNL     1     -43.217 -53.571  14.304  1.00  0.00     0.104 A 
HETATM    7  C   UNL     1     -43.970 -52.618  13.726  1.00  0.00     0.052 A 
HETATM    8  H   UNL     1     -45.685 -55.823  14.665  1.00  0.00     0.168 HD
ENDROOT
BRANCH   6   9
HETATM    9  N   UNL     1     -41.868 -53.465  14.563  1.00  0.00    -0.321 N 
HETATM   10  C   UNL     1     -40.820 -53.870  13.756  1.00  0.00     0.246 C 
HETATM   11  O   UNL     1     -40.915 -54.368  12.638  1.00  0.00    -0.271 OA
HETATM   12  H   UNL     1     -41.634 -53.037  15.460  1.00  0.00     0.169 HD
BRANCH  10  13
HETATM   13  C   UNL     1     -39.454 -53.648  14.397  1.00  0.00     0.270 C 
BRANCH  13  14
HETATM   14  O   UNL     1     -38.559 -52.939  13.553  1.00  0.00    -0.382 OA
BRANCH  14  15
HETATM   15  C   UNL     1     -38.934 -51.567  13.414  1.00  0.00     0.172 C 
BRANCH  15  16
HETATM   16  C   UNL     1     -37.710 -50.792  13.055  1.00  0.00     0.009 A 
HETATM   17  C   UNL     1     -37.800 -49.319  12.752  1.00  0.00     0.007 A 
HETATM   18  C   UNL     1     -37.502 -50.292  11.646  1.00  0.00     0.007 A 
ENDBRANCH  15  16
ENDBRANCH  14  15
ENDBRANCH  13  14
ENDBRANCH  10  13
ENDBRANCH   6   9
BRANCH   1  19
HETATM   19  C   UNL     1     -46.166 -51.601  12.954  1.00  0.00     0.418 C 
HETATM   20  F   UNL     1     -45.375 -50.556  12.601  1.00  0.00    -0.166 F 
HETATM   21  F   UNL     1     -47.062 -51.123  13.853  1.00  0.00    -0.166 F 
HETATM   22  F   UNL     1     -46.869 -51.946  11.843  1.00  0.00    -0.166 F 
ENDBRANCH   1  19
TORSDOF 6
ENDMDL
MODEL 4
REMARK VINA RESULT:      -5.8      3.802      5.259
REMARK  6 active torsions:
REMARK  status: ('A' for Active; 'I' for Inactive)
REMARK    1  A    between atoms: C_2  and  C_5 
REMARK    2  A    between atoms: C_10  and  N_11 
REMARK       I    between atoms: N_11  and  C_12 
REMARK    3  A    between atoms: C_12  and  C_14 
REMARK    4  A    between atoms: C_14  and  O_15 
REMARK    5  A    between atoms: O_15  and  C_16 
REMARK    6  A    between atoms: C_16  and  C_17 
ROOT
HETATM    1  C   UNL     1     -42.523 -46.710  10.037  1.00  0.00     0.065 A 
HETATM    2  C   UNL     1     -41.319 -46.160  10.264  1.00  0.00     0.107 A 
HETATM    3  N   UNL     1     -40.350 -46.848  10.956  1.00  0.00    -0.331 N 
HETATM    4  C   UNL     1     -40.510 -48.126  11.442  1.00  0.00     0.272 A 
HETATM    5  O   UNL     1     -39.616 -48.725  12.037  1.00  0.00    -0.266 OA
HETATM    6  C   UNL     1     -41.851 -48.766  11.203  1.00  0.00     0.104 A 
HETATM    7  C   UNL     1     -42.784 -48.043  10.559  1.00  0.00     0.052 A 
HETATM    8  H   UNL     1     -39.441 -46.425  11.116  1.00  0.00     0.168 HD
ENDROOT
BRANCH   6   9
HETATM    9  N   UNL     1     -42.033 -50.045  11.683  1.00  0.00    -0.321 N 
HETATM   10  C   UNL     1     -42.705 -50.426  12.831  1.00  0.00     0.246 C 
HETATM   11  O   UNL     1     -43.293 -49.681  13.610  1.00  0.00    -0.271 OA
HETATM   12  H   UNL     1     -41.616 -50.782  11.115  1.00  0.00     0.169 HD
BRANCH  10  13
HETATM   13  C   UNL     1     -42.653 -51.930  13.079  1.00  0.00     0.270 C 
BRANCH  13  14
HETATM   14  O   UNL     1     -43.858 -52.589  12.720  1.00  0.00    -0.382 OA
BRANCH  14  15
HETATM   15  C   UNL     1     -44.598 -53.006  13.870  1.00  0.00     0.172 C 
BRANCH  15  16
HETATM   16  C   UNL     1     -46.035 -52.682  13.632  1.00  0.00     0.009 A 
HETATM   17  C   UNL     1     -46.420 -51.546  12.720  1.00  0.00     0.007 A 
HETATM   18  C   UNL     1     -46.645 -51.424  14.202  1.00  0.00     0.007 A 
ENDBRANCH  15  16
ENDBRANCH  14  15
ENDBRANCH  13  14
ENDBRANCH  10  13
ENDBRANCH   6   9
BRANCH   1  19
HETATM   19  C   UNL     1     -43.603 -46.031   9.242  1.00  0.00     0.418 C 
HETATM   20  F   UNL     1     -44.825 -46.601   9.395  1.00  0.00    -0.166 F 
HETATM   21  F   UNL     1     -43.327 -46.054   7.914  1.00  0.00    -0.166 F 
HETATM   22  F   UNL     1     -43.739 -44.725   9.592  1.00  0.00    -0.166 F 
ENDBRANCH   1  19
TORSDOF 6
ENDMDL
MODEL 5
REMARK VINA RESULT:      -5.8      3.816      4.994
REMARK  6 active torsions:
REMARK  status: ('A' for Active; 'I' for Inactive)
REMARK    1  A    between atoms: C_2  and  C_5 
REMARK    2  A    between atoms: C_10  and  N_11 
REMARK       I    between atoms: N_11  and  C_12 
REMARK    3  A    between atoms: C_12  and  C_14 
REMARK    4  A    between atoms: C_14  and  O_15 
REMARK    5  A    between atoms: O_15  and  C_16 
REMARK    6  A    between atoms: C_16  and  C_17 
ROOT
HETATM    1  C   UNL     1     -45.071 -51.904  13.144  1.00  0.00     0.065 A 
HETATM    2  C   UNL     1     -44.645 -53.017  12.524  1.00  0.00     0.107 A 
HETATM    3  N   UNL     1     -43.349 -53.122  12.077  1.00  0.00    -0.331 N 
HETATM    4  C   UNL     1     -42.396 -52.141  12.237  1.00  0.00     0.272 A 
HETATM    5  O   UNL     1     -41.237 -52.273  11.847  1.00  0.00    -0.266 OA
HETATM    6  C   UNL     1     -42.847 -50.882  12.927  1.00  0.00     0.104 A 
HETATM    7  C   UNL     1     -44.133 -50.805  13.311  1.00  0.00     0.052 A 
HETATM    8  H   UNL     1     -43.035 -53.971  11.616  1.00  0.00     0.168 HD
ENDROOT
BRANCH   6   9
HETATM    9  N   UNL     1     -41.910 -49.886  13.096  1.00  0.00    -0.321 N 
HETATM   10  C   UNL     1     -41.692 -48.787  12.284  1.00  0.00     0.246 C 
HETATM   11  O   UNL     1     -42.331 -48.489  11.279  1.00  0.00    -0.271 OA
HETATM   12  H   UNL     1     -41.315 -49.988  13.919  1.00  0.00     0.169 HD
BRANCH  10  13
HETATM   13  C   UNL     1     -40.524 -47.924  12.750  1.00  0.00     0.270 C 
BRANCH  13  14
HETATM   14  O   UNL     1     -39.674 -48.598  13.667  1.00  0.00    -0.382 OA
BRANCH  14  15
HETATM   15  C   UNL     1     -38.346 -48.737  13.155  1.00  0.00     0.172 C 
BRANCH  15  16
HETATM   16  C   UNL     1     -38.336 -49.898  12.219  1.00  0.00     0.009 A 
HETATM   17  C   UNL     1     -37.237 -50.926  12.288  1.00  0.00     0.007 A 
HETATM   18  C   UNL     1     -37.308 -49.988  11.116  1.00  0.00     0.007 A 
ENDBRANCH  15  16
ENDBRANCH  14  15
ENDBRANCH  13  14
ENDBRANCH  10  13
ENDBRANCH   6   9
BRANCH   1  19
HETATM   19  C   UNL     1     -46.458 -51.752  13.702  1.00  0.00     0.418 C 
HETATM   20  F   UNL     1     -46.507 -50.986  14.822  1.00  0.00    -0.166 F 
HETATM   21  F   UNL     1     -46.992 -52.954  14.031  1.00  0.00    -0.166 F 
HETATM   22  F   UNL     1     -47.302 -51.179  12.805  1.00  0.00    -0.166 F 
ENDBRANCH   1  19
TORSDOF 6
ENDMDL
MODEL 6
REMARK VINA RESULT:      -5.8      4.683      7.121
REMARK  6 active torsions:
REMARK  status: ('A' for Active; 'I' for Inactive)
REMARK    1  A    between atoms: C_2  and  C_5 
REMARK    2  A    between atoms: C_10  and  N_11 
REMARK       I    between atoms: N_11  and  C_12 
REMARK    3  A    between atoms: C_12  and  C_14 
REMARK    4  A    between atoms: C_14  and  O_15 
REMARK    5  A    between atoms: O_15  and  C_16 
REMARK    6  A    between atoms: C_16  and  C_17 
ROOT
HETATM    1  C   UNL     1     -43.646 -53.879  13.484  1.00  0.00     0.065 A 
HETATM    2  C   UNL     1     -42.602 -54.562  13.981  1.00  0.00     0.107 A 
HETATM    3  N   UNL     1     -41.312 -54.154  13.733  1.00  0.00    -0.331 N 
HETATM    4  C   UNL     1     -40.984 -53.037  12.999  1.00  0.00     0.272 A 
HETATM    5  O   UNL     1     -39.821 -52.684  12.813  1.00  0.00    -0.266 OA
HETATM    6  C   UNL     1     -42.135 -52.254  12.427  1.00  0.00     0.104 A 
HETATM    7  C   UNL     1     -43.379 -52.711  12.659  1.00  0.00     0.052 A 
HETATM    8  H   UNL     1     -40.530 -54.673  14.120  1.00  0.00     0.168 HD
ENDROOT
BRANCH   6   9
HETATM    9  N   UNL     1     -41.829 -51.134  11.686  1.00  0.00    -0.321 N 
HETATM   10  C   UNL     1     -41.654 -49.840  12.147  1.00  0.00     0.246 C 
HETATM   11  O   UNL     1     -41.707 -49.473  13.317  1.00  0.00    -0.271 OA
HETATM   12  H   UNL     1     -41.726 -51.294  10.684  1.00  0.00     0.169 HD
BRANCH  10  13
HETATM   13  C   UNL     1     -41.382 -48.842  11.027  1.00  0.00     0.270 C 
BRANCH  13  14
HETATM   14  O   UNL     1     -42.057 -47.607  11.216  1.00  0.00    -0.382 OA
BRANCH  14  15
HETATM   15  C   UNL     1     -43.458 -47.722  10.955  1.00  0.00     0.172 C 
BRANCH  15  16
HETATM   16  C   UNL     1     -43.671 -47.503   9.495  1.00  0.00     0.009 A 
HETATM   17  C   UNL     1     -44.159 -46.171   8.985  1.00  0.00     0.007 A 
HETATM   18  C   UNL     1     -45.066 -47.369   8.932  1.00  0.00     0.007 A 
ENDBRANCH  15  16
ENDBRANCH  14  15
ENDBRANCH  13  14
ENDBRANCH  10  13
ENDBRANCH   6   9
BRANCH   1  19
HETATM   19  C   UNL     1     -45.077 -54.243  13.765  1.00  0.00     0.418 C 
HETATM   20  F   UNL     1     -45.348 -55.558  13.565  1.00  0.00    -0.166 F 
HETATM   21  F   UNL     1     -45.928 -53.546  12.972  1.00  0.00    -0.166 F 
HETATM   22  F   UNL     1     -45.423 -53.968  15.050  1.00  0.00    -0.166 F 
ENDBRANCH   1  19
TORSDOF 6
ENDMDL
MODEL 7
REMARK VINA RESULT:      -5.6      4.596      5.850
REMARK  6 active torsions:
REMARK  status: ('A' for Active; 'I' for Inactive)
REMARK    1  A    between atoms: C_2  and  C_5 
REMARK    2  A    between atoms: C_10  and  N_11 
REMARK       I    between atoms: N_11  and  C_12 
REMARK    3  A    between atoms: C_12  and  C_14 
REMARK    4  A    between atoms: C_14  and  O_15 
REMARK    5  A    between atoms: O_15  and  C_16 
REMARK    6  A    between atoms: C_16  and  C_17 
ROOT
HETATM    1  C   UNL     1     -41.144 -45.663  10.541  1.00  0.00     0.065 A 
HETATM    2  C   UNL     1     -42.310 -45.113  10.164  1.00  0.00     0.107 A 
HETATM    3  N   UNL     1     -43.463 -45.862  10.129  1.00  0.00    -0.331 N 
HETATM    4  C   UNL     1     -43.531 -47.191  10.487  1.00  0.00     0.272 A 
HETATM    5  O   UNL     1     -44.581 -47.829  10.467  1.00  0.00    -0.266 OA
HETATM    6  C   UNL     1     -42.237 -47.832  10.911  1.00  0.00     0.104 A 
HETATM    7  C   UNL     1     -41.126 -47.075  10.890  1.00  0.00     0.052 A 
HETATM    8  H   UNL     1     -44.340 -45.435   9.851  1.00  0.00     0.168 HD
ENDROOT
BRANCH   6   9
HETATM    9  N   UNL     1     -42.282 -49.162  11.269  1.00  0.00    -0.321 N 
HETATM   10  C   UNL     1     -42.286 -49.691  12.549  1.00  0.00     0.246 C 
HETATM   11  O   UNL     1     -42.286 -49.053  13.598  1.00  0.00    -0.271 OA
HETATM   12  H   UNL     1     -42.313 -49.819  10.489  1.00  0.00     0.169 HD
BRANCH  10  13
HETATM   13  C   UNL     1     -42.280 -51.215  12.563  1.00  0.00     0.270 C 
BRANCH  13  14
HETATM   14  O   UNL     1     -42.976 -51.758  13.676  1.00  0.00    -0.382 OA
BRANCH  14  15
HETATM   15  C   UNL     1     -44.196 -52.391  13.282  1.00  0.00     0.172 C 
BRANCH  15  16
HETATM   16  C   UNL     1     -45.268 -51.354  13.273  1.00  0.00     0.009 A 
HETATM   17  C   UNL     1     -46.547 -51.570  14.040  1.00  0.00     0.007 A 
HETATM   18  C   UNL     1     -46.564 -51.592  12.537  1.00  0.00     0.007 A 
ENDBRANCH  15  16
ENDBRANCH  14  15
ENDBRANCH  13  14
ENDBRANCH  10  13
ENDBRANCH   6   9
BRANCH   1  19
HETATM   19  C   UNL     1     -39.863 -44.883  10.651  1.00  0.00     0.418 C 
HETATM   20  F   UNL     1     -40.038 -43.542  10.541  1.00  0.00    -0.166 F 
HETATM   21  F   UNL     1     -38.983 -45.241   9.684  1.00  0.00    -0.166 F 
HETATM   22  F   UNL     1     -39.246 -45.096  11.843  1.00  0.00    -0.166 F 
ENDBRANCH   1  19
TORSDOF 6
ENDMDL
MODEL 8
REMARK VINA RESULT:      -5.6      5.698      7.648
REMARK  6 active torsions:
REMARK  status: ('A' for Active; 'I' for Inactive)
REMARK    1  A    between atoms: C_2  and  C_5 
REMARK    2  A    between atoms: C_10  and  N_11 
REMARK       I    between atoms: N_11  and  C_12 
REMARK    3  A    between atoms: C_12  and  C_14 
REMARK    4  A    between atoms: C_14  and  O_15 
REMARK    5  A    between atoms: O_15  and  C_16 
REMARK    6  A    between atoms: C_16  and  C_17 
ROOT
HETATM    1  C   UNL     1     -39.478 -49.794  12.221  1.00  0.00     0.065 A 
HETATM    2  C   UNL     1     -40.036 -48.601  12.485  1.00  0.00     0.107 A 
HETATM    3  N   UNL     1     -41.401 -48.470  12.593  1.00  0.00    -0.331 N 
HETATM    4  C   UNL     1     -42.288 -49.516  12.468  1.00  0.00     0.272 A 
HETATM    5  O   UNL     1     -43.503 -49.373  12.593  1.00  0.00    -0.266 OA
HETATM    6  C   UNL     1     -41.689 -50.864  12.170  1.00  0.00     0.104 A 
HETATM    7  C   UNL     1     -40.354 -50.939  12.031  1.00  0.00     0.052 A 
HETATM    8  H   UNL     1     -41.812 -47.565  12.800  1.00  0.00     0.168 HD
ENDROOT
BRANCH   6   9
HETATM    9  N   UNL     1     -42.559 -51.924  12.038  1.00  0.00    -0.321 N 
HETATM   10  C   UNL     1     -42.968 -52.807  13.023  1.00  0.00     0.246 C 
HETATM   11  O   UNL     1     -42.646 -52.773  14.207  1.00  0.00    -0.271 OA
HETATM   12  H   UNL     1     -42.935 -52.061  11.099  1.00  0.00     0.169 HD
BRANCH  10  13
HETATM   13  C   UNL     1     -43.895 -53.897  12.497  1.00  0.00     0.270 C 
BRANCH  13  14
HETATM   14  O   UNL     1     -45.269 -53.550  12.604  1.00  0.00    -0.382 OA
BRANCH  14  15
HETATM   15  C   UNL     1     -45.800 -53.875  13.891  1.00  0.00     0.172 C 
BRANCH  15  16
HETATM   16  C   UNL     1     -46.777 -52.811  14.264  1.00  0.00     0.009 A 
HETATM   17  C   UNL     1     -46.506 -51.370  13.916  1.00  0.00     0.007 A 
HETATM   18  C   UNL     1     -46.452 -51.815  15.351  1.00  0.00     0.007 A 
ENDBRANCH  15  16
ENDBRANCH  14  15
ENDBRANCH  13  14
ENDBRANCH  10  13
ENDBRANCH   6   9
BRANCH   1  19
HETATM   19  C   UNL     1     -37.993 -50.009  12.146  1.00  0.00     0.418 C 
HETATM   20  F   UNL     1     -37.588 -51.178  12.705  1.00  0.00    -0.166 F 
HETATM   21  F   UNL     1     -37.317 -49.020  12.782  1.00  0.00    -0.166 F 
HETATM   22  F   UNL     1     -37.551 -50.024  10.861  1.00  0.00    -0.166 F 
ENDBRANCH   1  19
TORSDOF 6
ENDMDL
MODEL 9
REMARK VINA RESULT:      -5.4      5.603      6.584
REMARK  6 active torsions:
REMARK  status: ('A' for Active; 'I' for Inactive)
REMARK    1  A    between atoms: C_2  and  C_5 
REMARK    2  A    between atoms: C_10  and  N_11 
REMARK       I    between atoms: N_11  and  C_12 
REMARK    3  A    between atoms: C_12  and  C_14 
REMARK    4  A    between atoms: C_14  and  O_15 
REMARK    5  A    between atoms: O_15  and  C_16 
REMARK    6  A    between atoms: C_16  and  C_17 
ROOT
HETATM    1  C   UNL     1     -46.646 -51.933  15.402  1.00  0.00     0.065 A 
HETATM    2  C   UNL     1     -47.015 -53.125  14.904  1.00  0.00     0.107 A 
HETATM    3  N   UNL     1     -46.442 -53.615  13.754  1.00  0.00    -0.331 N 
HETATM    4  C   UNL     1     -45.455 -52.965  13.046  1.00  0.00     0.272 A 
HETATM    5  O   UNL     1     -44.944 -53.440  12.034  1.00  0.00    -0.266 OA
HETATM    6  C   UNL     1     -45.024 -51.626  13.582  1.00  0.00     0.104 A 
HETATM    7  C   UNL     1     -45.640 -51.166  14.685  1.00  0.00     0.052 A 
HETATM    8  H   UNL     1     -46.723 -54.520  13.390  1.00  0.00     0.168 HD
ENDROOT
BRANCH   6   9
HETATM    9  N   UNL     1     -44.040 -50.958  12.887  1.00  0.00    -0.321 N 
HETATM   10  C   UNL     1     -42.670 -51.118  13.001  1.00  0.00     0.246 C 
HETATM   11  O   UNL     1     -42.091 -51.922  13.727  1.00  0.00    -0.271 OA
HETATM   12  H   UNL     1     -44.378 -50.267  12.217  1.00  0.00     0.169 HD
BRANCH  10  13
HETATM   13  C   UNL     1     -41.882 -50.161  12.113  1.00  0.00     0.270 C 
BRANCH  13  14
HETATM   14  O   UNL     1     -40.660 -50.717  11.652  1.00  0.00    -0.382 OA
BRANCH  14  15
HETATM   15  C   UNL     1     -39.639 -49.725  11.524  1.00  0.00     0.172 C 
BRANCH  15  16
HETATM   16  C   UNL     1     -38.370 -50.303  12.053  1.00  0.00     0.009 A 
HETATM   17  C   UNL     1     -38.381 -51.166  13.288  1.00  0.00     0.007 A 
HETATM   18  C   UNL     1     -37.770 -49.794  13.341  1.00  0.00     0.007 A 
ENDBRANCH  15  16
ENDBRANCH  14  15
ENDBRANCH  13  14
ENDBRANCH  10  13
ENDBRANCH   6   9
BRANCH   1  19
HETATM   19  C   UNL     1     -47.196 -51.370  16.683  1.00  0.00     0.418 C 
HETATM   20  F   UNL     1     -48.474 -50.927  16.571  1.00  0.00    -0.166 F 
HETATM   21  F   UNL     1     -46.457 -50.318  17.117  1.00  0.00    -0.166 F 
HETATM   22  F   UNL     1     -47.193 -52.291  17.681  1.00  0.00    -0.166 F 
ENDBRANCH   1  19
TORSDOF 6
ENDMDL
