MODEL 1
REMARK VINA RESULT:      -6.3      0.000      0.000
REMARK  3 active torsions:
REMARK  status: ('A' for Active; 'I' for Inactive)
REMARK    1  A    between atoms: C_2  and  C_5 
REMARK    2  A    between atoms: C_10  and  N_11 
REMARK       I    between atoms: N_11  and  C_12 
REMARK    3  A    between atoms: C_12  and  C_14 
ROOT
HETATM    1  C   UNL     1     -45.365 -47.288   9.311  1.00  0.00     0.065 A 
HETATM    2  C   UNL     1     -45.244 -46.025   8.867  1.00  0.00     0.107 A 
HETATM    3  N   UNL     1     -44.136 -45.269   9.184  1.00  0.00    -0.331 N 
HETATM    4  C   UNL     1     -43.069 -45.723   9.927  1.00  0.00     0.272 A 
HETATM    5  O   UNL     1     -42.097 -45.028  10.194  1.00  0.00    -0.266 OA
HETATM    6  C   UNL     1     -43.165 -47.157  10.388  1.00  0.00     0.104 A 
HETATM    7  C   UNL     1     -44.295 -47.835  10.124  1.00  0.00     0.052 A 
HETATM    8  H   UNL     1     -44.060 -44.317   8.835  1.00  0.00     0.168 HD
ENDROOT
BRANCH   6   9
HETATM    9  N   UNL     1     -42.088 -47.682  11.070  1.00  0.00    -0.320 N 
HETATM   10  C   UNL     1     -41.954 -47.693  12.449  1.00  0.00     0.253 C 
HETATM   11  O   UNL     1     -42.871 -47.428  13.225  1.00  0.00    -0.270 OA
HETATM   12  H   UNL     1     -41.428 -48.233  10.524  1.00  0.00     0.169 HD
BRANCH  10  13
HETATM   13  C   UNL     1     -40.576 -48.150  12.954  1.00  0.00     0.237 C 
HETATM   14  C   UNL     1     -39.706 -48.553  11.755  1.00  0.00     0.209 C 
HETATM   15  O   UNL     1     -40.164 -49.792  11.185  1.00  0.00    -0.386 OA
HETATM   16  C   UNL     1     -40.150 -50.829  12.167  1.00  0.00     0.193 C 
HETATM   17  C   UNL     1     -40.985 -50.447  13.389  1.00  0.00     0.195 C 
HETATM   18  O   UNL     1     -40.594 -49.183  13.943  1.00  0.00    -0.372 OA
ENDBRANCH  10  13
ENDBRANCH   6   9
BRANCH   1  19
HETATM   19  C   UNL     1     -46.522 -48.182   8.954  1.00  0.00     0.418 C 
HETATM   20  F   UNL     1     -46.653 -49.254   9.777  1.00  0.00    -0.166 F 
HETATM   21  F   UNL     1     -46.400 -48.669   7.692  1.00  0.00    -0.166 F 
HETATM   22  F   UNL     1     -47.702 -47.511   9.002  1.00  0.00    -0.166 F 
ENDBRANCH   1  19
TORSDOF 3
ENDMDL
MODEL 2
REMARK VINA RESULT:      -5.9      5.773      7.040
REMARK  3 active torsions:
REMARK  status: ('A' for Active; 'I' for Inactive)
REMARK    1  A    between atoms: C_2  and  C_5 
REMARK    2  A    between atoms: C_10  and  N_11 
REMARK       I    between atoms: N_11  and  C_12 
REMARK    3  A    between atoms: C_12  and  C_14 
ROOT
HETATM    1  C   UNL     1     -45.387 -52.745  13.595  1.00  0.00     0.065 A 
HETATM    2  C   UNL     1     -45.997 -53.875  13.990  1.00  0.00     0.107 A 
HETATM    3  N   UNL     1     -45.271 -54.918  14.525  1.00  0.00    -0.331 N 
HETATM    4  C   UNL     1     -43.910 -54.895  14.733  1.00  0.00     0.272 A 
HETATM    5  O   UNL     1     -43.290 -55.837  15.211  1.00  0.00    -0.266 OA
HETATM    6  C   UNL     1     -43.217 -53.611  14.344  1.00  0.00     0.104 A 
HETATM    7  C   UNL     1     -43.948 -52.648  13.756  1.00  0.00     0.052 A 
HETATM    8  H   UNL     1     -45.750 -55.764  14.822  1.00  0.00     0.168 HD
ENDROOT
BRANCH   6   9
HETATM    9  N   UNL     1     -41.867 -53.509  14.604  1.00  0.00    -0.320 N 
HETATM   10  C   UNL     1     -40.864 -53.929  13.746  1.00  0.00     0.253 C 
HETATM   11  O   UNL     1     -41.057 -54.243  12.573  1.00  0.00    -0.270 OA
HETATM   12  H   UNL     1     -41.600 -52.948  15.411  1.00  0.00     0.169 HD
BRANCH  10  13
HETATM   13  C   UNL     1     -39.451 -53.892  14.350  1.00  0.00     0.237 C 
HETATM   14  C   UNL     1     -39.533 -53.400  15.802  1.00  0.00     0.209 C 
HETATM   15  O   UNL     1     -39.839 -51.995  15.848  1.00  0.00    -0.386 OA
HETATM   16  C   UNL     1     -38.853 -51.245  15.135  1.00  0.00     0.193 C 
HETATM   17  C   UNL     1     -38.725 -51.731  13.691  1.00  0.00     0.195 C 
HETATM   18  O   UNL     1     -38.484 -53.142  13.610  1.00  0.00    -0.372 OA
ENDBRANCH  10  13
ENDBRANCH   6   9
BRANCH   1  19
HETATM   19  C   UNL     1     -46.128 -51.551  13.055  1.00  0.00     0.418 C 
HETATM   20  F   UNL     1     -46.834 -51.817  11.925  1.00  0.00    -0.166 F 
HETATM   21  F   UNL     1     -45.278 -50.535  12.755  1.00  0.00    -0.166 F 
HETATM   22  F   UNL     1     -47.015 -51.065  13.961  1.00  0.00    -0.166 F 
ENDBRANCH   1  19
TORSDOF 3
ENDMDL
MODEL 3
REMARK VINA RESULT:      -5.8      4.801      6.739
REMARK  3 active torsions:
REMARK  status: ('A' for Active; 'I' for Inactive)
REMARK    1  A    between atoms: C_2  and  C_5 
REMARK    2  A    between atoms: C_10  and  N_11 
REMARK       I    between atoms: N_11  and  C_12 
REMARK    3  A    between atoms: C_12  and  C_14 
ROOT
HETATM    1  C   UNL     1     -39.247 -49.050  11.694  1.00  0.00     0.065 A 
HETATM    2  C   UNL     1     -40.167 -49.682  10.944  1.00  0.00     0.107 A 
HETATM    3  N   UNL     1     -41.289 -49.017  10.499  1.00  0.00    -0.331 N 
HETATM    4  C   UNL     1     -41.554 -47.686  10.736  1.00  0.00     0.272 A 
HETATM    5  O   UNL     1     -42.561 -47.121  10.328  1.00  0.00    -0.266 OA
HETATM    6  C   UNL     1     -40.502 -46.949  11.531  1.00  0.00     0.104 A 
HETATM    7  C   UNL     1     -39.461 -47.651  12.012  1.00  0.00     0.052 A 
HETATM    8  H   UNL     1     -41.973 -49.509   9.930  1.00  0.00     0.168 HD
ENDROOT
BRANCH   6   9
HETATM    9  N   UNL     1     -40.683 -45.597  11.729  1.00  0.00    -0.320 N 
HETATM   10  C   UNL     1     -40.340 -44.612  10.818  1.00  0.00     0.253 C 
HETATM   11  O   UNL     1     -40.033 -44.841   9.649  1.00  0.00    -0.270 OA
HETATM   12  H   UNL     1     -41.246 -45.326  12.533  1.00  0.00     0.169 HD
BRANCH  10  13
HETATM   13  C   UNL     1     -40.454 -43.177  11.356  1.00  0.00     0.237 C 
HETATM   14  C   UNL     1     -40.672 -43.221  12.874  1.00  0.00     0.209 C 
HETATM   15  O   UNL     1     -41.996 -43.689  13.187  1.00  0.00    -0.386 OA
HETATM   16  C   UNL     1     -42.980 -42.850  12.578  1.00  0.00     0.193 C 
HETATM   17  C   UNL     1     -42.773 -42.760  11.067  1.00  0.00     0.195 C 
HETATM   18  O   UNL     1     -41.440 -42.357  10.721  1.00  0.00    -0.372 OA
ENDBRANCH  10  13
ENDBRANCH   6   9
BRANCH   1  19
HETATM   19  C   UNL     1     -37.975 -49.704  12.163  1.00  0.00     0.418 C 
HETATM   20  F   UNL     1     -37.445 -49.125  13.271  1.00  0.00    -0.166 F 
HETATM   21  F   UNL     1     -37.015 -49.664  11.203  1.00  0.00    -0.166 F 
HETATM   22  F   UNL     1     -38.171 -51.013  12.467  1.00  0.00    -0.166 F 
ENDBRANCH   1  19
TORSDOF 3
ENDMDL
MODEL 4
REMARK VINA RESULT:      -5.8      6.480      8.028
REMARK  3 active torsions:
REMARK  status: ('A' for Active; 'I' for Inactive)
REMARK    1  A    between atoms: C_2  and  C_5 
REMARK    2  A    between atoms: C_10  and  N_11 
REMARK       I    between atoms: N_11  and  C_12 
REMARK    3  A    between atoms: C_12  and  C_14 
ROOT
HETATM    1  C   UNL     1     -44.086 -54.138  13.627  1.00  0.00     0.065 A 
HETATM    2  C   UNL     1     -43.834 -53.552  12.444  1.00  0.00     0.107 A 
HETATM    3  N   UNL     1     -42.547 -53.210  12.087  1.00  0.00    -0.331 N 
HETATM    4  C   UNL     1     -41.432 -53.458  12.858  1.00  0.00     0.272 A 
HETATM    5  O   UNL     1     -40.299 -53.143  12.515  1.00  0.00    -0.266 OA
HETATM    6  C   UNL     1     -41.693 -54.166  14.166  1.00  0.00     0.104 A 
HETATM    7  C   UNL     1     -42.969 -54.411  14.511  1.00  0.00     0.052 A 
HETATM    8  H   UNL     1     -42.374 -52.771  11.187  1.00  0.00     0.168 HD
ENDROOT
BRANCH   6   9
HETATM    9  N   UNL     1     -40.603 -54.504  14.938  1.00  0.00    -0.320 N 
HETATM   10  C   UNL     1     -40.070 -53.715  15.944  1.00  0.00     0.253 C 
HETATM   11  O   UNL     1     -40.635 -52.723  16.403  1.00  0.00    -0.270 OA
HETATM   12  H   UNL     1     -40.270 -55.464  14.860  1.00  0.00     0.169 HD
BRANCH  10  13
HETATM   13  C   UNL     1     -38.738 -54.222  16.517  1.00  0.00     0.237 C 
HETATM   14  C   UNL     1     -38.373 -55.554  15.847  1.00  0.00     0.209 C 
HETATM   15  O   UNL     1     -39.236 -56.610  16.304  1.00  0.00    -0.386 OA
HETATM   16  C   UNL     1     -39.156 -56.742  17.724  1.00  0.00     0.193 C 
HETATM   17  C   UNL     1     -39.485 -55.423  18.423  1.00  0.00     0.195 C 
HETATM   18  O   UNL     1     -38.683 -54.336  17.942  1.00  0.00    -0.372 OA
ENDBRANCH  10  13
ENDBRANCH   6   9
BRANCH   1  19
HETATM   19  C   UNL     1     -45.460 -54.584  14.050  1.00  0.00     0.418 C 
HETATM   20  F   UNL     1     -45.774 -55.839  13.637  1.00  0.00    -0.166 F 
HETATM   21  F   UNL     1     -46.421 -53.758  13.560  1.00  0.00    -0.166 F 
HETATM   22  F   UNL     1     -45.591 -54.577  15.402  1.00  0.00    -0.166 F 
ENDBRANCH   1  19
TORSDOF 3
ENDMDL
MODEL 5
REMARK VINA RESULT:      -5.6      5.760      7.782
REMARK  3 active torsions:
REMARK  status: ('A' for Active; 'I' for Inactive)
REMARK    1  A    between atoms: C_2  and  C_5 
REMARK    2  A    between atoms: C_10  and  N_11 
REMARK       I    between atoms: N_11  and  C_12 
REMARK    3  A    between atoms: C_12  and  C_14 
ROOT
HETATM    1  C   UNL     1     -39.007 -50.861  12.593  1.00  0.00     0.065 A 
HETATM    2  C   UNL     1     -38.383 -51.655  13.480  1.00  0.00     0.107 A 
HETATM    3  N   UNL     1     -39.026 -52.746  14.024  1.00  0.00    -0.331 N 
HETATM    4  C   UNL     1     -40.306 -53.138  13.701  1.00  0.00     0.272 A 
HETATM    5  O   UNL     1     -40.854 -54.113  14.200  1.00  0.00    -0.266 OA
HETATM    6  C   UNL     1     -41.002 -52.288  12.664  1.00  0.00     0.104 A 
HETATM    7  C   UNL     1     -40.369 -51.189  12.216  1.00  0.00     0.052 A 
HETATM    8  H   UNL     1     -38.537 -53.338  14.690  1.00  0.00     0.168 HD
ENDROOT
BRANCH   6   9
HETATM    9  N   UNL     1     -42.256 -52.683  12.251  1.00  0.00    -0.320 N 
HETATM   10  C   UNL     1     -43.441 -52.334  12.877  1.00  0.00     0.253 C 
HETATM   11  O   UNL     1     -43.525 -51.465  13.742  1.00  0.00    -0.270 OA
HETATM   12  H   UNL     1     -42.314 -53.131  11.337  1.00  0.00     0.169 HD
BRANCH  10  13
HETATM   13  C   UNL     1     -44.684 -53.065  12.344  1.00  0.00     0.237 C 
HETATM   14  C   UNL     1     -45.943 -52.430  12.950  1.00  0.00     0.209 C 
HETATM   15  O   UNL     1     -46.062 -52.761  14.345  1.00  0.00    -0.386 OA
HETATM   16  C   UNL     1     -46.100 -54.179  14.520  1.00  0.00     0.193 C 
HETATM   17  C   UNL     1     -44.872 -54.847  13.901  1.00  0.00     0.195 C 
HETATM   18  O   UNL     1     -44.689 -54.484  12.525  1.00  0.00    -0.372 OA
ENDBRANCH  10  13
ENDBRANCH   6   9
BRANCH   1  19
HETATM   19  C   UNL     1     -38.342 -49.689  11.923  1.00  0.00     0.418 C 
HETATM   20  F   UNL     1     -37.573 -50.037  10.859  1.00  0.00    -0.166 F 
HETATM   21  F   UNL     1     -37.534 -49.019  12.786  1.00  0.00    -0.166 F 
HETATM   22  F   UNL     1     -39.254 -48.794  11.465  1.00  0.00    -0.166 F 
ENDBRANCH   1  19
TORSDOF 3
ENDMDL
MODEL 6
REMARK VINA RESULT:      -5.6      4.375      5.301
REMARK  3 active torsions:
REMARK  status: ('A' for Active; 'I' for Inactive)
REMARK    1  A    between atoms: C_2  and  C_5 
REMARK    2  A    between atoms: C_10  and  N_11 
REMARK       I    between atoms: N_11  and  C_12 
REMARK    3  A    between atoms: C_12  and  C_14 
ROOT
HETATM    1  C   UNL     1     -45.008 -51.944  13.160  1.00  0.00     0.065 A 
HETATM    2  C   UNL     1     -44.667 -53.045  12.469  1.00  0.00     0.107 A 
HETATM    3  N   UNL     1     -43.383 -53.210  11.995  1.00  0.00    -0.331 N 
HETATM    4  C   UNL     1     -42.354 -52.319  12.204  1.00  0.00     0.272 A 
HETATM    5  O   UNL     1     -41.222 -52.491  11.770  1.00  0.00    -0.266 OA
HETATM    6  C   UNL     1     -42.708 -51.102  13.025  1.00  0.00     0.104 A 
HETATM    7  C   UNL     1     -43.988 -50.941  13.402  1.00  0.00     0.052 A 
HETATM    8  H   UNL     1     -43.141 -54.051  11.479  1.00  0.00     0.168 HD
ENDROOT
BRANCH   6   9
HETATM    9  N   UNL     1     -41.695 -50.217  13.326  1.00  0.00    -0.320 N 
HETATM   10  C   UNL     1     -40.957 -50.231  14.498  1.00  0.00     0.253 C 
HETATM   11  O   UNL     1     -40.978 -51.157  15.307  1.00  0.00    -0.270 OA
HETATM   12  H   UNL     1     -41.372 -49.619  12.567  1.00  0.00     0.169 HD
BRANCH  10  13
HETATM   13  C   UNL     1     -40.026 -49.021  14.681  1.00  0.00     0.237 C 
HETATM   14  C   UNL     1     -39.988 -48.210  13.378  1.00  0.00     0.209 C 
HETATM   15  O   UNL     1     -39.255 -48.913  12.359  1.00  0.00    -0.386 OA
HETATM   16  C   UNL     1     -37.924 -49.186  12.801  1.00  0.00     0.193 C 
HETATM   17  C   UNL     1     -37.925 -49.969  14.114  1.00  0.00     0.195 C 
HETATM   18  O   UNL     1     -38.703 -49.325  15.132  1.00  0.00    -0.372 OA
ENDBRANCH  10  13
ENDBRANCH   6   9
BRANCH   1  19
HETATM   19  C   UNL     1     -46.376 -51.730  13.749  1.00  0.00     0.418 C 
HETATM   20  F   UNL     1     -47.249 -51.137  12.895  1.00  0.00    -0.166 F 
HETATM   21  F   UNL     1     -46.320 -50.947  14.858  1.00  0.00    -0.166 F 
HETATM   22  F   UNL     1     -46.944 -52.905  14.129  1.00  0.00    -0.166 F 
ENDBRANCH   1  19
TORSDOF 3
ENDMDL
MODEL 7
REMARK VINA RESULT:      -5.6      4.605      6.423
REMARK  3 active torsions:
REMARK  status: ('A' for Active; 'I' for Inactive)
REMARK    1  A    between atoms: C_2  and  C_5 
REMARK    2  A    between atoms: C_10  and  N_11 
REMARK       I    between atoms: N_11  and  C_12 
REMARK    3  A    between atoms: C_12  and  C_14 
ROOT
HETATM    1  C   UNL     1     -42.103 -49.394  12.064  1.00  0.00     0.065 A 
HETATM    2  C   UNL     1     -40.950 -49.703  11.447  1.00  0.00     0.107 A 
HETATM    3  N   UNL     1     -40.479 -50.999  11.440  1.00  0.00    -0.331 N 
HETATM    4  C   UNL     1     -41.132 -52.069  12.010  1.00  0.00     0.272 A 
HETATM    5  O   UNL     1     -40.690 -53.211  11.990  1.00  0.00    -0.266 OA
HETATM    6  C   UNL     1     -42.456 -51.747  12.662  1.00  0.00     0.104 A 
HETATM    7  C   UNL     1     -42.842 -50.460  12.714  1.00  0.00     0.052 A 
HETATM    8  H   UNL     1     -39.608 -51.215  10.964  1.00  0.00     0.168 HD
ENDROOT
BRANCH   6   9
HETATM    9  N   UNL     1     -43.185 -52.796  13.180  1.00  0.00    -0.320 N 
HETATM   10  C   UNL     1     -43.015 -53.327  14.448  1.00  0.00     0.253 C 
HETATM   11  O   UNL     1     -42.345 -52.789  15.328  1.00  0.00    -0.270 OA
HETATM   12  H   UNL     1     -44.001 -53.091  12.646  1.00  0.00     0.169 HD
BRANCH  10  13
HETATM   13  C   UNL     1     -43.806 -54.617  14.713  1.00  0.00     0.237 C 
HETATM   14  C   UNL     1     -44.826 -54.826  13.584  1.00  0.00     0.209 C 
HETATM   15  O   UNL     1     -45.899 -53.874  13.682  1.00  0.00    -0.386 OA
HETATM   16  C   UNL     1     -46.549 -53.982  14.950  1.00  0.00     0.193 C 
HETATM   17  C   UNL     1     -45.555 -53.808  16.099  1.00  0.00     0.195 C 
HETATM   18  O   UNL     1     -44.438 -54.701  15.993  1.00  0.00    -0.372 OA
ENDBRANCH  10  13
ENDBRANCH   6   9
BRANCH   1  19
HETATM   19  C   UNL     1     -42.697 -48.011  12.060  1.00  0.00     0.418 C 
HETATM   20  F   UNL     1     -41.888 -47.075  11.501  1.00  0.00    -0.166 F 
HETATM   21  F   UNL     1     -42.973 -47.588  13.321  1.00  0.00    -0.166 F 
HETATM   22  F   UNL     1     -43.866 -47.974  11.370  1.00  0.00    -0.166 F 
ENDBRANCH   1  19
TORSDOF 3
ENDMDL
MODEL 8
REMARK VINA RESULT:      -5.6      6.333      7.198
REMARK  3 active torsions:
REMARK  status: ('A' for Active; 'I' for Inactive)
REMARK    1  A    between atoms: C_2  and  C_5 
REMARK    2  A    between atoms: C_10  and  N_11 
REMARK       I    between atoms: N_11  and  C_12 
REMARK    3  A    between atoms: C_12  and  C_14 
ROOT
HETATM    1  C   UNL     1     -46.181 -52.094  15.486  1.00  0.00     0.065 A 
HETATM    2  C   UNL     1     -47.048 -52.793  14.734  1.00  0.00     0.107 A 
HETATM    3  N   UNL     1     -46.600 -53.620  13.726  1.00  0.00    -0.331 N 
HETATM    4  C   UNL     1     -45.273 -53.833  13.424  1.00  0.00     0.272 A 
HETATM    5  O   UNL     1     -44.902 -54.574  12.522  1.00  0.00    -0.266 OA
HETATM    6  C   UNL     1     -44.284 -53.096  14.297  1.00  0.00     0.104 A 
HETATM    7  C   UNL     1     -44.763 -52.241  15.217  1.00  0.00     0.052 A 
HETATM    8  H   UNL     1     -47.269 -54.144  13.170  1.00  0.00     0.168 HD
ENDROOT
BRANCH   6   9
HETATM    9  N   UNL     1     -42.943 -53.335  14.085  1.00  0.00    -0.320 N 
HETATM   10  C   UNL     1     -42.189 -52.763  13.074  1.00  0.00     0.253 C 
HETATM   11  O   UNL     1     -42.575 -51.820  12.385  1.00  0.00    -0.270 OA
HETATM   12  H   UNL     1     -42.451 -53.845  14.816  1.00  0.00     0.169 HD
BRANCH  10  13
HETATM   13  C   UNL     1     -40.774 -53.344  12.926  1.00  0.00     0.237 C 
HETATM   14  C   UNL     1     -40.444 -54.194  14.160  1.00  0.00     0.209 C 
HETATM   15  O   UNL     1     -40.230 -53.360  15.313  1.00  0.00    -0.386 OA
HETATM   16  C   UNL     1     -39.175 -52.428  15.068  1.00  0.00     0.193 C 
HETATM   17  C   UNL     1     -39.458 -51.584  13.825  1.00  0.00     0.195 C 
HETATM   18  O   UNL     1     -39.739 -52.389  12.672  1.00  0.00    -0.372 OA
ENDBRANCH  10  13
ENDBRANCH   6   9
BRANCH   1  19
HETATM   19  C   UNL     1     -46.605 -51.218  16.635  1.00  0.00     0.418 C 
HETATM   20  F   UNL     1     -45.874 -50.079  16.746  1.00  0.00    -0.166 F 
HETATM   21  F   UNL     1     -46.494 -51.871  17.821  1.00  0.00    -0.166 F 
HETATM   22  F   UNL     1     -47.903 -50.837  16.518  1.00  0.00    -0.166 F 
ENDBRANCH   1  19
TORSDOF 3
ENDMDL
MODEL 9
REMARK VINA RESULT:      -5.5      3.353      5.341
REMARK  3 active torsions:
REMARK  status: ('A' for Active; 'I' for Inactive)
REMARK    1  A    between atoms: C_2  and  C_5 
REMARK    2  A    between atoms: C_10  and  N_11 
REMARK       I    between atoms: N_11  and  C_12 
REMARK    3  A    between atoms: C_12  and  C_14 
ROOT
HETATM    1  C   UNL     1     -43.138 -47.112   9.783  1.00  0.00     0.065 A 
HETATM    2  C   UNL     1     -42.280 -48.140   9.909  1.00  0.00     0.107 A 
HETATM    3  N   UNL     1     -41.100 -47.992  10.606  1.00  0.00    -0.331 N 
HETATM    4  C   UNL     1     -40.713 -46.837  11.247  1.00  0.00     0.272 A 
HETATM    5  O   UNL     1     -39.657 -46.733  11.860  1.00  0.00    -0.266 OA
HETATM    6  C   UNL     1     -41.690 -45.689  11.161  1.00  0.00     0.104 A 
HETATM    7  C   UNL     1     -42.793 -45.849  10.408  1.00  0.00     0.052 A 
HETATM    8  H   UNL     1     -40.466 -48.781  10.694  1.00  0.00     0.168 HD
ENDROOT
BRANCH   6   9
HETATM    9  N   UNL     1     -41.384 -44.535  11.851  1.00  0.00    -0.320 N 
HETATM   10  C   UNL     1     -40.561 -43.527  11.378  1.00  0.00     0.253 C 
HETATM   11  O   UNL     1     -40.182 -43.447  10.211  1.00  0.00    -0.270 OA
HETATM   12  H   UNL     1     -41.925 -44.352  12.694  1.00  0.00     0.169 HD
BRANCH  10  13
HETATM   13  C   UNL     1     -40.216 -42.445  12.414  1.00  0.00     0.237 C 
HETATM   14  C   UNL     1     -41.001 -42.712  13.705  1.00  0.00     0.209 C 
HETATM   15  O   UNL     1     -42.398 -42.419  13.524  1.00  0.00    -0.386 OA
HETATM   16  C   UNL     1     -42.575 -41.060  13.119  1.00  0.00     0.193 C 
HETATM   17  C   UNL     1     -41.781 -40.752  11.849  1.00  0.00     0.195 C 
HETATM   18  O   UNL     1     -40.394 -41.095  11.977  1.00  0.00    -0.372 OA
ENDBRANCH  10  13
ENDBRANCH   6   9
BRANCH   1  19
HETATM   19  C   UNL     1     -44.465 -47.225   9.083  1.00  0.00     0.418 C 
HETATM   20  F   UNL     1     -44.426 -48.002   7.970  1.00  0.00    -0.166 F 
HETATM   21  F   UNL     1     -44.925 -46.007   8.694  1.00  0.00    -0.166 F 
HETATM   22  F   UNL     1     -45.412 -47.760   9.896  1.00  0.00    -0.166 F 
ENDBRANCH   1  19
TORSDOF 3
ENDMDL
