MODEL 1
REMARK VINA RESULT:      -6.6      0.000      0.000
REMARK  4 active torsions:
REMARK  status: ('A' for Active; 'I' for Inactive)
REMARK    1  A    between atoms: C_4  and  C_5 
REMARK    2  A    between atoms: C_5  and  C_6 
REMARK       I    between atoms: C_6  and  N_8 
REMARK    3  A    between atoms: N_8  and  C_9 
REMARK    4  A    between atoms: C_9  and  C_10 
ROOT
HETATM    1  C   UNL     1     -43.082 -48.873  12.596  1.00  0.00     0.223 C 
HETATM    2  O   UNL     1     -43.149 -48.108  13.555  1.00  0.00    -0.273 OA
HETATM    3  N   UNL     1     -43.636 -50.144  12.612  1.00  0.00    -0.360 N 
HETATM    4  H   UNL     1     -43.352 -50.804  11.901  1.00  0.00     0.162 HD
ENDROOT
BRANCH   1   5
HETATM    5  C   UNL     1     -42.355 -48.519  11.312  1.00  0.00     0.161 C 
BRANCH   5   6
HETATM    6  C   UNL     1     -40.942 -48.992  11.313  1.00  0.00     0.036 A 
HETATM    7  C   UNL     1     -39.937 -48.738  12.276  1.00  0.00     0.053 A 
HETATM    8  C   UNL     1     -38.838 -49.449  11.852  1.00  0.00     0.024 A 
HETATM    9  C   UNL     1     -37.487 -49.612  12.430  1.00  0.00     0.070 C 
HETATM   10  N   UNL     1     -39.220 -50.057  10.690  1.00  0.00    -0.305 N 
HETATM   11  N   UNL     1     -40.500 -49.815  10.349  1.00  0.00    -0.304 N 
HETATM   12  H   UNL     1     -38.675 -50.665  10.091  1.00  0.00     0.186 HD
ATOM     13  HN  UNL     1     -41.015 -50.173   9.543  1.00  0.00     0.186 HD
ENDBRANCH   5   6
ENDBRANCH   1   5
BRANCH   3  14
HETATM   14  C   UNL     1     -44.269 -50.651  13.810  1.00  0.00     0.127 C 
BRANCH  14  15
HETATM   15  C   UNL     1     -45.492 -51.541  13.525  1.00  0.00     0.003 C 
HETATM   16  C   UNL     1     -46.036 -52.257  14.772  1.00  0.00     0.007 C 
HETATM   17  C   UNL     1     -45.109 -53.353  15.304  1.00  0.00     0.009 C 
HETATM   18  C   UNL     1     -44.586 -54.344  14.234  1.00  0.00    -0.048 C 
HETATM   19  C   UNL     1     -43.390 -55.116  14.830  1.00  0.00     0.015 C 
HETATM   20  C   UNL     1     -45.672 -55.369  13.857  1.00  0.00     0.015 C 
HETATM   21  C   UNL     1     -44.121 -53.602  12.960  1.00  0.00     0.009 C 
HETATM   22  C   UNL     1     -45.151 -52.587  12.455  1.00  0.00     0.007 C 
ENDBRANCH  14  15
ENDBRANCH   3  14
TORSDOF 4
ENDMDL
MODEL 2
REMARK VINA RESULT:      -6.6      2.009      3.440
REMARK  4 active torsions:
REMARK  status: ('A' for Active; 'I' for Inactive)
REMARK    1  A    between atoms: C_4  and  C_5 
REMARK    2  A    between atoms: C_5  and  C_6 
REMARK       I    between atoms: C_6  and  N_8 
REMARK    3  A    between atoms: N_8  and  C_9 
REMARK    4  A    between atoms: C_9  and  C_10 
ROOT
HETATM    1  C   UNL     1     -40.242 -51.967  12.711  1.00  0.00     0.223 C 
HETATM    2  O   UNL     1     -39.716 -52.940  13.247  1.00  0.00    -0.273 OA
HETATM    3  N   UNL     1     -41.603 -51.896  12.461  1.00  0.00    -0.360 N 
HETATM    4  H   UNL     1     -41.941 -51.192  11.818  1.00  0.00     0.162 HD
ENDROOT
BRANCH   1   5
HETATM    5  C   UNL     1     -39.450 -50.762  12.236  1.00  0.00     0.161 C 
BRANCH   5   6
HETATM    6  C   UNL     1     -40.311 -49.752  11.556  1.00  0.00     0.036 A 
HETATM    7  C   UNL     1     -40.922 -48.607  12.118  1.00  0.00     0.053 A 
HETATM    8  C   UNL     1     -41.548 -47.976  11.068  1.00  0.00     0.024 A 
HETATM    9  C   UNL     1     -42.336 -46.727  10.996  1.00  0.00     0.070 C 
HETATM   10  N   UNL     1     -41.303 -48.756   9.973  1.00  0.00    -0.305 N 
HETATM   11  N   UNL     1     -40.537 -49.831  10.235  1.00  0.00    -0.304 N 
HETATM   12  H   UNL     1     -41.605 -48.609   9.018  1.00  0.00     0.186 HD
ATOM     13  HN  UNL     1     -40.204 -50.541   9.582  1.00  0.00     0.186 HD
ENDBRANCH   5   6
ENDBRANCH   1   5
BRANCH   3  14
HETATM   14  C   UNL     1     -42.464 -53.017  12.768  1.00  0.00     0.127 C 
BRANCH  14  15
HETATM   15  C   UNL     1     -43.208 -52.869  14.107  1.00  0.00     0.003 C 
HETATM   16  C   UNL     1     -44.432 -53.790  14.236  1.00  0.00     0.007 C 
HETATM   17  C   UNL     1     -45.592 -53.400  13.315  1.00  0.00     0.009 C 
HETATM   18  C   UNL     1     -45.975 -51.899  13.345  1.00  0.00    -0.048 C 
HETATM   19  C   UNL     1     -46.858 -51.599  12.115  1.00  0.00     0.015 C 
HETATM   20  C   UNL     1     -46.792 -51.565  14.608  1.00  0.00     0.015 C 
HETATM   21  C   UNL     1     -44.720 -50.998  13.296  1.00  0.00     0.009 C 
HETATM   22  C   UNL     1     -43.651 -51.414  14.310  1.00  0.00     0.007 C 
ENDBRANCH  14  15
ENDBRANCH   3  14
TORSDOF 4
ENDMDL
MODEL 3
REMARK VINA RESULT:      -6.5      2.135      3.907
REMARK  4 active torsions:
REMARK  status: ('A' for Active; 'I' for Inactive)
REMARK    1  A    between atoms: C_4  and  C_5 
REMARK    2  A    between atoms: C_5  and  C_6 
REMARK       I    between atoms: C_6  and  N_8 
REMARK    3  A    between atoms: N_8  and  C_9 
REMARK    4  A    between atoms: C_9  and  C_10 
ROOT
HETATM    1  C   UNL     1     -40.920 -49.883  11.809  1.00  0.00     0.223 C 
HETATM    2  O   UNL     1     -39.839 -50.465  11.848  1.00  0.00    -0.273 OA
HETATM    3  N   UNL     1     -42.127 -50.532  12.023  1.00  0.00    -0.360 N 
HETATM    4  H   UNL     1     -42.982 -50.065  11.751  1.00  0.00     0.162 HD
ENDROOT
BRANCH   1   5
HETATM    5  C   UNL     1     -41.048 -48.405  11.488  1.00  0.00     0.161 C 
BRANCH   5   6
HETATM    6  C   UNL     1     -42.131 -48.133  10.500  1.00  0.00     0.036 A 
HETATM    7  C   UNL     1     -43.406 -47.568  10.736  1.00  0.00     0.053 A 
HETATM    8  C   UNL     1     -43.995 -47.468   9.497  1.00  0.00     0.024 A 
HETATM    9  C   UNL     1     -45.310 -46.944   9.070  1.00  0.00     0.070 C 
HETATM   10  N   UNL     1     -43.083 -47.975   8.615  1.00  0.00    -0.305 N 
HETATM   11  N   UNL     1     -41.932 -48.368   9.193  1.00  0.00    -0.304 N 
HETATM   12  H   UNL     1     -43.165 -48.065   7.610  1.00  0.00     0.186 HD
ATOM     13  HN  UNL     1     -41.102 -48.754   8.743  1.00  0.00     0.186 HD
ENDBRANCH   5   6
ENDBRANCH   1   5
BRANCH   3  14
HETATM   14  C   UNL     1     -42.161 -51.962  12.237  1.00  0.00     0.127 C 
BRANCH  14  15
HETATM   15  C   UNL     1     -42.800 -52.364  13.579  1.00  0.00     0.003 C 
HETATM   16  C   UNL     1     -43.705 -53.603  13.482  1.00  0.00     0.007 C 
HETATM   17  C   UNL     1     -45.002 -53.357  12.706  1.00  0.00     0.009 C 
HETATM   18  C   UNL     1     -45.782 -52.085  13.124  1.00  0.00    -0.048 C 
HETATM   19  C   UNL     1     -46.816 -51.765  12.022  1.00  0.00     0.015 C 
HETATM   20  C   UNL     1     -46.549 -52.318  14.440  1.00  0.00     0.015 C 
HETATM   21  C   UNL     1     -44.836 -50.875  13.293  1.00  0.00     0.009 C 
HETATM   22  C   UNL     1     -43.611 -51.195  14.153  1.00  0.00     0.007 C 
ENDBRANCH  14  15
ENDBRANCH   3  14
TORSDOF 4
ENDMDL
MODEL 4
REMARK VINA RESULT:      -6.5      1.906      3.412
REMARK  4 active torsions:
REMARK  status: ('A' for Active; 'I' for Inactive)
REMARK    1  A    between atoms: C_4  and  C_5 
REMARK    2  A    between atoms: C_5  and  C_6 
REMARK       I    between atoms: C_6  and  N_8 
REMARK    3  A    between atoms: N_8  and  C_9 
REMARK    4  A    between atoms: C_9  and  C_10 
ROOT
HETATM    1  C   UNL     1     -41.102 -52.356  13.231  1.00  0.00     0.223 C 
HETATM    2  O   UNL     1     -41.080 -52.211  14.451  1.00  0.00    -0.273 OA
HETATM    3  N   UNL     1     -41.946 -53.258  12.601  1.00  0.00    -0.360 N 
HETATM    4  H   UNL     1     -41.760 -53.503  11.637  1.00  0.00     0.162 HD
ENDROOT
BRANCH   1   5
HETATM    5  C   UNL     1     -40.185 -51.592  12.295  1.00  0.00     0.161 C 
BRANCH   5   6
HETATM    6  C   UNL     1     -40.867 -50.428  11.661  1.00  0.00     0.036 A 
HETATM    7  C   UNL     1     -41.881 -49.606  12.207  1.00  0.00     0.053 A 
HETATM    8  C   UNL     1     -42.121 -48.642  11.256  1.00  0.00     0.024 A 
HETATM    9  C   UNL     1     -43.045 -47.488  11.232  1.00  0.00     0.070 C 
HETATM   10  N   UNL     1     -41.281 -48.934  10.218  1.00  0.00    -0.305 N 
HETATM   11  N   UNL     1     -40.492 -50.001  10.444  1.00  0.00    -0.304 N 
HETATM   12  H   UNL     1     -41.174 -48.442   9.339  1.00  0.00     0.186 HD
ATOM     13  HN  UNL     1     -39.776 -50.395   9.833  1.00  0.00     0.186 HD
ENDBRANCH   5   6
ENDBRANCH   1   5
BRANCH   3  14
HETATM   14  C   UNL     1     -42.801 -54.128  13.379  1.00  0.00     0.127 C 
BRANCH  14  15
HETATM   15  C   UNL     1     -44.290 -54.016  13.004  1.00  0.00     0.003 C 
HETATM   16  C   UNL     1     -44.680 -52.643  12.436  1.00  0.00     0.007 C 
HETATM   17  C   UNL     1     -44.649 -51.518  13.475  1.00  0.00     0.009 C 
HETATM   18  C   UNL     1     -45.375 -51.837  14.806  1.00  0.00    -0.048 C 
HETATM   19  C   UNL     1     -44.928 -50.803  15.862  1.00  0.00     0.015 C 
HETATM   20  C   UNL     1     -46.902 -51.716  14.641  1.00  0.00     0.015 C 
HETATM   21  C   UNL     1     -45.027 -53.255  15.310  1.00  0.00     0.009 C 
HETATM   22  C   UNL     1     -45.169 -54.323  14.223  1.00  0.00     0.007 C 
ENDBRANCH  14  15
ENDBRANCH   3  14
TORSDOF 4
ENDMDL
MODEL 5
REMARK VINA RESULT:      -6.3      2.595      4.107
REMARK  4 active torsions:
REMARK  status: ('A' for Active; 'I' for Inactive)
REMARK    1  A    between atoms: C_4  and  C_5 
REMARK    2  A    between atoms: C_5  and  C_6 
REMARK       I    between atoms: C_6  and  N_8 
REMARK    3  A    between atoms: N_8  and  C_9 
REMARK    4  A    between atoms: C_9  and  C_10 
ROOT
HETATM    1  C   UNL     1     -41.794 -48.680  11.706  1.00  0.00     0.223 C 
HETATM    2  O   UNL     1     -41.742 -48.131  12.805  1.00  0.00    -0.273 OA
HETATM    3  N   UNL     1     -41.945 -50.050  11.562  1.00  0.00    -0.360 N 
HETATM    4  H   UNL     1     -41.747 -50.466  10.661  1.00  0.00     0.162 HD
ENDROOT
BRANCH   1   5
HETATM    5  C   UNL     1     -41.662 -47.919  10.400  1.00  0.00     0.161 C 
BRANCH   5   6
HETATM    6  C   UNL     1     -42.967 -47.779   9.693  1.00  0.00     0.036 A 
HETATM    7  C   UNL     1     -44.232 -47.474  10.247  1.00  0.00     0.053 A 
HETATM    8  C   UNL     1     -45.091 -47.396   9.176  1.00  0.00     0.024 A 
HETATM    9  C   UNL     1     -46.535 -47.091   9.089  1.00  0.00     0.070 C 
HETATM   10  N   UNL     1     -44.328 -47.664   8.074  1.00  0.00    -0.305 N 
HETATM   11  N   UNL     1     -43.029 -47.880   8.356  1.00  0.00    -0.304 N 
HETATM   12  H   UNL     1     -44.616 -47.695   7.104  1.00  0.00     0.186 HD
ATOM     13  HN  UNL     1     -42.268 -48.076   7.704  1.00  0.00     0.186 HD
ENDBRANCH   5   6
ENDBRANCH   1   5
BRANCH   3  14
HETATM   14  C   UNL     1     -41.979 -50.910  12.724  1.00  0.00     0.127 C 
BRANCH  14  15
HETATM   15  C   UNL     1     -42.173 -52.398  12.379  1.00  0.00     0.003 C 
HETATM   16  C   UNL     1     -43.626 -52.878  12.523  1.00  0.00     0.007 C 
HETATM   17  C   UNL     1     -44.109 -52.943  13.975  1.00  0.00     0.009 C 
HETATM   18  C   UNL     1     -43.147 -53.663  14.953  1.00  0.00    -0.048 C 
HETATM   19  C   UNL     1     -43.566 -53.308  16.396  1.00  0.00     0.015 C 
HETATM   20  C   UNL     1     -43.246 -55.193  14.794  1.00  0.00     0.015 C 
HETATM   21  C   UNL     1     -41.684 -53.221  14.730  1.00  0.00     0.009 C 
HETATM   22  C   UNL     1     -41.267 -53.270  13.258  1.00  0.00     0.007 C 
ENDBRANCH  14  15
ENDBRANCH   3  14
TORSDOF 4
ENDMDL
MODEL 6
REMARK VINA RESULT:      -6.2      2.315      3.673
REMARK  4 active torsions:
REMARK  status: ('A' for Active; 'I' for Inactive)
REMARK    1  A    between atoms: C_4  and  C_5 
REMARK    2  A    between atoms: C_5  and  C_6 
REMARK       I    between atoms: C_6  and  N_8 
REMARK    3  A    between atoms: N_8  and  C_9 
REMARK    4  A    between atoms: C_9  and  C_10 
ROOT
HETATM    1  C   UNL     1     -41.493 -53.587  14.321  1.00  0.00     0.223 C 
HETATM    2  O   UNL     1     -41.550 -52.839  15.295  1.00  0.00    -0.273 OA
HETATM    3  N   UNL     1     -42.408 -54.606  14.106  1.00  0.00    -0.360 N 
HETATM    4  H   UNL     1     -42.181 -55.326  13.433  1.00  0.00     0.162 HD
ENDROOT
BRANCH   1   5
HETATM    5  C   UNL     1     -40.395 -53.495  13.277  1.00  0.00     0.161 C 
BRANCH   5   6
HETATM    6  C   UNL     1     -40.387 -52.178  12.580  1.00  0.00     0.036 A 
HETATM    7  C   UNL     1     -39.701 -50.998  12.950  1.00  0.00     0.053 A 
HETATM    8  C   UNL     1     -39.966 -50.092  11.950  1.00  0.00     0.024 A 
HETATM    9  C   UNL     1     -39.527 -48.696  11.742  1.00  0.00     0.070 C 
HETATM   10  N   UNL     1     -40.782 -50.746  11.070  1.00  0.00    -0.305 N 
HETATM   11  N   UNL     1     -41.038 -52.022  11.416  1.00  0.00    -0.304 N 
HETATM   12  H   UNL     1     -41.183 -50.398  10.208  1.00  0.00     0.186 HD
ATOM     13  HN  UNL     1     -41.597 -52.711  10.911  1.00  0.00     0.186 HD
ENDBRANCH   5   6
ENDBRANCH   1   5
BRANCH   3  14
HETATM   14  C   UNL     1     -43.447 -54.874  15.077  1.00  0.00     0.127 C 
BRANCH  14  15
HETATM   15  C   UNL     1     -44.869 -54.725  14.507  1.00  0.00     0.003 C 
HETATM   16  C   UNL     1     -44.900 -54.418  13.001  1.00  0.00     0.007 C 
HETATM   17  C   UNL     1     -44.394 -53.015  12.651  1.00  0.00     0.009 C 
HETATM   18  C   UNL     1     -45.000 -51.870  13.502  1.00  0.00    -0.048 C 
HETATM   19  C   UNL     1     -44.127 -50.611  13.313  1.00  0.00     0.015 C 
HETATM   20  C   UNL     1     -46.428 -51.533  13.032  1.00  0.00     0.015 C 
HETATM   21  C   UNL     1     -45.031 -52.241  15.002  1.00  0.00     0.009 C 
HETATM   22  C   UNL     1     -45.630 -53.626  15.259  1.00  0.00     0.007 C 
ENDBRANCH  14  15
ENDBRANCH   3  14
TORSDOF 4
ENDMDL
MODEL 7
REMARK VINA RESULT:      -6.2      1.991      3.304
REMARK  4 active torsions:
REMARK  status: ('A' for Active; 'I' for Inactive)
REMARK    1  A    between atoms: C_4  and  C_5 
REMARK    2  A    between atoms: C_5  and  C_6 
REMARK       I    between atoms: C_6  and  N_8 
REMARK    3  A    between atoms: N_8  and  C_9 
REMARK    4  A    between atoms: C_9  and  C_10 
ROOT
HETATM    1  C   UNL     1     -41.496 -50.350  12.157  1.00  0.00     0.223 C 
HETATM    2  O   UNL     1     -40.517 -50.969  11.745  1.00  0.00    -0.273 OA
HETATM    3  N   UNL     1     -42.641 -50.982  12.616  1.00  0.00    -0.360 N 
HETATM    4  H   UNL     1     -43.487 -50.437  12.717  1.00  0.00     0.162 HD
ENDROOT
BRANCH   1   5
HETATM    5  C   UNL     1     -41.564 -48.834  12.170  1.00  0.00     0.161 C 
BRANCH   5   6
HETATM    6  C   UNL     1     -42.249 -48.289  10.963  1.00  0.00     0.036 A 
HETATM    7  C   UNL     1     -43.324 -47.370  10.910  1.00  0.00     0.053 A 
HETATM    8  C   UNL     1     -43.540 -47.141   9.571  1.00  0.00     0.024 A 
HETATM    9  C   UNL     1     -44.503 -46.270   8.863  1.00  0.00     0.070 C 
HETATM   10  N   UNL     1     -42.629 -47.917   8.913  1.00  0.00    -0.305 N 
HETATM   11  N   UNL     1     -41.816 -48.610   9.734  1.00  0.00    -0.304 N 
HETATM   12  H   UNL     1     -42.487 -48.010   7.915  1.00  0.00     0.186 HD
ATOM     13  HN  UNL     1     -41.050 -49.235   9.480  1.00  0.00     0.186 HD
ENDBRANCH   5   6
ENDBRANCH   1   5
BRANCH   3  14
HETATM   14  C   UNL     1     -42.754 -52.423  12.562  1.00  0.00     0.127 C 
BRANCH  14  15
HETATM   15  C   UNL     1     -44.198 -52.916  12.353  1.00  0.00     0.003 C 
HETATM   16  C   UNL     1     -45.247 -52.089  13.113  1.00  0.00     0.007 C 
HETATM   17  C   UNL     1     -45.190 -52.272  14.632  1.00  0.00     0.009 C 
HETATM   18  C   UNL     1     -45.136 -53.745  15.112  1.00  0.00    -0.048 C 
HETATM   19  C   UNL     1     -44.691 -53.758  16.590  1.00  0.00     0.015 C 
HETATM   20  C   UNL     1     -46.528 -54.401  15.029  1.00  0.00     0.015 C 
HETATM   21  C   UNL     1     -44.132 -54.571  14.276  1.00  0.00     0.009 C 
HETATM   22  C   UNL     1     -44.322 -54.387  12.768  1.00  0.00     0.007 C 
ENDBRANCH  14  15
ENDBRANCH   3  14
TORSDOF 4
ENDMDL
MODEL 8
REMARK VINA RESULT:      -6.1      2.396      3.509
REMARK  4 active torsions:
REMARK  status: ('A' for Active; 'I' for Inactive)
REMARK    1  A    between atoms: C_4  and  C_5 
REMARK    2  A    between atoms: C_5  and  C_6 
REMARK       I    between atoms: C_6  and  N_8 
REMARK    3  A    between atoms: N_8  and  C_9 
REMARK    4  A    between atoms: C_9  and  C_10 
ROOT
HETATM    1  C   UNL     1     -40.099 -52.846  13.852  1.00  0.00     0.223 C 
HETATM    2  O   UNL     1     -39.796 -53.871  13.246  1.00  0.00    -0.273 OA
HETATM    3  N   UNL     1     -41.345 -52.661  14.431  1.00  0.00    -0.360 N 
HETATM    4  H   UNL     1     -41.617 -51.726  14.706  1.00  0.00     0.162 HD
ENDROOT
BRANCH   1   5
HETATM    5  C   UNL     1     -39.156 -51.666  13.996  1.00  0.00     0.161 C 
BRANCH   5   6
HETATM    6  C   UNL     1     -39.400 -50.618  12.964  1.00  0.00     0.036 A 
HETATM    7  C   UNL     1     -39.539 -49.222  13.153  1.00  0.00     0.053 A 
HETATM    8  C   UNL     1     -39.682 -48.696  11.891  1.00  0.00     0.024 A 
HETATM    9  C   UNL     1     -39.846 -47.306  11.414  1.00  0.00     0.070 C 
HETATM   10  N   UNL     1     -39.640 -49.765  11.041  1.00  0.00    -0.305 N 
HETATM   11  N   UNL     1     -39.449 -50.944  11.663  1.00  0.00    -0.304 N 
HETATM   12  H   UNL     1     -39.713 -49.767  10.031  1.00  0.00     0.186 HD
ATOM     13  HN  UNL     1     -39.361 -51.870  11.243  1.00  0.00     0.186 HD
ENDBRANCH   5   6
ENDBRANCH   1   5
BRANCH   3  14
HETATM   14  C   UNL     1     -42.378 -53.662  14.282  1.00  0.00     0.127 C 
BRANCH  14  15
HETATM   15  C   UNL     1     -43.160 -53.541  12.962  1.00  0.00     0.003 C 
HETATM   16  C   UNL     1     -43.374 -52.090  12.503  1.00  0.00     0.007 C 
HETATM   17  C   UNL     1     -44.348 -51.304  13.387  1.00  0.00     0.009 C 
HETATM   18  C   UNL     1     -45.681 -52.030  13.696  1.00  0.00    -0.048 C 
HETATM   19  C   UNL     1     -46.362 -51.312  14.881  1.00  0.00     0.015 C 
HETATM   20  C   UNL     1     -46.636 -51.963  12.488  1.00  0.00     0.015 C 
HETATM   21  C   UNL     1     -45.441 -53.510  14.074  1.00  0.00     0.009 C 
HETATM   22  C   UNL     1     -44.524 -54.233  13.086  1.00  0.00     0.007 C 
ENDBRANCH  14  15
ENDBRANCH   3  14
TORSDOF 4
ENDMDL
MODEL 9
REMARK VINA RESULT:      -6.0      2.030      2.363
REMARK  4 active torsions:
REMARK  status: ('A' for Active; 'I' for Inactive)
REMARK    1  A    between atoms: C_4  and  C_5 
REMARK    2  A    between atoms: C_5  and  C_6 
REMARK       I    between atoms: C_6  and  N_8 
REMARK    3  A    between atoms: N_8  and  C_9 
REMARK    4  A    between atoms: C_9  and  C_10 
ROOT
HETATM    1  C   UNL     1     -43.162 -48.550  12.241  1.00  0.00     0.223 C 
HETATM    2  O   UNL     1     -42.586 -48.090  13.225  1.00  0.00    -0.273 OA
HETATM    3  N   UNL     1     -43.907 -49.718  12.290  1.00  0.00    -0.360 N 
HETATM    4  H   UNL     1     -44.157 -50.169  11.420  1.00  0.00     0.162 HD
ENDROOT
BRANCH   1   5
HETATM    5  C   UNL     1     -43.086 -47.908  10.869  1.00  0.00     0.161 C 
BRANCH   5   6
HETATM    6  C   UNL     1     -41.896 -47.023  10.724  1.00  0.00     0.036 A 
HETATM    7  C   UNL     1     -41.850 -45.609  10.753  1.00  0.00     0.053 A 
HETATM    8  C   UNL     1     -40.518 -45.285  10.642  1.00  0.00     0.024 A 
HETATM    9  C   UNL     1     -39.817 -43.983  10.630  1.00  0.00     0.070 C 
HETATM   10  N   UNL     1     -39.858 -46.477  10.538  1.00  0.00    -0.305 N 
HETATM   11  N   UNL     1     -40.667 -47.551  10.606  1.00  0.00    -0.304 N 
HETATM   12  H   UNL     1     -38.863 -46.638  10.442  1.00  0.00     0.186 HD
ATOM     13  HN  UNL     1     -40.407 -48.538  10.575  1.00  0.00     0.186 HD
ENDBRANCH   5   6
ENDBRANCH   1   5
BRANCH   3  14
HETATM   14  C   UNL     1     -43.979 -50.490  13.511  1.00  0.00     0.127 C 
BRANCH  14  15
HETATM   15  C   UNL     1     -45.340 -51.179  13.719  1.00  0.00     0.003 C 
HETATM   16  C   UNL     1     -45.526 -51.760  15.130  1.00  0.00     0.007 C 
HETATM   17  C   UNL     1     -44.639 -52.976  15.415  1.00  0.00     0.009 C 
HETATM   18  C   UNL     1     -44.656 -54.069  14.317  1.00  0.00    -0.048 C 
HETATM   19  C   UNL     1     -43.451 -55.007  14.547  1.00  0.00     0.015 C 
HETATM   20  C   UNL     1     -45.940 -54.916  14.405  1.00  0.00     0.015 C 
HETATM   21  C   UNL     1     -44.550 -53.449  12.905  1.00  0.00     0.009 C 
HETATM   22  C   UNL     1     -45.534 -52.298  12.687  1.00  0.00     0.007 C 
ENDBRANCH  14  15
ENDBRANCH   3  14
TORSDOF 4
ENDMDL
