MODEL 1
REMARK VINA RESULT:      -5.3      0.000      0.000
REMARK  7 active torsions:
REMARK  status: ('A' for Active; 'I' for Inactive)
REMARK    1  A    between atoms: O_2  and  C_3 
REMARK    2  A    between atoms: C_3  and  C_4 
REMARK    3  A    between atoms: C_4  and  O_5 
REMARK    4  A    between atoms: O_5  and  C_6 
REMARK    5  A    between atoms: C_12  and  C_13 
REMARK    6  A    between atoms: C_13  and  N_14 
REMARK       I    between atoms: N_14  and  C_15 
REMARK    7  A    between atoms: C_15  and  C_17 
ROOT
HETATM    1  C   UNL     1     -40.556 -51.849  13.043  1.00  0.00     0.150 A 
HETATM    2  N   UNL     1     -39.384 -51.946  13.705  1.00  0.00    -0.346 N 
ATOM      3  HN  UNL     1     -38.777 -51.137  13.838  1.00  0.00     0.167 HD
HETATM    4  C   UNL     1     -39.054 -53.163  14.182  1.00  0.00     0.090 A 
HETATM    5  C   UNL     1     -39.851 -54.287  14.044  1.00  0.00     0.018 A 
HETATM    6  C   UNL     1     -41.057 -54.159  13.361  1.00  0.00     0.014 A 
HETATM    7  C   UNL     1     -41.424 -52.920  12.827  1.00  0.00     0.011 A 
ENDROOT
BRANCH   7   8
HETATM    8  C   UNL     1     -42.676 -52.772  12.011  1.00  0.00     0.165 C 
BRANCH   8   9
HETATM    9  N   UNL     1     -43.795 -52.228  12.749  1.00  0.00    -0.356 N 
HETATM   10  C   UNL     1     -44.950 -52.978  12.875  1.00  0.00     0.222 C 
HETATM   11  O   UNL     1     -45.007 -54.135  12.447  1.00  0.00    -0.273 OA
HETATM   12  H   UNL     1     -43.805 -51.242  12.974  1.00  0.00     0.162 HD
BRANCH  10  13
HETATM   13  C   UNL     1     -46.145 -52.277  13.566  1.00  0.00     0.078 C 
HETATM   14  C   UNL     1     -45.900 -51.215  14.668  1.00  0.00     0.014 C 
HETATM   15  C   UNL     1     -47.084 -51.811  15.449  1.00  0.00     0.002 C 
HETATM   16  C   UNL     1     -46.884 -53.109  14.654  1.00  0.00     0.014 C 
ENDBRANCH  10  13
ENDBRANCH   8   9
ENDBRANCH   7   8
BRANCH   1  17
HETATM   17  O   UNL     1     -40.977 -50.619  12.595  1.00  0.00    -0.333 OA
BRANCH  17  18
HETATM   18  C   UNL     1     -40.296 -50.117  11.444  1.00  0.00     0.203 C 
BRANCH  18  19
HETATM   19  C   UNL     1     -39.475 -48.930  11.935  1.00  0.00     0.193 C 
BRANCH  19  20
HETATM   20  O   UNL     1     -38.175 -49.325  12.361  1.00  0.00    -0.394 OA
HETATM   21  C   UNL     1     -37.463 -49.935  11.289  1.00  0.00     0.201 C 
ENDBRANCH  19  20
ENDBRANCH  18  19
ENDBRANCH  17  18
ENDBRANCH   1  17
TORSDOF 7
ENDMDL
MODEL 2
REMARK VINA RESULT:      -5.2      4.106      5.667
REMARK  7 active torsions:
REMARK  status: ('A' for Active; 'I' for Inactive)
REMARK    1  A    between atoms: O_2  and  C_3 
REMARK    2  A    between atoms: C_3  and  C_4 
REMARK    3  A    between atoms: C_4  and  O_5 
REMARK    4  A    between atoms: O_5  and  C_6 
REMARK    5  A    between atoms: C_12  and  C_13 
REMARK    6  A    between atoms: C_13  and  N_14 
REMARK       I    between atoms: N_14  and  C_15 
REMARK    7  A    between atoms: C_15  and  C_17 
ROOT
HETATM    1  C   UNL     1     -42.117 -46.984  10.196  1.00  0.00     0.150 A 
HETATM    2  N   UNL     1     -42.400 -46.159   9.166  1.00  0.00    -0.346 N 
ATOM      3  HN  UNL     1     -41.682 -45.577   8.734  1.00  0.00     0.167 HD
HETATM    4  C   UNL     1     -43.677 -46.141   8.735  1.00  0.00     0.090 A 
HETATM    5  C   UNL     1     -44.684 -46.924   9.275  1.00  0.00     0.018 A 
HETATM    6  C   UNL     1     -44.364 -47.770  10.333  1.00  0.00     0.014 A 
HETATM    7  C   UNL     1     -43.056 -47.798  10.828  1.00  0.00     0.011 A 
ENDROOT
BRANCH   7   8
HETATM    8  C   UNL     1     -42.703 -48.635  12.023  1.00  0.00     0.165 C 
BRANCH   8   9
HETATM    9  N   UNL     1     -43.693 -49.637  12.351  1.00  0.00    -0.356 N 
HETATM   10  C   UNL     1     -43.735 -50.150  13.635  1.00  0.00     0.222 C 
HETATM   11  O   UNL     1     -43.002 -49.704  14.523  1.00  0.00    -0.273 OA
HETATM   12  H   UNL     1     -44.191 -50.102  11.604  1.00  0.00     0.162 HD
BRANCH  10  13
HETATM   13  C   UNL     1     -44.735 -51.308  13.872  1.00  0.00     0.078 C 
HETATM   14  C   UNL     1     -46.038 -51.401  13.038  1.00  0.00     0.014 C 
HETATM   15  C   UNL     1     -46.778 -51.826  14.319  1.00  0.00     0.002 C 
HETATM   16  C   UNL     1     -45.648 -51.170  15.125  1.00  0.00     0.014 C 
ENDBRANCH  10  13
ENDBRANCH   8   9
ENDBRANCH   7   8
BRANCH   1  17
HETATM   17  O   UNL     1     -40.817 -47.095  10.631  1.00  0.00    -0.333 OA
BRANCH  17  18
HETATM   18  C   UNL     1     -40.318 -45.980  11.370  1.00  0.00     0.203 C 
BRANCH  18  19
HETATM   19  C   UNL     1     -39.521 -45.147  10.372  1.00  0.00     0.193 C 
BRANCH  19  20
HETATM   20  O   UNL     1     -40.217 -43.962   9.997  1.00  0.00    -0.394 OA
HETATM   21  C   UNL     1     -40.634 -43.242  11.154  1.00  0.00     0.201 C 
ENDBRANCH  19  20
ENDBRANCH  18  19
ENDBRANCH  17  18
ENDBRANCH   1  17
TORSDOF 7
ENDMDL
MODEL 3
REMARK VINA RESULT:      -5.2      2.673      3.509
REMARK  7 active torsions:
REMARK  status: ('A' for Active; 'I' for Inactive)
REMARK    1  A    between atoms: O_2  and  C_3 
REMARK    2  A    between atoms: C_3  and  C_4 
REMARK    3  A    between atoms: C_4  and  O_5 
REMARK    4  A    between atoms: O_5  and  C_6 
REMARK    5  A    between atoms: C_12  and  C_13 
REMARK    6  A    between atoms: C_13  and  N_14 
REMARK       I    between atoms: N_14  and  C_15 
REMARK    7  A    between atoms: C_15  and  C_17 
ROOT
HETATM    1  C   UNL     1     -40.073 -49.726  11.393  1.00  0.00     0.150 A 
HETATM    2  N   UNL     1     -38.969 -48.949  11.400  1.00  0.00    -0.346 N 
ATOM      3  HN  UNL     1     -38.922 -48.083  10.865  1.00  0.00     0.167 HD
HETATM    4  C   UNL     1     -37.932 -49.374  12.150  1.00  0.00     0.090 A 
HETATM    5  C   UNL     1     -37.953 -50.533  12.909  1.00  0.00     0.018 A 
HETATM    6  C   UNL     1     -39.106 -51.313  12.888  1.00  0.00     0.014 A 
HETATM    7  C   UNL     1     -40.194 -50.922  12.101  1.00  0.00     0.011 A 
ENDROOT
BRANCH   7   8
HETATM    8  C   UNL     1     -41.416 -51.788  11.991  1.00  0.00     0.165 C 
BRANCH   8   9
HETATM    9  N   UNL     1     -42.635 -51.140  12.422  1.00  0.00    -0.356 N 
HETATM   10  C   UNL     1     -43.450 -51.777  13.339  1.00  0.00     0.222 C 
HETATM   11  O   UNL     1     -43.110 -52.843  13.860  1.00  0.00    -0.273 OA
HETATM   12  H   UNL     1     -42.983 -50.346  11.901  1.00  0.00     0.162 HD
BRANCH  10  13
HETATM   13  C   UNL     1     -44.797 -51.079  13.653  1.00  0.00     0.078 C 
HETATM   14  C   UNL     1     -45.456 -51.240  15.046  1.00  0.00     0.014 C 
HETATM   15  C   UNL     1     -46.820 -51.353  14.342  1.00  0.00     0.002 C 
HETATM   16  C   UNL     1     -46.067 -51.763  13.069  1.00  0.00     0.014 C 
ENDBRANCH  10  13
ENDBRANCH   8   9
ENDBRANCH   7   8
BRANCH   1  17
HETATM   17  O   UNL     1     -41.186 -49.307  10.702  1.00  0.00    -0.333 OA
BRANCH  17  18
HETATM   18  C   UNL     1     -41.557 -47.943  10.903  1.00  0.00     0.203 C 
BRANCH  18  19
HETATM   19  C   UNL     1     -42.661 -47.662   9.889  1.00  0.00     0.193 C 
BRANCH  19  20
HETATM   20  O   UNL     1     -42.683 -46.293   9.497  1.00  0.00    -0.394 OA
HETATM   21  C   UNL     1     -43.897 -45.989   8.816  1.00  0.00     0.201 C 
ENDBRANCH  19  20
ENDBRANCH  18  19
ENDBRANCH  17  18
ENDBRANCH   1  17
TORSDOF 7
ENDMDL
MODEL 4
REMARK VINA RESULT:      -5.0      2.380      3.870
REMARK  7 active torsions:
REMARK  status: ('A' for Active; 'I' for Inactive)
REMARK    1  A    between atoms: O_2  and  C_3 
REMARK    2  A    between atoms: C_3  and  C_4 
REMARK    3  A    between atoms: C_4  and  O_5 
REMARK    4  A    between atoms: O_5  and  C_6 
REMARK    5  A    between atoms: C_12  and  C_13 
REMARK    6  A    between atoms: C_13  and  N_14 
REMARK       I    between atoms: N_14  and  C_15 
REMARK    7  A    between atoms: C_15  and  C_17 
ROOT
HETATM    1  C   UNL     1     -40.791 -48.723  11.150  1.00  0.00     0.150 A 
HETATM    2  N   UNL     1     -40.655 -47.492  10.612  1.00  0.00    -0.346 N 
ATOM      3  HN  UNL     1     -39.770 -47.178  10.215  1.00  0.00     0.167 HD
HETATM    4  C   UNL     1     -41.746 -46.700  10.626  1.00  0.00     0.090 A 
HETATM    5  C   UNL     1     -42.974 -47.087  11.136  1.00  0.00     0.018 A 
HETATM    6  C   UNL     1     -43.088 -48.363  11.680  1.00  0.00     0.014 A 
HETATM    7  C   UNL     1     -41.973 -49.207  11.710  1.00  0.00     0.011 A 
ENDROOT
BRANCH   7   8
HETATM    8  C   UNL     1     -42.044 -50.554  12.369  1.00  0.00     0.165 C 
BRANCH   8   9
HETATM    9  N   UNL     1     -43.316 -50.834  12.997  1.00  0.00    -0.356 N 
HETATM   10  C   UNL     1     -43.765 -52.140  13.062  1.00  0.00     0.222 C 
HETATM   11  O   UNL     1     -43.058 -53.076  12.674  1.00  0.00    -0.273 OA
HETATM   12  H   UNL     1     -43.952 -50.071  13.184  1.00  0.00     0.162 HD
BRANCH  10  13
HETATM   13  C   UNL     1     -45.190 -52.343  13.632  1.00  0.00     0.078 C 
HETATM   14  C   UNL     1     -46.392 -51.573  13.028  1.00  0.00     0.014 C 
HETATM   15  C   UNL     1     -46.927 -51.371  14.456  1.00  0.00     0.002 C 
HETATM   16  C   UNL     1     -45.499 -51.605  14.967  1.00  0.00     0.014 C 
ENDBRANCH  10  13
ENDBRANCH   8   9
ENDBRANCH   7   8
BRANCH   1  17
HETATM   17  O   UNL     1     -39.732 -49.600  11.101  1.00  0.00    -0.333 OA
BRANCH  17  18
HETATM   18  C   UNL     1     -38.573 -49.206  11.837  1.00  0.00     0.203 C 
BRANCH  18  19
HETATM   19  C   UNL     1     -37.637 -50.409  11.808  1.00  0.00     0.193 C 
BRANCH  19  20
HETATM   20  O   UNL     1     -38.168 -51.512  12.536  1.00  0.00    -0.394 OA
HETATM   21  C   UNL     1     -38.309 -51.178  13.914  1.00  0.00     0.201 C 
ENDBRANCH  19  20
ENDBRANCH  18  19
ENDBRANCH  17  18
ENDBRANCH   1  17
TORSDOF 7
ENDMDL
MODEL 5
REMARK VINA RESULT:      -5.0      2.950      6.819
REMARK  7 active torsions:
REMARK  status: ('A' for Active; 'I' for Inactive)
REMARK    1  A    between atoms: O_2  and  C_3 
REMARK    2  A    between atoms: C_3  and  C_4 
REMARK    3  A    between atoms: C_4  and  O_5 
REMARK    4  A    between atoms: O_5  and  C_6 
REMARK    5  A    between atoms: C_12  and  C_13 
REMARK    6  A    between atoms: C_13  and  N_14 
REMARK       I    between atoms: N_14  and  C_15 
REMARK    7  A    between atoms: C_15  and  C_17 
ROOT
HETATM    1  C   UNL     1     -46.030 -53.544  16.348  1.00  0.00     0.150 A 
HETATM    2  N   UNL     1     -46.625 -52.610  17.121  1.00  0.00    -0.346 N 
ATOM      3  HN  UNL     1     -46.674 -52.708  18.134  1.00  0.00     0.167 HD
HETATM    4  C   UNL     1     -47.150 -51.542  16.487  1.00  0.00     0.090 A 
HETATM    5  C   UNL     1     -47.093 -51.354  15.116  1.00  0.00     0.018 A 
HETATM    6  C   UNL     1     -46.470 -52.330  14.343  1.00  0.00     0.014 A 
HETATM    7  C   UNL     1     -45.936 -53.467  14.959  1.00  0.00     0.011 A 
ENDROOT
BRANCH   7   8
HETATM    8  C   UNL     1     -45.336 -54.575  14.143  1.00  0.00     0.165 C 
BRANCH   8   9
HETATM    9  N   UNL     1     -43.890 -54.603  14.165  1.00  0.00    -0.356 N 
HETATM   10  C   UNL     1     -43.187 -53.978  13.152  1.00  0.00     0.222 C 
HETATM   11  O   UNL     1     -43.770 -53.325  12.282  1.00  0.00    -0.273 OA
HETATM   12  H   UNL     1     -43.418 -55.247  14.785  1.00  0.00     0.162 HD
BRANCH  10  13
HETATM   13  C   UNL     1     -41.649 -54.162  13.176  1.00  0.00     0.078 C 
HETATM   14  C   UNL     1     -40.866 -54.030  14.507  1.00  0.00     0.014 C 
HETATM   15  C   UNL     1     -39.765 -53.281  13.737  1.00  0.00     0.002 C 
HETATM   16  C   UNL     1     -40.813 -52.954  12.664  1.00  0.00     0.014 C 
ENDBRANCH  10  13
ENDBRANCH   8   9
ENDBRANCH   7   8
BRANCH   1  17
HETATM   17  O   UNL     1     -45.416 -54.620  16.946  1.00  0.00    -0.333 OA
BRANCH  17  18
HETATM   18  C   UNL     1     -44.655 -54.321  18.116  1.00  0.00     0.203 C 
BRANCH  18  19
HETATM   19  C   UNL     1     -43.201 -54.593  17.744  1.00  0.00     0.193 C 
BRANCH  19  20
HETATM   20  O   UNL     1     -43.085 -55.657  16.805  1.00  0.00    -0.394 OA
HETATM   21  C   UNL     1     -41.918 -56.431  17.070  1.00  0.00     0.201 C 
ENDBRANCH  19  20
ENDBRANCH  18  19
ENDBRANCH  17  18
ENDBRANCH   1  17
TORSDOF 7
ENDMDL
MODEL 6
REMARK VINA RESULT:      -5.0      2.426      3.672
REMARK  7 active torsions:
REMARK  status: ('A' for Active; 'I' for Inactive)
REMARK    1  A    between atoms: O_2  and  C_3 
REMARK    2  A    between atoms: C_3  and  C_4 
REMARK    3  A    between atoms: C_4  and  O_5 
REMARK    4  A    between atoms: O_5  and  C_6 
REMARK    5  A    between atoms: C_12  and  C_13 
REMARK    6  A    between atoms: C_13  and  N_14 
REMARK       I    between atoms: N_14  and  C_15 
REMARK    7  A    between atoms: C_15  and  C_17 
ROOT
HETATM    1  C   UNL     1     -39.674 -49.927  12.065  1.00  0.00     0.150 A 
HETATM    2  N   UNL     1     -38.792 -49.697  11.069  1.00  0.00    -0.346 N 
ATOM      3  HN  UNL     1     -39.045 -49.150  10.247  1.00  0.00     0.167 HD
HETATM    4  C   UNL     1     -37.560 -50.226  11.215  1.00  0.00     0.090 A 
HETATM    5  C   UNL     1     -37.162 -50.959  12.320  1.00  0.00     0.018 A 
HETATM    6  C   UNL     1     -38.089 -51.177  13.335  1.00  0.00     0.014 A 
HETATM    7  C   UNL     1     -39.386 -50.670  13.211  1.00  0.00     0.011 A 
ENDROOT
BRANCH   7   8
HETATM    8  C   UNL     1     -40.431 -50.963  14.248  1.00  0.00     0.165 C 
BRANCH   8   9
HETATM    9  N   UNL     1     -41.505 -51.809  13.776  1.00  0.00    -0.356 N 
HETATM   10  C   UNL     1     -41.430 -53.174  13.984  1.00  0.00     0.222 C 
HETATM   11  O   UNL     1     -40.509 -53.668  14.641  1.00  0.00    -0.273 OA
HETATM   12  H   UNL     1     -42.179 -51.433  13.123  1.00  0.00     0.162 HD
BRANCH  10  13
HETATM   13  C   UNL     1     -42.552 -54.024  13.337  1.00  0.00     0.078 C 
HETATM   14  C   UNL     1     -43.724 -53.336  12.592  1.00  0.00     0.014 C 
HETATM   15  C   UNL     1     -44.676 -54.368  13.223  1.00  0.00     0.002 C 
HETATM   16  C   UNL     1     -43.621 -54.593  14.315  1.00  0.00     0.014 C 
ENDBRANCH  10  13
ENDBRANCH   8   9
ENDBRANCH   7   8
BRANCH   1  17
HETATM   17  O   UNL     1     -40.923 -49.354  12.004  1.00  0.00    -0.333 OA
BRANCH  17  18
HETATM   18  C   UNL     1     -41.234 -48.686  10.780  1.00  0.00     0.203 C 
BRANCH  18  19
HETATM   19  C   UNL     1     -41.189 -47.196  11.100  1.00  0.00     0.193 C 
BRANCH  19  20
HETATM   20  O   UNL     1     -39.876 -46.664  10.962  1.00  0.00    -0.394 OA
HETATM   21  C   UNL     1     -39.929 -45.326  10.475  1.00  0.00     0.201 C 
ENDBRANCH  19  20
ENDBRANCH  18  19
ENDBRANCH  17  18
ENDBRANCH   1  17
TORSDOF 7
ENDMDL
MODEL 7
REMARK VINA RESULT:      -4.9      3.351      6.215
REMARK  7 active torsions:
REMARK  status: ('A' for Active; 'I' for Inactive)
REMARK    1  A    between atoms: O_2  and  C_3 
REMARK    2  A    between atoms: C_3  and  C_4 
REMARK    3  A    between atoms: C_4  and  O_5 
REMARK    4  A    between atoms: O_5  and  C_6 
REMARK    5  A    between atoms: C_12  and  C_13 
REMARK    6  A    between atoms: C_13  and  N_14 
REMARK       I    between atoms: N_14  and  C_15 
REMARK    7  A    between atoms: C_15  and  C_17 
ROOT
HETATM    1  C   UNL     1     -43.427 -51.459  13.136  1.00  0.00     0.150 A 
HETATM    2  N   UNL     1     -43.363 -52.797  13.299  1.00  0.00    -0.346 N 
ATOM      3  HN  UNL     1     -44.148 -53.328  13.676  1.00  0.00     0.167 HD
HETATM    4  C   UNL     1     -42.211 -53.399  12.940  1.00  0.00     0.090 A 
HETATM    5  C   UNL     1     -41.124 -52.727  12.407  1.00  0.00     0.018 A 
HETATM    6  C   UNL     1     -41.218 -51.348  12.244  1.00  0.00     0.014 A 
HETATM    7  C   UNL     1     -42.386 -50.681  12.630  1.00  0.00     0.011 A 
ENDROOT
BRANCH   7   8
HETATM    8  C   UNL     1     -42.483 -49.185  12.547  1.00  0.00     0.165 C 
BRANCH   8   9
HETATM    9  N   UNL     1     -43.261 -48.709  11.424  1.00  0.00    -0.356 N 
HETATM   10  C   UNL     1     -42.626 -48.023  10.406  1.00  0.00     0.222 C 
HETATM   11  O   UNL     1     -41.399 -47.888  10.397  1.00  0.00    -0.273 OA
HETATM   12  H   UNL     1     -44.269 -48.692  11.495  1.00  0.00     0.162 HD
BRANCH  10  13
HETATM   13  C   UNL     1     -43.545 -47.435   9.306  1.00  0.00     0.078 C 
HETATM   14  C   UNL     1     -43.740 -45.902   9.185  1.00  0.00     0.014 C 
HETATM   15  C   UNL     1     -45.229 -46.155   8.896  1.00  0.00     0.002 C 
HETATM   16  C   UNL     1     -45.074 -47.520   9.581  1.00  0.00     0.014 C 
ENDBRANCH  10  13
ENDBRANCH   8   9
ENDBRANCH   7   8
BRANCH   1  17
HETATM   17  O   UNL     1     -44.601 -50.802  13.419  1.00  0.00    -0.333 OA
BRANCH  17  18
HETATM   18  C   UNL     1     -45.097 -50.974  14.748  1.00  0.00     0.203 C 
BRANCH  18  19
HETATM   19  C   UNL     1     -46.518 -51.506  14.593  1.00  0.00     0.193 C 
BRANCH  19  20
HETATM   20  O   UNL     1     -46.552 -52.710  13.832  1.00  0.00    -0.394 OA
HETATM   21  C   UNL     1     -46.566 -53.844  14.693  1.00  0.00     0.201 C 
ENDBRANCH  19  20
ENDBRANCH  18  19
ENDBRANCH  17  18
ENDBRANCH   1  17
TORSDOF 7
ENDMDL
MODEL 8
REMARK VINA RESULT:      -4.8      2.496      4.076
REMARK  7 active torsions:
REMARK  status: ('A' for Active; 'I' for Inactive)
REMARK    1  A    between atoms: O_2  and  C_3 
REMARK    2  A    between atoms: C_3  and  C_4 
REMARK    3  A    between atoms: C_4  and  O_5 
REMARK    4  A    between atoms: O_5  and  C_6 
REMARK    5  A    between atoms: C_12  and  C_13 
REMARK    6  A    between atoms: C_13  and  N_14 
REMARK       I    between atoms: N_14  and  C_15 
REMARK    7  A    between atoms: C_15  and  C_17 
ROOT
HETATM    1  C   UNL     1     -40.492 -52.950  14.069  1.00  0.00     0.150 A 
HETATM    2  N   UNL     1     -39.614 -51.994  13.697  1.00  0.00    -0.346 N 
ATOM      3  HN  UNL     1     -38.753 -51.828  14.216  1.00  0.00     0.167 HD
HETATM    4  C   UNL     1     -39.932 -51.269  12.605  1.00  0.00     0.090 A 
HETATM    5  C   UNL     1     -41.079 -51.467  11.855  1.00  0.00     0.018 A 
HETATM    6  C   UNL     1     -41.965 -52.463  12.258  1.00  0.00     0.014 A 
HETATM    7  C   UNL     1     -41.686 -53.219  13.401  1.00  0.00     0.011 A 
ENDROOT
BRANCH   7   8
HETATM    8  C   UNL     1     -42.665 -54.239  13.907  1.00  0.00     0.165 C 
BRANCH   8   9
HETATM    9  N   UNL     1     -43.912 -53.674  14.374  1.00  0.00    -0.356 N 
HETATM   10  C   UNL     1     -45.042 -53.790  13.586  1.00  0.00     0.222 C 
HETATM   11  O   UNL     1     -45.023 -54.442  12.537  1.00  0.00    -0.273 OA
HETATM   12  H   UNL     1     -43.901 -53.027  15.150  1.00  0.00     0.162 HD
BRANCH  10  13
HETATM   13  C   UNL     1     -46.305 -53.050  14.093  1.00  0.00     0.078 C 
HETATM   14  C   UNL     1     -46.500 -51.542  13.795  1.00  0.00     0.014 C 
HETATM   15  C   UNL     1     -47.044 -51.372  15.224  1.00  0.00     0.002 C 
HETATM   16  C   UNL     1     -46.305 -52.664  15.600  1.00  0.00     0.014 C 
ENDBRANCH  10  13
ENDBRANCH   8   9
ENDBRANCH   7   8
BRANCH   1  17
HETATM   17  O   UNL     1     -40.187 -53.766  15.133  1.00  0.00    -0.333 OA
BRANCH  17  18
HETATM   18  C   UNL     1     -39.158 -54.727  14.896  1.00  0.00     0.203 C 
BRANCH  18  19
HETATM   19  C   UNL     1     -38.681 -55.170  16.274  1.00  0.00     0.193 C 
BRANCH  19  20
HETATM   20  O   UNL     1     -38.598 -56.588  16.375  1.00  0.00    -0.394 OA
HETATM   21  C   UNL     1     -39.434 -57.063  17.427  1.00  0.00     0.201 C 
ENDBRANCH  19  20
ENDBRANCH  18  19
ENDBRANCH  17  18
ENDBRANCH   1  17
TORSDOF 7
ENDMDL
MODEL 9
REMARK VINA RESULT:      -4.7      1.835      2.315
REMARK  7 active torsions:
REMARK  status: ('A' for Active; 'I' for Inactive)
REMARK    1  A    between atoms: O_2  and  C_3 
REMARK    2  A    between atoms: C_3  and  C_4 
REMARK    3  A    between atoms: C_4  and  O_5 
REMARK    4  A    between atoms: O_5  and  C_6 
REMARK    5  A    between atoms: C_12  and  C_13 
REMARK    6  A    between atoms: C_13  and  N_14 
REMARK       I    between atoms: N_14  and  C_15 
REMARK    7  A    between atoms: C_15  and  C_17 
ROOT
HETATM    1  C   UNL     1     -39.712 -54.255  14.591  1.00  0.00     0.150 A 
HETATM    2  N   UNL     1     -38.856 -54.701  15.534  1.00  0.00    -0.346 N 
ATOM      3  HN  UNL     1     -37.864 -54.468  15.509  1.00  0.00     0.167 HD
HETATM    4  C   UNL     1     -39.377 -55.470  16.512  1.00  0.00     0.090 A 
HETATM    5  C   UNL     1     -40.719 -55.800  16.601  1.00  0.00     0.018 A 
HETATM    6  C   UNL     1     -41.581 -55.322  15.618  1.00  0.00     0.014 A 
HETATM    7  C   UNL     1     -41.076 -54.544  14.571  1.00  0.00     0.011 A 
ENDROOT
BRANCH   7   8
HETATM    8  C   UNL     1     -41.966 -54.088  13.451  1.00  0.00     0.165 C 
BRANCH   8   9
HETATM    9  N   UNL     1     -42.940 -53.093  13.843  1.00  0.00    -0.356 N 
HETATM   10  C   UNL     1     -44.130 -53.001  13.145  1.00  0.00     0.222 C 
HETATM   11  O   UNL     1     -44.409 -53.809  12.254  1.00  0.00    -0.273 OA
HETATM   12  H   UNL     1     -42.661 -52.349  14.467  1.00  0.00     0.162 HD
BRANCH  10  13
HETATM   13  C   UNL     1     -45.063 -51.830  13.541  1.00  0.00     0.078 C 
HETATM   14  C   UNL     1     -45.429 -51.588  15.028  1.00  0.00     0.014 C 
HETATM   15  C   UNL     1     -46.865 -51.269  14.579  1.00  0.00     0.002 C 
HETATM   16  C   UNL     1     -46.582 -52.058  13.294  1.00  0.00     0.014 C 
ENDBRANCH  10  13
ENDBRANCH   8   9
ENDBRANCH   7   8
BRANCH   1  17
HETATM   17  O   UNL     1     -39.250 -53.410  13.609  1.00  0.00    -0.333 OA
BRANCH  17  18
HETATM   18  C   UNL     1     -38.836 -52.118  14.055  1.00  0.00     0.203 C 
BRANCH  18  19
HETATM   19  C   UNL     1     -39.177 -51.160  12.919  1.00  0.00     0.193 C 
BRANCH  19  20
HETATM   20  O   UNL     1     -38.155 -51.128  11.927  1.00  0.00    -0.394 OA
HETATM   21  C   UNL     1     -37.623 -49.813  11.801  1.00  0.00     0.201 C 
ENDBRANCH  19  20
ENDBRANCH  18  19
ENDBRANCH  17  18
ENDBRANCH   1  17
TORSDOF 7
ENDMDL
