MODEL 1
REMARK VINA RESULT:      -6.1      0.000      0.000
REMARK  4 active torsions:
REMARK  status: ('A' for Active; 'I' for Inactive)
REMARK    1  A    between atoms: O_2  and  C_3 
REMARK    2  A    between atoms: C_9  and  N_10 
REMARK       I    between atoms: N_10  and  C_11 
REMARK       I    between atoms: C_11  and  N_13 
REMARK    3  A    between atoms: N_13  and  C_14 
REMARK    4  A    between atoms: C_17  and  O_18 
ROOT
HETATM    1  N   UNL     1     -42.218 -49.328  11.458  1.00  0.00    -0.305 N 
HETATM    2  C   UNL     1     -42.916 -49.581  12.620  1.00  0.00     0.321 C 
HETATM    3  O   UNL     1     -43.122 -48.780  13.521  1.00  0.00    -0.247 OA
HETATM    4  N   UNL     1     -43.429 -50.859  12.668  1.00  0.00    -0.338 N 
HETATM    5  H   UNL     1     -41.906 -50.112  10.901  1.00  0.00     0.171 HD
HETATM    6  H   UNL     1     -43.008 -51.554  12.073  1.00  0.00     0.164 HD
ENDROOT
BRANCH   1   7
HETATM    7  C   UNL     1     -41.668 -48.072  11.099  1.00  0.00     0.087 A 
HETATM    8  C   UNL     1     -42.326 -47.233  10.189  1.00  0.00     0.169 A 
HETATM    9  N   UNL     1     -41.840 -46.039   9.768  1.00  0.00    -0.345 N 
HETATM   10  C   UNL     1     -40.647 -45.653  10.264  1.00  0.00     0.090 A 
ATOM     11  HN  UNL     1     -42.354 -45.458   9.105  1.00  0.00     0.167 HD
HETATM   12  C   UNL     1     -39.930 -46.392  11.183  1.00  0.00     0.019 A 
HETATM   13  C   UNL     1     -40.455 -47.608  11.611  1.00  0.00     0.035 A 
BRANCH   8  14
HETATM   14  O   UNL     1     -43.541 -47.661   9.675  1.00  0.00    -0.339 OA
HETATM   15  C   UNL     1     -43.561 -47.589   8.247  1.00  0.00     0.211 C 
ENDBRANCH   8  14
ENDBRANCH   1   7
BRANCH   4  16
HETATM   16  C   UNL     1     -44.200 -51.305  13.834  1.00  0.00     0.086 C 
HETATM   17  C   UNL     1     -43.686 -52.641  14.384  1.00  0.00     0.028 C 
HETATM   18  C   UNL     1     -43.998 -53.817  13.455  1.00  0.00     0.034 C 
HETATM   19  C   UNL     1     -45.471 -53.881  13.044  1.00  0.00     0.118 C 
HETATM   20  C   UNL     1     -46.015 -52.538  12.554  1.00  0.00     0.034 C 
HETATM   21  C   UNL     1     -45.693 -51.390  13.511  1.00  0.00     0.028 C 
BRANCH  19  22
HETATM   22  O   UNL     1     -46.261 -54.361  14.129  1.00  0.00    -0.396 OA
HETATM   23  H   UNL     1     -45.681 -54.587  14.874  1.00  0.00     0.210 HD
ENDBRANCH  19  22
ENDBRANCH   4  16
TORSDOF 4
ENDMDL
MODEL 2
REMARK VINA RESULT:      -6.0      2.950      3.814
REMARK  4 active torsions:
REMARK  status: ('A' for Active; 'I' for Inactive)
REMARK    1  A    between atoms: O_2  and  C_3 
REMARK    2  A    between atoms: C_9  and  N_10 
REMARK       I    between atoms: N_10  and  C_11 
REMARK       I    between atoms: C_11  and  N_13 
REMARK    3  A    between atoms: N_13  and  C_14 
REMARK    4  A    between atoms: C_17  and  O_18 
ROOT
HETATM    1  N   UNL     1     -40.941 -51.489  13.279  1.00  0.00    -0.305 N 
HETATM    2  C   UNL     1     -41.448 -52.753  13.064  1.00  0.00     0.321 C 
HETATM    3  O   UNL     1     -40.962 -53.605  12.333  1.00  0.00    -0.247 OA
HETATM    4  N   UNL     1     -42.576 -53.011  13.811  1.00  0.00    -0.338 N 
HETATM    5  H   UNL     1     -41.539 -50.794  13.707  1.00  0.00     0.171 HD
HETATM    6  H   UNL     1     -43.095 -52.222  14.160  1.00  0.00     0.164 HD
ENDROOT
BRANCH   1   7
HETATM    7  C   UNL     1     -39.736 -50.991  12.721  1.00  0.00     0.087 A 
HETATM    8  C   UNL     1     -39.755 -50.165  11.589  1.00  0.00     0.169 A 
HETATM    9  N   UNL     1     -38.642 -49.688  10.978  1.00  0.00    -0.345 N 
HETATM   10  C   UNL     1     -37.453 -50.044  11.505  1.00  0.00     0.090 A 
ATOM     11  HN  UNL     1     -38.702 -49.087  10.156  1.00  0.00     0.167 HD
HETATM   12  C   UNL     1     -37.324 -50.830  12.632  1.00  0.00     0.019 A 
HETATM   13  C   UNL     1     -38.481 -51.297  13.250  1.00  0.00     0.035 A 
BRANCH   8  14
HETATM   14  O   UNL     1     -40.989 -49.832  11.050  1.00  0.00    -0.339 OA
HETATM   15  C   UNL     1     -41.192 -48.417  11.039  1.00  0.00     0.211 C 
ENDBRANCH   8  14
ENDBRANCH   1   7
BRANCH   4  16
HETATM   16  C   UNL     1     -43.253 -54.309  13.708  1.00  0.00     0.086 C 
HETATM   17  C   UNL     1     -44.447 -54.257  12.747  1.00  0.00     0.028 C 
HETATM   18  C   UNL     1     -45.617 -53.446  13.309  1.00  0.00     0.034 C 
HETATM   19  C   UNL     1     -46.021 -53.875  14.721  1.00  0.00     0.118 C 
HETATM   20  C   UNL     1     -44.830 -53.994  15.674  1.00  0.00     0.034 C 
HETATM   21  C   UNL     1     -43.686 -54.818  15.084  1.00  0.00     0.028 C 
BRANCH  19  22
HETATM   22  O   UNL     1     -46.731 -55.110  14.673  1.00  0.00    -0.396 OA
HETATM   23  H   UNL     1     -46.612 -55.583  15.512  1.00  0.00     0.210 HD
ENDBRANCH  19  22
ENDBRANCH   4  16
TORSDOF 4
ENDMDL
MODEL 3
REMARK VINA RESULT:      -5.7      1.398      2.059
REMARK  4 active torsions:
REMARK  status: ('A' for Active; 'I' for Inactive)
REMARK    1  A    between atoms: O_2  and  C_3 
REMARK    2  A    between atoms: C_9  and  N_10 
REMARK       I    between atoms: N_10  and  C_11 
REMARK       I    between atoms: C_11  and  N_13 
REMARK    3  A    between atoms: N_13  and  C_14 
REMARK    4  A    between atoms: C_17  and  O_18 
ROOT
HETATM    1  N   UNL     1     -42.873 -49.358  11.593  1.00  0.00    -0.305 N 
HETATM    2  C   UNL     1     -43.246 -49.660  12.886  1.00  0.00     0.321 C 
HETATM    3  O   UNL     1     -43.112 -48.930  13.859  1.00  0.00    -0.247 OA
HETATM    4  N   UNL     1     -43.853 -50.891  12.994  1.00  0.00    -0.338 N 
HETATM    5  H   UNL     1     -42.809 -50.110  10.920  1.00  0.00     0.171 HD
HETATM    6  H   UNL     1     -43.686 -51.560  12.259  1.00  0.00     0.164 HD
ENDROOT
BRANCH   1   7
HETATM    7  C   UNL     1     -42.319 -48.121  11.175  1.00  0.00     0.087 A 
HETATM    8  C   UNL     1     -40.935 -47.972  11.010  1.00  0.00     0.169 A 
HETATM    9  N   UNL     1     -40.333 -46.810  10.654  1.00  0.00    -0.345 N 
HETATM   10  C   UNL     1     -41.132 -45.742  10.454  1.00  0.00     0.090 A 
ATOM     11  HN  UNL     1     -39.321 -46.747  10.543  1.00  0.00     0.167 HD
HETATM   12  C   UNL     1     -42.508 -45.788  10.565  1.00  0.00     0.019 A 
HETATM   13  C   UNL     1     -43.103 -46.995  10.918  1.00  0.00     0.035 A 
BRANCH   8  14
HETATM   14  O   UNL     1     -40.132 -49.079  11.244  1.00  0.00    -0.339 OA
HETATM   15  C   UNL     1     -39.252 -48.864  12.350  1.00  0.00     0.211 C 
ENDBRANCH   8  14
ENDBRANCH   1   7
BRANCH   4  16
HETATM   16  C   UNL     1     -44.314 -51.379  14.298  1.00  0.00     0.086 C 
HETATM   17  C   UNL     1     -43.601 -52.674  14.710  1.00  0.00     0.028 C 
HETATM   18  C   UNL     1     -44.032 -53.875  13.865  1.00  0.00     0.034 C 
HETATM   19  C   UNL     1     -45.552 -54.042  13.791  1.00  0.00     0.118 C 
HETATM   20  C   UNL     1     -46.280 -52.742  13.445  1.00  0.00     0.034 C 
HETATM   21  C   UNL     1     -45.832 -51.568  14.315  1.00  0.00     0.028 C 
BRANCH  19  22
HETATM   22  O   UNL     1     -46.046 -54.565  15.021  1.00  0.00    -0.396 OA
HETATM   23  H   UNL     1     -45.566 -54.158  15.760  1.00  0.00     0.210 HD
ENDBRANCH  19  22
ENDBRANCH   4  16
TORSDOF 4
ENDMDL
MODEL 4
REMARK VINA RESULT:      -5.7      2.665      6.798
REMARK  4 active torsions:
REMARK  status: ('A' for Active; 'I' for Inactive)
REMARK    1  A    between atoms: O_2  and  C_3 
REMARK    2  A    between atoms: C_9  and  N_10 
REMARK       I    between atoms: N_10  and  C_11 
REMARK       I    between atoms: C_11  and  N_13 
REMARK    3  A    between atoms: N_13  and  C_14 
REMARK    4  A    between atoms: C_17  and  O_18 
ROOT
HETATM    1  N   UNL     1     -41.745 -50.921  11.694  1.00  0.00    -0.305 N 
HETATM    2  C   UNL     1     -42.591 -49.898  12.068  1.00  0.00     0.321 C 
HETATM    3  O   UNL     1     -43.237 -49.846  13.106  1.00  0.00    -0.247 OA
HETATM    4  N   UNL     1     -42.617 -48.865  11.158  1.00  0.00    -0.338 N 
HETATM    5  H   UNL     1     -41.451 -50.976  10.728  1.00  0.00     0.171 HD
HETATM    6  H   UNL     1     -42.317 -49.064  10.217  1.00  0.00     0.164 HD
ENDROOT
BRANCH   1   7
HETATM    7  C   UNL     1     -41.448 -52.059  12.484  1.00  0.00     0.087 A 
HETATM    8  C   UNL     1     -40.143 -52.303  12.934  1.00  0.00     0.169 A 
HETATM    9  N   UNL     1     -39.779 -53.391  13.657  1.00  0.00    -0.345 N 
HETATM   10  C   UNL     1     -40.746 -54.285  13.949  1.00  0.00     0.090 A 
ATOM     11  HN  UNL     1     -38.816 -53.528  13.966  1.00  0.00     0.167 HD
HETATM   12  C   UNL     1     -42.066 -54.127  13.577  1.00  0.00     0.019 A 
HETATM   13  C   UNL     1     -42.418 -52.996  12.847  1.00  0.00     0.035 A 
BRANCH   8  14
HETATM   14  O   UNL     1     -39.161 -51.381  12.601  1.00  0.00    -0.339 OA
HETATM   15  C   UNL     1     -38.502 -50.873  13.764  1.00  0.00     0.211 C 
ENDBRANCH   8  14
ENDBRANCH   1   7
BRANCH   4  16
HETATM   16  C   UNL     1     -43.466 -47.691  11.392  1.00  0.00     0.086 C 
HETATM   17  C   UNL     1     -44.576 -47.569  10.341  1.00  0.00     0.028 C 
HETATM   18  C   UNL     1     -44.039 -47.176   8.962  1.00  0.00     0.034 C 
HETATM   19  C   UNL     1     -43.132 -45.945   9.001  1.00  0.00     0.118 C 
HETATM   20  C   UNL     1     -42.059 -46.026  10.088  1.00  0.00     0.034 C 
HETATM   21  C   UNL     1     -42.633 -46.409  11.452  1.00  0.00     0.028 C 
BRANCH  19  22
HETATM   22  O   UNL     1     -43.915 -44.766   9.175  1.00  0.00    -0.396 OA
HETATM   23  H   UNL     1     -44.388 -44.817  10.020  1.00  0.00     0.210 HD
ENDBRANCH  19  22
ENDBRANCH   4  16
TORSDOF 4
ENDMDL
MODEL 5
REMARK VINA RESULT:      -5.4      1.817      7.001
REMARK  4 active torsions:
REMARK  status: ('A' for Active; 'I' for Inactive)
REMARK    1  A    between atoms: O_2  and  C_3 
REMARK    2  A    between atoms: C_9  and  N_10 
REMARK       I    between atoms: N_10  and  C_11 
REMARK       I    between atoms: C_11  and  N_13 
REMARK    3  A    between atoms: N_13  and  C_14 
REMARK    4  A    between atoms: C_17  and  O_18 
ROOT
HETATM    1  N   UNL     1     -42.788 -51.655  12.434  1.00  0.00    -0.305 N 
HETATM    2  C   UNL     1     -43.169 -50.382  12.802  1.00  0.00     0.321 C 
HETATM    3  O   UNL     1     -43.793 -50.085  13.812  1.00  0.00    -0.247 OA
HETATM    4  N   UNL     1     -42.731 -49.417  11.922  1.00  0.00    -0.338 N 
HETATM    5  H   UNL     1     -42.492 -51.815  11.480  1.00  0.00     0.171 HD
HETATM    6  H   UNL     1     -42.488 -49.711  10.989  1.00  0.00     0.164 HD
ENDROOT
BRANCH   1   7
HETATM    7  C   UNL     1     -43.015 -52.825  13.203  1.00  0.00     0.087 A 
HETATM    8  C   UNL     1     -44.207 -53.551  13.073  1.00  0.00     0.169 A 
HETATM    9  N   UNL     1     -44.509 -54.653  13.804  1.00  0.00    -0.345 N 
HETATM   10  C   UNL     1     -43.595 -55.057  14.709  1.00  0.00     0.090 A 
ATOM     11  HN  UNL     1     -45.389 -55.153  13.675  1.00  0.00     0.167 HD
HETATM   12  C   UNL     1     -42.380 -54.429  14.898  1.00  0.00     0.019 A 
HETATM   13  C   UNL     1     -42.087 -53.309  14.126  1.00  0.00     0.035 A 
BRANCH   8  14
HETATM   14  O   UNL     1     -45.142 -53.102  12.152  1.00  0.00    -0.339 OA
HETATM   15  C   UNL     1     -46.256 -52.480  12.797  1.00  0.00     0.211 C 
ENDBRANCH   8  14
ENDBRANCH   1   7
BRANCH   4  16
HETATM   16  C   UNL     1     -43.047 -48.003  12.154  1.00  0.00     0.086 C 
HETATM   17  C   UNL     1     -43.692 -47.351  10.924  1.00  0.00     0.028 C 
HETATM   18  C   UNL     1     -42.701 -47.166   9.772  1.00  0.00     0.034 C 
HETATM   19  C   UNL     1     -41.410 -46.463  10.198  1.00  0.00     0.118 C 
HETATM   20  C   UNL     1     -40.792 -47.063  11.461  1.00  0.00     0.034 C 
HETATM   21  C   UNL     1     -41.806 -47.223  12.593  1.00  0.00     0.028 C 
BRANCH  19  22
HETATM   22  O   UNL     1     -41.651 -45.071  10.386  1.00  0.00    -0.396 OA
HETATM   23  H   UNL     1     -41.640 -44.623   9.525  1.00  0.00     0.210 HD
ENDBRANCH  19  22
ENDBRANCH   4  16
TORSDOF 4
ENDMDL
MODEL 6
REMARK VINA RESULT:      -5.3      3.277      4.515
REMARK  4 active torsions:
REMARK  status: ('A' for Active; 'I' for Inactive)
REMARK    1  A    between atoms: O_2  and  C_3 
REMARK    2  A    between atoms: C_9  and  N_10 
REMARK       I    between atoms: N_10  and  C_11 
REMARK       I    between atoms: C_11  and  N_13 
REMARK    3  A    between atoms: N_13  and  C_14 
REMARK    4  A    between atoms: C_17  and  O_18 
ROOT
HETATM    1  N   UNL     1     -41.604 -50.788  12.997  1.00  0.00    -0.305 N 
HETATM    2  C   UNL     1     -42.335 -51.829  12.463  1.00  0.00     0.321 C 
HETATM    3  O   UNL     1     -41.911 -52.685  11.699  1.00  0.00    -0.247 OA
HETATM    4  N   UNL     1     -43.635 -51.857  12.918  1.00  0.00    -0.338 N 
HETATM    5  H   UNL     1     -42.100 -50.014  13.418  1.00  0.00     0.171 HD
HETATM    6  H   UNL     1     -44.016 -51.005  13.297  1.00  0.00     0.164 HD
ENDROOT
BRANCH   1   7
HETATM    7  C   UNL     1     -40.219 -50.575  12.782  1.00  0.00     0.087 A 
HETATM    8  C   UNL     1     -39.270 -51.012  13.716  1.00  0.00     0.169 A 
HETATM    9  N   UNL     1     -37.935 -50.807  13.597  1.00  0.00    -0.345 N 
HETATM   10  C   UNL     1     -37.514 -50.135  12.506  1.00  0.00     0.090 A 
ATOM     11  HN  UNL     1     -37.279 -51.144  14.301  1.00  0.00     0.167 HD
HETATM   12  C   UNL     1     -38.361 -49.685  11.514  1.00  0.00     0.019 A 
HETATM   13  C   UNL     1     -39.726 -49.920  11.652  1.00  0.00     0.035 A 
BRANCH   8  14
HETATM   14  O   UNL     1     -39.730 -51.680  14.842  1.00  0.00    -0.339 OA
HETATM   15  C   UNL     1     -38.680 -51.901  15.787  1.00  0.00     0.211 C 
ENDBRANCH   8  14
ENDBRANCH   1   7
BRANCH   4  16
HETATM   16  C   UNL     1     -44.561 -52.896  12.454  1.00  0.00     0.086 C 
HETATM   17  C   UNL     1     -46.025 -52.454  12.571  1.00  0.00     0.028 C 
HETATM   18  C   UNL     1     -46.499 -52.376  14.025  1.00  0.00     0.034 C 
HETATM   19  C   UNL     1     -46.207 -53.650  14.821  1.00  0.00     0.118 C 
HETATM   20  C   UNL     1     -44.766 -54.138  14.660  1.00  0.00     0.034 C 
HETATM   21  C   UNL     1     -44.331 -54.215  13.197  1.00  0.00     0.028 C 
BRANCH  19  22
HETATM   22  O   UNL     1     -47.116 -54.680  14.444  1.00  0.00    -0.396 OA
HETATM   23  H   UNL     1     -47.258 -55.276  15.197  1.00  0.00     0.210 HD
ENDBRANCH  19  22
ENDBRANCH   4  16
TORSDOF 4
ENDMDL
MODEL 7
REMARK VINA RESULT:      -5.2      1.934      7.065
REMARK  4 active torsions:
REMARK  status: ('A' for Active; 'I' for Inactive)
REMARK    1  A    between atoms: O_2  and  C_3 
REMARK    2  A    between atoms: C_9  and  N_10 
REMARK       I    between atoms: N_10  and  C_11 
REMARK       I    between atoms: C_11  and  N_13 
REMARK    3  A    between atoms: N_13  and  C_14 
REMARK    4  A    between atoms: C_17  and  O_18 
ROOT
HETATM    1  N   UNL     1     -44.661 -50.683  13.127  1.00  0.00    -0.305 N 
HETATM    2  C   UNL     1     -43.353 -50.298  12.921  1.00  0.00     0.321 C 
HETATM    3  O   UNL     1     -42.360 -50.894  13.316  1.00  0.00    -0.247 OA
HETATM    4  N   UNL     1     -43.244 -49.157  12.158  1.00  0.00    -0.338 N 
HETATM    5  H   UNL     1     -45.395 -50.006  12.968  1.00  0.00     0.171 HD
HETATM    6  H   UNL     1     -44.050 -48.554  12.103  1.00  0.00     0.164 HD
ENDROOT
BRANCH   1   7
HETATM    7  C   UNL     1     -45.063 -51.870  13.790  1.00  0.00     0.087 A 
HETATM    8  C   UNL     1     -45.724 -52.893  13.096  1.00  0.00     0.169 A 
HETATM    9  N   UNL     1     -46.174 -54.035  13.674  1.00  0.00    -0.345 N 
HETATM   10  C   UNL     1     -45.967 -54.174  14.999  1.00  0.00     0.090 A 
ATOM     11  HN  UNL     1     -46.649 -54.755  13.130  1.00  0.00     0.167 HD
HETATM   12  C   UNL     1     -45.305 -53.239  15.769  1.00  0.00     0.019 A 
HETATM   13  C   UNL     1     -44.840 -52.082  15.151  1.00  0.00     0.035 A 
BRANCH   8  14
HETATM   14  O   UNL     1     -45.946 -52.716  11.739  1.00  0.00    -0.339 OA
HETATM   15  C   UNL     1     -47.143 -51.972  11.496  1.00  0.00     0.211 C 
ENDBRANCH   8  14
ENDBRANCH   1   7
BRANCH   4  16
HETATM   16  C   UNL     1     -41.925 -48.599  11.840  1.00  0.00     0.086 C 
HETATM   17  C   UNL     1     -41.735 -47.199  12.438  1.00  0.00     0.028 C 
HETATM   18  C   UNL     1     -42.592 -46.142  11.737  1.00  0.00     0.034 C 
HETATM   19  C   UNL     1     -42.435 -46.154  10.215  1.00  0.00     0.118 C 
HETATM   20  C   UNL     1     -42.557 -47.555   9.613  1.00  0.00     0.034 C 
HETATM   21  C   UNL     1     -41.681 -48.581  10.329  1.00  0.00     0.028 C 
BRANCH  19  22
HETATM   22  O   UNL     1     -41.186 -45.573   9.848  1.00  0.00    -0.396 OA
HETATM   23  H   UNL     1     -40.483 -45.941  10.408  1.00  0.00     0.210 HD
ENDBRANCH  19  22
ENDBRANCH   4  16
TORSDOF 4
ENDMDL
MODEL 8
REMARK VINA RESULT:      -5.1      2.650      3.578
REMARK  4 active torsions:
REMARK  status: ('A' for Active; 'I' for Inactive)
REMARK    1  A    between atoms: O_2  and  C_3 
REMARK    2  A    between atoms: C_9  and  N_10 
REMARK       I    between atoms: N_10  and  C_11 
REMARK       I    between atoms: C_11  and  N_13 
REMARK    3  A    between atoms: N_13  and  C_14 
REMARK    4  A    between atoms: C_17  and  O_18 
ROOT
HETATM    1  N   UNL     1     -41.602 -49.463  11.012  1.00  0.00    -0.305 N 
HETATM    2  C   UNL     1     -41.969 -49.989  12.233  1.00  0.00     0.321 C 
HETATM    3  O   UNL     1     -42.563 -49.392  13.121  1.00  0.00    -0.247 OA
HETATM    4  N   UNL     1     -41.640 -51.320  12.362  1.00  0.00    -0.338 N 
HETATM    5  H   UNL     1     -40.917 -49.959  10.457  1.00  0.00     0.171 HD
HETATM    6  H   UNL     1     -40.920 -51.684  11.758  1.00  0.00     0.164 HD
ENDROOT
BRANCH   1   7
HETATM    7  C   UNL     1     -41.904 -48.150  10.570  1.00  0.00     0.087 A 
HETATM    8  C   UNL     1     -40.996 -47.099  10.762  1.00  0.00     0.169 A 
HETATM    9  N   UNL     1     -41.235 -45.813  10.404  1.00  0.00    -0.345 N 
HETATM   10  C   UNL     1     -42.427 -45.548   9.831  1.00  0.00     0.090 A 
ATOM     11  HN  UNL     1     -40.545 -45.079  10.561  1.00  0.00     0.167 HD
HETATM   12  C   UNL     1     -43.380 -46.514   9.572  1.00  0.00     0.019 A 
HETATM   13  C   UNL     1     -43.106 -47.828   9.937  1.00  0.00     0.035 A 
BRANCH   8  14
HETATM   14  O   UNL     1     -39.787 -47.392  11.376  1.00  0.00    -0.339 OA
HETATM   15  C   UNL     1     -39.711 -46.823  12.685  1.00  0.00     0.211 C 
ENDBRANCH   8  14
ENDBRANCH   1   7
BRANCH   4  16
HETATM   16  C   UNL     1     -41.953 -52.045  13.599  1.00  0.00     0.086 C 
HETATM   17  C   UNL     1     -40.853 -51.880  14.654  1.00  0.00     0.028 C 
HETATM   18  C   UNL     1     -39.569 -52.628  14.284  1.00  0.00     0.034 C 
HETATM   19  C   UNL     1     -39.812 -54.093  13.917  1.00  0.00     0.118 C 
HETATM   20  C   UNL     1     -40.952 -54.277  12.914  1.00  0.00     0.034 C 
HETATM   21  C   UNL     1     -42.220 -53.526  13.320  1.00  0.00     0.028 C 
BRANCH  19  22
HETATM   22  O   UNL     1     -40.071 -54.855  15.094  1.00  0.00    -0.396 OA
HETATM   23  H   UNL     1     -39.897 -55.793  14.914  1.00  0.00     0.210 HD
ENDBRANCH  19  22
ENDBRANCH   4  16
TORSDOF 4
ENDMDL
MODEL 9
REMARK VINA RESULT:      -4.9      2.180      2.806
REMARK  4 active torsions:
REMARK  status: ('A' for Active; 'I' for Inactive)
REMARK    1  A    between atoms: O_2  and  C_3 
REMARK    2  A    between atoms: C_9  and  N_10 
REMARK       I    between atoms: N_10  and  C_11 
REMARK       I    between atoms: C_11  and  N_13 
REMARK    3  A    between atoms: N_13  and  C_14 
REMARK    4  A    between atoms: C_17  and  O_18 
ROOT
HETATM    1  N   UNL     1     -43.479 -49.173  12.174  1.00  0.00    -0.305 N 
HETATM    2  C   UNL     1     -42.582 -50.122  12.617  1.00  0.00     0.321 C 
HETATM    3  O   UNL     1     -41.363 -50.044  12.545  1.00  0.00    -0.247 OA
HETATM    4  N   UNL     1     -43.195 -51.198  13.220  1.00  0.00    -0.338 N 
HETATM    5  H   UNL     1     -44.449 -49.438  12.066  1.00  0.00     0.171 HD
HETATM    6  H   UNL     1     -44.166 -51.363  13.006  1.00  0.00     0.164 HD
ENDROOT
BRANCH   1   7
HETATM    7  C   UNL     1     -43.125 -47.923  11.607  1.00  0.00     0.087 A 
HETATM    8  C   UNL     1     -42.991 -46.781  12.409  1.00  0.00     0.169 A 
HETATM    9  N   UNL     1     -42.697 -45.547  11.930  1.00  0.00    -0.345 N 
HETATM   10  C   UNL     1     -42.530 -45.430  10.597  1.00  0.00     0.090 A 
ATOM     11  HN  UNL     1     -42.606 -44.743  12.551  1.00  0.00     0.167 HD
HETATM   12  C   UNL     1     -42.614 -46.495   9.723  1.00  0.00     0.019 A 
HETATM   13  C   UNL     1     -42.904 -47.755  10.239  1.00  0.00     0.035 A 
BRANCH   8  14
HETATM   14  O   UNL     1     -43.191 -46.922  13.774  1.00  0.00    -0.339 OA
HETATM   15  C   UNL     1     -43.349 -45.654  14.415  1.00  0.00     0.211 C 
ENDBRANCH   8  14
ENDBRANCH   1   7
BRANCH   4  16
HETATM   16  C   UNL     1     -42.394 -52.307  13.750  1.00  0.00     0.086 C 
HETATM   17  C   UNL     1     -42.549 -53.580  12.909  1.00  0.00     0.028 C 
HETATM   18  C   UNL     1     -43.932 -54.219  13.061  1.00  0.00     0.034 C 
HETATM   19  C   UNL     1     -44.337 -54.430  14.522  1.00  0.00     0.118 C 
HETATM   20  C   UNL     1     -44.126 -53.187  15.387  1.00  0.00     0.034 C 
HETATM   21  C   UNL     1     -42.732 -52.582  15.217  1.00  0.00     0.028 C 
BRANCH  19  22
HETATM   22  O   UNL     1     -43.623 -55.534  15.072  1.00  0.00    -0.396 OA
HETATM   23  H   UNL     1     -43.868 -56.345  14.597  1.00  0.00     0.210 HD
ENDBRANCH  19  22
ENDBRANCH   4  16
TORSDOF 4
ENDMDL
