MODEL 1
REMARK VINA RESULT:      -6.3      0.000      0.000
REMARK  4 active torsions:
REMARK  status: ('A' for Active; 'I' for Inactive)
REMARK    1  A    between atoms: O_1  and  C_2 
REMARK    2  A    between atoms: C_2  and  C_3 
REMARK    3  A    between atoms: C_2  and  C_14 
REMARK    4  A    between atoms: C_3  and  N_4 
ROOT
HETATM    1  C   UNL     1     -40.305 -52.090  13.493  1.00  0.00     0.166 C 
ENDROOT
BRANCH   1   2
HETATM    2  C   UNL     1     -40.721 -53.448  12.894  1.00  0.00     0.172 C 
BRANCH   2   3
HETATM    3  O   UNL     1     -40.598 -53.455  11.468  1.00  0.00    -0.389 OA
HETATM    4  H   UNL     1     -41.468 -53.659  11.093  1.00  0.00     0.210 HD
ENDBRANCH   2   3
BRANCH   2   5
HETATM    5  C   UNL     1     -42.109 -53.889  13.296  1.00  0.00     0.011 A 
HETATM    6  C   UNL     1     -43.246 -53.532  12.555  1.00  0.00     0.013 A 
HETATM    7  C   UNL     1     -44.521 -53.913  12.979  1.00  0.00     0.001 A 
HETATM    8  C   UNL     1     -44.678 -54.662  14.145  1.00  0.00     0.003 A 
HETATM    9  C   UNL     1     -43.558 -55.025  14.891  1.00  0.00     0.043 A 
HETATM   10  C   UNL     1     -42.291 -54.633  14.466  1.00  0.00     0.125 A 
HETATM   11  F   UNL     1     -41.227 -54.967  15.210  1.00  0.00    -0.205 F 
ENDBRANCH   2   5
ENDBRANCH   1   2
BRANCH   1  12
HETATM   12  N   UNL     1     -40.248 -50.999  12.537  1.00  0.00    -0.338 N 
HETATM   13  C   UNL     1     -39.161 -50.696  11.762  1.00  0.00     0.184 A 
HETATM   14  N   UNL     1     -39.374 -49.639  11.015  1.00  0.00    -0.350 N 
HETATM   15  C   UNL     1     -40.659 -49.250  11.302  1.00  0.00     0.060 A 
ATOM     16  HN  UNL     1     -38.726 -49.200  10.361  1.00  0.00     0.166 HD
HETATM   17  C   UNL     1     -41.393 -48.167  10.797  1.00  0.00     0.032 A 
HETATM   18  C   UNL     1     -41.249 -50.107  12.231  1.00  0.00     0.062 A 
HETATM   19  C   UNL     1     -42.708 -47.978  11.235  1.00  0.00     0.002 A 
HETATM   20  C   UNL     1     -43.286 -48.859  12.149  1.00  0.00     0.002 A 
HETATM   21  C   UNL     1     -42.570 -49.945  12.668  1.00  0.00     0.032 A 
ENDBRANCH   1  12
TORSDOF 4
ENDMDL
MODEL 2
REMARK VINA RESULT:      -6.2      3.033      5.576
REMARK  4 active torsions:
REMARK  status: ('A' for Active; 'I' for Inactive)
REMARK    1  A    between atoms: O_1  and  C_2 
REMARK    2  A    between atoms: C_2  and  C_3 
REMARK    3  A    between atoms: C_2  and  C_14 
REMARK    4  A    between atoms: C_3  and  N_4 
ROOT
HETATM    1  C   UNL     1     -41.788 -52.520  13.449  1.00  0.00     0.166 C 
ENDROOT
BRANCH   1   2
HETATM    2  C   UNL     1     -40.990 -52.149  12.184  1.00  0.00     0.172 C 
BRANCH   2   3
HETATM    3  O   UNL     1     -40.535 -53.314  11.489  1.00  0.00    -0.389 OA
HETATM    4  H   UNL     1     -40.784 -53.223  10.556  1.00  0.00     0.210 HD
ENDBRANCH   2   3
BRANCH   2   5
HETATM    5  C   UNL     1     -39.830 -51.219  12.450  1.00  0.00     0.011 A 
HETATM    6  C   UNL     1     -38.938 -51.427  13.512  1.00  0.00     0.013 A 
HETATM    7  C   UNL     1     -37.904 -50.522  13.762  1.00  0.00     0.001 A 
HETATM    8  C   UNL     1     -37.742 -49.400  12.950  1.00  0.00     0.003 A 
HETATM    9  C   UNL     1     -38.619 -49.181  11.890  1.00  0.00     0.043 A 
HETATM   10  C   UNL     1     -39.653 -50.083  11.653  1.00  0.00     0.125 A 
HETATM   11  F   UNL     1     -40.505 -49.842  10.646  1.00  0.00    -0.205 F 
ENDBRANCH   2   5
ENDBRANCH   1   2
BRANCH   1  12
HETATM   12  N   UNL     1     -43.230 -52.520  13.277  1.00  0.00    -0.338 N 
HETATM   13  C   UNL     1     -43.887 -53.040  12.195  1.00  0.00     0.184 A 
HETATM   14  N   UNL     1     -45.185 -52.872  12.286  1.00  0.00    -0.350 N 
HETATM   15  C   UNL     1     -45.381 -52.233  13.485  1.00  0.00     0.060 A 
ATOM     16  HN  UNL     1     -45.896 -53.155  11.612  1.00  0.00     0.166 HD
HETATM   17  C   UNL     1     -46.577 -51.798  14.074  1.00  0.00     0.032 A 
HETATM   18  C   UNL     1     -44.173 -52.028  14.150  1.00  0.00     0.062 A 
HETATM   19  C   UNL     1     -46.526 -51.175  15.326  1.00  0.00     0.002 A 
HETATM   20  C   UNL     1     -45.309 -50.999  15.984  1.00  0.00     0.002 A 
HETATM   21  C   UNL     1     -44.103 -51.423  15.411  1.00  0.00     0.032 A 
ENDBRANCH   1  12
TORSDOF 4
ENDMDL
MODEL 3
REMARK VINA RESULT:      -6.1      1.900      3.266
REMARK  4 active torsions:
REMARK  status: ('A' for Active; 'I' for Inactive)
REMARK    1  A    between atoms: O_1  and  C_2 
REMARK    2  A    between atoms: C_2  and  C_3 
REMARK    3  A    between atoms: C_2  and  C_14 
REMARK    4  A    between atoms: C_3  and  N_4 
ROOT
HETATM    1  C   UNL     1     -42.440 -50.606  12.998  1.00  0.00     0.166 C 
ENDROOT
BRANCH   1   2
HETATM    2  C   UNL     1     -42.876 -52.082  12.919  1.00  0.00     0.172 C 
BRANCH   2   3
HETATM    3  O   UNL     1     -42.710 -52.610  11.599  1.00  0.00    -0.389 OA
HETATM    4  H   UNL     1     -43.186 -52.032  10.983  1.00  0.00     0.210 HD
ENDBRANCH   2   3
BRANCH   2   5
HETATM    5  C   UNL     1     -44.288 -52.323  13.399  1.00  0.00     0.011 A 
HETATM    6  C   UNL     1     -45.224 -51.285  13.509  1.00  0.00     0.013 A 
HETATM    7  C   UNL     1     -46.507 -51.531  14.003  1.00  0.00     0.001 A 
HETATM    8  C   UNL     1     -46.875 -52.820  14.387  1.00  0.00     0.003 A 
HETATM    9  C   UNL     1     -45.957 -53.863  14.282  1.00  0.00     0.043 A 
HETATM   10  C   UNL     1     -44.677 -53.607  13.797  1.00  0.00     0.125 A 
HETATM   11  F   UNL     1     -43.797 -54.616  13.729  1.00  0.00    -0.205 F 
ENDBRANCH   2   5
ENDBRANCH   1   2
BRANCH   1  12
HETATM   12  N   UNL     1     -41.199 -50.304  12.307  1.00  0.00    -0.338 N 
HETATM   13  C   UNL     1     -41.112 -49.644  11.111  1.00  0.00     0.184 A 
HETATM   14  N   UNL     1     -39.869 -49.541  10.702  1.00  0.00    -0.350 N 
HETATM   15  C   UNL     1     -39.117 -50.141  11.680  1.00  0.00     0.060 A 
ATOM     16  HN  UNL     1     -39.534 -49.107   9.842  1.00  0.00     0.166 HD
HETATM   17  C   UNL     1     -37.728 -50.325  11.746  1.00  0.00     0.032 A 
HETATM   18  C   UNL     1     -39.921 -50.602  12.723  1.00  0.00     0.062 A 
HETATM   19  C   UNL     1     -37.183 -50.962  12.865  1.00  0.00     0.002 A 
HETATM   20  C   UNL     1     -38.003 -51.397  13.907  1.00  0.00     0.002 A 
HETATM   21  C   UNL     1     -39.392 -51.225  13.860  1.00  0.00     0.032 A 
ENDBRANCH   1  12
TORSDOF 4
ENDMDL
MODEL 4
REMARK VINA RESULT:      -6.1      1.615      2.601
REMARK  4 active torsions:
REMARK  status: ('A' for Active; 'I' for Inactive)
REMARK    1  A    between atoms: O_1  and  C_2 
REMARK    2  A    between atoms: C_2  and  C_3 
REMARK    3  A    between atoms: C_2  and  C_14 
REMARK    4  A    between atoms: C_3  and  N_4 
ROOT
HETATM    1  C   UNL     1     -41.648 -51.319  12.258  1.00  0.00     0.166 C 
ENDROOT
BRANCH   1   2
HETATM    2  C   UNL     1     -41.279 -52.784  12.562  1.00  0.00     0.172 C 
BRANCH   2   3
HETATM    3  O   UNL     1     -40.729 -53.437  11.413  1.00  0.00    -0.389 OA
HETATM    4  H   UNL     1     -40.073 -54.082  11.721  1.00  0.00     0.210 HD
ENDBRANCH   2   3
BRANCH   2   5
HETATM    5  C   UNL     1     -42.424 -53.595  13.120  1.00  0.00     0.011 A 
HETATM    6  C   UNL     1     -43.713 -53.539  12.569  1.00  0.00     0.013 A 
HETATM    7  C   UNL     1     -44.763 -54.263  13.138  1.00  0.00     0.001 A 
HETATM    8  C   UNL     1     -44.539 -55.058  14.261  1.00  0.00     0.003 A 
HETATM    9  C   UNL     1     -43.264 -55.125  14.819  1.00  0.00     0.043 A 
HETATM   10  C   UNL     1     -42.225 -54.394  14.251  1.00  0.00     0.125 A 
HETATM   11  F   UNL     1     -41.011 -54.447  14.817  1.00  0.00    -0.205 F 
ENDBRANCH   2   5
ENDBRANCH   1   2
BRANCH   1  12
HETATM   12  N   UNL     1     -40.520 -50.405  12.221  1.00  0.00    -0.338 N 
HETATM   13  C   UNL     1     -40.150 -49.665  11.131  1.00  0.00     0.184 A 
HETATM   14  N   UNL     1     -39.073 -48.954  11.369  1.00  0.00    -0.350 N 
HETATM   15  C   UNL     1     -38.742 -49.228  12.672  1.00  0.00     0.060 A 
ATOM     16  HN  UNL     1     -38.587 -48.330  10.724  1.00  0.00     0.166 HD
HETATM   17  C   UNL     1     -37.667 -48.749  13.435  1.00  0.00     0.032 A 
HETATM   18  C   UNL     1     -39.653 -50.112  13.248  1.00  0.00     0.062 A 
HETATM   19  C   UNL     1     -37.542 -49.166  14.764  1.00  0.00     0.002 A 
HETATM   20  C   UNL     1     -38.476 -50.035  15.328  1.00  0.00     0.002 A 
HETATM   21  C   UNL     1     -39.555 -50.527  14.583  1.00  0.00     0.032 A 
ENDBRANCH   1  12
TORSDOF 4
ENDMDL
MODEL 5
REMARK VINA RESULT:      -6.0      3.015      6.341
REMARK  4 active torsions:
REMARK  status: ('A' for Active; 'I' for Inactive)
REMARK    1  A    between atoms: O_1  and  C_2 
REMARK    2  A    between atoms: C_2  and  C_3 
REMARK    3  A    between atoms: C_2  and  C_14 
REMARK    4  A    between atoms: C_3  and  N_4 
ROOT
HETATM    1  C   UNL     1     -41.118 -50.178  12.623  1.00  0.00     0.166 C 
ENDROOT
BRANCH   1   2
HETATM    2  C   UNL     1     -41.168 -49.375  11.309  1.00  0.00     0.172 C 
BRANCH   2   3
HETATM    3  O   UNL     1     -40.365 -49.981  10.291  1.00  0.00    -0.389 OA
HETATM    4  H   UNL     1     -39.756 -50.601  10.719  1.00  0.00     0.210 HD
ENDBRANCH   2   3
BRANCH   2   5
HETATM    5  C   UNL     1     -40.787 -47.922  11.471  1.00  0.00     0.011 A 
HETATM    6  C   UNL     1     -39.897 -47.493  12.467  1.00  0.00     0.013 A 
HETATM    7  C   UNL     1     -39.603 -46.136  12.623  1.00  0.00     0.001 A 
HETATM    8  C   UNL     1     -40.189 -45.190  11.783  1.00  0.00     0.003 A 
HETATM    9  C   UNL     1     -41.074 -45.601  10.789  1.00  0.00     0.043 A 
HETATM   10  C   UNL     1     -41.368 -46.954  10.645  1.00  0.00     0.125 A 
HETATM   11  F   UNL     1     -42.244 -47.329   9.701  1.00  0.00    -0.205 F 
ENDBRANCH   2   5
ENDBRANCH   1   2
BRANCH   1  12
HETATM   12  N   UNL     1     -41.850 -51.431  12.594  1.00  0.00    -0.338 N 
HETATM   13  C   UNL     1     -41.302 -52.648  12.289  1.00  0.00     0.184 A 
HETATM   14  N   UNL     1     -42.201 -53.604  12.305  1.00  0.00    -0.350 N 
HETATM   15  C   UNL     1     -43.376 -52.986  12.651  1.00  0.00     0.060 A 
ATOM     16  HN  UNL     1     -42.057 -54.593  12.103  1.00  0.00     0.166 HD
HETATM   17  C   UNL     1     -44.658 -53.536  12.799  1.00  0.00     0.032 A 
HETATM   18  C   UNL     1     -43.183 -51.623  12.875  1.00  0.00     0.062 A 
HETATM   19  C   UNL     1     -45.713 -52.698  13.178  1.00  0.00     0.002 A 
HETATM   20  C   UNL     1     -45.494 -51.342  13.417  1.00  0.00     0.002 A 
HETATM   21  C   UNL     1     -44.222 -50.773  13.272  1.00  0.00     0.032 A 
ENDBRANCH   1  12
TORSDOF 4
ENDMDL
MODEL 6
REMARK VINA RESULT:      -5.9      2.528      3.694
REMARK  4 active torsions:
REMARK  status: ('A' for Active; 'I' for Inactive)
REMARK    1  A    between atoms: O_1  and  C_2 
REMARK    2  A    between atoms: C_2  and  C_3 
REMARK    3  A    between atoms: C_2  and  C_14 
REMARK    4  A    between atoms: C_3  and  N_4 
ROOT
HETATM    1  C   UNL     1     -41.955 -49.033  12.030  1.00  0.00     0.166 C 
ENDROOT
BRANCH   1   2
HETATM    2  C   UNL     1     -40.804 -50.007  11.712  1.00  0.00     0.172 C 
BRANCH   2   3
HETATM    3  O   UNL     1     -40.564 -50.096  10.304  1.00  0.00    -0.389 OA
HETATM    4  H   UNL     1     -39.645 -50.378  10.174  1.00  0.00     0.210 HD
ENDBRANCH   2   3
BRANCH   2   5
HETATM    5  C   UNL     1     -41.001 -51.388  12.292  1.00  0.00     0.011 A 
HETATM    6  C   UNL     1     -42.237 -52.047  12.240  1.00  0.00     0.013 A 
HETATM    7  C   UNL     1     -42.400 -53.303  12.828  1.00  0.00     0.001 A 
HETATM    8  C   UNL     1     -41.329 -53.921  13.472  1.00  0.00     0.003 A 
HETATM    9  C   UNL     1     -40.094 -53.279  13.531  1.00  0.00     0.043 A 
HETATM   10  C   UNL     1     -39.942 -52.023  12.949  1.00  0.00     0.125 A 
HETATM   11  F   UNL     1     -38.754 -51.408  13.040  1.00  0.00    -0.205 F 
ENDBRANCH   2   5
ENDBRANCH   1   2
BRANCH   1  12
HETATM   12  N   UNL     1     -42.050 -47.894  11.134  1.00  0.00    -0.338 N 
HETATM   13  C   UNL     1     -41.021 -47.040  10.846  1.00  0.00     0.184 A 
HETATM   14  N   UNL     1     -41.398 -46.080  10.034  1.00  0.00    -0.350 N 
HETATM   15  C   UNL     1     -42.721 -46.332   9.770  1.00  0.00     0.060 A 
ATOM     16  HN  UNL     1     -40.830 -45.312   9.676  1.00  0.00     0.166 HD
HETATM   17  C   UNL     1     -43.620 -45.609   8.973  1.00  0.00     0.032 A 
HETATM   18  C   UNL     1     -43.154 -47.487  10.420  1.00  0.00     0.062 A 
HETATM   19  C   UNL     1     -44.933 -46.074   8.843  1.00  0.00     0.002 A 
HETATM   20  C   UNL     1     -45.340 -47.244   9.485  1.00  0.00     0.002 A 
HETATM   21  C   UNL     1     -44.458 -47.979  10.288  1.00  0.00     0.032 A 
ENDBRANCH   1  12
TORSDOF 4
ENDMDL
MODEL 7
REMARK VINA RESULT:      -5.8      2.082      2.428
REMARK  4 active torsions:
REMARK  status: ('A' for Active; 'I' for Inactive)
REMARK    1  A    between atoms: O_1  and  C_2 
REMARK    2  A    between atoms: C_2  and  C_3 
REMARK    3  A    between atoms: C_2  and  C_14 
REMARK    4  A    between atoms: C_3  and  N_4 
ROOT
HETATM    1  C   UNL     1     -42.255 -52.124  13.766  1.00  0.00     0.166 C 
ENDROOT
BRANCH   1   2
HETATM    2  C   UNL     1     -43.440 -53.001  13.317  1.00  0.00     0.172 C 
BRANCH   2   3
HETATM    3  O   UNL     1     -43.619 -52.957  11.898  1.00  0.00    -0.389 OA
HETATM    4  H   UNL     1     -44.075 -53.770  11.629  1.00  0.00     0.210 HD
ENDBRANCH   2   3
BRANCH   2   5
HETATM    5  C   UNL     1     -44.738 -52.668  14.013  1.00  0.00     0.011 A 
HETATM    6  C   UNL     1     -45.594 -51.658  13.548  1.00  0.00     0.013 A 
HETATM    7  C   UNL     1     -46.764 -51.340  14.241  1.00  0.00     0.001 A 
HETATM    8  C   UNL     1     -47.099 -52.031  15.405  1.00  0.00     0.003 A 
HETATM    9  C   UNL     1     -46.261 -53.037  15.879  1.00  0.00     0.043 A 
HETATM   10  C   UNL     1     -45.092 -53.342  15.187  1.00  0.00     0.125 A 
HETATM   11  F   UNL     1     -44.281 -54.294  15.672  1.00  0.00    -0.205 F 
ENDBRANCH   2   5
ENDBRANCH   1   2
BRANCH   1  12
HETATM   12  N   UNL     1     -41.723 -51.251  12.735  1.00  0.00    -0.338 N 
HETATM   13  C   UNL     1     -40.752 -51.605  11.838  1.00  0.00     0.184 A 
HETATM   14  N   UNL     1     -40.437 -50.609  11.043  1.00  0.00    -0.350 N 
HETATM   15  C   UNL     1     -41.250 -49.572  11.428  1.00  0.00     0.060 A 
ATOM     16  HN  UNL     1     -39.739 -50.605  10.299  1.00  0.00     0.166 HD
HETATM   17  C   UNL     1     -41.321 -48.265  10.924  1.00  0.00     0.032 A 
HETATM   18  C   UNL     1     -42.096 -49.954  12.469  1.00  0.00     0.062 A 
HETATM   19  C   UNL     1     -42.250 -47.377  11.476  1.00  0.00     0.002 A 
HETATM   20  C   UNL     1     -43.102 -47.786  12.502  1.00  0.00     0.002 A 
HETATM   21  C   UNL     1     -43.046 -49.085  13.021  1.00  0.00     0.032 A 
ENDBRANCH   1  12
TORSDOF 4
ENDMDL
MODEL 8
REMARK VINA RESULT:      -5.8      2.135      3.410
REMARK  4 active torsions:
REMARK  status: ('A' for Active; 'I' for Inactive)
REMARK    1  A    between atoms: O_1  and  C_2 
REMARK    2  A    between atoms: C_2  and  C_3 
REMARK    3  A    between atoms: C_2  and  C_14 
REMARK    4  A    between atoms: C_3  and  N_4 
ROOT
HETATM    1  C   UNL     1     -42.542 -51.448  12.938  1.00  0.00     0.166 C 
ENDROOT
BRANCH   1   2
HETATM    2  C   UNL     1     -43.352 -52.759  12.961  1.00  0.00     0.172 C 
BRANCH   2   3
HETATM    3  O   UNL     1     -43.555 -53.276  11.642  1.00  0.00    -0.389 OA
HETATM    4  H   UNL     1     -43.919 -54.171  11.724  1.00  0.00     0.210 HD
ENDBRANCH   2   3
BRANCH   2   5
HETATM    5  C   UNL     1     -44.676 -52.641  13.680  1.00  0.00     0.011 A 
HETATM    6  C   UNL     1     -45.361 -51.421  13.779  1.00  0.00     0.013 A 
HETATM    7  C   UNL     1     -46.559 -51.334  14.493  1.00  0.00     0.001 A 
HETATM    8  C   UNL     1     -47.092 -52.464  15.110  1.00  0.00     0.003 A 
HETATM    9  C   UNL     1     -46.423 -53.683  15.019  1.00  0.00     0.043 A 
HETATM   10  C   UNL     1     -45.225 -53.760  14.314  1.00  0.00     0.125 A 
HETATM   11  F   UNL     1     -44.580 -54.934  14.260  1.00  0.00    -0.205 F 
ENDBRANCH   2   5
ENDBRANCH   1   2
BRANCH   1  12
HETATM   12  N   UNL     1     -41.117 -51.613  13.165  1.00  0.00    -0.338 N 
HETATM   13  C   UNL     1     -40.556 -52.621  13.901  1.00  0.00     0.184 A 
HETATM   14  N   UNL     1     -39.251 -52.504  13.971  1.00  0.00    -0.350 N 
HETATM   15  C   UNL     1     -38.950 -51.386  13.235  1.00  0.00     0.060 A 
ATOM     16  HN  UNL     1     -38.599 -53.114  14.465  1.00  0.00     0.166 HD
HETATM   17  C   UNL     1     -37.703 -50.793  12.989  1.00  0.00     0.032 A 
HETATM   18  C   UNL     1     -40.100 -50.820  12.685  1.00  0.00     0.062 A 
HETATM   19  C   UNL     1     -37.645 -49.649  12.186  1.00  0.00     0.002 A 
HETATM   20  C   UNL     1     -38.806 -49.112  11.628  1.00  0.00     0.002 A 
HETATM   21  C   UNL     1     -40.061 -49.687  11.863  1.00  0.00     0.032 A 
ENDBRANCH   1  12
TORSDOF 4
ENDMDL
MODEL 9
REMARK VINA RESULT:      -5.6      2.487      5.494
REMARK  4 active torsions:
REMARK  status: ('A' for Active; 'I' for Inactive)
REMARK    1  A    between atoms: O_1  and  C_2 
REMARK    2  A    between atoms: C_2  and  C_3 
REMARK    3  A    between atoms: C_2  and  C_14 
REMARK    4  A    between atoms: C_3  and  N_4 
ROOT
HETATM    1  C   UNL     1     -41.404 -52.735  14.034  1.00  0.00     0.166 C 
ENDROOT
BRANCH   1   2
HETATM    2  C   UNL     1     -41.014 -52.356  12.592  1.00  0.00     0.172 C 
BRANCH   2   3
HETATM    3  O   UNL     1     -40.562 -53.495  11.852  1.00  0.00    -0.389 OA
HETATM    4  H   UNL     1     -40.027 -53.176  11.109  1.00  0.00     0.210 HD
ENDBRANCH   2   3
BRANCH   2   5
HETATM    5  C   UNL     1     -39.991 -51.248  12.512  1.00  0.00     0.011 A 
HETATM    6  C   UNL     1     -40.240 -50.055  11.816  1.00  0.00     0.013 A 
HETATM    7  C   UNL     1     -39.255 -49.069  11.719  1.00  0.00     0.001 A 
HETATM    8  C   UNL     1     -38.012 -49.257  12.319  1.00  0.00     0.003 A 
HETATM    9  C   UNL     1     -37.750 -50.436  13.015  1.00  0.00     0.043 A 
HETATM   10  C   UNL     1     -38.734 -51.418  13.101  1.00  0.00     0.125 A 
HETATM   11  F   UNL     1     -38.455 -52.557  13.750  1.00  0.00    -0.205 F 
ENDBRANCH   2   5
ENDBRANCH   1   2
BRANCH   1  12
HETATM   12  N   UNL     1     -42.705 -53.366  14.164  1.00  0.00    -0.338 N 
HETATM   13  C   UNL     1     -42.910 -54.711  14.306  1.00  0.00     0.184 A 
HETATM   14  N   UNL     1     -44.188 -55.006  14.364  1.00  0.00    -0.350 N 
HETATM   15  C   UNL     1     -44.838 -53.801  14.276  1.00  0.00     0.060 A 
ATOM     16  HN  UNL     1     -44.608 -55.931  14.457  1.00  0.00     0.166 HD
HETATM   17  C   UNL     1     -46.215 -53.533  14.272  1.00  0.00     0.032 A 
HETATM   18  C   UNL     1     -43.933 -52.744  14.183  1.00  0.00     0.062 A 
HETATM   19  C   UNL     1     -46.645 -52.204  14.184  1.00  0.00     0.002 A 
HETATM   20  C   UNL     1     -45.722 -51.161  14.113  1.00  0.00     0.002 A 
HETATM   21  C   UNL     1     -44.343 -51.407  14.113  1.00  0.00     0.032 A 
ENDBRANCH   1  12
TORSDOF 4
ENDMDL
