MODEL 1
REMARK VINA RESULT:      -6.2      0.000      0.000
REMARK  5 active torsions:
REMARK  status: ('A' for Active; 'I' for Inactive)
REMARK       I    between atoms: C_2  and  N_3 
REMARK       I    between atoms: C_2  and  N_17 
REMARK    1  A    between atoms: N_3  and  C_4 
REMARK    2  A    between atoms: C_4  and  C_5 
REMARK    3  A    between atoms: C_5  and  C_6 
REMARK    4  A    between atoms: C_5  and  N_11 
REMARK    5  A    between atoms: N_17  and  C_18 
ROOT
HETATM    1  O   UNL     1     -43.399 -50.489  14.437  1.00  0.00    -0.247 OA
HETATM    2  C   UNL     1     -43.792 -50.433  13.281  1.00  0.00     0.320 C 
HETATM    3  N   UNL     1     -43.327 -49.481  12.397  1.00  0.00    -0.341 N 
HETATM    4  N   UNL     1     -44.669 -51.301  12.673  1.00  0.00    -0.309 N 
HETATM    5  H   UNL     1     -44.036 -49.123  11.772  1.00  0.00     0.164 HD
HETATM    6  H   UNL     1     -44.714 -51.249  11.666  1.00  0.00     0.170 HD
ENDROOT
BRANCH   3   7
HETATM    7  C   UNL     1     -42.368 -48.502  12.882  1.00  0.00     0.160 C 
BRANCH   7   8
HETATM    8  C   UNL     1     -40.974 -48.492  12.144  1.00  0.00     0.247 C 
BRANCH   8   9
HETATM    9  C   UNL     1     -40.779 -47.185  11.309  1.00  0.00     0.046 C 
HETATM   10  C   UNL     1     -40.609 -45.865  12.048  1.00  0.00     0.035 C 
HETATM   11  C   UNL     1     -41.259 -44.831  11.136  1.00  0.00     0.168 C 
HETATM   12  O   UNL     1     -41.675 -45.510   9.946  1.00  0.00    -0.391 OA
HETATM   13  C   UNL     1     -41.889 -46.879  10.312  1.00  0.00     0.174 C 
ENDBRANCH   8   9
BRANCH   8  14
HETATM   14  N   UNL     1     -39.868 -48.764  13.130  1.00  0.00     0.099 N 
HETATM   15  C   UNL     1     -38.503 -48.811  12.529  1.00  0.00     0.299 C 
HETATM   16  C   UNL     1     -38.239 -50.032  11.621  1.00  0.00     0.198 C 
HETATM   17  O   UNL     1     -38.473 -51.268  12.307  1.00  0.00    -0.388 OA
HETATM   18  C   UNL     1     -39.798 -51.300  12.849  1.00  0.00     0.198 C 
HETATM   19  C   UNL     1     -40.019 -50.101  13.793  1.00  0.00     0.299 C 
ENDBRANCH   8  14
ENDBRANCH   7   8
ENDBRANCH   3   7
BRANCH   4  20
HETATM   20  C   UNL     1     -45.253 -52.431  13.292  1.00  0.00     0.038 A 
HETATM   21  C   UNL     1     -44.768 -53.728  13.131  1.00  0.00     0.046 A 
HETATM   22  C   UNL     1     -45.458 -54.773  13.723  1.00  0.00     0.090 A 
HETATM   23  N   UNL     1     -46.572 -54.608  14.466  1.00  0.00    -0.375 N 
HETATM   24  C   UNL     1     -47.004 -53.341  14.629  1.00  0.00     0.090 A 
ATOM     25  HN  UNL     1     -47.061 -55.400  14.883  1.00  0.00     0.164 HD
HETATM   26  C   UNL     1     -46.383 -52.231  14.080  1.00  0.00     0.046 A 
ENDBRANCH   4  20
TORSDOF 5
ENDMDL
MODEL 2
REMARK VINA RESULT:      -5.8      1.581      3.736
REMARK  5 active torsions:
REMARK  status: ('A' for Active; 'I' for Inactive)
REMARK       I    between atoms: C_2  and  N_3 
REMARK       I    between atoms: C_2  and  N_17 
REMARK    1  A    between atoms: N_3  and  C_4 
REMARK    2  A    between atoms: C_4  and  C_5 
REMARK    3  A    between atoms: C_5  and  C_6 
REMARK    4  A    between atoms: C_5  and  N_11 
REMARK    5  A    between atoms: N_17  and  C_18 
ROOT
HETATM    1  O   UNL     1     -42.151 -51.924  13.869  1.00  0.00    -0.247 OA
HETATM    2  C   UNL     1     -42.603 -51.816  12.738  1.00  0.00     0.320 C 
HETATM    3  N   UNL     1     -41.890 -51.213  11.721  1.00  0.00    -0.341 N 
HETATM    4  N   UNL     1     -43.806 -52.309  12.289  1.00  0.00    -0.309 N 
HETATM    5  H   UNL     1     -42.459 -50.657  11.098  1.00  0.00     0.164 HD
HETATM    6  H   UNL     1     -43.926 -52.332  11.287  1.00  0.00     0.170 HD
ENDROOT
BRANCH   3   7
HETATM    7  C   UNL     1     -40.581 -50.663  12.032  1.00  0.00     0.160 C 
BRANCH   7   8
HETATM    8  C   UNL     1     -40.566 -49.146  12.461  1.00  0.00     0.247 C 
BRANCH   8   9
HETATM    9  C   UNL     1     -39.470 -48.867  13.540  1.00  0.00     0.046 C 
HETATM   10  C   UNL     1     -38.049 -49.349  13.280  1.00  0.00     0.035 C 
HETATM   11  C   UNL     1     -37.507 -49.701  14.660  1.00  0.00     0.168 C 
HETATM   12  O   UNL     1     -38.514 -49.357  15.617  1.00  0.00    -0.391 OA
HETATM   13  C   UNL     1     -39.769 -49.419  14.928  1.00  0.00     0.174 C 
ENDBRANCH   8   9
BRANCH   8  14
HETATM   14  N   UNL     1     -40.466 -48.268  11.241  1.00  0.00     0.099 N 
HETATM   15  C   UNL     1     -40.152 -46.838  11.533  1.00  0.00     0.299 C 
HETATM   16  C   UNL     1     -41.289 -46.055  12.225  1.00  0.00     0.198 C 
HETATM   17  O   UNL     1     -42.507 -46.106  11.472  1.00  0.00    -0.388 OA
HETATM   18  C   UNL     1     -42.888 -47.463  11.219  1.00  0.00     0.198 C 
HETATM   19  C   UNL     1     -41.758 -48.207  10.481  1.00  0.00     0.299 C 
ENDBRANCH   8  14
ENDBRANCH   7   8
ENDBRANCH   3   7
BRANCH   4  20
HETATM   20  C   UNL     1     -44.723 -53.049  13.070  1.00  0.00     0.038 A 
HETATM   21  C   UNL     1     -44.633 -54.428  13.254  1.00  0.00     0.046 A 
HETATM   22  C   UNL     1     -45.626 -55.067  13.979  1.00  0.00     0.090 A 
HETATM   23  N   UNL     1     -46.675 -54.427  14.536  1.00  0.00    -0.375 N 
HETATM   24  C   UNL     1     -46.723 -53.090  14.367  1.00  0.00     0.090 A 
ATOM     25  HN  UNL     1     -47.393 -54.928  15.059  1.00  0.00     0.164 HD
HETATM   26  C   UNL     1     -45.779 -52.361  13.662  1.00  0.00     0.046 A 
ENDBRANCH   4  20
TORSDOF 5
ENDMDL
MODEL 3
REMARK VINA RESULT:      -5.6      4.225      6.228
REMARK  5 active torsions:
REMARK  status: ('A' for Active; 'I' for Inactive)
REMARK       I    between atoms: C_2  and  N_3 
REMARK       I    between atoms: C_2  and  N_17 
REMARK    1  A    between atoms: N_3  and  C_4 
REMARK    2  A    between atoms: C_4  and  C_5 
REMARK    3  A    between atoms: C_5  and  C_6 
REMARK    4  A    between atoms: C_5  and  N_11 
REMARK    5  A    between atoms: N_17  and  C_18 
ROOT
HETATM    1  O   UNL     1     -41.754 -48.265  10.569  1.00  0.00    -0.247 OA
HETATM    2  C   UNL     1     -41.781 -47.097  10.206  1.00  0.00     0.320 C 
HETATM    3  N   UNL     1     -40.777 -46.208  10.531  1.00  0.00    -0.341 N 
HETATM    4  N   UNL     1     -42.732 -46.514   9.401  1.00  0.00    -0.309 N 
HETATM    5  H   UNL     1     -41.108 -45.276  10.739  1.00  0.00     0.164 HD
HETATM    6  H   UNL     1     -42.490 -45.612   9.016  1.00  0.00     0.170 HD
ENDROOT
BRANCH   3   7
HETATM    7  C   UNL     1     -39.680 -46.682  11.359  1.00  0.00     0.160 C 
BRANCH   7   8
HETATM    8  C   UNL     1     -39.912 -46.585  12.916  1.00  0.00     0.247 C 
BRANCH   8   9
HETATM    9  C   UNL     1     -39.893 -47.997  13.586  1.00  0.00     0.046 C 
HETATM   10  C   UNL     1     -39.223 -49.147  12.847  1.00  0.00     0.035 C 
HETATM   11  C   UNL     1     -40.031 -50.377  13.242  1.00  0.00     0.168 C 
HETATM   12  O   UNL     1     -41.014 -49.956  14.194  1.00  0.00    -0.391 OA
HETATM   13  C   UNL     1     -41.260 -48.567  13.939  1.00  0.00     0.174 C 
ENDBRANCH   8   9
BRANCH   8  14
HETATM   14  N   UNL     1     -38.942 -45.603  13.520  1.00  0.00     0.099 N 
HETATM   15  C   UNL     1     -39.123 -45.378  14.984  1.00  0.00     0.299 C 
HETATM   16  C   UNL     1     -40.411 -44.618  15.368  1.00  0.00     0.198 C 
HETATM   17  O   UNL     1     -40.502 -43.352  14.702  1.00  0.00    -0.388 OA
HETATM   18  C   UNL     1     -40.399 -43.520  13.284  1.00  0.00     0.198 C 
HETATM   19  C   UNL     1     -39.081 -44.233  12.924  1.00  0.00     0.299 C 
ENDBRANCH   8  14
ENDBRANCH   7   8
ENDBRANCH   3   7
BRANCH   4  20
HETATM   20  C   UNL     1     -43.840 -47.186   8.836  1.00  0.00     0.038 A 
HETATM   21  C   UNL     1     -45.111 -47.180   9.406  1.00  0.00     0.046 A 
HETATM   22  C   UNL     1     -46.111 -47.930   8.809  1.00  0.00     0.090 A 
HETATM   23  N   UNL     1     -45.930 -48.659   7.688  1.00  0.00    -0.375 N 
HETATM   24  C   UNL     1     -44.699 -48.625   7.140  1.00  0.00     0.090 A 
ATOM     25  HN  UNL     1     -46.686 -49.207   7.277  1.00  0.00     0.164 HD
HETATM   26  C   UNL     1     -43.636 -47.904   7.661  1.00  0.00     0.046 A 
ENDBRANCH   4  20
TORSDOF 5
ENDMDL
MODEL 4
REMARK VINA RESULT:      -5.6      1.774      2.241
REMARK  5 active torsions:
REMARK  status: ('A' for Active; 'I' for Inactive)
REMARK       I    between atoms: C_2  and  N_3 
REMARK       I    between atoms: C_2  and  N_17 
REMARK    1  A    between atoms: N_3  and  C_4 
REMARK    2  A    between atoms: C_4  and  C_5 
REMARK    3  A    between atoms: C_5  and  C_6 
REMARK    4  A    between atoms: C_5  and  N_11 
REMARK    5  A    between atoms: N_17  and  C_18 
ROOT
HETATM    1  O   UNL     1     -42.368 -51.500  13.943  1.00  0.00    -0.247 OA
HETATM    2  C   UNL     1     -42.606 -51.693  12.759  1.00  0.00     0.320 C 
HETATM    3  N   UNL     1     -41.765 -51.244  11.761  1.00  0.00    -0.341 N 
HETATM    4  N   UNL     1     -43.661 -52.411  12.245  1.00  0.00    -0.309 N 
HETATM    5  H   UNL     1     -42.249 -50.906  10.941  1.00  0.00     0.164 HD
HETATM    6  H   UNL     1     -43.589 -52.664  11.270  1.00  0.00     0.170 HD
ENDROOT
BRANCH   3   7
HETATM    7  C   UNL     1     -40.584 -50.488  12.147  1.00  0.00     0.160 C 
BRANCH   7   8
HETATM    8  C   UNL     1     -40.745 -48.919  12.125  1.00  0.00     0.247 C 
BRANCH   8   9
HETATM    9  C   UNL     1     -41.888 -48.474  11.157  1.00  0.00     0.046 C 
HETATM   10  C   UNL     1     -41.665 -47.253  10.275  1.00  0.00     0.035 C 
HETATM   11  C   UNL     1     -43.045 -46.620  10.146  1.00  0.00     0.168 C 
HETATM   12  O   UNL     1     -43.974 -47.472  10.825  1.00  0.00    -0.391 OA
HETATM   13  C   UNL     1     -43.224 -48.176  11.823  1.00  0.00     0.174 C 
ENDBRANCH   8   9
BRANCH   8  14
HETATM   14  N   UNL     1     -40.891 -48.398  13.531  1.00  0.00     0.099 N 
HETATM   15  C   UNL     1     -40.579 -46.947  13.687  1.00  0.00     0.299 C 
HETATM   16  C   UNL     1     -39.088 -46.584  13.515  1.00  0.00     0.198 C 
HETATM   17  O   UNL     1     -38.251 -47.324  14.411  1.00  0.00    -0.388 OA
HETATM   18  C   UNL     1     -38.466 -48.731  14.255  1.00  0.00     0.198 C 
HETATM   19  C   UNL     1     -39.950 -49.075  14.485  1.00  0.00     0.299 C 
ENDBRANCH   8  14
ENDBRANCH   7   8
ENDBRANCH   3   7
BRANCH   4  20
HETATM   20  C   UNL     1     -44.648 -53.069  13.015  1.00  0.00     0.038 A 
HETATM   21  C   UNL     1     -44.625 -54.437  13.281  1.00  0.00     0.046 A 
HETATM   22  C   UNL     1     -45.680 -54.994  13.985  1.00  0.00     0.090 A 
HETATM   23  N   UNL     1     -46.729 -54.283  14.448  1.00  0.00    -0.375 N 
HETATM   24  C   UNL     1     -46.713 -52.958  14.202  1.00  0.00     0.090 A 
ATOM     25  HN  UNL     1     -47.494 -54.726  14.957  1.00  0.00     0.164 HD
HETATM   26  C   UNL     1     -45.704 -52.308  13.509  1.00  0.00     0.046 A 
ENDBRANCH   4  20
TORSDOF 5
ENDMDL
MODEL 5
REMARK VINA RESULT:      -5.4      1.774      3.495
REMARK  5 active torsions:
REMARK  status: ('A' for Active; 'I' for Inactive)
REMARK       I    between atoms: C_2  and  N_3 
REMARK       I    between atoms: C_2  and  N_17 
REMARK    1  A    between atoms: N_3  and  C_4 
REMARK    2  A    between atoms: C_4  and  C_5 
REMARK    3  A    between atoms: C_5  and  C_6 
REMARK    4  A    between atoms: C_5  and  N_11 
REMARK    5  A    between atoms: N_17  and  C_18 
ROOT
HETATM    1  O   UNL     1     -42.789 -51.239  14.287  1.00  0.00    -0.247 OA
HETATM    2  C   UNL     1     -43.206 -51.135  13.142  1.00  0.00     0.320 C 
HETATM    3  N   UNL     1     -42.604 -50.305  12.219  1.00  0.00    -0.341 N 
HETATM    4  N   UNL     1     -44.249 -51.837  12.586  1.00  0.00    -0.309 N 
HETATM    5  H   UNL     1     -43.256 -49.834  11.607  1.00  0.00     0.164 HD
HETATM    6  H   UNL     1     -44.319 -51.799  11.579  1.00  0.00     0.170 HD
ENDROOT
BRANCH   3   7
HETATM    7  C   UNL     1     -41.464 -49.511  12.648  1.00  0.00     0.160 C 
BRANCH   7   8
HETATM    8  C   UNL     1     -41.561 -47.965  12.351  1.00  0.00     0.247 C 
BRANCH   8   9
HETATM    9  C   UNL     1     -40.841 -47.124  13.454  1.00  0.00     0.046 C 
HETATM   10  C   UNL     1     -39.590 -47.695  14.108  1.00  0.00     0.035 C 
HETATM   11  C   UNL     1     -39.635 -47.173  15.539  1.00  0.00     0.168 C 
HETATM   12  O   UNL     1     -40.771 -46.308  15.644  1.00  0.00    -0.391 OA
HETATM   13  C   UNL     1     -41.706 -46.741  14.648  1.00  0.00     0.174 C 
ENDBRANCH   8   9
BRANCH   8  14
HETATM   14  N   UNL     1     -41.086 -47.680  10.950  1.00  0.00     0.099 N 
HETATM   15  C   UNL     1     -40.576 -46.293  10.742  1.00  0.00     0.299 C 
HETATM   16  C   UNL     1     -41.659 -45.192  10.792  1.00  0.00     0.198 C 
HETATM   17  O   UNL     1     -42.710 -45.434   9.848  1.00  0.00    -0.388 OA
HETATM   18  C   UNL     1     -43.278 -46.733  10.049  1.00  0.00     0.198 C 
HETATM   19  C   UNL     1     -42.187 -47.816   9.941  1.00  0.00     0.299 C 
ENDBRANCH   8  14
ENDBRANCH   7   8
ENDBRANCH   3   7
BRANCH   4  20
HETATM   20  C   UNL     1     -45.010 -52.825  13.252  1.00  0.00     0.038 A 
HETATM   21  C   UNL     1     -44.711 -54.185  13.202  1.00  0.00     0.046 A 
HETATM   22  C   UNL     1     -45.564 -55.077  13.831  1.00  0.00     0.090 A 
HETATM   23  N   UNL     1     -46.668 -54.703  14.510  1.00  0.00    -0.375 N 
HETATM   24  C   UNL     1     -46.920 -53.380  14.567  1.00  0.00     0.090 A 
ATOM     25  HN  UNL     1     -47.280 -55.386  14.957  1.00  0.00     0.164 HD
HETATM   26  C   UNL     1     -46.127 -52.411  13.973  1.00  0.00     0.046 A 
ENDBRANCH   4  20
TORSDOF 5
ENDMDL
MODEL 6
REMARK VINA RESULT:      -5.4      3.353      5.989
REMARK  5 active torsions:
REMARK  status: ('A' for Active; 'I' for Inactive)
REMARK       I    between atoms: C_2  and  N_3 
REMARK       I    between atoms: C_2  and  N_17 
REMARK    1  A    between atoms: N_3  and  C_4 
REMARK    2  A    between atoms: C_4  and  C_5 
REMARK    3  A    between atoms: C_5  and  C_6 
REMARK    4  A    between atoms: C_5  and  N_11 
REMARK    5  A    between atoms: N_17  and  C_18 
ROOT
HETATM    1  O   UNL     1     -42.507 -49.429  11.950  1.00  0.00    -0.247 OA
HETATM    2  C   UNL     1     -41.574 -49.393  11.161  1.00  0.00     0.320 C 
HETATM    3  N   UNL     1     -40.620 -50.390  11.114  1.00  0.00    -0.341 N 
HETATM    4  N   UNL     1     -41.360 -48.442  10.191  1.00  0.00    -0.309 N 
HETATM    5  H   UNL     1     -39.683 -50.050  10.942  1.00  0.00     0.164 HD
HETATM    6  H   UNL     1     -40.678 -48.678   9.485  1.00  0.00     0.170 HD
ENDROOT
BRANCH   3   7
HETATM    7  C   UNL     1     -40.724 -51.487  12.062  1.00  0.00     0.160 C 
BRANCH   7   8
HETATM    8  C   UNL     1     -39.793 -51.378  13.331  1.00  0.00     0.247 C 
BRANCH   8   9
HETATM    9  C   UNL     1     -39.064 -49.997  13.389  1.00  0.00     0.046 C 
HETATM   10  C   UNL     1     -37.593 -49.964  13.777  1.00  0.00     0.035 C 
HETATM   11  C   UNL     1     -37.425 -48.647  14.525  1.00  0.00     0.168 C 
HETATM   12  O   UNL     1     -38.681 -47.963  14.476  1.00  0.00    -0.391 OA
HETATM   13  C   UNL     1     -39.688 -48.972  14.327  1.00  0.00     0.174 C 
ENDBRANCH   8   9
BRANCH   8  14
HETATM   14  N   UNL     1     -40.578 -51.714  14.573  1.00  0.00     0.099 N 
HETATM   15  C   UNL     1     -39.759 -52.281  15.685  1.00  0.00     0.299 C 
HETATM   16  C   UNL     1     -39.214 -53.703  15.427  1.00  0.00     0.198 C 
HETATM   17  O   UNL     1     -40.263 -54.629  15.121  1.00  0.00    -0.388 OA
HETATM   18  C   UNL     1     -41.041 -54.161  14.013  1.00  0.00     0.198 C 
HETATM   19  C   UNL     1     -41.618 -52.764  14.318  1.00  0.00     0.299 C 
ENDBRANCH   8  14
ENDBRANCH   7   8
ENDBRANCH   3   7
BRANCH   4  20
HETATM   20  C   UNL     1     -42.208 -47.341   9.931  1.00  0.00     0.038 A 
HETATM   21  C   UNL     1     -42.028 -46.084  10.504  1.00  0.00     0.046 A 
HETATM   22  C   UNL     1     -42.960 -45.094  10.239  1.00  0.00     0.090 A 
HETATM   23  N   UNL     1     -44.031 -45.270   9.438  1.00  0.00    -0.375 N 
HETATM   24  C   UNL     1     -44.167 -46.487   8.874  1.00  0.00     0.090 A 
ATOM     25  HN  UNL     1     -44.703 -44.521   9.268  1.00  0.00     0.164 HD
HETATM   26  C   UNL     1     -43.289 -47.539   9.076  1.00  0.00     0.046 A 
ENDBRANCH   4  20
TORSDOF 5
ENDMDL
MODEL 7
REMARK VINA RESULT:      -5.3      3.162      7.971
REMARK  5 active torsions:
REMARK  status: ('A' for Active; 'I' for Inactive)
REMARK       I    between atoms: C_2  and  N_3 
REMARK       I    between atoms: C_2  and  N_17 
REMARK    1  A    between atoms: N_3  and  C_4 
REMARK    2  A    between atoms: C_4  and  C_5 
REMARK    3  A    between atoms: C_5  and  C_6 
REMARK    4  A    between atoms: C_5  and  N_11 
REMARK    5  A    between atoms: N_17  and  C_18 
ROOT
HETATM    1  O   UNL     1     -40.281 -51.733  13.511  1.00  0.00    -0.247 OA
HETATM    2  C   UNL     1     -40.778 -52.037  12.436  1.00  0.00     0.320 C 
HETATM    3  N   UNL     1     -41.262 -53.305  12.188  1.00  0.00    -0.341 N 
HETATM    4  N   UNL     1     -40.990 -51.197  11.368  1.00  0.00    -0.309 N 
HETATM    5  H   UNL     1     -41.085 -53.634  11.249  1.00  0.00     0.164 HD
HETATM    6  H   UNL     1     -41.608 -51.546  10.649  1.00  0.00     0.170 HD
ENDROOT
BRANCH   3   7
HETATM    7  C   UNL     1     -41.136 -54.306  13.235  1.00  0.00     0.160 C 
BRANCH   7   8
HETATM    8  C   UNL     1     -42.413 -54.508  14.139  1.00  0.00     0.247 C 
BRANCH   8   9
HETATM    9  C   UNL     1     -42.043 -54.513  15.658  1.00  0.00     0.046 C 
HETATM   10  C   UNL     1     -40.673 -54.001  16.078  1.00  0.00     0.035 C 
HETATM   11  C   UNL     1     -40.306 -54.844  17.292  1.00  0.00     0.168 C 
HETATM   12  O   UNL     1     -41.422 -55.694  17.578  1.00  0.00    -0.391 OA
HETATM   13  C   UNL     1     -42.125 -55.871  16.341  1.00  0.00     0.174 C 
ENDBRANCH   8   9
BRANCH   8  14
HETATM   14  N   UNL     1     -43.470 -53.501  13.766  1.00  0.00     0.099 N 
HETATM   15  C   UNL     1     -44.168 -52.879  14.930  1.00  0.00     0.299 C 
HETATM   16  C   UNL     1     -45.096 -53.834  15.712  1.00  0.00     0.198 C 
HETATM   17  O   UNL     1     -46.081 -54.435  14.864  1.00  0.00    -0.388 OA
HETATM   18  C   UNL     1     -45.457 -55.104  13.762  1.00  0.00     0.198 C 
HETATM   19  C   UNL     1     -44.580 -54.118  12.966  1.00  0.00     0.299 C 
ENDBRANCH   8  14
ENDBRANCH   7   8
ENDBRANCH   3   7
BRANCH   4  20
HETATM   20  C   UNL     1     -40.681 -49.818  11.344  1.00  0.00     0.038 A 
HETATM   21  C   UNL     1     -41.589 -48.837  10.949  1.00  0.00     0.046 A 
HETATM   22  C   UNL     1     -41.162 -47.520  10.893  1.00  0.00     0.090 A 
HETATM   23  N   UNL     1     -39.913 -47.125  11.219  1.00  0.00    -0.375 N 
HETATM   24  C   UNL     1     -39.063 -48.089  11.625  1.00  0.00     0.090 A 
ATOM     25  HN  UNL     1     -39.628 -46.147  11.161  1.00  0.00     0.164 HD
HETATM   26  C   UNL     1     -39.396 -49.431  11.716  1.00  0.00     0.046 A 
ENDBRANCH   4  20
TORSDOF 5
ENDMDL
MODEL 8
REMARK VINA RESULT:      -5.2      2.821      7.016
REMARK  5 active torsions:
REMARK  status: ('A' for Active; 'I' for Inactive)
REMARK       I    between atoms: C_2  and  N_3 
REMARK       I    between atoms: C_2  and  N_17 
REMARK    1  A    between atoms: N_3  and  C_4 
REMARK    2  A    between atoms: C_4  and  C_5 
REMARK    3  A    between atoms: C_5  and  C_6 
REMARK    4  A    between atoms: C_5  and  N_11 
REMARK    5  A    between atoms: N_17  and  C_18 
ROOT
HETATM    1  O   UNL     1     -41.687 -49.273  13.410  1.00  0.00    -0.247 OA
HETATM    2  C   UNL     1     -41.586 -49.972  12.412  1.00  0.00     0.320 C 
HETATM    3  N   UNL     1     -41.518 -51.348  12.487  1.00  0.00    -0.341 N 
HETATM    4  N   UNL     1     -41.589 -49.537  11.107  1.00  0.00    -0.309 N 
HETATM    5  H   UNL     1     -40.884 -51.763  11.818  1.00  0.00     0.164 HD
HETATM    6  H   UNL     1     -41.724 -50.251  10.405  1.00  0.00     0.170 HD
ENDROOT
BRANCH   3   7
HETATM    7  C   UNL     1     -41.532 -51.966  13.803  1.00  0.00     0.160 C 
BRANCH   7   8
HETATM    8  C   UNL     1     -42.888 -52.659  14.215  1.00  0.00     0.247 C 
BRANCH   8   9
HETATM    9  C   UNL     1     -44.054 -52.245  13.260  1.00  0.00     0.046 C 
HETATM   10  C   UNL     1     -45.215 -51.442  13.830  1.00  0.00     0.035 C 
HETATM   11  C   UNL     1     -46.428 -51.905  13.032  1.00  0.00     0.168 C 
HETATM   12  O   UNL     1     -45.961 -52.823  12.038  1.00  0.00    -0.391 OA
HETATM   13  C   UNL     1     -44.752 -53.397  12.549  1.00  0.00     0.174 C 
ENDBRANCH   8   9
BRANCH   8  14
HETATM   14  N   UNL     1     -42.688 -54.147  14.335  1.00  0.00     0.099 N 
HETATM   15  C   UNL     1     -43.577 -54.811  15.333  1.00  0.00     0.299 C 
HETATM   16  C   UNL     1     -43.264 -54.468  16.806  1.00  0.00     0.198 C 
HETATM   17  O   UNL     1     -41.903 -54.764  17.145  1.00  0.00    -0.388 OA
HETATM   18  C   UNL     1     -41.005 -54.096  16.252  1.00  0.00     0.198 C 
HETATM   19  C   UNL     1     -41.304 -54.497  14.794  1.00  0.00     0.299 C 
ENDBRANCH   8  14
ENDBRANCH   7   8
ENDBRANCH   3   7
BRANCH   4  20
HETATM   20  C   UNL     1     -41.732 -48.191  10.699  1.00  0.00     0.038 A 
HETATM   21  C   UNL     1     -42.827 -47.721   9.977  1.00  0.00     0.046 A 
HETATM   22  C   UNL     1     -42.834 -46.399   9.564  1.00  0.00     0.090 A 
HETATM   23  N   UNL     1     -41.843 -45.526   9.837  1.00  0.00    -0.375 N 
HETATM   24  C   UNL     1     -40.808 -45.997  10.562  1.00  0.00     0.090 A 
ATOM     25  HN  UNL     1     -41.875 -44.559   9.513  1.00  0.00     0.164 HD
HETATM   26  C   UNL     1     -40.711 -47.301  11.021  1.00  0.00     0.046 A 
ENDBRANCH   4  20
TORSDOF 5
ENDMDL
MODEL 9
REMARK VINA RESULT:      -5.2      2.764      7.370
REMARK  5 active torsions:
REMARK  status: ('A' for Active; 'I' for Inactive)
REMARK       I    between atoms: C_2  and  N_3 
REMARK       I    between atoms: C_2  and  N_17 
REMARK    1  A    between atoms: N_3  and  C_4 
REMARK    2  A    between atoms: C_4  and  C_5 
REMARK    3  A    between atoms: C_5  and  C_6 
REMARK    4  A    between atoms: C_5  and  N_11 
REMARK    5  A    between atoms: N_17  and  C_18 
ROOT
HETATM    1  O   UNL     1     -40.615 -50.065  12.617  1.00  0.00    -0.247 OA
HETATM    2  C   UNL     1     -41.684 -50.229  12.047  1.00  0.00     0.320 C 
HETATM    3  N   UNL     1     -42.284 -51.469  11.963  1.00  0.00    -0.341 N 
HETATM    4  N   UNL     1     -42.465 -49.250  11.478  1.00  0.00    -0.309 N 
HETATM    5  H   UNL     1     -42.741 -51.642  11.078  1.00  0.00     0.164 HD
HETATM    6  H   UNL     1     -43.412 -49.518  11.252  1.00  0.00     0.170 HD
ENDROOT
BRANCH   3   7
HETATM    7  C   UNL     1     -41.593 -52.608  12.544  1.00  0.00     0.160 C 
BRANCH   7   8
HETATM    8  C   UNL     1     -42.344 -53.326  13.731  1.00  0.00     0.247 C 
BRANCH   8   9
HETATM    9  C   UNL     1     -41.467 -53.362  15.024  1.00  0.00     0.046 C 
HETATM   10  C   UNL     1     -40.254 -52.447  15.110  1.00  0.00     0.035 C 
HETATM   11  C   UNL     1     -39.242 -53.231  15.937  1.00  0.00     0.168 C 
HETATM   12  O   UNL     1     -39.878 -54.445  16.353  1.00  0.00    -0.391 OA
HETATM   13  C   UNL     1     -40.893 -54.726  15.381  1.00  0.00     0.174 C 
ENDBRANCH   8   9
BRANCH   8  14
HETATM   14  N   UNL     1     -43.704 -52.708  13.925  1.00  0.00     0.099 N 
HETATM   15  C   UNL     1     -44.188 -52.715  15.337  1.00  0.00     0.299 C 
HETATM   16  C   UNL     1     -44.544 -54.111  15.892  1.00  0.00     0.198 C 
HETATM   17  O   UNL     1     -45.516 -54.778  15.078  1.00  0.00    -0.388 OA
HETATM   18  C   UNL     1     -45.069 -54.856  13.720  1.00  0.00     0.198 C 
HETATM   19  C   UNL     1     -44.773 -53.446  13.173  1.00  0.00     0.299 C 
ENDBRANCH   8  14
ENDBRANCH   7   8
ENDBRANCH   3   7
BRANCH   4  20
HETATM   20  C   UNL     1     -42.164 -47.868  11.478  1.00  0.00     0.038 A 
HETATM   21  C   UNL     1     -41.247 -47.285  10.606  1.00  0.00     0.046 A 
HETATM   22  C   UNL     1     -40.971 -45.934  10.737  1.00  0.00     0.090 A 
HETATM   23  N   UNL     1     -41.556 -45.138  11.656  1.00  0.00    -0.375 N 
HETATM   24  C   UNL     1     -42.460 -45.720  12.469  1.00  0.00     0.090 A 
ATOM     25  HN  UNL     1     -41.326 -44.147  11.731  1.00  0.00     0.164 HD
HETATM   26  C   UNL     1     -42.805 -47.061  12.414  1.00  0.00     0.046 A 
ENDBRANCH   4  20
TORSDOF 5
ENDMDL
