MODEL 1
REMARK VINA RESULT:      -6.3      0.000      0.000
REMARK  4 active torsions:
REMARK  status: ('A' for Active; 'I' for Inactive)
REMARK    1  A    between atoms: C_2  and  C_3 
REMARK    2  A    between atoms: C_2  and  N_16 
REMARK    3  A    between atoms: C_3  and  N_4 
REMARK       I    between atoms: N_4  and  C_5 
REMARK       I    between atoms: C_5  and  N_7 
REMARK    4  A    between atoms: N_7  and  C_8 
ROOT
HETATM    1  N   UNL     1     -41.702 -53.120  12.193  1.00  0.00    -0.341 N 
HETATM    2  C   UNL     1     -41.433 -51.806  12.444  1.00  0.00     0.321 C 
HETATM    3  O   UNL     1     -41.522 -51.239  13.515  1.00  0.00    -0.247 OA
HETATM    4  N   UNL     1     -40.950 -51.165  11.270  1.00  0.00    -0.293 N 
HETATM    5  H   UNL     1     -41.323 -53.505  11.349  1.00  0.00     0.164 HD
HETATM    6  H   UNL     1     -40.814 -51.695  10.427  1.00  0.00     0.172 HD
ENDROOT
BRANCH   1   7
HETATM    7  C   UNL     1     -41.843 -54.014  13.326  1.00  0.00     0.159 C 
BRANCH   7   8
HETATM    8  C   UNL     1     -43.235 -54.078  14.027  1.00  0.00     0.236 C 
HETATM    9  C   UNL     1     -43.090 -55.247  15.037  1.00  0.00     0.044 C 
BRANCH   8  10
HETATM   10  N   UNL     1     -44.402 -54.313  13.127  1.00  0.00     0.098 N 
HETATM   11  C   UNL     1     -45.086 -53.106  12.607  1.00  0.00     0.299 C 
HETATM   12  C   UNL     1     -45.868 -52.309  13.664  1.00  0.00     0.198 C 
HETATM   13  O   UNL     1     -46.844 -53.128  14.315  1.00  0.00    -0.388 OA
HETATM   14  C   UNL     1     -46.252 -54.312  14.861  1.00  0.00     0.198 C 
HETATM   15  C   UNL     1     -45.489 -55.104  13.782  1.00  0.00     0.299 C 
ENDBRANCH   8  10
ENDBRANCH   7   8
ENDBRANCH   1   7
BRANCH   4  16
HETATM   16  C   UNL     1     -40.613 -49.816  11.251  1.00  0.00     0.127 A 
HETATM   17  C   UNL     1     -41.441 -48.745  10.992  1.00  0.00     0.076 A 
HETATM   18  C   UNL     1     -40.627 -47.598  11.101  1.00  0.00     0.025 A 
HETATM   19  C   UNL     1     -41.049 -46.187  10.940  1.00  0.00     0.070 C 
HETATM   20  N   UNL     1     -39.361 -47.913  11.399  1.00  0.00    -0.302 N 
HETATM   21  N   UNL     1     -39.375 -49.259  11.480  1.00  0.00    -0.281 N 
ATOM     22  HN  UNL     1     -38.571 -47.283  11.532  1.00  0.00     0.186 HD
HETATM   23  C   UNL     1     -38.175 -49.950  11.894  1.00  0.00     0.179 C 
ENDBRANCH   4  16
TORSDOF 4
ENDMDL
MODEL 2
REMARK VINA RESULT:      -6.3      4.510      6.484
REMARK  4 active torsions:
REMARK  status: ('A' for Active; 'I' for Inactive)
REMARK    1  A    between atoms: C_2  and  C_3 
REMARK    2  A    between atoms: C_2  and  N_16 
REMARK    3  A    between atoms: C_3  and  N_4 
REMARK       I    between atoms: N_4  and  C_5 
REMARK       I    between atoms: C_5  and  N_7 
REMARK    4  A    between atoms: N_7  and  C_8 
ROOT
HETATM    1  N   UNL     1     -40.340 -49.899  10.755  1.00  0.00    -0.341 N 
HETATM    2  C   UNL     1     -41.471 -49.145  10.876  1.00  0.00     0.321 C 
HETATM    3  O   UNL     1     -42.230 -49.124  11.825  1.00  0.00    -0.247 OA
HETATM    4  N   UNL     1     -41.629 -48.300   9.743  1.00  0.00    -0.293 N 
HETATM    5  H   UNL     1     -39.679 -49.611  10.059  1.00  0.00     0.164 HD
HETATM    6  H   UNL     1     -40.930 -48.292   9.020  1.00  0.00     0.172 HD
ENDROOT
BRANCH   1   7
HETATM    7  C   UNL     1     -39.814 -50.534  11.948  1.00  0.00     0.159 C 
BRANCH   7   8
HETATM    8  C   UNL     1     -38.649 -49.814  12.695  1.00  0.00     0.236 C 
HETATM    9  C   UNL     1     -37.468 -50.817  12.598  1.00  0.00     0.044 C 
BRANCH   8  10
HETATM   10  N   UNL     1     -38.914 -49.465  14.121  1.00  0.00     0.098 N 
HETATM   11  C   UNL     1     -39.922 -48.406  14.364  1.00  0.00     0.299 C 
HETATM   12  C   UNL     1     -39.480 -46.995  13.942  1.00  0.00     0.198 C 
HETATM   13  O   UNL     1     -38.267 -46.613  14.596  1.00  0.00    -0.388 OA
HETATM   14  C   UNL     1     -37.234 -47.584  14.393  1.00  0.00     0.198 C 
HETATM   15  C   UNL     1     -37.692 -48.987  14.838  1.00  0.00     0.299 C 
ENDBRANCH   8  10
ENDBRANCH   7   8
ENDBRANCH   1   7
BRANCH   4  16
HETATM   16  C   UNL     1     -42.712 -47.438   9.611  1.00  0.00     0.127 A 
HETATM   17  C   UNL     1     -43.949 -47.718   9.075  1.00  0.00     0.076 A 
HETATM   18  C   UNL     1     -44.689 -46.522   9.177  1.00  0.00     0.025 A 
HETATM   19  C   UNL     1     -46.096 -46.304   8.765  1.00  0.00     0.070 C 
HETATM   20  N   UNL     1     -43.971 -45.538   9.731  1.00  0.00    -0.302 N 
HETATM   21  N   UNL     1     -42.777 -46.114   9.982  1.00  0.00    -0.281 N 
ATOM     22  HN  UNL     1     -44.258 -44.578   9.920  1.00  0.00     0.186 HD
HETATM   23  C   UNL     1     -41.767 -45.357  10.685  1.00  0.00     0.179 C 
ENDBRANCH   4  16
TORSDOF 4
ENDMDL
MODEL 3
REMARK VINA RESULT:      -6.2      1.791      2.452
REMARK  4 active torsions:
REMARK  status: ('A' for Active; 'I' for Inactive)
REMARK    1  A    between atoms: C_2  and  C_3 
REMARK    2  A    between atoms: C_2  and  N_16 
REMARK    3  A    between atoms: C_3  and  N_4 
REMARK       I    between atoms: N_4  and  C_5 
REMARK       I    between atoms: C_5  and  N_7 
REMARK    4  A    between atoms: N_7  and  C_8 
ROOT
HETATM    1  N   UNL     1     -42.739 -51.048  12.424  1.00  0.00    -0.341 N 
HETATM    2  C   UNL     1     -42.600 -49.696  12.307  1.00  0.00     0.321 C 
HETATM    3  O   UNL     1     -43.041 -48.853  13.064  1.00  0.00    -0.247 OA
HETATM    4  N   UNL     1     -41.785 -49.375  11.187  1.00  0.00    -0.293 N 
HETATM    5  H   UNL     1     -42.101 -51.614  11.899  1.00  0.00     0.164 HD
HETATM    6  H   UNL     1     -41.372 -50.110  10.638  1.00  0.00     0.172 HD
ENDROOT
BRANCH   1   7
HETATM    7  C   UNL     1     -43.210 -51.578  13.689  1.00  0.00     0.159 C 
BRANCH   7   8
HETATM    8  C   UNL     1     -43.520 -53.104  13.762  1.00  0.00     0.236 C 
HETATM    9  C   UNL     1     -42.228 -53.774  13.221  1.00  0.00     0.044 C 
BRANCH   8  10
HETATM   10  N   UNL     1     -44.705 -53.562  12.979  1.00  0.00     0.098 N 
HETATM   11  C   UNL     1     -45.800 -52.579  12.805  1.00  0.00     0.299 C 
HETATM   12  C   UNL     1     -46.582 -52.260  14.090  1.00  0.00     0.198 C 
HETATM   13  O   UNL     1     -47.136 -53.444  14.669  1.00  0.00    -0.388 OA
HETATM   14  C   UNL     1     -46.130 -54.442  14.883  1.00  0.00     0.198 C 
HETATM   15  C   UNL     1     -45.371 -54.758  13.580  1.00  0.00     0.299 C 
ENDBRANCH   8  10
ENDBRANCH   7   8
ENDBRANCH   1   7
BRANCH   4  16
HETATM   16  C   UNL     1     -41.495 -48.061  10.837  1.00  0.00     0.127 A 
HETATM   17  C   UNL     1     -40.435 -47.291  11.262  1.00  0.00     0.076 A 
HETATM   18  C   UNL     1     -40.586 -46.044  10.619  1.00  0.00     0.025 A 
HETATM   19  C   UNL     1     -39.686 -44.872  10.722  1.00  0.00     0.070 C 
HETATM   20  N   UNL     1     -41.676 -46.014   9.843  1.00  0.00    -0.302 N 
HETATM   21  N   UNL     1     -42.212 -47.242   9.993  1.00  0.00    -0.281 N 
ATOM     22  HN  UNL     1     -42.020 -45.242   9.272  1.00  0.00     0.186 HD
HETATM   23  C   UNL     1     -43.368 -47.605   9.204  1.00  0.00     0.179 C 
ENDBRANCH   4  16
TORSDOF 4
ENDMDL
MODEL 4
REMARK VINA RESULT:      -5.9      2.505      4.109
REMARK  4 active torsions:
REMARK  status: ('A' for Active; 'I' for Inactive)
REMARK    1  A    between atoms: C_2  and  C_3 
REMARK    2  A    between atoms: C_2  and  N_16 
REMARK    3  A    between atoms: C_3  and  N_4 
REMARK       I    between atoms: N_4  and  C_5 
REMARK       I    between atoms: C_5  and  N_7 
REMARK    4  A    between atoms: N_7  and  C_8 
ROOT
HETATM    1  N   UNL     1     -42.604 -51.176  12.187  1.00  0.00    -0.341 N 
HETATM    2  C   UNL     1     -42.486 -49.817  12.163  1.00  0.00     0.321 C 
HETATM    3  O   UNL     1     -42.909 -49.037  12.994  1.00  0.00    -0.247 OA
HETATM    4  N   UNL     1     -41.717 -49.405  11.040  1.00  0.00    -0.293 N 
HETATM    5  H   UNL     1     -41.978 -51.694  11.600  1.00  0.00     0.164 HD
HETATM    6  H   UNL     1     -41.317 -50.092  10.425  1.00  0.00     0.172 HD
ENDROOT
BRANCH   1   7
HETATM    7  C   UNL     1     -43.020 -51.802  13.427  1.00  0.00     0.159 C 
BRANCH   7   8
HETATM    8  C   UNL     1     -42.342 -53.150  13.819  1.00  0.00     0.236 C 
HETATM    9  C   UNL     1     -43.530 -54.055  14.245  1.00  0.00     0.044 C 
BRANCH   8  10
HETATM   10  N   UNL     1     -41.333 -53.073  14.915  1.00  0.00     0.098 N 
HETATM   11  C   UNL     1     -40.351 -51.967  14.830  1.00  0.00     0.299 C 
HETATM   12  C   UNL     1     -39.327 -52.109  13.692  1.00  0.00     0.198 C 
HETATM   13  O   UNL     1     -38.604 -53.339  13.794  1.00  0.00    -0.388 OA
HETATM   14  C   UNL     1     -39.490 -54.462  13.865  1.00  0.00     0.198 C 
HETATM   15  C   UNL     1     -40.496 -54.307  15.022  1.00  0.00     0.299 C 
ENDBRANCH   8  10
ENDBRANCH   7   8
ENDBRANCH   1   7
BRANCH   4  16
HETATM   16  C   UNL     1     -41.458 -48.065  10.774  1.00  0.00     0.127 A 
HETATM   17  C   UNL     1     -40.411 -47.302  11.243  1.00  0.00     0.076 A 
HETATM   18  C   UNL     1     -40.593 -46.020  10.684  1.00  0.00     0.025 A 
HETATM   19  C   UNL     1     -39.716 -44.838  10.858  1.00  0.00     0.070 C 
HETATM   20  N   UNL     1     -41.688 -45.962   9.917  1.00  0.00    -0.302 N 
HETATM   21  N   UNL     1     -42.198 -47.209   9.990  1.00  0.00    -0.281 N 
ATOM     22  HN  UNL     1     -42.052 -45.162   9.399  1.00  0.00     0.186 HD
HETATM   23  C   UNL     1     -43.350 -47.543   9.185  1.00  0.00     0.179 C 
ENDBRANCH   4  16
TORSDOF 4
ENDMDL
MODEL 5
REMARK VINA RESULT:      -5.8      2.362      7.678
REMARK  4 active torsions:
REMARK  status: ('A' for Active; 'I' for Inactive)
REMARK    1  A    between atoms: C_2  and  C_3 
REMARK    2  A    between atoms: C_2  and  N_16 
REMARK    3  A    between atoms: C_3  and  N_4 
REMARK       I    between atoms: N_4  and  C_5 
REMARK       I    between atoms: C_5  and  N_7 
REMARK    4  A    between atoms: N_7  and  C_8 
ROOT
HETATM    1  N   UNL     1     -41.604 -49.690  11.309  1.00  0.00    -0.341 N 
HETATM    2  C   UNL     1     -42.244 -50.469  12.229  1.00  0.00     0.321 C 
HETATM    3  O   UNL     1     -42.812 -50.087  13.233  1.00  0.00    -0.247 OA
HETATM    4  N   UNL     1     -42.228 -51.832  11.823  1.00  0.00    -0.293 N 
HETATM    5  H   UNL     1     -41.432 -50.101  10.412  1.00  0.00     0.164 HD
HETATM    6  H   UNL     1     -41.818 -52.089  10.942  1.00  0.00     0.172 HD
ENDROOT
BRANCH   1   7
HETATM    7  C   UNL     1     -41.835 -48.259  11.351  1.00  0.00     0.159 C 
BRANCH   7   8
HETATM    8  C   UNL     1     -40.585 -47.328  11.400  1.00  0.00     0.236 C 
HETATM    9  C   UNL     1     -39.443 -48.262  11.882  1.00  0.00     0.044 C 
BRANCH   8  10
HETATM   10  N   UNL     1     -40.696 -46.142  12.298  1.00  0.00     0.098 N 
HETATM   11  C   UNL     1     -41.999 -45.437  12.301  1.00  0.00     0.299 C 
HETATM   12  C   UNL     1     -42.316 -44.674  11.004  1.00  0.00     0.198 C 
HETATM   13  O   UNL     1     -41.295 -43.719  10.701  1.00  0.00    -0.388 OA
HETATM   14  C   UNL     1     -40.000 -44.332  10.664  1.00  0.00     0.198 C 
HETATM   15  C   UNL     1     -39.697 -45.076  11.979  1.00  0.00     0.299 C 
ENDBRANCH   8  10
ENDBRANCH   7   8
ENDBRANCH   1   7
BRANCH   4  16
HETATM   16  C   UNL     1     -42.802 -52.838  12.592  1.00  0.00     0.127 A 
HETATM   17  C   UNL     1     -44.106 -53.282  12.557  1.00  0.00     0.076 A 
HETATM   18  C   UNL     1     -44.183 -54.314  13.516  1.00  0.00     0.025 A 
HETATM   19  C   UNL     1     -45.370 -55.137  13.847  1.00  0.00     0.070 C 
HETATM   20  N   UNL     1     -43.012 -54.509  14.132  1.00  0.00    -0.302 N 
HETATM   21  N   UNL     1     -42.192 -53.603  13.560  1.00  0.00    -0.281 N 
ATOM     22  HN  UNL     1     -42.790 -55.185  14.863  1.00  0.00     0.186 HD
HETATM   23  C   UNL     1     -40.792 -53.599  13.918  1.00  0.00     0.179 C 
ENDBRANCH   4  16
TORSDOF 4
ENDMDL
MODEL 6
REMARK VINA RESULT:      -5.7      2.444      6.900
REMARK  4 active torsions:
REMARK  status: ('A' for Active; 'I' for Inactive)
REMARK    1  A    between atoms: C_2  and  C_3 
REMARK    2  A    between atoms: C_2  and  N_16 
REMARK    3  A    between atoms: C_3  and  N_4 
REMARK       I    between atoms: N_4  and  C_5 
REMARK       I    between atoms: C_5  and  N_7 
REMARK    4  A    between atoms: N_7  and  C_8 
ROOT
HETATM    1  N   UNL     1     -39.684 -48.624  11.385  1.00  0.00    -0.341 N 
HETATM    2  C   UNL     1     -40.283 -49.477  12.265  1.00  0.00     0.321 C 
HETATM    3  O   UNL     1     -40.696 -49.202  13.375  1.00  0.00    -0.247 OA
HETATM    4  N   UNL     1     -40.437 -50.766  11.683  1.00  0.00    -0.293 N 
HETATM    5  H   UNL     1     -39.653 -48.914  10.426  1.00  0.00     0.164 HD
HETATM    6  H   UNL     1     -40.156 -50.924  10.731  1.00  0.00     0.172 HD
ENDROOT
BRANCH   1   7
HETATM    7  C   UNL     1     -39.777 -47.201  11.645  1.00  0.00     0.159 C 
BRANCH   7   8
HETATM    8  C   UNL     1     -40.653 -46.346  10.679  1.00  0.00     0.236 C 
HETATM    9  C   UNL     1     -39.723 -45.171  10.274  1.00  0.00     0.044 C 
BRANCH   8  10
HETATM   10  N   UNL     1     -41.926 -45.822  11.253  1.00  0.00     0.098 N 
HETATM   11  C   UNL     1     -42.780 -46.802  11.964  1.00  0.00     0.299 C 
HETATM   12  C   UNL     1     -43.445 -47.849  11.054  1.00  0.00     0.198 C 
HETATM   13  O   UNL     1     -44.234 -47.228  10.036  1.00  0.00    -0.388 OA
HETATM   14  C   UNL     1     -43.468 -46.274   9.290  1.00  0.00     0.198 C 
HETATM   15  C   UNL     1     -42.826 -45.225  10.219  1.00  0.00     0.299 C 
ENDBRANCH   8  10
ENDBRANCH   7   8
ENDBRANCH   1   7
BRANCH   4  16
HETATM   16  C   UNL     1     -41.010 -51.825  12.376  1.00  0.00     0.127 A 
HETATM   17  C   UNL     1     -42.279 -52.340  12.229  1.00  0.00     0.076 A 
HETATM   18  C   UNL     1     -42.371 -53.404  13.150  1.00  0.00     0.025 A 
HETATM   19  C   UNL     1     -43.529 -54.301  13.365  1.00  0.00     0.070 C 
HETATM   20  N   UNL     1     -41.240 -53.554  13.850  1.00  0.00    -0.302 N 
HETATM   21  N   UNL     1     -40.432 -52.587  13.368  1.00  0.00    -0.281 N 
ATOM     22  HN  UNL     1     -41.036 -54.239  14.577  1.00  0.00     0.186 HD
HETATM   23  C   UNL     1     -39.066 -52.517  13.833  1.00  0.00     0.179 C 
ENDBRANCH   4  16
TORSDOF 4
ENDMDL
MODEL 7
REMARK VINA RESULT:      -5.6      2.488      7.695
REMARK  4 active torsions:
REMARK  status: ('A' for Active; 'I' for Inactive)
REMARK    1  A    between atoms: C_2  and  C_3 
REMARK    2  A    between atoms: C_2  and  N_16 
REMARK    3  A    between atoms: C_3  and  N_4 
REMARK       I    between atoms: N_4  and  C_5 
REMARK       I    between atoms: C_5  and  N_7 
REMARK    4  A    between atoms: N_7  and  C_8 
ROOT
HETATM    1  N   UNL     1     -42.366 -49.039  11.252  1.00  0.00    -0.341 N 
HETATM    2  C   UNL     1     -41.986 -49.935  12.208  1.00  0.00     0.321 C 
HETATM    3  O   UNL     1     -41.773 -49.698  13.382  1.00  0.00    -0.247 OA
HETATM    4  N   UNL     1     -41.931 -51.248  11.666  1.00  0.00    -0.293 N 
HETATM    5  H   UNL     1     -42.769 -49.416  10.416  1.00  0.00     0.164 HD
HETATM    6  H   UNL     1     -42.198 -51.409  10.709  1.00  0.00     0.172 HD
ENDROOT
BRANCH   1   7
HETATM    7  C   UNL     1     -42.833 -47.737  11.687  1.00  0.00     0.159 C 
BRANCH   7   8
HETATM    8  C   UNL     1     -42.128 -46.481  11.089  1.00  0.00     0.236 C 
HETATM    9  C   UNL     1     -42.750 -46.342   9.674  1.00  0.00     0.044 C 
BRANCH   8  10
HETATM   10  N   UNL     1     -40.641 -46.557  10.995  1.00  0.00     0.098 N 
HETATM   11  C   UNL     1     -39.907 -46.711  12.272  1.00  0.00     0.299 C 
HETATM   12  C   UNL     1     -39.937 -45.470  13.180  1.00  0.00     0.198 C 
HETATM   13  O   UNL     1     -39.420 -44.320  12.506  1.00  0.00    -0.388 OA
HETATM   14  C   UNL     1     -40.095 -44.095  11.262  1.00  0.00     0.198 C 
HETATM   15  C   UNL     1     -40.037 -45.344  10.362  1.00  0.00     0.299 C 
ENDBRANCH   8  10
ENDBRANCH   7   8
ENDBRANCH   1   7
BRANCH   4  16
HETATM   16  C   UNL     1     -41.557 -52.348  12.430  1.00  0.00     0.127 A 
HETATM   17  C   UNL     1     -40.303 -52.649  12.914  1.00  0.00     0.076 A 
HETATM   18  C   UNL     1     -40.449 -53.856  13.629  1.00  0.00     0.025 A 
HETATM   19  C   UNL     1     -39.394 -54.589  14.367  1.00  0.00     0.070 C 
HETATM   20  N   UNL     1     -41.709 -54.304  13.596  1.00  0.00    -0.302 N 
HETATM   21  N   UNL     1     -42.361 -53.379  12.862  1.00  0.00    -0.281 N 
ATOM     22  HN  UNL     1     -42.088 -55.148  14.025  1.00  0.00     0.186 HD
HETATM   23  C   UNL     1     -43.793 -53.491  12.704  1.00  0.00     0.179 C 
ENDBRANCH   4  16
TORSDOF 4
ENDMDL
MODEL 8
REMARK VINA RESULT:      -5.5      2.359      7.152
REMARK  4 active torsions:
REMARK  status: ('A' for Active; 'I' for Inactive)
REMARK    1  A    between atoms: C_2  and  C_3 
REMARK    2  A    between atoms: C_2  and  N_16 
REMARK    3  A    between atoms: C_3  and  N_4 
REMARK       I    between atoms: N_4  and  C_5 
REMARK       I    between atoms: C_5  and  N_7 
REMARK    4  A    between atoms: N_7  and  C_8 
ROOT
HETATM    1  N   UNL     1     -41.749 -50.494  11.563  1.00  0.00    -0.341 N 
HETATM    2  C   UNL     1     -42.373 -50.817  12.732  1.00  0.00     0.321 C 
HETATM    3  O   UNL     1     -41.976 -50.578  13.857  1.00  0.00    -0.247 OA
HETATM    4  N   UNL     1     -43.629 -51.431  12.472  1.00  0.00    -0.293 N 
HETATM    5  H   UNL     1     -42.312 -50.500  10.735  1.00  0.00     0.164 HD
HETATM    6  H   UNL     1     -43.953 -51.532  11.526  1.00  0.00     0.172 HD
ENDROOT
BRANCH   1   7
HETATM    7  C   UNL     1     -40.655 -49.544  11.615  1.00  0.00     0.159 C 
BRANCH   7   8
HETATM    8  C   UNL     1     -40.953 -48.075  11.182  1.00  0.00     0.236 C 
HETATM    9  C   UNL     1     -39.851 -47.246  11.895  1.00  0.00     0.044 C 
BRANCH   8  10
HETATM   10  N   UNL     1     -42.304 -47.556  11.541  1.00  0.00     0.098 N 
HETATM   11  C   UNL     1     -43.351 -47.667  10.499  1.00  0.00     0.299 C 
HETATM   12  C   UNL     1     -43.149 -46.738   9.290  1.00  0.00     0.198 C 
HETATM   13  O   UNL     1     -43.068 -45.369   9.695  1.00  0.00    -0.388 OA
HETATM   14  C   UNL     1     -42.060 -45.178  10.696  1.00  0.00     0.198 C 
HETATM   15  C   UNL     1     -42.292 -46.106  11.904  1.00  0.00     0.299 C 
ENDBRANCH   8  10
ENDBRANCH   7   8
ENDBRANCH   1   7
BRANCH   4  16
HETATM   16  C   UNL     1     -44.462 -51.869  13.495  1.00  0.00     0.127 A 
HETATM   17  C   UNL     1     -45.542 -51.211  14.041  1.00  0.00     0.076 A 
HETATM   18  C   UNL     1     -46.053 -52.072  15.034  1.00  0.00     0.025 A 
HETATM   19  C   UNL     1     -47.236 -51.839  15.896  1.00  0.00     0.070 C 
HETATM   20  N   UNL     1     -45.342 -53.202  15.126  1.00  0.00    -0.302 N 
HETATM   21  N   UNL     1     -44.383 -53.056  14.189  1.00  0.00    -0.281 N 
ATOM     22  HN  UNL     1     -45.491 -53.989  15.757  1.00  0.00     0.186 HD
HETATM   23  C   UNL     1     -43.477 -54.152  13.935  1.00  0.00     0.179 C 
ENDBRANCH   4  16
TORSDOF 4
ENDMDL
MODEL 9
REMARK VINA RESULT:      -5.5      2.182      7.209
REMARK  4 active torsions:
REMARK  status: ('A' for Active; 'I' for Inactive)
REMARK    1  A    between atoms: C_2  and  C_3 
REMARK    2  A    between atoms: C_2  and  N_16 
REMARK    3  A    between atoms: C_3  and  N_4 
REMARK       I    between atoms: N_4  and  C_5 
REMARK       I    between atoms: C_5  and  N_7 
REMARK    4  A    between atoms: N_7  and  C_8 
ROOT
HETATM    1  N   UNL     1     -41.390 -50.245  11.372  1.00  0.00    -0.341 N 
HETATM    2  C   UNL     1     -41.760 -51.318  12.130  1.00  0.00     0.321 C 
HETATM    3  O   UNL     1     -41.024 -52.162  12.601  1.00  0.00    -0.247 OA
HETATM    4  N   UNL     1     -43.162 -51.296  12.372  1.00  0.00    -0.293 N 
HETATM    5  H   UNL     1     -42.053 -49.498  11.294  1.00  0.00     0.164 HD
HETATM    6  H   UNL     1     -43.719 -50.531  12.031  1.00  0.00     0.172 HD
ENDROOT
BRANCH   1   7
HETATM    7  C   UNL     1     -39.984 -49.892  11.334  1.00  0.00     0.159 C 
BRANCH   7   8
HETATM    8  C   UNL     1     -39.448 -48.942  12.448  1.00  0.00     0.236 C 
HETATM    9  C   UNL     1     -39.666 -47.521  11.863  1.00  0.00     0.044 C 
BRANCH   8  10
HETATM   10  N   UNL     1     -38.018 -49.131  12.827  1.00  0.00     0.098 N 
HETATM   11  C   UNL     1     -37.604 -50.511  13.172  1.00  0.00     0.299 C 
HETATM   12  C   UNL     1     -38.181 -51.038  14.496  1.00  0.00     0.198 C 
HETATM   13  O   UNL     1     -37.837 -50.184  15.590  1.00  0.00    -0.388 OA
HETATM   14  C   UNL     1     -38.222 -48.828  15.336  1.00  0.00     0.198 C 
HETATM   15  C   UNL     1     -37.619 -48.315  14.014  1.00  0.00     0.299 C 
ENDBRANCH   8  10
ENDBRANCH   7   8
ENDBRANCH   1   7
BRANCH   4  16
HETATM   16  C   UNL     1     -43.799 -52.287  13.110  1.00  0.00     0.127 A 
HETATM   17  C   UNL     1     -44.429 -53.416  12.635  1.00  0.00     0.076 A 
HETATM   18  C   UNL     1     -44.904 -54.097  13.775  1.00  0.00     0.025 A 
HETATM   19  C   UNL     1     -45.631 -55.388  13.805  1.00  0.00     0.070 C 
HETATM   20  N   UNL     1     -44.609 -53.442  14.904  1.00  0.00    -0.302 N 
HETATM   21  N   UNL     1     -43.944 -52.349  14.478  1.00  0.00    -0.281 N 
ATOM     22  HN  UNL     1     -44.834 -53.708  15.862  1.00  0.00     0.186 HD
HETATM   23  C   UNL     1     -43.375 -51.449  15.454  1.00  0.00     0.179 C 
ENDBRANCH   4  16
TORSDOF 4
ENDMDL
