MODEL 1
REMARK VINA RESULT:      -5.6      0.000      0.000
REMARK  5 active torsions:
REMARK  status: ('A' for Active; 'I' for Inactive)
REMARK    1  A    between atoms: C_2  and  N_4 
REMARK    2  A    between atoms: C_9  and  C_10 
REMARK       I    between atoms: C_10  and  N_12 
REMARK    3  A    between atoms: N_12  and  C_13 
REMARK    4  A    between atoms: C_13  and  C_14 
REMARK    5  A    between atoms: C_14  and  C_15 
ROOT
HETATM    1  C   UNL     1     -40.958 -50.472  12.072  1.00  0.00     0.251 C 
HETATM    2  O   UNL     1     -40.000 -50.035  12.706  1.00  0.00    -0.271 OA
HETATM    3  N   UNL     1     -41.511 -49.794  11.005  1.00  0.00    -0.359 N 
HETATM    4  H   UNL     1     -42.407 -50.143  10.673  1.00  0.00     0.162 HD
ENDROOT
BRANCH   1   5
HETATM    5  C   UNL     1     -41.583 -51.853  12.339  1.00  0.00     0.314 C 
HETATM    6  N   UNL     1     -43.036 -51.827  12.735  1.00  0.00     0.106 N 
HETATM    7  C   UNL     1     -43.483 -53.249  12.709  1.00  0.00     0.274 C 
HETATM    8  C   UNL     1     -42.715 -54.158  13.681  1.00  0.00     0.030 C 
HETATM    9  C   UNL     1     -41.220 -54.134  13.387  1.00  0.00     0.004 C 
HETATM   10  C   UNL     1     -40.695 -52.707  13.255  1.00  0.00     0.046 C 
BRANCH   6  11
HETATM   11  C   UNL     1     -43.376 -51.178  14.039  1.00  0.00     0.216 C 
HETATM   12  C   UNL     1     -43.357 -49.642  14.043  1.00  0.00     0.042 C 
HETATM   13  C   UNL     1     -44.802 -51.569  14.494  1.00  0.00     0.042 C 
ENDBRANCH   6  11
ENDBRANCH   1   5
BRANCH   3  14
HETATM   14  C   UNL     1     -41.099 -48.437  10.698  1.00  0.00     0.127 C 
BRANCH  14  15
HETATM   15  C   UNL     1     -42.202 -47.418  10.994  1.00  0.00     0.061 C 
BRANCH  15  16
HETATM   16  C   UNL     1     -43.330 -47.510  10.026  1.00  0.00    -0.023 A 
HETATM   17  C   UNL     1     -43.264 -47.653   8.621  1.00  0.00     0.115 A 
HETATM   18  N   UNL     1     -44.470 -47.723   8.053  1.00  0.00    -0.310 N 
HETATM   19  N   UNL     1     -45.316 -47.613   9.092  1.00  0.00    -0.308 N 
ATOM     20  HN  UNL     1     -44.697 -47.833   7.065  1.00  0.00     0.186 HD
HETATM   21  C   UNL     1     -46.742 -47.656   8.878  1.00  0.00     0.177 C 
HETATM   22  C   UNL     1     -44.683 -47.480  10.293  1.00  0.00     0.118 A 
ENDBRANCH  15  16
ENDBRANCH  14  15
ENDBRANCH   3  14
TORSDOF 5
ENDMDL
MODEL 2
REMARK VINA RESULT:      -5.6      3.743      5.885
REMARK  5 active torsions:
REMARK  status: ('A' for Active; 'I' for Inactive)
REMARK    1  A    between atoms: C_2  and  N_4 
REMARK    2  A    between atoms: C_9  and  C_10 
REMARK       I    between atoms: C_10  and  N_12 
REMARK    3  A    between atoms: N_12  and  C_13 
REMARK    4  A    between atoms: C_13  and  C_14 
REMARK    5  A    between atoms: C_14  and  C_15 
ROOT
HETATM    1  C   UNL     1     -43.674 -54.403  15.346  1.00  0.00     0.251 C 
HETATM    2  O   UNL     1     -43.759 -55.591  15.043  1.00  0.00    -0.271 OA
HETATM    3  N   UNL     1     -42.472 -53.727  15.358  1.00  0.00    -0.359 N 
HETATM    4  H   UNL     1     -42.481 -52.812  15.802  1.00  0.00     0.162 HD
ENDROOT
BRANCH   1   5
HETATM    5  C   UNL     1     -44.900 -53.525  15.657  1.00  0.00     0.314 C 
HETATM    6  N   UNL     1     -45.843 -53.319  14.502  1.00  0.00     0.106 N 
HETATM    7  C   UNL     1     -47.047 -52.657  15.082  1.00  0.00     0.274 C 
HETATM    8  C   UNL     1     -46.752 -51.299  15.736  1.00  0.00     0.030 C 
HETATM    9  C   UNL     1     -45.717 -51.440  16.846  1.00  0.00     0.004 C 
HETATM   10  C   UNL     1     -44.499 -52.233  16.383  1.00  0.00     0.046 C 
BRANCH   6  11
HETATM   11  C   UNL     1     -45.324 -52.557  13.324  1.00  0.00     0.216 C 
HETATM   12  C   UNL     1     -44.454 -53.359  12.344  1.00  0.00     0.042 C 
HETATM   13  C   UNL     1     -46.488 -51.998  12.472  1.00  0.00     0.042 C 
ENDBRANCH   6  11
ENDBRANCH   1   5
BRANCH   3  14
HETATM   14  C   UNL     1     -41.220 -54.441  15.189  1.00  0.00     0.127 C 
BRANCH  14  15
HETATM   15  C   UNL     1     -40.075 -53.510  14.785  1.00  0.00     0.061 C 
BRANCH  15  16
HETATM   16  C   UNL     1     -40.362 -52.777  13.521  1.00  0.00    -0.023 A 
HETATM   17  C   UNL     1     -40.860 -53.298  12.305  1.00  0.00     0.115 A 
HETATM   18  N   UNL     1     -41.021 -52.359  11.370  1.00  0.00    -0.310 N 
HETATM   19  N   UNL     1     -40.615 -51.232  11.979  1.00  0.00    -0.308 N 
ATOM     20  HN  UNL     1     -41.369 -52.470  10.418  1.00  0.00     0.186 HD
HETATM   21  C   UNL     1     -40.651 -49.972  11.279  1.00  0.00     0.177 C 
HETATM   22  C   UNL     1     -40.208 -51.430  13.266  1.00  0.00     0.118 A 
ENDBRANCH  15  16
ENDBRANCH  14  15
ENDBRANCH   3  14
TORSDOF 5
ENDMDL
MODEL 3
REMARK VINA RESULT:      -5.5      1.581      2.203
REMARK  5 active torsions:
REMARK  status: ('A' for Active; 'I' for Inactive)
REMARK    1  A    between atoms: C_2  and  N_4 
REMARK    2  A    between atoms: C_9  and  C_10 
REMARK       I    between atoms: C_10  and  N_12 
REMARK    3  A    between atoms: N_12  and  C_13 
REMARK    4  A    between atoms: C_13  and  C_14 
REMARK    5  A    between atoms: C_14  and  C_15 
ROOT
HETATM    1  C   UNL     1     -41.434 -51.966  12.834  1.00  0.00     0.251 C 
HETATM    2  O   UNL     1     -40.505 -51.831  13.627  1.00  0.00    -0.271 OA
HETATM    3  N   UNL     1     -41.506 -51.259  11.652  1.00  0.00    -0.359 N 
HETATM    4  H   UNL     1     -42.397 -51.300  11.163  1.00  0.00     0.162 HD
ENDROOT
BRANCH   1   5
HETATM    5  C   UNL     1     -42.564 -52.993  13.030  1.00  0.00     0.314 C 
HETATM    6  N   UNL     1     -43.956 -52.420  13.001  1.00  0.00     0.106 N 
HETATM    7  C   UNL     1     -44.872 -53.596  12.970  1.00  0.00     0.274 C 
HETATM    8  C   UNL     1     -44.736 -54.521  14.189  1.00  0.00     0.030 C 
HETATM    9  C   UNL     1     -43.311 -55.044  14.322  1.00  0.00     0.004 C 
HETATM   10  C   UNL     1     -42.286 -53.918  14.224  1.00  0.00     0.046 C 
BRANCH   6  11
HETATM   11  C   UNL     1     -44.328 -51.476  14.101  1.00  0.00     0.216 C 
HETATM   12  C   UNL     1     -43.806 -50.040  13.949  1.00  0.00     0.042 C 
HETATM   13  C   UNL     1     -45.865 -51.342  14.215  1.00  0.00     0.042 C 
ENDBRANCH   6  11
ENDBRANCH   1   5
BRANCH   3  14
HETATM   14  C   UNL     1     -40.573 -50.183  11.376  1.00  0.00     0.127 C 
BRANCH  14  15
HETATM   15  C   UNL     1     -40.978 -48.878  12.065  1.00  0.00     0.061 C 
BRANCH  15  16
HETATM   16  C   UNL     1     -41.475 -47.860  11.099  1.00  0.00    -0.023 A 
HETATM   17  C   UNL     1     -40.871 -46.635  10.735  1.00  0.00     0.115 A 
HETATM   18  N   UNL     1     -41.577 -45.964   9.822  1.00  0.00    -0.310 N 
HETATM   19  N   UNL     1     -42.645 -46.751   9.606  1.00  0.00    -0.308 N 
ATOM     20  HN  UNL     1     -41.358 -45.066   9.390  1.00  0.00     0.186 HD
HETATM   21  C   UNL     1     -43.655 -46.362   8.652  1.00  0.00     0.177 C 
HETATM   22  C   UNL     1     -42.632 -47.895  10.348  1.00  0.00     0.118 A 
ENDBRANCH  15  16
ENDBRANCH  14  15
ENDBRANCH   3  14
TORSDOF 5
ENDMDL
MODEL 4
REMARK VINA RESULT:      -5.4      3.290      4.447
REMARK  5 active torsions:
REMARK  status: ('A' for Active; 'I' for Inactive)
REMARK    1  A    between atoms: C_2  and  N_4 
REMARK    2  A    between atoms: C_9  and  C_10 
REMARK       I    between atoms: C_10  and  N_12 
REMARK    3  A    between atoms: N_12  and  C_13 
REMARK    4  A    between atoms: C_13  and  C_14 
REMARK    5  A    between atoms: C_14  and  C_15 
ROOT
HETATM    1  C   UNL     1     -40.860 -53.204  12.993  1.00  0.00     0.251 C 
HETATM    2  O   UNL     1     -40.453 -52.907  11.872  1.00  0.00    -0.271 OA
HETATM    3  N   UNL     1     -40.172 -52.871  14.142  1.00  0.00    -0.359 N 
HETATM    4  H   UNL     1     -40.489 -53.323  14.996  1.00  0.00     0.162 HD
ENDROOT
BRANCH   1   5
HETATM    5  C   UNL     1     -42.211 -53.898  13.240  1.00  0.00     0.314 C 
HETATM    6  N   UNL     1     -43.417 -53.119  12.789  1.00  0.00     0.106 N 
HETATM    7  C   UNL     1     -44.568 -54.061  12.904  1.00  0.00     0.274 C 
HETATM    8  C   UNL     1     -44.808 -54.575  14.331  1.00  0.00     0.030 C 
HETATM    9  C   UNL     1     -43.572 -55.281  14.874  1.00  0.00     0.004 C 
HETATM   10  C   UNL     1     -42.311 -54.445  14.671  1.00  0.00     0.046 C 
BRANCH   6  11
HETATM   11  C   UNL     1     -43.702 -51.832  13.497  1.00  0.00     0.216 C 
HETATM   12  C   UNL     1     -42.872 -50.623  13.039  1.00  0.00     0.042 C 
HETATM   13  C   UNL     1     -45.178 -51.410  13.302  1.00  0.00     0.042 C 
ENDBRANCH   6  11
ENDBRANCH   1   5
BRANCH   3  14
HETATM   14  C   UNL     1     -38.837 -52.308  14.067  1.00  0.00     0.127 C 
BRANCH  14  15
HETATM   15  C   UNL     1     -38.807 -50.835  14.482  1.00  0.00     0.061 C 
BRANCH  15  16
HETATM   16  C   UNL     1     -38.921 -49.918  13.314  1.00  0.00    -0.023 A 
HETATM   17  C   UNL     1     -38.352 -50.068  12.029  1.00  0.00     0.115 A 
HETATM   18  N   UNL     1     -38.668 -49.065  11.206  1.00  0.00    -0.310 N 
HETATM   19  N   UNL     1     -39.432 -48.261  11.965  1.00  0.00    -0.308 N 
ATOM     20  HN  UNL     1     -38.395 -48.939  10.232  1.00  0.00     0.186 HD
HETATM   21  C   UNL     1     -39.987 -47.050  11.412  1.00  0.00     0.177 C 
HETATM   22  C   UNL     1     -39.610 -48.725  13.235  1.00  0.00     0.118 A 
ENDBRANCH  15  16
ENDBRANCH  14  15
ENDBRANCH   3  14
TORSDOF 5
ENDMDL
MODEL 5
REMARK VINA RESULT:      -5.4      2.390      3.512
REMARK  5 active torsions:
REMARK  status: ('A' for Active; 'I' for Inactive)
REMARK    1  A    between atoms: C_2  and  N_4 
REMARK    2  A    between atoms: C_9  and  C_10 
REMARK       I    between atoms: C_10  and  N_12 
REMARK    3  A    between atoms: N_12  and  C_13 
REMARK    4  A    between atoms: C_13  and  C_14 
REMARK    5  A    between atoms: C_14  and  C_15 
ROOT
HETATM    1  C   UNL     1     -42.329 -52.698  12.618  1.00  0.00     0.251 C 
HETATM    2  O   UNL     1     -41.375 -53.393  12.961  1.00  0.00    -0.271 OA
HETATM    3  N   UNL     1     -42.172 -51.520  11.917  1.00  0.00    -0.359 N 
HETATM    4  H   UNL     1     -42.998 -50.931  11.849  1.00  0.00     0.162 HD
ENDROOT
BRANCH   1   5
HETATM    5  C   UNL     1     -43.794 -53.106  12.854  1.00  0.00     0.314 C 
HETATM    6  N   UNL     1     -44.694 -51.997  13.329  1.00  0.00     0.106 N 
HETATM    7  C   UNL     1     -46.079 -52.548  13.261  1.00  0.00     0.274 C 
HETATM    8  C   UNL     1     -46.297 -53.784  14.146  1.00  0.00     0.030 C 
HETATM    9  C   UNL     1     -45.332 -54.902  13.773  1.00  0.00     0.004 C 
HETATM   10  C   UNL     1     -43.895 -54.398  13.679  1.00  0.00     0.046 C 
BRANCH   6  11
HETATM   11  C   UNL     1     -44.410 -51.418  14.679  1.00  0.00     0.216 C 
HETATM   12  C   UNL     1     -43.612 -50.105  14.685  1.00  0.00     0.042 C 
HETATM   13  C   UNL     1     -45.725 -51.099  15.429  1.00  0.00     0.042 C 
ENDBRANCH   6  11
ENDBRANCH   1   5
BRANCH   3  14
HETATM   14  C   UNL     1     -40.853 -50.953  11.711  1.00  0.00     0.127 C 
BRANCH  14  15
HETATM   15  C   UNL     1     -40.647 -49.665  12.512  1.00  0.00     0.061 C 
BRANCH  15  16
HETATM   16  C   UNL     1     -40.720 -48.449  11.655  1.00  0.00    -0.023 A 
HETATM   17  C   UNL     1     -41.587 -48.201  10.567  1.00  0.00     0.115 A 
HETATM   18  N   UNL     1     -41.400 -46.995  10.024  1.00  0.00    -0.310 N 
HETATM   19  N   UNL     1     -40.402 -46.470  10.756  1.00  0.00    -0.308 N 
ATOM     20  HN  UNL     1     -41.896 -46.573   9.240  1.00  0.00     0.186 HD
HETATM   21  C   UNL     1     -39.915 -45.142  10.475  1.00  0.00     0.177 C 
HETATM   22  C   UNL     1     -39.959 -47.302  11.742  1.00  0.00     0.118 A 
ENDBRANCH  15  16
ENDBRANCH  14  15
ENDBRANCH   3  14
TORSDOF 5
ENDMDL
MODEL 6
REMARK VINA RESULT:      -5.2      2.811      3.558
REMARK  5 active torsions:
REMARK  status: ('A' for Active; 'I' for Inactive)
REMARK    1  A    between atoms: C_2  and  N_4 
REMARK    2  A    between atoms: C_9  and  C_10 
REMARK       I    between atoms: C_10  and  N_12 
REMARK    3  A    between atoms: N_12  and  C_13 
REMARK    4  A    between atoms: C_13  and  C_14 
REMARK    5  A    between atoms: C_14  and  C_15 
ROOT
HETATM    1  C   UNL     1     -41.029 -51.533  12.760  1.00  0.00     0.251 C 
HETATM    2  O   UNL     1     -40.359 -51.045  13.667  1.00  0.00    -0.271 OA
HETATM    3  N   UNL     1     -40.930 -51.102  11.453  1.00  0.00    -0.359 N 
HETATM    4  H   UNL     1     -41.654 -51.433  10.820  1.00  0.00     0.162 HD
ENDROOT
BRANCH   1   5
HETATM    5  C   UNL     1     -41.978 -52.727  12.964  1.00  0.00     0.314 C 
HETATM    6  N   UNL     1     -43.429 -52.442  12.679  1.00  0.00     0.106 N 
HETATM    7  C   UNL     1     -44.111 -53.768  12.709  1.00  0.00     0.274 C 
HETATM    8  C   UNL     1     -43.998 -54.492  14.059  1.00  0.00     0.030 C 
HETATM    9  C   UNL     1     -42.540 -54.709  14.444  1.00  0.00     0.004 C 
HETATM   10  C   UNL     1     -41.725 -53.426  14.308  1.00  0.00     0.046 C 
BRANCH   6  11
HETATM   11  C   UNL     1     -44.120 -51.460  13.572  1.00  0.00     0.216 C 
HETATM   12  C   UNL     1     -43.715 -49.991  13.382  1.00  0.00     0.042 C 
HETATM   13  C   UNL     1     -45.650 -51.494  13.349  1.00  0.00     0.042 C 
ENDBRANCH   6  11
ENDBRANCH   1   5
BRANCH   3  14
HETATM   14  C   UNL     1     -40.157 -49.920  11.121  1.00  0.00     0.127 C 
BRANCH  14  15
HETATM   15  C   UNL     1     -41.050 -48.728  10.764  1.00  0.00     0.061 C 
BRANCH  15  16
HETATM   16  C   UNL     1     -40.552 -47.454  11.352  1.00  0.00    -0.023 A 
HETATM   17  C   UNL     1     -40.678 -46.146  10.833  1.00  0.00     0.115 A 
HETATM   18  N   UNL     1     -40.130 -45.222  11.625  1.00  0.00    -0.310 N 
HETATM   19  N   UNL     1     -39.639 -45.936  12.652  1.00  0.00    -0.308 N 
ATOM     20  HN  UNL     1     -40.093 -44.213  11.484  1.00  0.00     0.186 HD
HETATM   21  C   UNL     1     -38.967 -45.274  13.744  1.00  0.00     0.177 C 
HETATM   22  C   UNL     1     -39.862 -47.277  12.534  1.00  0.00     0.118 A 
ENDBRANCH  15  16
ENDBRANCH  14  15
ENDBRANCH   3  14
TORSDOF 5
ENDMDL
MODEL 7
REMARK VINA RESULT:      -5.2      4.273      6.852
REMARK  5 active torsions:
REMARK  status: ('A' for Active; 'I' for Inactive)
REMARK    1  A    between atoms: C_2  and  N_4 
REMARK    2  A    between atoms: C_9  and  C_10 
REMARK       I    between atoms: C_10  and  N_12 
REMARK    3  A    between atoms: N_12  and  C_13 
REMARK    4  A    between atoms: C_13  and  C_14 
REMARK    5  A    between atoms: C_14  and  C_15 
ROOT
HETATM    1  C   UNL     1     -44.364 -53.429  12.972  1.00  0.00     0.251 C 
HETATM    2  O   UNL     1     -44.945 -54.397  12.486  1.00  0.00    -0.271 OA
HETATM    3  N   UNL     1     -44.979 -52.560  13.848  1.00  0.00    -0.359 N 
HETATM    4  H   UNL     1     -44.479 -51.695  14.041  1.00  0.00     0.162 HD
ENDROOT
BRANCH   1   5
HETATM    5  C   UNL     1     -42.873 -53.134  12.726  1.00  0.00     0.314 C 
HETATM    6  N   UNL     1     -41.920 -54.124  13.341  1.00  0.00     0.106 N 
HETATM    7  C   UNL     1     -40.577 -53.784  12.787  1.00  0.00     0.274 C 
HETATM    8  C   UNL     1     -40.110 -52.361  13.126  1.00  0.00     0.030 C 
HETATM    9  C   UNL     1     -41.101 -51.322  12.615  1.00  0.00     0.004 C 
HETATM   10  C   UNL     1     -42.533 -51.665  13.018  1.00  0.00     0.046 C 
BRANCH   6  11
HETATM   11  C   UNL     1     -41.883 -54.199  14.835  1.00  0.00     0.216 C 
HETATM   12  C   UNL     1     -42.896 -55.158  15.477  1.00  0.00     0.042 C 
HETATM   13  C   UNL     1     -40.497 -54.678  15.329  1.00  0.00     0.042 C 
ENDBRANCH   6  11
ENDBRANCH   1   5
BRANCH   3  14
HETATM   14  C   UNL     1     -46.406 -52.646  14.095  1.00  0.00     0.127 C 
BRANCH  14  15
HETATM   15  C   UNL     1     -46.945 -51.401  14.804  1.00  0.00     0.061 C 
BRANCH  15  16
HETATM   16  C   UNL     1     -47.191 -51.639  16.254  1.00  0.00    -0.023 A 
HETATM   17  C   UNL     1     -46.490 -52.503  17.127  1.00  0.00     0.115 A 
HETATM   18  N   UNL     1     -46.960 -52.464  18.376  1.00  0.00    -0.310 N 
HETATM   19  N   UNL     1     -47.973 -51.584  18.306  1.00  0.00    -0.308 N 
ATOM     20  HN  UNL     1     -46.628 -52.981  19.190  1.00  0.00     0.186 HD
HETATM   21  C   UNL     1     -48.737 -51.259  19.486  1.00  0.00     0.177 C 
HETATM   22  C   UNL     1     -48.153 -51.065  17.058  1.00  0.00     0.118 A 
ENDBRANCH  15  16
ENDBRANCH  14  15
ENDBRANCH   3  14
TORSDOF 5
ENDMDL
MODEL 8
REMARK VINA RESULT:      -5.1      2.381      4.194
REMARK  5 active torsions:
REMARK  status: ('A' for Active; 'I' for Inactive)
REMARK    1  A    between atoms: C_2  and  N_4 
REMARK    2  A    between atoms: C_9  and  C_10 
REMARK       I    between atoms: C_10  and  N_12 
REMARK    3  A    between atoms: N_12  and  C_13 
REMARK    4  A    between atoms: C_13  and  C_14 
REMARK    5  A    between atoms: C_14  and  C_15 
ROOT
HETATM    1  C   UNL     1     -42.930 -51.118  14.929  1.00  0.00     0.251 C 
HETATM    2  O   UNL     1     -41.977 -51.269  15.691  1.00  0.00    -0.271 OA
HETATM    3  N   UNL     1     -42.803 -50.506  13.699  1.00  0.00    -0.359 N 
HETATM    4  H   UNL     1     -43.674 -50.261  13.233  1.00  0.00     0.162 HD
ENDROOT
BRANCH   1   5
HETATM    5  C   UNL     1     -44.337 -51.668  15.223  1.00  0.00     0.314 C 
HETATM    6  N   UNL     1     -44.433 -53.170  15.275  1.00  0.00     0.106 N 
HETATM    7  C   UNL     1     -45.799 -53.465  15.798  1.00  0.00     0.274 C 
HETATM    8  C   UNL     1     -46.931 -52.921  14.915  1.00  0.00     0.030 C 
HETATM    9  C   UNL     1     -46.814 -51.411  14.743  1.00  0.00     0.004 C 
HETATM   10  C   UNL     1     -45.401 -50.998  14.342  1.00  0.00     0.046 C 
BRANCH   6  11
HETATM   11  C   UNL     1     -44.169 -53.915  14.005  1.00  0.00     0.216 C 
HETATM   12  C   UNL     1     -42.723 -54.391  13.802  1.00  0.00     0.042 C 
HETATM   13  C   UNL     1     -45.035 -55.196  13.927  1.00  0.00     0.042 C 
ENDBRANCH   6  11
ENDBRANCH   1   5
BRANCH   3  14
HETATM   14  C   UNL     1     -41.567 -49.845  13.326  1.00  0.00     0.127 C 
BRANCH  14  15
HETATM   15  C   UNL     1     -41.314 -49.903  11.817  1.00  0.00     0.061 C 
BRANCH  15  16
HETATM   16  C   UNL     1     -41.215 -48.547  11.209  1.00  0.00    -0.023 A 
HETATM   17  C   UNL     1     -42.060 -47.963  10.238  1.00  0.00     0.115 A 
HETATM   18  N   UNL     1     -41.697 -46.718   9.921  1.00  0.00    -0.310 N 
HETATM   19  N   UNL     1     -40.609 -46.503  10.680  1.00  0.00    -0.308 N 
ATOM     20  HN  UNL     1     -42.141 -46.081   9.260  1.00  0.00     0.186 HD
HETATM   21  C   UNL     1     -39.923 -45.235  10.625  1.00  0.00     0.177 C 
HETATM   22  C   UNL     1     -40.278 -47.568  11.466  1.00  0.00     0.118 A 
ENDBRANCH  15  16
ENDBRANCH  14  15
ENDBRANCH   3  14
TORSDOF 5
ENDMDL
MODEL 9
REMARK VINA RESULT:      -5.1      3.797      6.397
REMARK  5 active torsions:
REMARK  status: ('A' for Active; 'I' for Inactive)
REMARK    1  A    between atoms: C_2  and  N_4 
REMARK    2  A    between atoms: C_9  and  C_10 
REMARK       I    between atoms: C_10  and  N_12 
REMARK    3  A    between atoms: N_12  and  C_13 
REMARK    4  A    between atoms: C_13  and  C_14 
REMARK    5  A    between atoms: C_14  and  C_15 
ROOT
HETATM    1  C   UNL     1     -40.115 -52.504  13.352  1.00  0.00     0.251 C 
HETATM    2  O   UNL     1     -39.357 -53.464  13.470  1.00  0.00    -0.271 OA
HETATM    3  N   UNL     1     -41.321 -52.427  14.018  1.00  0.00    -0.359 N 
HETATM    4  H   UNL     1     -41.952 -51.692  13.710  1.00  0.00     0.162 HD
ENDROOT
BRANCH   1   5
HETATM    5  C   UNL     1     -39.765 -51.253  12.526  1.00  0.00     0.314 C 
HETATM    6  N   UNL     1     -38.531 -50.518  12.978  1.00  0.00     0.106 N 
HETATM    7  C   UNL     1     -38.256 -49.508  11.916  1.00  0.00     0.274 C 
HETATM    8  C   UNL     1     -39.395 -48.498  11.711  1.00  0.00     0.030 C 
HETATM    9  C   UNL     1     -40.696 -49.206  11.355  1.00  0.00     0.004 C 
HETATM   10  C   UNL     1     -40.992 -50.356  12.313  1.00  0.00     0.046 C 
BRANCH   6  11
HETATM   11  C   UNL     1     -38.574 -49.879  14.331  1.00  0.00     0.216 C 
HETATM   12  C   UNL     1     -38.262 -50.808  15.514  1.00  0.00     0.042 C 
HETATM   13  C   UNL     1     -37.543 -48.730  14.431  1.00  0.00     0.042 C 
ENDBRANCH   6  11
ENDBRANCH   1   5
BRANCH   3  14
HETATM   14  C   UNL     1     -41.835 -53.570  14.750  1.00  0.00     0.127 C 
BRANCH  14  15
HETATM   15  C   UNL     1     -42.735 -54.453  13.883  1.00  0.00     0.061 C 
BRANCH  15  16
HETATM   16  C   UNL     1     -44.181 -54.203  14.133  1.00  0.00    -0.023 A 
HETATM   17  C   UNL     1     -45.277 -55.041  13.827  1.00  0.00     0.115 A 
HETATM   18  N   UNL     1     -46.446 -54.519  14.203  1.00  0.00    -0.310 N 
HETATM   19  N   UNL     1     -46.105 -53.335  14.742  1.00  0.00    -0.308 N 
ATOM     20  HN  UNL     1     -47.378 -54.922  14.105  1.00  0.00     0.186 HD
HETATM   21  C   UNL     1     -47.119 -52.464  15.284  1.00  0.00     0.177 C 
HETATM   22  C   UNL     1     -44.762 -53.098  14.720  1.00  0.00     0.118 A 
ENDBRANCH  15  16
ENDBRANCH  14  15
ENDBRANCH   3  14
TORSDOF 5
ENDMDL
