MODEL 1
REMARK VINA RESULT:      -6.1      0.000      0.000
REMARK  7 active torsions:
REMARK  status: ('A' for Active; 'I' for Inactive)
REMARK    1  A    between atoms: O_2  and  C_3 
REMARK    2  A    between atoms: C_3  and  C_4 
REMARK    3  A    between atoms: C_4  and  O_5 
REMARK    4  A    between atoms: O_5  and  C_6 
REMARK    5  A    between atoms: C_12  and  C_13 
REMARK       I    between atoms: C_13  and  N_15 
REMARK    6  A    between atoms: C_18  and  C_19 
REMARK    7  A    between atoms: C_19  and  C_20 
REMARK       I    between atoms: C_20  and  N_22 
ROOT
HETATM    1  C   UNL     1     -41.090 -50.494  13.521  1.00  0.00     0.258 C 
HETATM    2  O   UNL     1     -41.531 -49.510  14.120  1.00  0.00    -0.267 OA
HETATM    3  N   UNL     1     -41.673 -51.776  13.680  1.00  0.00    -0.348 N 
HETATM    4  C   UNL     1     -42.850 -51.849  14.547  1.00  0.00     0.126 C 
HETATM    5  C   UNL     1     -43.112 -53.262  15.068  1.00  0.00     0.025 C 
HETATM    6  C   UNL     1     -43.194 -54.308  13.945  1.00  0.00    -0.003 C 
HETATM    7  C   UNL     1     -41.892 -54.238  13.150  1.00  0.00     0.025 C 
HETATM    8  C   UNL     1     -41.553 -52.831  12.682  1.00  0.00     0.126 C 
ENDROOT
BRANCH   1   9
HETATM    9  C   UNL     1     -39.809 -50.302  12.782  1.00  0.00     0.083 C 
HETATM   10  C   UNL     1     -39.664 -49.761  11.510  1.00  0.00     0.158 C 
HETATM   11  N   UNL     1     -38.497 -49.752  10.821  1.00  0.00    -0.346 N 
HETATM   12  C   UNL     1     -37.405 -50.216  11.465  1.00  0.00     0.090 C 
ATOM     13  HN  UNL     1     -38.447 -49.412   9.860  1.00  0.00     0.167 HD
HETATM   14  C   UNL     1     -37.412 -50.632  12.785  1.00  0.00     0.018 C 
HETATM   15  C   UNL     1     -38.635 -50.678  13.449  1.00  0.00     0.023 C 
BRANCH  10  16
HETATM   16  O   UNL     1     -40.711 -49.042  10.989  1.00  0.00    -0.333 OA
BRANCH  16  17
HETATM   17  C   UNL     1     -40.643 -47.628  11.204  1.00  0.00     0.203 C 
BRANCH  17  18
HETATM   18  C   UNL     1     -41.839 -47.050  10.452  1.00  0.00     0.193 C 
BRANCH  18  19
HETATM   19  O   UNL     1     -42.449 -48.001   9.587  1.00  0.00    -0.394 OA
HETATM   20  C   UNL     1     -43.543 -47.410   8.891  1.00  0.00     0.201 C 
ENDBRANCH  18  19
ENDBRANCH  17  18
ENDBRANCH  16  17
ENDBRANCH  10  16
ENDBRANCH   1   9
BRANCH   6  21
HETATM   21  C   UNL     1     -44.421 -54.138  13.033  1.00  0.00     0.107 C 
BRANCH  21  22
HETATM   22  C   UNL     1     -45.726 -54.323  13.781  1.00  0.00     0.215 C 
HETATM   23  O   UNL     1     -46.027 -55.323  14.419  1.00  0.00    -0.274 OA
HETATM   24  N   UNL     1     -46.603 -53.291  13.662  1.00  0.00    -0.370 N 
HETATM   25  H   UNL     1     -46.341 -52.387  13.271  1.00  0.00     0.159 HD
HETATM   26  H   UNL     1     -47.460 -53.351  14.193  1.00  0.00     0.159 HD
ENDBRANCH  21  22
ENDBRANCH   6  21
TORSDOF 7
ENDMDL
MODEL 2
REMARK VINA RESULT:      -5.9      1.598      3.567
REMARK  7 active torsions:
REMARK  status: ('A' for Active; 'I' for Inactive)
REMARK    1  A    between atoms: O_2  and  C_3 
REMARK    2  A    between atoms: C_3  and  C_4 
REMARK    3  A    between atoms: C_4  and  O_5 
REMARK    4  A    between atoms: O_5  and  C_6 
REMARK    5  A    between atoms: C_12  and  C_13 
REMARK       I    between atoms: C_13  and  N_15 
REMARK    6  A    between atoms: C_18  and  C_19 
REMARK    7  A    between atoms: C_19  and  C_20 
REMARK       I    between atoms: C_20  and  N_22 
ROOT
HETATM    1  C   UNL     1     -42.030 -50.089  13.625  1.00  0.00     0.258 C 
HETATM    2  O   UNL     1     -41.502 -49.503  14.574  1.00  0.00    -0.267 OA
HETATM    3  N   UNL     1     -42.367 -51.464  13.704  1.00  0.00    -0.348 N 
HETATM    4  C   UNL     1     -42.104 -52.122  14.984  1.00  0.00     0.126 C 
HETATM    5  C   UNL     1     -42.010 -53.642  14.856  1.00  0.00     0.025 C 
HETATM    6  C   UNL     1     -43.233 -54.262  14.163  1.00  0.00    -0.003 C 
HETATM    7  C   UNL     1     -43.381 -53.594  12.797  1.00  0.00     0.025 C 
HETATM    8  C   UNL     1     -43.397 -52.075  12.874  1.00  0.00     0.126 C 
ENDROOT
BRANCH   1   9
HETATM    9  C   UNL     1     -42.114 -49.334  12.342  1.00  0.00     0.083 C 
HETATM   10  C   UNL     1     -41.139 -49.277  11.352  1.00  0.00     0.158 C 
HETATM   11  N   UNL     1     -41.199 -48.453  10.279  1.00  0.00    -0.346 N 
HETATM   12  C   UNL     1     -42.326 -47.723  10.133  1.00  0.00     0.090 C 
ATOM     13  HN  UNL     1     -40.429 -48.387   9.612  1.00  0.00     0.167 HD
HETATM   14  C   UNL     1     -43.418 -47.822  10.976  1.00  0.00     0.018 C 
HETATM   15  C   UNL     1     -43.306 -48.638  12.098  1.00  0.00     0.023 C 
BRANCH  10  16
HETATM   16  O   UNL     1     -40.146 -50.225  11.367  1.00  0.00    -0.333 OA
BRANCH  16  17
HETATM   17  C   UNL     1     -38.815 -49.708  11.470  1.00  0.00     0.203 C 
BRANCH  17  18
HETATM   18  C   UNL     1     -38.057 -50.721  12.325  1.00  0.00     0.193 C 
BRANCH  18  19
HETATM   19  O   UNL     1     -38.910 -51.719  12.871  1.00  0.00    -0.394 OA
HETATM   20  C   UNL     1     -38.644 -51.896  14.260  1.00  0.00     0.201 C 
ENDBRANCH  18  19
ENDBRANCH  17  18
ENDBRANCH  16  17
ENDBRANCH  10  16
ENDBRANCH   1   9
BRANCH   6  21
HETATM   21  C   UNL     1     -44.528 -54.152  14.986  1.00  0.00     0.107 C 
BRANCH  21  22
HETATM   22  C   UNL     1     -45.730 -54.708  14.249  1.00  0.00     0.215 C 
HETATM   23  O   UNL     1     -45.816 -55.852  13.821  1.00  0.00    -0.274 OA
HETATM   24  N   UNL     1     -46.732 -53.815  14.038  1.00  0.00    -0.370 N 
HETATM   25  H   UNL     1     -46.769 -52.908  14.500  1.00  0.00     0.159 HD
HETATM   26  H   UNL     1     -47.575 -54.163  13.602  1.00  0.00     0.159 HD
ENDBRANCH  21  22
ENDBRANCH   6  21
TORSDOF 7
ENDMDL
MODEL 3
REMARK VINA RESULT:      -5.6      2.953      4.843
REMARK  7 active torsions:
REMARK  status: ('A' for Active; 'I' for Inactive)
REMARK    1  A    between atoms: O_2  and  C_3 
REMARK    2  A    between atoms: C_3  and  C_4 
REMARK    3  A    between atoms: C_4  and  O_5 
REMARK    4  A    between atoms: O_5  and  C_6 
REMARK    5  A    between atoms: C_12  and  C_13 
REMARK       I    between atoms: C_13  and  N_15 
REMARK    6  A    between atoms: C_18  and  C_19 
REMARK    7  A    between atoms: C_19  and  C_20 
REMARK       I    between atoms: C_20  and  N_22 
ROOT
HETATM    1  C   UNL     1     -43.924 -53.767  13.249  1.00  0.00     0.258 C 
HETATM    2  O   UNL     1     -44.367 -54.458  12.328  1.00  0.00    -0.267 OA
HETATM    3  N   UNL     1     -44.733 -52.806  13.905  1.00  0.00    -0.348 N 
HETATM    4  C   UNL     1     -46.126 -52.723  13.463  1.00  0.00     0.126 C 
HETATM    5  C   UNL     1     -46.780 -51.389  13.823  1.00  0.00     0.025 C 
HETATM    6  C   UNL     1     -46.658 -51.046  15.316  1.00  0.00    -0.003 C 
HETATM    7  C   UNL     1     -45.173 -51.055  15.675  1.00  0.00     0.025 C 
HETATM    8  C   UNL     1     -44.467 -52.336  15.258  1.00  0.00     0.126 C 
ENDROOT
BRANCH   1   9
HETATM    9  C   UNL     1     -42.457 -53.859  13.502  1.00  0.00     0.083 C 
HETATM   10  C   UNL     1     -41.450 -53.289  12.732  1.00  0.00     0.158 C 
HETATM   11  N   UNL     1     -40.129 -53.532  12.914  1.00  0.00    -0.346 N 
HETATM   12  C   UNL     1     -39.792 -54.301  13.971  1.00  0.00     0.090 C 
ATOM     13  HN  UNL     1     -39.424 -53.152  12.282  1.00  0.00     0.167 HD
HETATM   14  C   UNL     1     -40.706 -54.790  14.888  1.00  0.00     0.018 C 
HETATM   15  C   UNL     1     -42.058 -54.566  14.644  1.00  0.00     0.023 C 
BRANCH  10  16
HETATM   16  O   UNL     1     -41.793 -52.292  11.851  1.00  0.00    -0.333 OA
BRANCH  16  17
HETATM   17  C   UNL     1     -41.694 -50.962  12.372  1.00  0.00     0.203 C 
BRANCH  17  18
HETATM   18  C   UNL     1     -40.563 -50.307  11.582  1.00  0.00     0.193 C 
BRANCH  18  19
HETATM   19  O   UNL     1     -39.277 -50.653  12.084  1.00  0.00    -0.394 OA
HETATM   20  C   UNL     1     -38.841 -49.692  13.042  1.00  0.00     0.201 C 
ENDBRANCH  18  19
ENDBRANCH  17  18
ENDBRANCH  16  17
ENDBRANCH  10  16
ENDBRANCH   1   9
BRANCH   6  21
HETATM   21  C   UNL     1     -47.464 -51.984  16.231  1.00  0.00     0.107 C 
BRANCH  21  22
HETATM   22  C   UNL     1     -47.802 -51.341  17.562  1.00  0.00     0.215 C 
HETATM   23  O   UNL     1     -48.315 -50.238  17.692  1.00  0.00    -0.274 OA
HETATM   24  N   UNL     1     -47.445 -52.069  18.653  1.00  0.00    -0.370 N 
HETATM   25  H   UNL     1     -47.156 -53.044  18.595  1.00  0.00     0.159 HD
HETATM   26  H   UNL     1     -47.706 -51.701  19.557  1.00  0.00     0.159 HD
ENDBRANCH  21  22
ENDBRANCH   6  21
TORSDOF 7
ENDMDL
MODEL 4
REMARK VINA RESULT:      -5.4      4.313      6.884
REMARK  7 active torsions:
REMARK  status: ('A' for Active; 'I' for Inactive)
REMARK    1  A    between atoms: O_2  and  C_3 
REMARK    2  A    between atoms: C_3  and  C_4 
REMARK    3  A    between atoms: C_4  and  O_5 
REMARK    4  A    between atoms: O_5  and  C_6 
REMARK    5  A    between atoms: C_12  and  C_13 
REMARK       I    between atoms: C_13  and  N_15 
REMARK    6  A    between atoms: C_18  and  C_19 
REMARK    7  A    between atoms: C_19  and  C_20 
REMARK       I    between atoms: C_20  and  N_22 
ROOT
HETATM    1  C   UNL     1     -44.237 -53.837  13.766  1.00  0.00     0.258 C 
HETATM    2  O   UNL     1     -44.820 -54.567  12.961  1.00  0.00    -0.267 OA
HETATM    3  N   UNL     1     -44.937 -52.861  14.518  1.00  0.00    -0.348 N 
HETATM    4  C   UNL     1     -46.387 -52.811  14.321  1.00  0.00     0.126 C 
HETATM    5  C   UNL     1     -46.992 -51.472  14.743  1.00  0.00     0.025 C 
HETATM    6  C   UNL     1     -46.620 -51.072  16.178  1.00  0.00    -0.003 C 
HETATM    7  C   UNL     1     -45.097 -51.051  16.275  1.00  0.00     0.025 C 
HETATM    8  C   UNL     1     -44.450 -52.339  15.788  1.00  0.00     0.126 C 
ENDROOT
BRANCH   1   9
HETATM    9  C   UNL     1     -42.747 -53.903  13.764  1.00  0.00     0.083 C 
HETATM   10  C   UNL     1     -41.950 -54.584  14.678  1.00  0.00     0.158 C 
HETATM   11  N   UNL     1     -40.600 -54.485  14.724  1.00  0.00    -0.346 N 
HETATM   12  C   UNL     1     -40.009 -53.751  13.757  1.00  0.00     0.090 C 
ATOM     13  HN  UNL     1     -40.055 -54.943  15.456  1.00  0.00     0.167 HD
HETATM   14  C   UNL     1     -40.698 -53.161  12.712  1.00  0.00     0.018 C 
HETATM   15  C   UNL     1     -42.088 -53.238  12.722  1.00  0.00     0.023 C 
BRANCH  10  16
HETATM   16  O   UNL     1     -42.541 -55.542  15.465  1.00  0.00    -0.333 OA
BRANCH  16  17
HETATM   17  C   UNL     1     -42.640 -55.209  16.854  1.00  0.00     0.203 C 
BRANCH  17  18
HETATM   18  C   UNL     1     -41.880 -56.313  17.585  1.00  0.00     0.193 C 
BRANCH  18  19
HETATM   19  O   UNL     1     -41.004 -57.033  16.725  1.00  0.00    -0.394 OA
HETATM   20  C   UNL     1     -39.677 -57.023  17.244  1.00  0.00     0.201 C 
ENDBRANCH  18  19
ENDBRANCH  17  18
ENDBRANCH  16  17
ENDBRANCH  10  16
ENDBRANCH   1   9
BRANCH   6  21
HETATM   21  C   UNL     1     -47.240 -51.984  17.251  1.00  0.00     0.107 C 
BRANCH  21  22
HETATM   22  C   UNL     1     -48.220 -51.245  18.141  1.00  0.00     0.215 C 
HETATM   23  O   UNL     1     -49.032 -51.784  18.881  1.00  0.00    -0.274 OA
HETATM   24  N   UNL     1     -48.179 -49.891  18.033  1.00  0.00    -0.370 N 
HETATM   25  H   UNL     1     -47.429 -49.399  17.549  1.00  0.00     0.159 HD
HETATM   26  H   UNL     1     -48.776 -49.360  18.652  1.00  0.00     0.159 HD
ENDBRANCH  21  22
ENDBRANCH   6  21
TORSDOF 7
ENDMDL
MODEL 5
REMARK VINA RESULT:      -5.3      3.140      5.036
REMARK  7 active torsions:
REMARK  status: ('A' for Active; 'I' for Inactive)
REMARK    1  A    between atoms: O_2  and  C_3 
REMARK    2  A    between atoms: C_3  and  C_4 
REMARK    3  A    between atoms: C_4  and  O_5 
REMARK    4  A    between atoms: O_5  and  C_6 
REMARK    5  A    between atoms: C_12  and  C_13 
REMARK       I    between atoms: C_13  and  N_15 
REMARK    6  A    between atoms: C_18  and  C_19 
REMARK    7  A    between atoms: C_19  and  C_20 
REMARK       I    between atoms: C_20  and  N_22 
ROOT
HETATM    1  C   UNL     1     -42.432 -47.909  12.560  1.00  0.00     0.258 C 
HETATM    2  O   UNL     1     -42.943 -47.296  13.501  1.00  0.00    -0.267 OA
HETATM    3  N   UNL     1     -41.467 -48.924  12.779  1.00  0.00    -0.348 N 
HETATM    4  C   UNL     1     -41.158 -49.232  14.176  1.00  0.00     0.126 C 
HETATM    5  C   UNL     1     -39.809 -49.932  14.341  1.00  0.00     0.025 C 
HETATM    6  C   UNL     1     -39.672 -51.183  13.461  1.00  0.00    -0.003 C 
HETATM    7  C   UNL     1     -39.909 -50.761  12.012  1.00  0.00     0.025 C 
HETATM    8  C   UNL     1     -41.206 -49.990  11.821  1.00  0.00     0.126 C 
ENDROOT
BRANCH   1   9
HETATM    9  C   UNL     1     -42.736 -47.399  11.192  1.00  0.00     0.083 C 
HETATM   10  C   UNL     1     -41.886 -46.656  10.381  1.00  0.00     0.158 C 
HETATM   11  N   UNL     1     -42.265 -46.085   9.212  1.00  0.00    -0.346 N 
HETATM   12  C   UNL     1     -43.519 -46.346   8.785  1.00  0.00     0.090 C 
ATOM     13  HN  UNL     1     -41.633 -45.486   8.682  1.00  0.00     0.167 HD
HETATM   14  C   UNL     1     -44.391 -47.198   9.439  1.00  0.00     0.018 C 
HETATM   15  C   UNL     1     -43.991 -47.728  10.662  1.00  0.00     0.023 C 
BRANCH  10  16
HETATM   16  O   UNL     1     -40.548 -46.641  10.687  1.00  0.00    -0.333 OA
BRANCH  16  17
HETATM   17  C   UNL     1     -39.945 -45.343  10.711  1.00  0.00     0.203 C 
BRANCH  17  18
HETATM   18  C   UNL     1     -40.195 -44.810  12.119  1.00  0.00     0.193 C 
BRANCH  18  19
HETATM   19  O   UNL     1     -39.047 -44.914  12.953  1.00  0.00    -0.394 OA
HETATM   20  C   UNL     1     -39.201 -45.985  13.880  1.00  0.00     0.201 C 
ENDBRANCH  18  19
ENDBRANCH  17  18
ENDBRANCH  16  17
ENDBRANCH  10  16
ENDBRANCH   1   9
BRANCH   6  21
HETATM   21  C   UNL     1     -40.609 -52.331  13.873  1.00  0.00     0.107 C 
BRANCH  21  22
HETATM   22  C   UNL     1     -40.148 -53.673  13.338  1.00  0.00     0.215 C 
HETATM   23  O   UNL     1     -39.099 -54.222  13.647  1.00  0.00    -0.274 OA
HETATM   24  N   UNL     1     -40.978 -54.236  12.421  1.00  0.00    -0.370 N 
HETATM   25  H   UNL     1     -41.921 -53.893  12.247  1.00  0.00     0.159 HD
HETATM   26  H   UNL     1     -40.735 -55.157  12.084  1.00  0.00     0.159 HD
ENDBRANCH  21  22
ENDBRANCH   6  21
TORSDOF 7
ENDMDL
MODEL 6
REMARK VINA RESULT:      -5.3      2.083      3.788
REMARK  7 active torsions:
REMARK  status: ('A' for Active; 'I' for Inactive)
REMARK    1  A    between atoms: O_2  and  C_3 
REMARK    2  A    between atoms: C_3  and  C_4 
REMARK    3  A    between atoms: C_4  and  O_5 
REMARK    4  A    between atoms: O_5  and  C_6 
REMARK    5  A    between atoms: C_12  and  C_13 
REMARK       I    between atoms: C_13  and  N_15 
REMARK    6  A    between atoms: C_18  and  C_19 
REMARK    7  A    between atoms: C_19  and  C_20 
REMARK       I    between atoms: C_20  and  N_22 
ROOT
HETATM    1  C   UNL     1     -41.239 -51.021  12.232  1.00  0.00     0.258 C 
HETATM    2  O   UNL     1     -40.389 -51.826  11.843  1.00  0.00    -0.267 OA
HETATM    3  N   UNL     1     -42.526 -51.448  12.642  1.00  0.00    -0.348 N 
HETATM    4  C   UNL     1     -42.763 -52.892  12.628  1.00  0.00     0.126 C 
HETATM    5  C   UNL     1     -44.250 -53.245  12.587  1.00  0.00     0.025 C 
HETATM    6  C   UNL     1     -45.058 -52.568  13.705  1.00  0.00    -0.003 C 
HETATM    7  C   UNL     1     -44.837 -51.061  13.590  1.00  0.00     0.025 C 
HETATM    8  C   UNL     1     -43.366 -50.675  13.547  1.00  0.00     0.126 C 
ENDROOT
BRANCH   1   9
HETATM    9  C   UNL     1     -40.909 -49.576  12.064  1.00  0.00     0.083 C 
HETATM   10  C   UNL     1     -40.115 -48.807  12.908  1.00  0.00     0.158 C 
HETATM   11  N   UNL     1     -39.974 -47.465  12.798  1.00  0.00    -0.346 N 
HETATM   12  C   UNL     1     -40.574 -46.874  11.742  1.00  0.00     0.090 C 
ATOM     13  HN  UNL     1     -39.441 -46.926  13.480  1.00  0.00     0.167 HD
HETATM   14  C   UNL     1     -41.257 -47.568  10.760  1.00  0.00     0.018 C 
HETATM   15  C   UNL     1     -41.428 -48.939  10.929  1.00  0.00     0.023 C 
BRANCH  10  16
HETATM   16  O   UNL     1     -39.292 -49.459  13.793  1.00  0.00    -0.333 OA
BRANCH  16  17
HETATM   17  C   UNL     1     -37.899 -49.426  13.464  1.00  0.00     0.203 C 
BRANCH  17  18
HETATM   18  C   UNL     1     -37.493 -50.887  13.293  1.00  0.00     0.193 C 
BRANCH  18  19
HETATM   19  O   UNL     1     -37.137 -51.201  11.952  1.00  0.00    -0.394 OA
HETATM   20  C   UNL     1     -37.303 -50.060  11.113  1.00  0.00     0.201 C 
ENDBRANCH  18  19
ENDBRANCH  17  18
ENDBRANCH  16  17
ENDBRANCH  10  16
ENDBRANCH   1   9
BRANCH   6  21
HETATM   21  C   UNL     1     -44.711 -53.083  15.112  1.00  0.00     0.107 C 
BRANCH  21  22
HETATM   22  C   UNL     1     -45.736 -54.069  15.635  1.00  0.00     0.215 C 
HETATM   23  O   UNL     1     -46.433 -54.787  14.931  1.00  0.00    -0.274 OA
HETATM   24  N   UNL     1     -45.878 -54.081  16.987  1.00  0.00    -0.370 N 
HETATM   25  H   UNL     1     -45.224 -53.616  17.614  1.00  0.00     0.159 HD
HETATM   26  H   UNL     1     -46.509 -54.766  17.377  1.00  0.00     0.159 HD
ENDBRANCH  21  22
ENDBRANCH   6  21
TORSDOF 7
ENDMDL
MODEL 7
REMARK VINA RESULT:      -5.3      2.690      3.762
REMARK  7 active torsions:
REMARK  status: ('A' for Active; 'I' for Inactive)
REMARK    1  A    between atoms: O_2  and  C_3 
REMARK    2  A    between atoms: C_3  and  C_4 
REMARK    3  A    between atoms: C_4  and  O_5 
REMARK    4  A    between atoms: O_5  and  C_6 
REMARK    5  A    between atoms: C_12  and  C_13 
REMARK       I    between atoms: C_13  and  N_15 
REMARK    6  A    between atoms: C_18  and  C_19 
REMARK    7  A    between atoms: C_19  and  C_20 
REMARK       I    between atoms: C_20  and  N_22 
ROOT
HETATM    1  C   UNL     1     -42.060 -49.542  12.707  1.00  0.00     0.258 C 
HETATM    2  O   UNL     1     -40.962 -49.821  12.219  1.00  0.00    -0.267 OA
HETATM    3  N   UNL     1     -43.038 -50.541  12.942  1.00  0.00    -0.348 N 
HETATM    4  C   UNL     1     -42.648 -51.915  12.622  1.00  0.00     0.126 C 
HETATM    5  C   UNL     1     -43.851 -52.836  12.417  1.00  0.00     0.025 C 
HETATM    6  C   UNL     1     -44.836 -52.806  13.596  1.00  0.00    -0.003 C 
HETATM    7  C   UNL     1     -45.271 -51.356  13.802  1.00  0.00     0.025 C 
HETATM    8  C   UNL     1     -44.099 -50.395  13.930  1.00  0.00     0.126 C 
ENDROOT
BRANCH   1   9
HETATM    9  C   UNL     1     -42.371 -48.091  12.856  1.00  0.00     0.083 C 
HETATM   10  C   UNL     1     -42.960 -47.271  11.900  1.00  0.00     0.158 C 
HETATM   11  N   UNL     1     -43.078 -45.928  12.025  1.00  0.00    -0.346 N 
HETATM   12  C   UNL     1     -42.679 -45.388  13.197  1.00  0.00     0.090 C 
ATOM     13  HN  UNL     1     -43.450 -45.352  11.270  1.00  0.00     0.167 HD
HETATM   14  C   UNL     1     -42.224 -46.134  14.270  1.00  0.00     0.018 C 
HETATM   15  C   UNL     1     -42.066 -47.505  14.091  1.00  0.00     0.023 C 
BRANCH  10  16
HETATM   16  O   UNL     1     -43.613 -47.868  10.849  1.00  0.00    -0.333 OA
BRANCH  16  17
HETATM   17  C   UNL     1     -43.083 -47.565   9.554  1.00  0.00     0.203 C 
BRANCH  17  18
HETATM   18  C   UNL     1     -44.262 -47.010   8.759  1.00  0.00     0.193 C 
BRANCH  18  19
HETATM   19  O   UNL     1     -45.413 -47.843   8.838  1.00  0.00    -0.394 OA
HETATM   20  C   UNL     1     -46.579 -47.059   9.075  1.00  0.00     0.201 C 
ENDBRANCH  18  19
ENDBRANCH  17  18
ENDBRANCH  16  17
ENDBRANCH  10  16
ENDBRANCH   1   9
BRANCH   6  21
HETATM   21  C   UNL     1     -44.266 -53.412  14.890  1.00  0.00     0.107 C 
BRANCH  21  22
HETATM   22  C   UNL     1     -44.030 -54.905  14.773  1.00  0.00     0.215 C 
HETATM   23  O   UNL     1     -44.841 -55.704  14.325  1.00  0.00    -0.274 OA
HETATM   24  N   UNL     1     -42.834 -55.332  15.257  1.00  0.00    -0.370 N 
HETATM   25  H   UNL     1     -42.077 -54.695  15.499  1.00  0.00     0.159 HD
HETATM   26  H   UNL     1     -42.615 -56.312  15.144  1.00  0.00     0.159 HD
ENDBRANCH  21  22
ENDBRANCH   6  21
TORSDOF 7
ENDMDL
MODEL 8
REMARK VINA RESULT:      -5.3      2.966      4.290
REMARK  7 active torsions:
REMARK  status: ('A' for Active; 'I' for Inactive)
REMARK    1  A    between atoms: O_2  and  C_3 
REMARK    2  A    between atoms: C_3  and  C_4 
REMARK    3  A    between atoms: C_4  and  O_5 
REMARK    4  A    between atoms: O_5  and  C_6 
REMARK    5  A    between atoms: C_12  and  C_13 
REMARK       I    between atoms: C_13  and  N_15 
REMARK    6  A    between atoms: C_18  and  C_19 
REMARK    7  A    between atoms: C_19  and  C_20 
REMARK       I    between atoms: C_20  and  N_22 
ROOT
HETATM    1  C   UNL     1     -41.386 -47.822  12.956  1.00  0.00     0.258 C 
HETATM    2  O   UNL     1     -42.455 -47.599  13.531  1.00  0.00    -0.267 OA
HETATM    3  N   UNL     1     -40.624 -48.982  13.241  1.00  0.00    -0.348 N 
HETATM    4  C   UNL     1     -41.203 -49.915  14.209  1.00  0.00     0.126 C 
HETATM    5  C   UNL     1     -40.159 -50.840  14.834  1.00  0.00     0.025 C 
HETATM    6  C   UNL     1     -39.319 -51.588  13.787  1.00  0.00    -0.003 C 
HETATM    7  C   UNL     1     -38.670 -50.545  12.880  1.00  0.00     0.025 C 
HETATM    8  C   UNL     1     -39.669 -49.554  12.301  1.00  0.00     0.126 C 
ENDROOT
BRANCH   1   9
HETATM    9  C   UNL     1     -40.852 -46.725  12.100  1.00  0.00     0.083 C 
HETATM   10  C   UNL     1     -41.066 -46.563  10.736  1.00  0.00     0.158 C 
HETATM   11  N   UNL     1     -40.432 -45.639   9.975  1.00  0.00    -0.346 N 
HETATM   12  C   UNL     1     -39.620 -44.773  10.618  1.00  0.00     0.090 C 
ATOM     13  HN  UNL     1     -40.561 -45.600   8.964  1.00  0.00     0.167 HD
HETATM   14  C   UNL     1     -39.458 -44.750  11.992  1.00  0.00     0.018 C 
HETATM   15  C   UNL     1     -40.082 -45.744  12.740  1.00  0.00     0.023 C 
BRANCH  10  16
HETATM   16  O   UNL     1     -42.100 -47.257  10.157  1.00  0.00    -0.333 OA
BRANCH  16  17
HETATM   17  C   UNL     1     -43.241 -46.466   9.807  1.00  0.00     0.203 C 
BRANCH  17  18
HETATM   18  C   UNL     1     -43.630 -46.924   8.403  1.00  0.00     0.193 C 
BRANCH  18  19
HETATM   19  O   UNL     1     -44.653 -47.913   8.417  1.00  0.00    -0.394 OA
HETATM   20  C   UNL     1     -45.820 -47.414   9.066  1.00  0.00     0.201 C 
ENDBRANCH  18  19
ENDBRANCH  17  18
ENDBRANCH  16  17
ENDBRANCH  10  16
ENDBRANCH   1   9
BRANCH   6  21
HETATM   21  C   UNL     1     -40.122 -52.618  12.975  1.00  0.00     0.107 C 
BRANCH  21  22
HETATM   22  C   UNL     1     -40.202 -53.964  13.668  1.00  0.00     0.215 C 
HETATM   23  O   UNL     1     -41.182 -54.379  14.273  1.00  0.00    -0.274 OA
HETATM   24  N   UNL     1     -39.060 -54.699  13.619  1.00  0.00    -0.370 N 
HETATM   25  H   UNL     1     -38.279 -54.465  13.008  1.00  0.00     0.159 HD
HETATM   26  H   UNL     1     -39.091 -55.627  14.018  1.00  0.00     0.159 HD
ENDBRANCH  21  22
ENDBRANCH   6  21
TORSDOF 7
ENDMDL
MODEL 9
REMARK VINA RESULT:      -5.1      3.263      6.550
REMARK  7 active torsions:
REMARK  status: ('A' for Active; 'I' for Inactive)
REMARK    1  A    between atoms: O_2  and  C_3 
REMARK    2  A    between atoms: C_3  and  C_4 
REMARK    3  A    between atoms: C_4  and  O_5 
REMARK    4  A    between atoms: O_5  and  C_6 
REMARK    5  A    between atoms: C_12  and  C_13 
REMARK       I    between atoms: C_13  and  N_15 
REMARK    6  A    between atoms: C_18  and  C_19 
REMARK    7  A    between atoms: C_19  and  C_20 
REMARK       I    between atoms: C_20  and  N_22 
ROOT
HETATM    1  C   UNL     1     -43.478 -50.786  14.593  1.00  0.00     0.258 C 
HETATM    2  O   UNL     1     -43.322 -49.630  14.191  1.00  0.00    -0.267 OA
HETATM    3  N   UNL     1     -42.595 -51.826  14.209  1.00  0.00    -0.348 N 
HETATM    4  C   UNL     1     -41.469 -51.437  13.358  1.00  0.00     0.126 C 
HETATM    5  C   UNL     1     -40.875 -52.618  12.591  1.00  0.00     0.025 C 
HETATM    6  C   UNL     1     -40.492 -53.793  13.503  1.00  0.00    -0.003 C 
HETATM    7  C   UNL     1     -41.740 -54.203  14.281  1.00  0.00     0.025 C 
HETATM    8  C   UNL     1     -42.408 -53.038  14.995  1.00  0.00     0.126 C 
ENDROOT
BRANCH   1   9
HETATM    9  C   UNL     1     -44.739 -51.065  15.339  1.00  0.00     0.083 C 
HETATM   10  C   UNL     1     -46.013 -51.177  14.794  1.00  0.00     0.158 C 
HETATM   11  N   UNL     1     -47.145 -51.276  15.531  1.00  0.00    -0.346 N 
HETATM   12  C   UNL     1     -46.994 -51.364  16.870  1.00  0.00     0.090 C 
ATOM     13  HN  UNL     1     -48.067 -51.283  15.095  1.00  0.00     0.167 HD
HETATM   14  C   UNL     1     -45.765 -51.417  17.502  1.00  0.00     0.018 C 
HETATM   15  C   UNL     1     -44.622 -51.262  16.722  1.00  0.00     0.023 C 
BRANCH  10  16
HETATM   16  O   UNL     1     -46.121 -51.374  13.439  1.00  0.00    -0.333 OA
BRANCH  16  17
HETATM   17  C   UNL     1     -46.453 -52.710  13.044  1.00  0.00     0.203 C 
BRANCH  17  18
HETATM   18  C   UNL     1     -45.194 -53.253  12.372  1.00  0.00     0.193 C 
BRANCH  18  19
HETATM   19  O   UNL     1     -44.846 -54.552  12.836  1.00  0.00    -0.394 OA
HETATM   20  C   UNL     1     -45.665 -54.922  13.942  1.00  0.00     0.201 C 
ENDBRANCH  18  19
ENDBRANCH  17  18
ENDBRANCH  16  17
ENDBRANCH  10  16
ENDBRANCH   1   9
BRANCH   6  21
HETATM   21  C   UNL     1     -39.317 -53.482  14.446  1.00  0.00     0.107 C 
BRANCH  21  22
HETATM   22  C   UNL     1     -38.999 -54.638  15.373  1.00  0.00     0.215 C 
HETATM   23  O   UNL     1     -38.637 -55.747  15.004  1.00  0.00    -0.274 OA
HETATM   24  N   UNL     1     -39.191 -54.379  16.694  1.00  0.00    -0.370 N 
HETATM   25  H   UNL     1     -39.345 -53.440  17.055  1.00  0.00     0.159 HD
HETATM   26  H   UNL     1     -38.935 -55.106  17.347  1.00  0.00     0.159 HD
ENDBRANCH  21  22
ENDBRANCH   6  21
TORSDOF 7
ENDMDL
