MODEL 1
REMARK VINA RESULT:      -5.9      0.000      0.000
REMARK  5 active torsions:
REMARK  status: ('A' for Active; 'I' for Inactive)
REMARK    1  A    between atoms: C_2  and  C_3 
REMARK       I    between atoms: C_2  and  N_12 
REMARK    2  A    between atoms: C_3  and  N_4 
REMARK    3  A    between atoms: N_12  and  C_13 
REMARK    4  A    between atoms: C_13  and  C_14 
REMARK    5  A    between atoms: C_13  and  C_17 
ROOT
HETATM    1  O   UNL     1     -41.893 -52.480  11.675  1.00  0.00    -0.272 OA
HETATM    2  C   UNL     1     -42.471 -51.713  12.441  1.00  0.00     0.236 C 
HETATM    3  N   UNL     1     -43.767 -51.913  12.873  1.00  0.00    -0.354 N 
HETATM    4  H   UNL     1     -44.207 -51.227  13.471  1.00  0.00     0.162 HD
ENDROOT
BRANCH   2   5
HETATM    5  C   UNL     1     -41.804 -50.433  12.974  1.00  0.00     0.235 C 
BRANCH   5   6
HETATM    6  N   UNL     1     -41.968 -49.278  12.085  1.00  0.00    -0.301 N 
HETATM    7  C   UNL     1     -43.093 -48.484  12.190  1.00  0.00     0.102 C 
HETATM    8  C   UNL     1     -43.306 -47.444  11.378  1.00  0.00     0.092 C 
HETATM    9  C   UNL     1     -42.302 -47.133  10.352  1.00  0.00     0.250 C 
HETATM   10  O   UNL     1     -42.482 -46.229   9.540  1.00  0.00    -0.268 OA
HETATM   11  N   UNL     1     -41.182 -47.910  10.361  1.00  0.00    -0.275 N 
HETATM   12  C   UNL     1     -40.987 -49.025  11.133  1.00  0.00     0.329 C 
HETATM   13  H   UNL     1     -40.485 -47.717   9.659  1.00  0.00     0.173 HD
HETATM   14  O   UNL     1     -39.993 -49.730  10.969  1.00  0.00    -0.246 OA
ENDBRANCH   5   6
ENDBRANCH   2   5
BRANCH   3  15
HETATM   15  C   UNL     1     -44.565 -53.059  12.471  1.00  0.00     0.092 C 
BRANCH  15  16
HETATM   16  C   UNL     1     -44.128 -54.322  13.178  1.00  0.00     0.009 A 
HETATM   17  C   UNL     1     -45.087 -55.191  13.957  1.00  0.00     0.007 A 
HETATM   18  C   UNL     1     -43.993 -54.452  14.679  1.00  0.00     0.007 A 
ENDBRANCH  15  16
BRANCH  15  19
HETATM   19  C   UNL     1     -46.024 -52.751  12.733  1.00  0.00     0.009 A 
HETATM   20  C   UNL     1     -46.850 -51.904  11.787  1.00  0.00     0.007 A 
HETATM   21  C   UNL     1     -46.441 -51.351  13.120  1.00  0.00     0.007 A 
ENDBRANCH  15  19
ENDBRANCH   3  15
TORSDOF 5
ENDMDL
MODEL 2
REMARK VINA RESULT:      -5.9      1.813      6.380
REMARK  5 active torsions:
REMARK  status: ('A' for Active; 'I' for Inactive)
REMARK    1  A    between atoms: C_2  and  C_3 
REMARK       I    between atoms: C_2  and  N_12 
REMARK    2  A    between atoms: C_3  and  N_4 
REMARK    3  A    between atoms: N_12  and  C_13 
REMARK    4  A    between atoms: C_13  and  C_14 
REMARK    5  A    between atoms: C_13  and  C_17 
ROOT
HETATM    1  O   UNL     1     -40.606 -49.451  10.774  1.00  0.00    -0.272 OA
HETATM    2  C   UNL     1     -41.352 -49.100  11.686  1.00  0.00     0.236 C 
HETATM    3  N   UNL     1     -42.044 -47.906  11.677  1.00  0.00    -0.354 N 
HETATM    4  H   UNL     1     -42.611 -47.650  12.473  1.00  0.00     0.162 HD
ENDROOT
BRANCH   2   5
HETATM    5  C   UNL     1     -41.563 -49.959  12.945  1.00  0.00     0.235 C 
BRANCH   5   6
HETATM    6  N   UNL     1     -42.651 -50.933  12.808  1.00  0.00    -0.301 N 
HETATM    7  C   UNL     1     -43.917 -50.619  13.262  1.00  0.00     0.102 C 
HETATM    8  C   UNL     1     -44.931 -51.487  13.194  1.00  0.00     0.092 C 
HETATM    9  C   UNL     1     -44.689 -52.811  12.606  1.00  0.00     0.250 C 
HETATM   10  O   UNL     1     -45.571 -53.665  12.580  1.00  0.00    -0.268 OA
HETATM   11  N   UNL     1     -43.438 -53.019  12.107  1.00  0.00    -0.275 N 
HETATM   12  C   UNL     1     -42.370 -52.171  12.241  1.00  0.00     0.329 C 
HETATM   13  H   UNL     1     -43.250 -53.925  11.707  1.00  0.00     0.173 HD
HETATM   14  O   UNL     1     -41.251 -52.515  11.866  1.00  0.00    -0.246 OA
ENDBRANCH   5   6
ENDBRANCH   2   5
BRANCH   3  15
HETATM   15  C   UNL     1     -41.965 -46.956  10.580  1.00  0.00     0.092 C 
BRANCH  15  16
HETATM   16  C   UNL     1     -43.335 -46.591  10.056  1.00  0.00     0.009 A 
HETATM   17  C   UNL     1     -44.475 -47.581  10.001  1.00  0.00     0.007 A 
HETATM   18  C   UNL     1     -43.884 -47.049   8.723  1.00  0.00     0.007 A 
ENDBRANCH  15  16
BRANCH  15  19
HETATM   19  C   UNL     1     -41.205 -45.734  11.048  1.00  0.00     0.009 A 
HETATM   20  C   UNL     1     -39.901 -45.302  10.408  1.00  0.00     0.007 A 
HETATM   21  C   UNL     1     -39.894 -45.898  11.784  1.00  0.00     0.007 A 
ENDBRANCH  15  19
ENDBRANCH   3  15
TORSDOF 5
ENDMDL
MODEL 3
REMARK VINA RESULT:      -5.9      1.411      2.683
REMARK  5 active torsions:
REMARK  status: ('A' for Active; 'I' for Inactive)
REMARK    1  A    between atoms: C_2  and  C_3 
REMARK       I    between atoms: C_2  and  N_12 
REMARK    2  A    between atoms: C_3  and  N_4 
REMARK    3  A    between atoms: N_12  and  C_13 
REMARK    4  A    between atoms: C_13  and  C_14 
REMARK    5  A    between atoms: C_13  and  C_17 
ROOT
HETATM    1  O   UNL     1     -43.177 -50.225  15.067  1.00  0.00    -0.272 OA
HETATM    2  C   UNL     1     -42.597 -50.511  14.021  1.00  0.00     0.236 C 
HETATM    3  N   UNL     1     -42.842 -51.673  13.316  1.00  0.00    -0.354 N 
HETATM    4  H   UNL     1     -42.306 -51.876  12.485  1.00  0.00     0.162 HD
ENDROOT
BRANCH   2   5
HETATM    5  C   UNL     1     -41.517 -49.601  13.411  1.00  0.00     0.235 C 
BRANCH   5   6
HETATM    6  N   UNL     1     -41.938 -48.954  12.164  1.00  0.00    -0.301 N 
HETATM    7  C   UNL     1     -43.087 -48.188  12.142  1.00  0.00     0.102 C 
HETATM    8  C   UNL     1     -43.532 -47.609  11.021  1.00  0.00     0.092 C 
HETATM    9  C   UNL     1     -42.764 -47.787   9.782  1.00  0.00     0.250 C 
HETATM   10  O   UNL     1     -43.165 -47.330   8.715  1.00  0.00    -0.268 OA
HETATM   11  N   UNL     1     -41.601 -48.488   9.899  1.00  0.00    -0.275 N 
HETATM   12  C   UNL     1     -41.174 -49.151  11.020  1.00  0.00     0.329 C 
HETATM   13  H   UNL     1     -41.064 -48.627   9.058  1.00  0.00     0.173 HD
HETATM   14  O   UNL     1     -40.172 -49.862  10.978  1.00  0.00    -0.246 OA
ENDBRANCH   5   6
ENDBRANCH   2   5
BRANCH   3  15
HETATM   15  C   UNL     1     -43.819 -52.661  13.739  1.00  0.00     0.092 C 
BRANCH  15  16
HETATM   16  C   UNL     1     -45.096 -52.566  12.935  1.00  0.00     0.009 A 
HETATM   17  C   UNL     1     -46.003 -51.359  12.990  1.00  0.00     0.007 A 
HETATM   18  C   UNL     1     -46.483 -52.680  13.527  1.00  0.00     0.007 A 
ENDBRANCH  15  16
BRANCH  15  19
HETATM   19  C   UNL     1     -43.196 -54.037  13.633  1.00  0.00     0.009 A 
HETATM   20  C   UNL     1     -43.070 -54.957  14.829  1.00  0.00     0.007 A 
HETATM   21  C   UNL     1     -41.846 -54.303  14.260  1.00  0.00     0.007 A 
ENDBRANCH  15  19
ENDBRANCH   3  15
TORSDOF 5
ENDMDL
MODEL 4
REMARK VINA RESULT:      -5.8      1.870      3.652
REMARK  5 active torsions:
REMARK  status: ('A' for Active; 'I' for Inactive)
REMARK    1  A    between atoms: C_2  and  C_3 
REMARK       I    between atoms: C_2  and  N_12 
REMARK    2  A    between atoms: C_3  and  N_4 
REMARK    3  A    between atoms: N_12  and  C_13 
REMARK    4  A    between atoms: C_13  and  C_14 
REMARK    5  A    between atoms: C_13  and  C_17 
ROOT
HETATM    1  O   UNL     1     -43.477 -50.077  14.821  1.00  0.00    -0.272 OA
HETATM    2  C   UNL     1     -43.318 -50.299  13.623  1.00  0.00     0.236 C 
HETATM    3  N   UNL     1     -43.720 -51.472  13.014  1.00  0.00    -0.354 N 
HETATM    4  H   UNL     1     -43.527 -51.619  12.034  1.00  0.00     0.162 HD
ENDROOT
BRANCH   2   5
HETATM    5  C   UNL     1     -42.628 -49.291  12.689  1.00  0.00     0.235 C 
BRANCH   5   6
HETATM    6  N   UNL     1     -41.240 -49.647  12.373  1.00  0.00    -0.301 N 
HETATM    7  C   UNL     1     -40.471 -50.312  13.308  1.00  0.00     0.102 C 
HETATM    8  C   UNL     1     -39.191 -50.624  13.081  1.00  0.00     0.092 C 
HETATM    9  C   UNL     1     -38.593 -50.256  11.792  1.00  0.00     0.250 C 
HETATM   10  O   UNL     1     -37.404 -50.462  11.561  1.00  0.00    -0.268 OA
HETATM   11  N   UNL     1     -39.434 -49.674  10.890  1.00  0.00    -0.275 N 
HETATM   12  C   UNL     1     -40.722 -49.278  11.137  1.00  0.00     0.329 C 
HETATM   13  H   UNL     1     -39.039 -49.407  10.003  1.00  0.00     0.173 HD
HETATM   14  O   UNL     1     -41.350 -48.644  10.292  1.00  0.00    -0.246 OA
ENDBRANCH   5   6
ENDBRANCH   2   5
BRANCH   3  15
HETATM   15  C   UNL     1     -44.381 -52.548  13.733  1.00  0.00     0.092 C 
BRANCH  15  16
HETATM   16  C   UNL     1     -45.868 -52.573  13.461  1.00  0.00     0.009 A 
HETATM   17  C   UNL     1     -46.551 -51.550  12.584  1.00  0.00     0.007 A 
HETATM   18  C   UNL     1     -46.856 -51.595  14.057  1.00  0.00     0.007 A 
ENDBRANCH  15  16
BRANCH  15  19
HETATM   19  C   UNL     1     -43.725 -53.859  13.356  1.00  0.00     0.009 A 
HETATM   20  C   UNL     1     -42.979 -54.706  14.367  1.00  0.00     0.007 A 
HETATM   21  C   UNL     1     -42.217 -53.961  13.311  1.00  0.00     0.007 A 
ENDBRANCH  15  19
ENDBRANCH   3  15
TORSDOF 5
ENDMDL
MODEL 5
REMARK VINA RESULT:      -5.7      2.714      6.700
REMARK  5 active torsions:
REMARK  status: ('A' for Active; 'I' for Inactive)
REMARK    1  A    between atoms: C_2  and  C_3 
REMARK       I    between atoms: C_2  and  N_12 
REMARK    2  A    between atoms: C_3  and  N_4 
REMARK    3  A    between atoms: N_12  and  C_13 
REMARK    4  A    between atoms: C_13  and  C_14 
REMARK    5  A    between atoms: C_13  and  C_17 
ROOT
HETATM    1  O   UNL     1     -41.002 -51.505  14.084  1.00  0.00    -0.272 OA
HETATM    2  C   UNL     1     -40.841 -52.021  12.980  1.00  0.00     0.236 C 
HETATM    3  N   UNL     1     -40.374 -51.324  11.884  1.00  0.00    -0.354 N 
HETATM    4  H   UNL     1     -40.300 -51.788  10.990  1.00  0.00     0.162 HD
ENDROOT
BRANCH   2   5
HETATM    5  C   UNL     1     -41.171 -53.499  12.712  1.00  0.00     0.235 C 
BRANCH   5   6
HETATM    6  N   UNL     1     -42.467 -53.914  13.259  1.00  0.00    -0.301 N 
HETATM    7  C   UNL     1     -43.630 -53.601  12.583  1.00  0.00     0.102 C 
HETATM    8  C   UNL     1     -44.837 -53.924  13.060  1.00  0.00     0.092 C 
HETATM    9  C   UNL     1     -44.921 -54.644  14.337  1.00  0.00     0.250 C 
HETATM   10  O   UNL     1     -46.007 -54.906  14.849  1.00  0.00    -0.268 OA
HETATM   11  N   UNL     1     -43.731 -54.989  14.905  1.00  0.00    -0.275 N 
HETATM   12  C   UNL     1     -42.492 -54.596  14.470  1.00  0.00     0.329 C 
HETATM   13  H   UNL     1     -43.768 -55.476  15.786  1.00  0.00     0.173 HD
HETATM   14  O   UNL     1     -41.489 -54.855  15.132  1.00  0.00    -0.246 OA
ENDBRANCH   5   6
ENDBRANCH   2   5
BRANCH   3  15
HETATM   15  C   UNL     1     -40.017 -49.916  11.936  1.00  0.00     0.092 C 
BRANCH  15  16
HETATM   16  C   UNL     1     -38.543 -49.702  11.680  1.00  0.00     0.009 A 
HETATM   17  C   UNL     1     -37.487 -50.682  12.135  1.00  0.00     0.007 A 
HETATM   18  C   UNL     1     -37.544 -49.309  12.745  1.00  0.00     0.007 A 
ENDBRANCH  15  16
BRANCH  15  19
HETATM   19  C   UNL     1     -40.871 -49.161  10.940  1.00  0.00     0.009 A 
HETATM   20  C   UNL     1     -41.161 -47.681  11.088  1.00  0.00     0.007 A 
HETATM   21  C   UNL     1     -42.248 -48.683  11.338  1.00  0.00     0.007 A 
ENDBRANCH  15  19
ENDBRANCH   3  15
TORSDOF 5
ENDMDL
MODEL 6
REMARK VINA RESULT:      -5.4      2.923      6.680
REMARK  5 active torsions:
REMARK  status: ('A' for Active; 'I' for Inactive)
REMARK    1  A    between atoms: C_2  and  C_3 
REMARK       I    between atoms: C_2  and  N_12 
REMARK    2  A    between atoms: C_3  and  N_4 
REMARK    3  A    between atoms: N_12  and  C_13 
REMARK    4  A    between atoms: C_13  and  C_14 
REMARK    5  A    between atoms: C_13  and  C_17 
ROOT
HETATM    1  O   UNL     1     -40.875 -50.204  15.048  1.00  0.00    -0.272 OA
HETATM    2  C   UNL     1     -40.185 -50.849  14.261  1.00  0.00     0.236 C 
HETATM    3  N   UNL     1     -39.289 -50.262  13.389  1.00  0.00    -0.354 N 
HETATM    4  H   UNL     1     -38.778 -50.838  12.734  1.00  0.00     0.162 HD
ENDROOT
BRANCH   2   5
HETATM    5  C   UNL     1     -40.278 -52.380  14.157  1.00  0.00     0.235 C 
BRANCH   5   6
HETATM    6  N   UNL     1     -41.599 -52.856  13.736  1.00  0.00    -0.301 N 
HETATM    7  C   UNL     1     -42.400 -53.541  14.629  1.00  0.00     0.102 C 
HETATM    8  C   UNL     1     -43.596 -54.027  14.282  1.00  0.00     0.092 C 
HETATM    9  C   UNL     1     -44.074 -53.813  12.909  1.00  0.00     0.250 C 
HETATM   10  O   UNL     1     -45.135 -54.295  12.524  1.00  0.00    -0.268 OA
HETATM   11  N   UNL     1     -43.266 -53.060  12.110  1.00  0.00    -0.275 N 
HETATM   12  C   UNL     1     -42.006 -52.624  12.427  1.00  0.00     0.329 C 
HETATM   13  H   UNL     1     -43.572 -52.909  11.162  1.00  0.00     0.173 HD
HETATM   14  O   UNL     1     -41.311 -52.063  11.583  1.00  0.00    -0.246 OA
ENDBRANCH   5   6
ENDBRANCH   2   5
BRANCH   3  15
HETATM   15  C   UNL     1     -39.068 -48.828  13.330  1.00  0.00     0.092 C 
BRANCH  15  16
HETATM   16  C   UNL     1     -37.681 -48.454  13.803  1.00  0.00     0.009 A 
HETATM   17  C   UNL     1     -37.110 -48.945  15.113  1.00  0.00     0.007 A 
HETATM   18  C   UNL     1     -37.400 -47.481  14.926  1.00  0.00     0.007 A 
ENDBRANCH  15  16
BRANCH  15  19
HETATM   19  C   UNL     1     -39.318 -48.354  11.915  1.00  0.00     0.009 A 
HETATM   20  C   UNL     1     -40.160 -47.131  11.612  1.00  0.00     0.007 A 
HETATM   21  C   UNL     1     -40.694 -48.499  11.305  1.00  0.00     0.007 A 
ENDBRANCH  15  19
ENDBRANCH   3  15
TORSDOF 5
ENDMDL
MODEL 7
REMARK VINA RESULT:      -5.3      2.142      6.776
REMARK  5 active torsions:
REMARK  status: ('A' for Active; 'I' for Inactive)
REMARK    1  A    between atoms: C_2  and  C_3 
REMARK       I    between atoms: C_2  and  N_12 
REMARK    2  A    between atoms: C_3  and  N_4 
REMARK    3  A    between atoms: N_12  and  C_13 
REMARK    4  A    between atoms: C_13  and  C_14 
REMARK    5  A    between atoms: C_13  and  C_17 
ROOT
HETATM    1  O   UNL     1     -42.262 -51.480  12.145  1.00  0.00    -0.272 OA
HETATM    2  C   UNL     1     -42.732 -50.573  12.829  1.00  0.00     0.236 C 
HETATM    3  N   UNL     1     -42.446 -49.240  12.613  1.00  0.00    -0.354 N 
HETATM    4  H   UNL     1     -42.828 -48.539  13.233  1.00  0.00     0.162 HD
ENDROOT
BRANCH   2   5
HETATM    5  C   UNL     1     -43.670 -50.848  14.017  1.00  0.00     0.235 C 
BRANCH   5   6
HETATM    6  N   UNL     1     -44.262 -52.189  13.992  1.00  0.00    -0.301 N 
HETATM    7  C   UNL     1     -43.591 -53.247  14.574  1.00  0.00     0.102 C 
HETATM    8  C   UNL     1     -44.071 -54.495  14.545  1.00  0.00     0.092 C 
HETATM    9  C   UNL     1     -45.359 -54.739  13.883  1.00  0.00     0.250 C 
HETATM   10  O   UNL     1     -45.811 -55.876  13.772  1.00  0.00    -0.268 OA
HETATM   11  N   UNL     1     -46.000 -53.636  13.403  1.00  0.00    -0.275 N 
HETATM   12  C   UNL     1     -45.485 -52.367  13.356  1.00  0.00     0.329 C 
HETATM   13  H   UNL     1     -46.881 -53.785  12.938  1.00  0.00     0.173 HD
HETATM   14  O   UNL     1     -46.097 -51.468  12.783  1.00  0.00    -0.246 OA
ENDBRANCH   5   6
ENDBRANCH   2   5
BRANCH   3  15
HETATM   15  C   UNL     1     -41.573 -48.782  11.546  1.00  0.00     0.092 C 
BRANCH  15  16
HETATM   16  C   UNL     1     -42.180 -47.630  10.779  1.00  0.00     0.009 A 
HETATM   17  C   UNL     1     -43.673 -47.440  10.645  1.00  0.00     0.007 A 
HETATM   18  C   UNL     1     -42.849 -47.766   9.430  1.00  0.00     0.007 A 
ENDBRANCH  15  16
BRANCH  15  19
HETATM   19  C   UNL     1     -40.232 -48.409  12.141  1.00  0.00     0.009 A 
HETATM   20  C   UNL     1     -38.967 -49.179  11.822  1.00  0.00     0.007 A 
HETATM   21  C   UNL     1     -39.594 -49.304  13.179  1.00  0.00     0.007 A 
ENDBRANCH  15  19
ENDBRANCH   3  15
TORSDOF 5
ENDMDL
MODEL 8
REMARK VINA RESULT:      -5.3      2.551      6.601
REMARK  5 active torsions:
REMARK  status: ('A' for Active; 'I' for Inactive)
REMARK    1  A    between atoms: C_2  and  C_3 
REMARK       I    between atoms: C_2  and  N_12 
REMARK    2  A    between atoms: C_3  and  N_4 
REMARK    3  A    between atoms: N_12  and  C_13 
REMARK    4  A    between atoms: C_13  and  C_14 
REMARK    5  A    between atoms: C_13  and  C_17 
ROOT
HETATM    1  O   UNL     1     -40.949 -52.609  11.579  1.00  0.00    -0.272 OA
HETATM    2  C   UNL     1     -40.852 -52.131  12.708  1.00  0.00     0.236 C 
HETATM    3  N   UNL     1     -40.356 -50.866  12.951  1.00  0.00    -0.354 N 
HETATM    4  H   UNL     1     -40.261 -50.540  13.902  1.00  0.00     0.162 HD
ENDROOT
BRANCH   2   5
HETATM    5  C   UNL     1     -41.256 -52.918  13.966  1.00  0.00     0.235 C 
BRANCH   5   6
HETATM    6  N   UNL     1     -42.707 -53.067  14.118  1.00  0.00    -0.301 N 
HETATM    7  C   UNL     1     -43.324 -54.239  13.723  1.00  0.00     0.102 C 
HETATM    8  C   UNL     1     -44.647 -54.407  13.807  1.00  0.00     0.092 C 
HETATM    9  C   UNL     1     -45.465 -53.314  14.347  1.00  0.00     0.250 C 
HETATM   10  O   UNL     1     -46.690 -53.396  14.384  1.00  0.00    -0.268 OA
HETATM   11  N   UNL     1     -44.780 -52.222  14.790  1.00  0.00    -0.275 N 
HETATM   12  C   UNL     1     -43.436 -52.004  14.638  1.00  0.00     0.329 C 
HETATM   13  H   UNL     1     -45.325 -51.458  15.157  1.00  0.00     0.173 HD
HETATM   14  O   UNL     1     -42.941 -50.925  14.959  1.00  0.00    -0.246 OA
ENDBRANCH   5   6
ENDBRANCH   2   5
BRANCH   3  15
HETATM   15  C   UNL     1     -39.913 -49.975  11.892  1.00  0.00     0.092 C 
BRANCH  15  16
HETATM   16  C   UNL     1     -40.777 -48.737  11.804  1.00  0.00     0.009 A 
HETATM   17  C   UNL     1     -42.287 -48.796  11.826  1.00  0.00     0.007 A 
HETATM   18  C   UNL     1     -41.575 -48.344  10.581  1.00  0.00     0.007 A 
ENDBRANCH  15  16
BRANCH  15  19
HETATM   19  C   UNL     1     -38.460 -49.623  12.128  1.00  0.00     0.009 A 
HETATM   20  C   UNL     1     -37.380 -49.939  11.114  1.00  0.00     0.007 A 
HETATM   21  C   UNL     1     -37.454 -50.719  12.393  1.00  0.00     0.007 A 
ENDBRANCH  15  19
ENDBRANCH   3  15
TORSDOF 5
ENDMDL
MODEL 9
REMARK VINA RESULT:      -5.2      3.397      6.999
REMARK  5 active torsions:
REMARK  status: ('A' for Active; 'I' for Inactive)
REMARK    1  A    between atoms: C_2  and  C_3 
REMARK       I    between atoms: C_2  and  N_12 
REMARK    2  A    between atoms: C_3  and  N_4 
REMARK    3  A    between atoms: N_12  and  C_13 
REMARK    4  A    between atoms: C_13  and  C_14 
REMARK    5  A    between atoms: C_13  and  C_17 
ROOT
HETATM    1  O   UNL     1     -40.248 -47.921  13.300  1.00  0.00    -0.272 OA
HETATM    2  C   UNL     1     -39.811 -48.240  12.196  1.00  0.00     0.236 C 
HETATM    3  N   UNL     1     -40.091 -47.534  11.042  1.00  0.00    -0.354 N 
HETATM    4  H   UNL     1     -39.739 -47.865  10.155  1.00  0.00     0.162 HD
ENDROOT
BRANCH   2   5
HETATM    5  C   UNL     1     -38.926 -49.481  11.994  1.00  0.00     0.235 C 
BRANCH   5   6
HETATM    6  N   UNL     1     -39.591 -50.736  12.359  1.00  0.00    -0.301 N 
HETATM    7  C   UNL     1     -40.767 -51.098  11.733  1.00  0.00     0.102 C 
HETATM    8  C   UNL     1     -41.430 -52.213  12.058  1.00  0.00     0.092 C 
HETATM    9  C   UNL     1     -40.879 -53.082  13.105  1.00  0.00     0.250 C 
HETATM   10  O   UNL     1     -41.483 -54.082  13.484  1.00  0.00    -0.268 OA
HETATM   11  N   UNL     1     -39.675 -52.702  13.620  1.00  0.00    -0.275 N 
HETATM   12  C   UNL     1     -39.026 -51.525  13.354  1.00  0.00     0.329 C 
HETATM   13  H   UNL     1     -39.285 -53.281  14.346  1.00  0.00     0.173 HD
HETATM   14  O   UNL     1     -38.008 -51.222  13.974  1.00  0.00    -0.246 OA
ENDBRANCH   5   6
ENDBRANCH   2   5
BRANCH   3  15
HETATM   15  C   UNL     1     -40.918 -46.339  11.029  1.00  0.00     0.092 C 
BRANCH  15  16
HETATM   16  C   UNL     1     -40.091 -45.087  10.848  1.00  0.00     0.009 A 
HETATM   17  C   UNL     1     -39.369 -44.417  11.995  1.00  0.00     0.007 A 
HETATM   18  C   UNL     1     -40.514 -43.714  11.319  1.00  0.00     0.007 A 
ENDBRANCH  15  16
BRANCH  15  19
HETATM   19  C   UNL     1     -41.959 -46.480   9.939  1.00  0.00     0.009 A 
HETATM   20  C   UNL     1     -43.435 -46.617  10.248  1.00  0.00     0.007 A 
HETATM   21  C   UNL     1     -42.667 -47.801   9.740  1.00  0.00     0.007 A 
ENDBRANCH  15  19
ENDBRANCH   3  15
TORSDOF 5
ENDMDL
