MODEL 1
REMARK VINA RESULT:      -6.9      0.000      0.000
REMARK  7 active torsions:
REMARK  status: ('A' for Active; 'I' for Inactive)
REMARK    1  A    between atoms: N_2  and  C_17 
REMARK    2  A    between atoms: C_3  and  N_9 
REMARK    3  A    between atoms: C_7  and  N_9 
REMARK    4  A    between atoms: C_12  and  O_24 
REMARK    5  A    between atoms: C_17  and  C_18 
REMARK    6  A    between atoms: C_18  and  C_20 
REMARK    7  A    between atoms: C_18  and  O_25 
ROOT
HETATM    1  C   UNL     1     -40.953 -48.850  12.658  1.00  0.00     0.122 A 
HETATM    2  N   UNL     1     -41.937 -50.802  12.490  1.00  0.00    -0.325 N 
HETATM    3  C   UNL     1     -39.924 -47.902  12.399  1.00  0.00     0.135 A 
HETATM    4  C   UNL     1     -40.771 -50.150  12.194  1.00  0.00     0.140 A 
HETATM    5  N   UNL     1     -42.172 -48.744  13.304  1.00  0.00    -0.346 N 
ATOM      6  HN  UNL     1     -42.559 -47.921  13.766  1.00  0.00     0.167 HD
HETATM    7  C   UNL     1     -42.722 -49.928  13.193  1.00  0.00     0.185 A 
HETATM    8  N   UNL     1     -38.822 -48.399  11.759  1.00  0.00    -0.337 N 
ATOM      9  HN  UNL     1     -38.047 -47.776  11.529  1.00  0.00     0.168 HD
HETATM   10  N   UNL     1     -39.691 -50.652  11.574  1.00  0.00    -0.336 N 
ATOM     11  HN  UNL     1     -39.598 -51.618  11.259  1.00  0.00     0.168 HD
HETATM   12  C   UNL     1     -38.751 -49.704  11.427  1.00  0.00     0.183 A 
ENDROOT
BRANCH   3  13
HETATM   13  N   UNL     1     -39.966 -46.514  12.758  1.00  0.00    -0.364 N 
HETATM   14  C   UNL     1     -39.738 -46.332  14.198  1.00  0.00     0.152 C 
BRANCH  13  15
HETATM   15  C   UNL     1     -40.810 -45.519  12.094  1.00  0.00     0.099 C 
HETATM   16  C   UNL     1     -40.102 -44.217  11.652  1.00  0.00     0.007 C 
HETATM   17  C   UNL     1     -39.630 -44.926  10.397  1.00  0.00     0.133 C 
HETATM   18  C   UNL     1     -40.999 -42.990  11.494  1.00  0.00     0.014 C 
HETATM   19  C   UNL     1     -39.120 -43.414  12.464  1.00  0.00     0.014 C 
HETATM   20  C   UNL     1     -40.941 -45.743  10.540  1.00  0.00     0.059 C 
HETATM   21  C   UNL     1     -40.257 -42.391  12.709  1.00  0.00     0.002 C 
BRANCH  17  22
HETATM   22  O   UNL     1     -39.474 -44.224   9.150  1.00  0.00    -0.390 OA
HETATM   23  C   UNL     1     -38.272 -44.567   8.462  1.00  0.00     0.202 C 
ENDBRANCH  17  22
ENDBRANCH  13  15
ENDBRANCH   3  13
BRANCH   2  24
HETATM   24  C   UNL     1     -42.286 -52.178  12.160  1.00  0.00     0.165 C 
BRANCH  24  25
HETATM   25  C   UNL     1     -41.298 -53.206  12.727  1.00  0.00     0.165 C 
BRANCH  25  26
HETATM   26  C   UNL     1     -41.970 -54.361  13.485  1.00  0.00     0.151 C 
HETATM   27  O   UNL     1     -43.407 -54.224  13.403  1.00  0.00    -0.383 OA
HETATM   28  C   UNL     1     -43.974 -54.830  14.579  1.00  0.00     0.168 C 
HETATM   29  C   UNL     1     -42.824 -55.364  15.410  1.00  0.00     0.029 C 
HETATM   30  C   UNL     1     -41.662 -54.510  14.959  1.00  0.00     0.036 C 
ENDBRANCH  25  26
BRANCH  25  31
HETATM   31  O   UNL     1     -40.557 -53.811  11.648  1.00  0.00    -0.391 OA
HETATM   32  H   UNL     1     -39.651 -53.967  11.984  1.00  0.00     0.210 HD
ENDBRANCH  25  31
ENDBRANCH  24  25
ENDBRANCH   2  24
TORSDOF 7
ENDMDL
MODEL 2
REMARK VINA RESULT:      -6.9      2.255      8.509
REMARK  7 active torsions:
REMARK  status: ('A' for Active; 'I' for Inactive)
REMARK    1  A    between atoms: N_2  and  C_17 
REMARK    2  A    between atoms: C_3  and  N_9 
REMARK    3  A    between atoms: C_7  and  N_9 
REMARK    4  A    between atoms: C_12  and  O_24 
REMARK    5  A    between atoms: C_17  and  C_18 
REMARK    6  A    between atoms: C_18  and  C_20 
REMARK    7  A    between atoms: C_18  and  O_25 
ROOT
HETATM    1  C   UNL     1     -42.321 -50.359  12.667  1.00  0.00     0.122 A 
HETATM    2  N   UNL     1     -41.905 -48.607  11.418  1.00  0.00    -0.325 N 
HETATM    3  C   UNL     1     -41.985 -51.563  13.347  1.00  0.00     0.135 A 
HETATM    4  C   UNL     1     -41.351 -49.781  11.853  1.00  0.00     0.140 A 
HETATM    5  N   UNL     1     -43.473 -49.593  12.651  1.00  0.00    -0.346 N 
ATOM      6  HN  UNL     1     -44.352 -49.786  13.130  1.00  0.00     0.167 HD
HETATM    7  C   UNL     1     -43.190 -48.567  11.888  1.00  0.00     0.185 A 
HETATM    8  N   UNL     1     -40.739 -52.058  13.075  1.00  0.00    -0.337 N 
ATOM      9  HN  UNL     1     -40.423 -52.913  13.533  1.00  0.00     0.168 HD
HETATM   10  N   UNL     1     -40.130 -50.260  11.569  1.00  0.00    -0.336 N 
ATOM     11  HN  UNL     1     -39.454 -49.805  10.956  1.00  0.00     0.168 HD
HETATM   12  C   UNL     1     -39.924 -51.426  12.205  1.00  0.00     0.183 A 
ENDROOT
BRANCH   3  13
HETATM   13  N   UNL     1     -42.839 -52.266  14.260  1.00  0.00    -0.364 N 
HETATM   14  C   UNL     1     -42.327 -52.185  15.635  1.00  0.00     0.152 C 
BRANCH  13  15
HETATM   15  C   UNL     1     -43.603 -53.466  13.912  1.00  0.00     0.099 C 
HETATM   16  C   UNL     1     -45.138 -53.360  14.065  1.00  0.00     0.007 C 
HETATM   17  C   UNL     1     -45.206 -52.696  12.705  1.00  0.00     0.133 C 
HETATM   18  C   UNL     1     -45.881 -54.681  14.263  1.00  0.00     0.014 C 
HETATM   19  C   UNL     1     -45.879 -52.751  15.227  1.00  0.00     0.014 C 
HETATM   20  C   UNL     1     -43.960 -53.561  12.380  1.00  0.00     0.059 C 
HETATM   21  C   UNL     1     -46.205 -54.192  15.692  1.00  0.00     0.002 C 
BRANCH  17  22
HETATM   22  O   UNL     1     -46.334 -52.887  11.830  1.00  0.00    -0.390 OA
HETATM   23  C   UNL     1     -47.052 -51.681  11.571  1.00  0.00     0.202 C 
ENDBRANCH  17  22
ENDBRANCH  13  15
ENDBRANCH   3  13
BRANCH   2  24
HETATM   24  C   UNL     1     -41.276 -47.593  10.582  1.00  0.00     0.165 C 
BRANCH  24  25
HETATM   25  C   UNL     1     -42.083 -46.292  10.496  1.00  0.00     0.165 C 
BRANCH  25  26
HETATM   26  C   UNL     1     -41.554 -45.171  11.405  1.00  0.00     0.151 C 
HETATM   27  O   UNL     1     -41.521 -43.925  10.671  1.00  0.00    -0.383 OA
HETATM   28  C   UNL     1     -40.472 -43.114  11.229  1.00  0.00     0.168 C 
HETATM   29  C   UNL     1     -39.844 -43.905  12.361  1.00  0.00     0.029 C 
HETATM   30  C   UNL     1     -40.167 -45.333  11.989  1.00  0.00     0.036 C 
ENDBRANCH  25  26
BRANCH  25  31
HETATM   31  O   UNL     1     -42.030 -45.776   9.150  1.00  0.00    -0.391 OA
HETATM   32  H   UNL     1     -41.102 -45.864   8.853  1.00  0.00     0.210 HD
ENDBRANCH  25  31
ENDBRANCH  24  25
ENDBRANCH   2  24
TORSDOF 7
ENDMDL
MODEL 3
REMARK VINA RESULT:      -6.8      3.374      8.325
REMARK  7 active torsions:
REMARK  status: ('A' for Active; 'I' for Inactive)
REMARK    1  A    between atoms: N_2  and  C_17 
REMARK    2  A    between atoms: C_3  and  N_9 
REMARK    3  A    between atoms: C_7  and  N_9 
REMARK    4  A    between atoms: C_12  and  O_24 
REMARK    5  A    between atoms: C_17  and  C_18 
REMARK    6  A    between atoms: C_18  and  C_20 
REMARK    7  A    between atoms: C_18  and  O_25 
ROOT
HETATM    1  C   UNL     1     -42.420 -48.777  12.322  1.00  0.00     0.122 A 
HETATM    2  N   UNL     1     -42.361 -47.153  10.851  1.00  0.00    -0.325 N 
HETATM    3  C   UNL     1     -42.700 -49.350  13.594  1.00  0.00     0.135 A 
HETATM    4  C   UNL     1     -42.602 -47.404  12.175  1.00  0.00     0.140 A 
HETATM    5  N   UNL     1     -41.989 -49.329  11.129  1.00  0.00    -0.346 N 
ATOM      6  HN  UNL     1     -41.750 -50.304  10.949  1.00  0.00     0.167 HD
HETATM    7  C   UNL     1     -41.954 -48.330  10.283  1.00  0.00     0.185 A 
HETATM    8  N   UNL     1     -43.070 -48.461  14.566  1.00  0.00    -0.337 N 
ATOM      9  HN  UNL     1     -43.298 -48.800  15.501  1.00  0.00     0.168 HD
HETATM   10  N   UNL     1     -42.954 -46.520  13.121  1.00  0.00    -0.336 N 
ATOM     11  HN  UNL     1     -43.066 -45.517  12.969  1.00  0.00     0.168 HD
HETATM   12  C   UNL     1     -43.138 -47.141  14.299  1.00  0.00     0.183 A 
ENDROOT
BRANCH   3  13
HETATM   13  N   UNL     1     -42.617 -50.747  13.910  1.00  0.00    -0.364 N 
HETATM   14  C   UNL     1     -41.232 -51.143  14.201  1.00  0.00     0.152 C 
BRANCH  13  15
HETATM   15  C   UNL     1     -43.488 -51.773  13.334  1.00  0.00     0.099 C 
HETATM   16  C   UNL     1     -44.158 -52.736  14.341  1.00  0.00     0.007 C 
HETATM   17  C   UNL     1     -45.234 -51.697  14.586  1.00  0.00     0.133 C 
HETATM   18  C   UNL     1     -44.581 -54.096  13.784  1.00  0.00     0.014 C 
HETATM   19  C   UNL     1     -43.492 -53.407  15.514  1.00  0.00     0.014 C 
HETATM   20  C   UNL     1     -44.970 -51.287  13.113  1.00  0.00     0.059 C 
HETATM   21  C   UNL     1     -43.487 -54.714  14.683  1.00  0.00     0.002 C 
BRANCH  17  22
HETATM   22  O   UNL     1     -46.591 -52.075  14.888  1.00  0.00    -0.390 OA
HETATM   23  C   UNL     1     -47.095 -51.454  16.069  1.00  0.00     0.202 C 
ENDBRANCH  17  22
ENDBRANCH  13  15
ENDBRANCH   3  13
BRANCH   2  24
HETATM   24  C   UNL     1     -42.473 -45.873  10.162  1.00  0.00     0.165 C 
BRANCH  24  25
HETATM   25  C   UNL     1     -43.558 -45.863   9.078  1.00  0.00     0.165 C 
BRANCH  25  26
HETATM   26  C   UNL     1     -44.609 -46.974   9.240  1.00  0.00     0.151 C 
HETATM   27  O   UNL     1     -44.498 -47.909   8.143  1.00  0.00    -0.383 OA
HETATM   28  C   UNL     1     -45.798 -48.487   7.926  1.00  0.00     0.168 C 
HETATM   29  C   UNL     1     -46.739 -47.876   8.946  1.00  0.00     0.029 C 
HETATM   30  C   UNL     1     -46.066 -46.565   9.278  1.00  0.00     0.036 C 
ENDBRANCH  25  26
BRANCH  25  31
HETATM   31  O   UNL     1     -44.282 -44.616   9.129  1.00  0.00    -0.391 OA
HETATM   32  H   UNL     1     -44.610 -44.447   8.223  1.00  0.00     0.210 HD
ENDBRANCH  25  31
ENDBRANCH  24  25
ENDBRANCH   2  24
TORSDOF 7
ENDMDL
MODEL 4
REMARK VINA RESULT:      -6.7      2.490      3.848
REMARK  7 active torsions:
REMARK  status: ('A' for Active; 'I' for Inactive)
REMARK    1  A    between atoms: N_2  and  C_17 
REMARK    2  A    between atoms: C_3  and  N_9 
REMARK    3  A    between atoms: C_7  and  N_9 
REMARK    4  A    between atoms: C_12  and  O_24 
REMARK    5  A    between atoms: C_17  and  C_18 
REMARK    6  A    between atoms: C_18  and  C_20 
REMARK    7  A    between atoms: C_18  and  O_25 
ROOT
HETATM    1  C   UNL     1     -41.876 -50.863  13.603  1.00  0.00     0.122 A 
HETATM    2  N   UNL     1     -42.900 -52.347  14.850  1.00  0.00    -0.325 N 
HETATM    3  C   UNL     1     -41.280 -50.382  12.404  1.00  0.00     0.135 A 
HETATM    4  C   UNL     1     -42.284 -52.193  13.637  1.00  0.00     0.140 A 
HETATM    5  N   UNL     1     -42.161 -50.248  14.810  1.00  0.00    -0.346 N 
ATOM      6  HN  UNL     1     -41.951 -49.288  15.082  1.00  0.00     0.167 HD
HETATM    7  C   UNL     1     -42.758 -51.166  15.529  1.00  0.00     0.185 A 
HETATM    8  N   UNL     1     -41.120 -51.315  11.418  1.00  0.00    -0.337 N 
ATOM      9  HN  UNL     1     -40.709 -51.042  10.525  1.00  0.00     0.168 HD
HETATM   10  N   UNL     1     -42.124 -53.122  12.681  1.00  0.00    -0.336 N 
ATOM     11  HN  UNL     1     -42.432 -54.092  12.755  1.00  0.00     0.168 HD
HETATM   12  C   UNL     1     -41.501 -52.594  11.614  1.00  0.00     0.183 A 
ENDROOT
BRANCH   3  13
HETATM   13  N   UNL     1     -40.849 -49.033  12.176  1.00  0.00    -0.364 N 
HETATM   14  C   UNL     1     -39.448 -48.849  12.578  1.00  0.00     0.152 C 
BRANCH  13  15
HETATM   15  C   UNL     1     -41.723 -47.862  12.280  1.00  0.00     0.099 C 
HETATM   16  C   UNL     1     -41.514 -46.765  11.211  1.00  0.00     0.007 C 
HETATM   17  C   UNL     1     -42.382 -47.559  10.256  1.00  0.00     0.133 C 
HETATM   18  C   UNL     1     -41.969 -45.358  11.601  1.00  0.00     0.014 C 
HETATM   19  C   UNL     1     -40.192 -46.221  10.735  1.00  0.00     0.014 C 
HETATM   20  C   UNL     1     -43.103 -48.042  11.542  1.00  0.00     0.059 C 
HETATM   21  C   UNL     1     -40.477 -44.958  11.585  1.00  0.00     0.002 C 
BRANCH  17  22
HETATM   22  O   UNL     1     -43.223 -46.909   9.285  1.00  0.00    -0.390 OA
HETATM   23  C   UNL     1     -43.441 -47.697   8.116  1.00  0.00     0.202 C 
ENDBRANCH  17  22
ENDBRANCH  13  15
ENDBRANCH   3  13
BRANCH   2  24
HETATM   24  C   UNL     1     -43.559 -53.543  15.358  1.00  0.00     0.165 C 
BRANCH  24  25
HETATM   25  C   UNL     1     -45.020 -53.306  15.763  1.00  0.00     0.165 C 
BRANCH  25  26
HETATM   26  C   UNL     1     -45.946 -52.980  14.580  1.00  0.00     0.151 C 
HETATM   27  O   UNL     1     -45.381 -53.512  13.360  1.00  0.00    -0.383 OA
HETATM   28  C   UNL     1     -45.829 -52.685  12.271  1.00  0.00     0.168 C 
HETATM   29  C   UNL     1     -46.713 -51.603  12.860  1.00  0.00     0.029 C 
HETATM   30  C   UNL     1     -46.233 -51.522  14.290  1.00  0.00     0.036 C 
ENDBRANCH  25  26
BRANCH  25  31
HETATM   31  O   UNL     1     -45.554 -54.497  16.374  1.00  0.00    -0.391 OA
HETATM   32  H   UNL     1     -46.345 -54.222  16.879  1.00  0.00     0.210 HD
ENDBRANCH  25  31
ENDBRANCH  24  25
ENDBRANCH   2  24
TORSDOF 7
ENDMDL
MODEL 5
REMARK VINA RESULT:      -6.5      3.087      7.961
REMARK  7 active torsions:
REMARK  status: ('A' for Active; 'I' for Inactive)
REMARK    1  A    between atoms: N_2  and  C_17 
REMARK    2  A    between atoms: C_3  and  N_9 
REMARK    3  A    between atoms: C_7  and  N_9 
REMARK    4  A    between atoms: C_12  and  O_24 
REMARK    5  A    between atoms: C_17  and  C_18 
REMARK    6  A    between atoms: C_18  and  C_20 
REMARK    7  A    between atoms: C_18  and  O_25 
ROOT
HETATM    1  C   UNL     1     -41.911 -49.818  12.439  1.00  0.00     0.122 A 
HETATM    2  N   UNL     1     -42.293 -48.024  11.239  1.00  0.00    -0.325 N 
HETATM    3  C   UNL     1     -41.143 -50.934  12.875  1.00  0.00     0.135 A 
HETATM    4  C   UNL     1     -41.421 -49.071  11.371  1.00  0.00     0.140 A 
HETATM    5  N   UNL     1     -43.106 -49.282  12.885  1.00  0.00    -0.346 N 
ATOM      6  HN  UNL     1     -43.702 -49.634  13.633  1.00  0.00     0.167 HD
HETATM    7  C   UNL     1     -43.306 -48.224  12.139  1.00  0.00     0.185 A 
HETATM    8  N   UNL     1     -40.015 -51.187  12.144  1.00  0.00    -0.337 N 
ATOM      9  HN  UNL     1     -39.409 -51.965  12.403  1.00  0.00     0.168 HD
HETATM   10  N   UNL     1     -40.323 -49.314  10.639  1.00  0.00    -0.336 N 
ATOM     11  HN  UNL     1     -40.007 -48.742   9.855  1.00  0.00     0.168 HD
HETATM   12  C   UNL     1     -39.697 -50.417  11.083  1.00  0.00     0.183 A 
ENDROOT
BRANCH   3  13
HETATM   13  N   UNL     1     -41.469 -51.781  13.986  1.00  0.00    -0.364 N 
HETATM   14  C   UNL     1     -40.596 -51.507  15.135  1.00  0.00     0.152 C 
BRANCH  13  15
HETATM   15  C   UNL     1     -41.976 -53.149  13.856  1.00  0.00     0.099 C 
HETATM   16  C   UNL     1     -43.407 -53.394  14.387  1.00  0.00     0.007 C 
HETATM   17  C   UNL     1     -43.961 -52.866  13.079  1.00  0.00     0.133 C 
HETATM   18  C   UNL     1     -43.734 -54.834  14.781  1.00  0.00     0.014 C 
HETATM   19  C   UNL     1     -43.974 -52.892  15.690  1.00  0.00     0.014 C 
HETATM   20  C   UNL     1     -42.655 -53.436  12.463  1.00  0.00     0.059 C 
HETATM   21  C   UNL     1     -43.815 -54.332  16.240  1.00  0.00     0.002 C 
BRANCH  17  22
HETATM   22  O   UNL     1     -45.183 -53.380  12.517  1.00  0.00    -0.390 OA
HETATM   23  C   UNL     1     -46.229 -52.410  12.473  1.00  0.00     0.202 C 
ENDBRANCH  17  22
ENDBRANCH  13  15
ENDBRANCH   3  13
BRANCH   2  24
HETATM   24  C   UNL     1     -42.201 -46.913  10.299  1.00  0.00     0.165 C 
BRANCH  24  25
HETATM   25  C   UNL     1     -43.048 -47.116   9.037  1.00  0.00     0.165 C 
BRANCH  25  26
HETATM   26  C   UNL     1     -44.535 -47.379   9.323  1.00  0.00     0.151 C 
HETATM   27  O   UNL     1     -45.010 -48.449   8.474  1.00  0.00    -0.383 OA
HETATM   28  C   UNL     1     -46.417 -48.241   8.250  1.00  0.00     0.168 C 
HETATM   29  C   UNL     1     -46.813 -46.986   9.005  1.00  0.00     0.029 C 
HETATM   30  C   UNL     1     -45.506 -46.236   9.113  1.00  0.00     0.036 C 
ENDBRANCH  25  26
BRANCH  25  31
HETATM   31  O   UNL     1     -43.000 -45.925   8.225  1.00  0.00    -0.391 OA
HETATM   32  H   UNL     1     -43.897 -45.804   7.853  1.00  0.00     0.210 HD
ENDBRANCH  25  31
ENDBRANCH  24  25
ENDBRANCH   2  24
TORSDOF 7
ENDMDL
MODEL 6
REMARK VINA RESULT:      -6.4      1.900      8.231
REMARK  7 active torsions:
REMARK  status: ('A' for Active; 'I' for Inactive)
REMARK    1  A    between atoms: N_2  and  C_17 
REMARK    2  A    between atoms: C_3  and  N_9 
REMARK    3  A    between atoms: C_7  and  N_9 
REMARK    4  A    between atoms: C_12  and  O_24 
REMARK    5  A    between atoms: C_17  and  C_18 
REMARK    6  A    between atoms: C_18  and  C_20 
REMARK    7  A    between atoms: C_18  and  O_25 
ROOT
HETATM    1  C   UNL     1     -41.876 -49.008  12.167  1.00  0.00     0.122 A 
HETATM    2  N   UNL     1     -42.388 -47.324  10.860  1.00  0.00    -0.325 N 
HETATM    3  C   UNL     1     -40.989 -49.837  12.908  1.00  0.00     0.135 A 
HETATM    4  C   UNL     1     -41.320 -48.017  11.363  1.00  0.00     0.140 A 
HETATM    5  N   UNL     1     -43.257 -48.970  12.079  1.00  0.00    -0.346 N 
ATOM      6  HN  UNL     1     -43.924 -49.592  12.535  1.00  0.00     0.167 HD
HETATM    7  C   UNL     1     -43.522 -47.964  11.283  1.00  0.00     0.185 A 
HETATM    8  N   UNL     1     -39.658 -49.600  12.700  1.00  0.00    -0.337 N 
ATOM      9  HN  UNL     1     -38.962 -50.149  13.204  1.00  0.00     0.168 HD
HETATM   10  N   UNL     1     -40.017 -47.780  11.142  1.00  0.00    -0.336 N 
ATOM     11  HN  UNL     1     -39.654 -47.045  10.534  1.00  0.00     0.168 HD
HETATM   12  C   UNL     1     -39.258 -48.647  11.833  1.00  0.00     0.183 A 
ENDROOT
BRANCH   3  13
HETATM   13  N   UNL     1     -41.387 -50.871  13.820  1.00  0.00    -0.364 N 
HETATM   14  C   UNL     1     -40.950 -50.567  15.189  1.00  0.00     0.152 C 
BRANCH  13  15
HETATM   15  C   UNL     1     -41.493 -52.287  13.462  1.00  0.00     0.099 C 
HETATM   16  C   UNL     1     -42.735 -53.031  14.002  1.00  0.00     0.007 C 
HETATM   17  C   UNL     1     -43.541 -52.486  12.841  1.00  0.00     0.133 C 
HETATM   18  C   UNL     1     -42.598 -54.548  14.138  1.00  0.00     0.014 C 
HETATM   19  C   UNL     1     -43.292 -52.942  15.399  1.00  0.00     0.014 C 
HETATM   20  C   UNL     1     -42.194 -52.532  12.072  1.00  0.00     0.059 C 
HETATM   21  C   UNL     1     -42.676 -54.338  15.666  1.00  0.00     0.002 C 
BRANCH  17  22
HETATM   22  O   UNL     1     -44.615 -53.243  12.249  1.00  0.00    -0.390 OA
HETATM   23  C   UNL     1     -45.900 -52.672  12.491  1.00  0.00     0.202 C 
ENDBRANCH  17  22
ENDBRANCH  13  15
ENDBRANCH   3  13
BRANCH   2  24
HETATM   24  C   UNL     1     -42.349 -46.145  10.004  1.00  0.00     0.165 C 
BRANCH  24  25
HETATM   25  C   UNL     1     -42.776 -44.859  10.723  1.00  0.00     0.165 C 
BRANCH  25  26
HETATM   26  C   UNL     1     -41.598 -44.017  11.241  1.00  0.00     0.151 C 
HETATM   27  O   UNL     1     -40.353 -44.688  10.941  1.00  0.00    -0.383 OA
HETATM   28  C   UNL     1     -39.394 -44.302  11.942  1.00  0.00     0.168 C 
HETATM   29  C   UNL     1     -40.092 -43.345  12.890  1.00  0.00     0.029 C 
HETATM   30  C   UNL     1     -41.548 -43.713  12.723  1.00  0.00     0.036 C 
ENDBRANCH  25  26
BRANCH  25  31
HETATM   31  O   UNL     1     -43.504 -44.013   9.811  1.00  0.00    -0.391 OA
HETATM   32  H   UNL     1     -44.326 -43.748  10.271  1.00  0.00     0.210 HD
ENDBRANCH  25  31
ENDBRANCH  24  25
ENDBRANCH   2  24
TORSDOF 7
ENDMDL
MODEL 7
REMARK VINA RESULT:      -6.3      2.305      3.381
REMARK  7 active torsions:
REMARK  status: ('A' for Active; 'I' for Inactive)
REMARK    1  A    between atoms: N_2  and  C_17 
REMARK    2  A    between atoms: C_3  and  N_9 
REMARK    3  A    between atoms: C_7  and  N_9 
REMARK    4  A    between atoms: C_12  and  O_24 
REMARK    5  A    between atoms: C_17  and  C_18 
REMARK    6  A    between atoms: C_18  and  C_20 
REMARK    7  A    between atoms: C_18  and  O_25 
ROOT
HETATM    1  C   UNL     1     -41.340 -50.185  13.222  1.00  0.00     0.122 A 
HETATM    2  N   UNL     1     -41.983 -52.281  13.207  1.00  0.00    -0.325 N 
HETATM    3  C   UNL     1     -40.962 -48.961  13.840  1.00  0.00     0.135 A 
HETATM    4  C   UNL     1     -41.793 -51.214  14.043  1.00  0.00     0.140 A 
HETATM    5  N   UNL     1     -41.343 -50.596  11.901  1.00  0.00    -0.346 N 
ATOM      6  HN  UNL     1     -41.089 -50.047  11.081  1.00  0.00     0.167 HD
HETATM    7  C   UNL     1     -41.744 -51.843  11.932  1.00  0.00     0.185 A 
HETATM    8  N   UNL     1     -41.143 -48.911  15.195  1.00  0.00    -0.337 N 
ATOM      9  HN  UNL     1     -40.885 -48.069  15.709  1.00  0.00     0.168 HD
HETATM   10  N   UNL     1     -41.986 -51.175  15.371  1.00  0.00    -0.336 N 
ATOM     11  HN  UNL     1     -42.330 -51.955  15.933  1.00  0.00     0.168 HD
HETATM   12  C   UNL     1     -41.661 -49.966  15.858  1.00  0.00     0.183 A 
ENDROOT
BRANCH   3  13
HETATM   13  N   UNL     1     -40.428 -47.817  13.157  1.00  0.00    -0.364 N 
HETATM   14  C   UNL     1     -38.982 -47.692  13.383  1.00  0.00     0.152 C 
BRANCH  13  15
HETATM   15  C   UNL     1     -41.170 -46.574  12.934  1.00  0.00     0.099 C 
HETATM   16  C   UNL     1     -41.143 -46.020  11.490  1.00  0.00     0.007 C 
HETATM   17  C   UNL     1     -42.264 -46.973  11.126  1.00  0.00     0.133 C 
HETATM   18  C   UNL     1     -41.395 -44.520  11.347  1.00  0.00     0.014 C 
HETATM   19  C   UNL     1     -39.936 -45.918  10.595  1.00  0.00     0.014 C 
HETATM   20  C   UNL     1     -42.694 -46.803  12.607  1.00  0.00     0.059 C 
HETATM   21  C   UNL     1     -39.924 -44.398  10.890  1.00  0.00     0.002 C 
BRANCH  17  22
HETATM   22  O   UNL     1     -43.263 -46.621  10.150  1.00  0.00    -0.390 OA
HETATM   23  C   UNL     1     -43.311 -47.526   9.048  1.00  0.00     0.202 C 
ENDBRANCH  17  22
ENDBRANCH  13  15
ENDBRANCH   3  13
BRANCH   2  24
HETATM   24  C   UNL     1     -42.398 -53.628  13.577  1.00  0.00     0.165 C 
BRANCH  24  25
HETATM   25  C   UNL     1     -43.911 -53.850  13.456  1.00  0.00     0.165 C 
BRANCH  25  26
HETATM   26  C   UNL     1     -44.749 -52.594  13.745  1.00  0.00     0.151 C 
HETATM   27  O   UNL     1     -44.852 -52.397  15.173  1.00  0.00    -0.383 OA
HETATM   28  C   UNL     1     -46.091 -51.713  15.434  1.00  0.00     0.168 C 
HETATM   29  C   UNL     1     -46.767 -51.479  14.097  1.00  0.00     0.029 C 
HETATM   30  C   UNL     1     -46.171 -52.562  13.228  1.00  0.00     0.036 C 
ENDBRANCH  25  26
BRANCH  25  31
HETATM   31  O   UNL     1     -44.237 -54.249  12.110  1.00  0.00    -0.391 OA
HETATM   32  H   UNL     1     -44.656 -55.131  12.172  1.00  0.00     0.210 HD
ENDBRANCH  25  31
ENDBRANCH  24  25
ENDBRANCH   2  24
TORSDOF 7
ENDMDL
MODEL 8
REMARK VINA RESULT:      -6.2      1.809      2.689
REMARK  7 active torsions:
REMARK  status: ('A' for Active; 'I' for Inactive)
REMARK    1  A    between atoms: N_2  and  C_17 
REMARK    2  A    between atoms: C_3  and  N_9 
REMARK    3  A    between atoms: C_7  and  N_9 
REMARK    4  A    between atoms: C_12  and  O_24 
REMARK    5  A    between atoms: C_17  and  C_18 
REMARK    6  A    between atoms: C_18  and  C_20 
REMARK    7  A    between atoms: C_18  and  O_25 
ROOT
HETATM    1  C   UNL     1     -40.392 -49.451  12.775  1.00  0.00     0.122 A 
HETATM    2  N   UNL     1     -40.401 -51.464  13.641  1.00  0.00    -0.325 N 
HETATM    3  C   UNL     1     -39.921 -48.426  11.908  1.00  0.00     0.135 A 
HETATM    4  C   UNL     1     -39.676 -50.644  12.820  1.00  0.00     0.140 A 
HETATM    5  N   UNL     1     -41.481 -49.519  13.627  1.00  0.00    -0.346 N 
ATOM      6  HN  UNL     1     -42.164 -48.786  13.819  1.00  0.00     0.167 HD
HETATM    7  C   UNL     1     -41.445 -50.727  14.132  1.00  0.00     0.185 A 
HETATM    8  N   UNL     1     -38.760 -48.712  11.243  1.00  0.00    -0.337 N 
ATOM      9  HN  UNL     1     -38.366 -48.030  10.595  1.00  0.00     0.168 HD
HETATM   10  N   UNL     1     -38.532 -50.934  12.181  1.00  0.00    -0.336 N 
ATOM     11  HN  UNL     1     -38.035 -51.823  12.252  1.00  0.00     0.168 HD
HETATM   12  C   UNL     1     -38.132 -49.890  11.436  1.00  0.00     0.183 A 
ENDROOT
BRANCH   3  13
HETATM   13  N   UNL     1     -40.558 -47.157  11.700  1.00  0.00    -0.364 N 
HETATM   14  C   UNL     1     -41.509 -47.219  10.582  1.00  0.00     0.152 C 
BRANCH  13  15
HETATM   15  C   UNL     1     -39.916 -45.865  11.947  1.00  0.00     0.099 C 
HETATM   16  C   UNL     1     -40.812 -44.773  12.576  1.00  0.00     0.007 C 
HETATM   17  C   UNL     1     -40.549 -45.375  13.943  1.00  0.00     0.133 C 
HETATM   18  C   UNL     1     -40.378 -43.329  12.327  1.00  0.00     0.014 C 
HETATM   19  C   UNL     1     -42.223 -44.434  12.173  1.00  0.00     0.014 C 
HETATM   20  C   UNL     1     -39.180 -45.785  13.339  1.00  0.00     0.059 C 
HETATM   21  C   UNL     1     -41.653 -43.178  11.469  1.00  0.00     0.002 C 
BRANCH  17  22
HETATM   22  O   UNL     1     -40.480 -44.555  15.125  1.00  0.00    -0.390 OA
HETATM   23  C   UNL     1     -41.448 -44.913  16.110  1.00  0.00     0.202 C 
ENDBRANCH  17  22
ENDBRANCH  13  15
ENDBRANCH   3  13
BRANCH   2  24
HETATM   24  C   UNL     1     -40.114 -52.854  13.975  1.00  0.00     0.165 C 
BRANCH  24  25
HETATM   25  C   UNL     1     -40.656 -53.849  12.941  1.00  0.00     0.165 C 
BRANCH  25  26
HETATM   26  C   UNL     1     -42.120 -54.254  13.176  1.00  0.00     0.151 C 
HETATM   27  O   UNL     1     -42.996 -53.315  12.511  1.00  0.00    -0.383 OA
HETATM   28  C   UNL     1     -44.236 -53.279  13.241  1.00  0.00     0.168 C 
HETATM   29  C   UNL     1     -44.106 -54.248  14.400  1.00  0.00     0.029 C 
HETATM   30  C   UNL     1     -42.611 -54.322  14.607  1.00  0.00     0.036 C 
ENDBRANCH  25  26
BRANCH  25  31
HETATM   31  O   UNL     1     -40.610 -53.257  11.627  1.00  0.00    -0.391 OA
HETATM   32  H   UNL     1     -40.468 -52.298  11.757  1.00  0.00     0.210 HD
ENDBRANCH  25  31
ENDBRANCH  24  25
ENDBRANCH   2  24
TORSDOF 7
ENDMDL
MODEL 9
REMARK VINA RESULT:      -6.2      4.140      5.484
REMARK  7 active torsions:
REMARK  status: ('A' for Active; 'I' for Inactive)
REMARK    1  A    between atoms: N_2  and  C_17 
REMARK    2  A    between atoms: C_3  and  N_9 
REMARK    3  A    between atoms: C_7  and  N_9 
REMARK    4  A    between atoms: C_12  and  O_24 
REMARK    5  A    between atoms: C_17  and  C_18 
REMARK    6  A    between atoms: C_18  and  C_20 
REMARK    7  A    between atoms: C_18  and  O_25 
ROOT
HETATM    1  C   UNL     1     -40.611 -51.885  13.356  1.00  0.00     0.122 A 
HETATM    2  N   UNL     1     -42.611 -52.529  12.730  1.00  0.00    -0.325 N 
HETATM    3  C   UNL     1     -39.260 -52.089  13.751  1.00  0.00     0.135 A 
HETATM    4  C   UNL     1     -41.420 -53.008  13.203  1.00  0.00     0.140 A 
HETATM    5  N   UNL     1     -41.331 -50.739  13.067  1.00  0.00    -0.346 N 
ATOM      6  HN  UNL     1     -41.007 -49.774  13.120  1.00  0.00     0.167 HD
HETATM    7  C   UNL     1     -42.519 -51.162  12.711  1.00  0.00     0.185 A 
HETATM    8  N   UNL     1     -38.914 -53.390  13.996  1.00  0.00    -0.337 N 
ATOM      9  HN  UNL     1     -37.958 -53.616  14.273  1.00  0.00     0.168 HD
HETATM   10  N   UNL     1     -41.096 -54.288  13.450  1.00  0.00    -0.336 N 
ATOM     11  HN  UNL     1     -41.728 -55.081  13.332  1.00  0.00     0.168 HD
HETATM   12  C   UNL     1     -39.825 -54.377  13.874  1.00  0.00     0.183 A 
ENDROOT
BRANCH   3  13
HETATM   13  N   UNL     1     -38.277 -51.056  13.908  1.00  0.00    -0.364 N 
HETATM   14  C   UNL     1     -37.303 -51.079  12.808  1.00  0.00     0.152 C 
BRANCH  13  15
HETATM   15  C   UNL     1     -37.796 -50.570  15.204  1.00  0.00     0.099 C 
HETATM   16  C   UNL     1     -38.013 -49.066  15.485  1.00  0.00     0.007 C 
HETATM   17  C   UNL     1     -39.433 -49.374  15.919  1.00  0.00     0.133 C 
HETATM   18  C   UNL     1     -37.067 -48.435  16.506  1.00  0.00     0.014 C 
HETATM   19  C   UNL     1     -37.760 -47.931  14.527  1.00  0.00     0.014 C 
HETATM   20  C   UNL     1     -38.846 -50.738  16.366  1.00  0.00     0.059 C 
HETATM   21  C   UNL     1     -36.476 -47.619  15.335  1.00  0.00     0.002 C 
BRANCH  17  22
HETATM   22  O   UNL     1     -40.085 -48.614  16.954  1.00  0.00    -0.390 OA
HETATM   23  C   UNL     1     -41.299 -48.003  16.518  1.00  0.00     0.202 C 
ENDBRANCH  17  22
ENDBRANCH  13  15
ENDBRANCH   3  13
BRANCH   2  24
HETATM   24  C   UNL     1     -43.783 -53.304  12.346  1.00  0.00     0.165 C 
BRANCH  24  25
HETATM   25  C   UNL     1     -44.554 -53.871  13.545  1.00  0.00     0.165 C 
BRANCH  25  26
HETATM   26  C   UNL     1     -45.202 -52.795  14.431  1.00  0.00     0.151 C 
HETATM   27  O   UNL     1     -46.007 -53.427  15.452  1.00  0.00    -0.383 OA
HETATM   28  C   UNL     1     -47.069 -52.520  15.800  1.00  0.00     0.168 C 
HETATM   29  C   UNL     1     -46.893 -51.275  14.952  1.00  0.00     0.029 C 
HETATM   30  C   UNL     1     -46.114 -51.788  13.763  1.00  0.00     0.036 C 
ENDBRANCH  25  26
BRANCH  25  31
HETATM   31  O   UNL     1     -45.631 -54.708  13.078  1.00  0.00    -0.391 OA
HETATM   32  H   UNL     1     -45.222 -55.535  12.754  1.00  0.00     0.210 HD
ENDBRANCH  25  31
ENDBRANCH  24  25
ENDBRANCH   2  24
TORSDOF 7
ENDMDL
