MODEL 1
REMARK VINA RESULT:      -6.7      0.000      0.000
REMARK  5 active torsions:
REMARK  status: ('A' for Active; 'I' for Inactive)
REMARK    1  A    between atoms: N_2  and  C_3 
REMARK    2  A    between atoms: N_2  and  C_16 
REMARK    3  A    between atoms: C_3  and  C_4 
REMARK    4  A    between atoms: C_4  and  N_5 
REMARK       I    between atoms: N_5  and  C_6 
REMARK       I    between atoms: C_6  and  N_8 
REMARK    5  A    between atoms: N_8  and  C_9 
ROOT
HETATM    1  N   UNL     1     -41.842 -49.999  11.529  1.00  0.00    -0.341 N 
HETATM    2  C   UNL     1     -40.909 -49.061  11.230  1.00  0.00     0.321 C 
HETATM    3  O   UNL     1     -39.775 -49.052  11.707  1.00  0.00    -0.247 OA
HETATM    4  N   UNL     1     -41.274 -48.092  10.343  1.00  0.00    -0.295 N 
HETATM    5  H   UNL     1     -42.748 -49.868  11.084  1.00  0.00     0.164 HD
HETATM    6  H   UNL     1     -40.527 -47.446  10.138  1.00  0.00     0.172 HD
ENDROOT
BRANCH   1   7
HETATM    7  C   UNL     1     -41.649 -51.095  12.449  1.00  0.00     0.154 C 
BRANCH   7   8
HETATM    8  C   UNL     1     -42.679 -51.090  13.600  1.00  0.00     0.292 C 
BRANCH   8   9
HETATM    9  N   UNL     1     -43.355 -52.395  13.829  1.00  0.00     0.090 N 
HETATM   10  C   UNL     1     -42.390 -53.490  13.655  1.00  0.00     0.310 C 
BRANCH   9  11
HETATM   11  C   UNL     1     -44.548 -52.574  12.946  1.00  0.00     0.222 C 
HETATM   12  C   UNL     1     -45.626 -51.476  13.133  1.00  0.00     0.036 C 
HETATM   13  C   UNL     1     -46.242 -51.518  14.530  1.00  0.00     0.002 C 
HETATM   14  C   UNL     1     -46.936 -52.855  14.762  1.00  0.00     0.000 C 
HETATM   15  C   UNL     1     -46.001 -54.035  14.504  1.00  0.00     0.002 C 
HETATM   16  C   UNL     1     -45.280 -53.929  13.157  1.00  0.00     0.036 C 
ENDBRANCH   9  11
ENDBRANCH   8   9
ENDBRANCH   7   8
ENDBRANCH   1   7
BRANCH   4  17
HETATM   17  C   UNL     1     -42.518 -47.891   9.732  1.00  0.00     0.108 A 
HETATM   18  C   UNL     1     -43.602 -47.581  10.545  1.00  0.00     0.049 A 
HETATM   19  C   UNL     1     -44.853 -47.399   9.957  1.00  0.00     0.005 A 
HETATM   20  C   UNL     1     -44.987 -47.532   8.580  1.00  0.00     0.017 A 
HETATM   21  C   UNL     1     -43.859 -47.838   7.846  1.00  0.00     0.089 A 
HETATM   22  N   UNL     1     -42.636 -48.019   8.389  1.00  0.00    -0.352 N 
ATOM     23  HN  UNL     1     -41.828 -48.243   7.808  1.00  0.00     0.166 HD
ENDBRANCH   4  17
TORSDOF 5
ENDMDL
MODEL 2
REMARK VINA RESULT:      -6.2      1.399      1.996
REMARK  5 active torsions:
REMARK  status: ('A' for Active; 'I' for Inactive)
REMARK    1  A    between atoms: N_2  and  C_3 
REMARK    2  A    between atoms: N_2  and  C_16 
REMARK    3  A    between atoms: C_3  and  C_4 
REMARK    4  A    between atoms: C_4  and  N_5 
REMARK       I    between atoms: N_5  and  C_6 
REMARK       I    between atoms: C_6  and  N_8 
REMARK    5  A    between atoms: N_8  and  C_9 
ROOT
HETATM    1  N   UNL     1     -41.299 -51.180  12.021  1.00  0.00    -0.341 N 
HETATM    2  C   UNL     1     -40.107 -50.559  11.847  1.00  0.00     0.321 C 
HETATM    3  O   UNL     1     -39.023 -51.078  12.109  1.00  0.00    -0.247 OA
HETATM    4  N   UNL     1     -40.143 -49.291  11.345  1.00  0.00    -0.295 N 
HETATM    5  H   UNL     1     -42.119 -50.622  11.791  1.00  0.00     0.164 HD
HETATM    6  H   UNL     1     -39.224 -48.897  11.208  1.00  0.00     0.172 HD
ENDROOT
BRANCH   1   7
HETATM    7  C   UNL     1     -41.469 -52.514  12.547  1.00  0.00     0.154 C 
BRANCH   7   8
HETATM    8  C   UNL     1     -42.316 -52.539  13.838  1.00  0.00     0.292 C 
BRANCH   8   9
HETATM    9  N   UNL     1     -43.783 -52.640  13.612  1.00  0.00     0.090 N 
HETATM   10  C   UNL     1     -44.044 -53.428  12.399  1.00  0.00     0.310 C 
BRANCH   9  11
HETATM   11  C   UNL     1     -44.435 -51.297  13.542  1.00  0.00     0.222 C 
HETATM   12  C   UNL     1     -44.252 -50.451  14.828  1.00  0.00     0.036 C 
HETATM   13  C   UNL     1     -44.945 -51.091  16.030  1.00  0.00     0.002 C 
HETATM   14  C   UNL     1     -46.445 -51.191  15.783  1.00  0.00     0.000 C 
HETATM   15  C   UNL     1     -46.762 -51.917  14.477  1.00  0.00     0.002 C 
HETATM   16  C   UNL     1     -45.967 -51.362  13.291  1.00  0.00     0.036 C 
ENDBRANCH   9  11
ENDBRANCH   8   9
ENDBRANCH   7   8
ENDBRANCH   1   7
BRANCH   4  17
HETATM   17  C   UNL     1     -41.260 -48.506  11.036  1.00  0.00     0.108 A 
HETATM   18  C   UNL     1     -41.884 -47.821  12.072  1.00  0.00     0.049 A 
HETATM   19  C   UNL     1     -43.011 -47.051  11.786  1.00  0.00     0.005 A 
HETATM   20  C   UNL     1     -43.483 -46.987  10.480  1.00  0.00     0.017 A 
HETATM   21  C   UNL     1     -42.801 -47.695   9.510  1.00  0.00     0.089 A 
HETATM   22  N   UNL     1     -41.707 -48.448   9.759  1.00  0.00    -0.352 N 
ATOM     23  HN  UNL     1     -41.234 -48.954   9.010  1.00  0.00     0.166 HD
ENDBRANCH   4  17
TORSDOF 5
ENDMDL
MODEL 3
REMARK VINA RESULT:      -6.1      2.508      3.198
REMARK  5 active torsions:
REMARK  status: ('A' for Active; 'I' for Inactive)
REMARK    1  A    between atoms: N_2  and  C_3 
REMARK    2  A    between atoms: N_2  and  C_16 
REMARK    3  A    between atoms: C_3  and  C_4 
REMARK    4  A    between atoms: C_4  and  N_5 
REMARK       I    between atoms: N_5  and  C_6 
REMARK       I    between atoms: C_6  and  N_8 
REMARK    5  A    between atoms: N_8  and  C_9 
ROOT
HETATM    1  N   UNL     1     -41.158 -49.077  10.750  1.00  0.00    -0.341 N 
HETATM    2  C   UNL     1     -40.942 -47.738  10.748  1.00  0.00     0.321 C 
HETATM    3  O   UNL     1     -39.995 -47.200  11.321  1.00  0.00    -0.247 OA
HETATM    4  N   UNL     1     -41.835 -46.973  10.057  1.00  0.00    -0.295 N 
HETATM    5  H   UNL     1     -41.996 -49.384  10.259  1.00  0.00     0.164 HD
HETATM    6  H   UNL     1     -41.600 -45.992  10.066  1.00  0.00     0.172 HD
ENDROOT
BRANCH   1   7
HETATM    7  C   UNL     1     -40.333 -50.048  11.429  1.00  0.00     0.154 C 
BRANCH   7   8
HETATM    8  C   UNL     1     -41.152 -51.227  11.997  1.00  0.00     0.292 C 
BRANCH   8   9
HETATM    9  N   UNL     1     -40.820 -51.588  13.402  1.00  0.00     0.090 N 
HETATM   10  C   UNL     1     -40.001 -50.528  14.006  1.00  0.00     0.310 C 
BRANCH   9  11
HETATM   11  C   UNL     1     -40.147 -52.919  13.497  1.00  0.00     0.222 C 
HETATM   12  C   UNL     1     -40.997 -54.085  12.930  1.00  0.00     0.036 C 
HETATM   13  C   UNL     1     -42.273 -54.303  13.742  1.00  0.00     0.002 C 
HETATM   14  C   UNL     1     -41.927 -54.674  15.180  1.00  0.00     0.000 C 
HETATM   15  C   UNL     1     -40.997 -53.648  15.825  1.00  0.00     0.002 C 
HETATM   16  C   UNL     1     -39.781 -53.328  14.951  1.00  0.00     0.036 C 
ENDBRANCH   9  11
ENDBRANCH   8   9
ENDBRANCH   7   8
ENDBRANCH   1   7
BRANCH   4  17
HETATM   17  C   UNL     1     -42.997 -47.377   9.389  1.00  0.00     0.108 A 
HETATM   18  C   UNL     1     -44.206 -47.283  10.068  1.00  0.00     0.049 A 
HETATM   19  C   UNL     1     -45.372 -47.701   9.426  1.00  0.00     0.005 A 
HETATM   20  C   UNL     1     -45.298 -48.199   8.131  1.00  0.00     0.017 A 
HETATM   21  C   UNL     1     -44.057 -48.255   7.527  1.00  0.00     0.089 A 
HETATM   22  N   UNL     1     -42.913 -47.857   8.126  1.00  0.00    -0.352 N 
ATOM     23  HN  UNL     1     -42.017 -47.915   7.641  1.00  0.00     0.166 HD
ENDBRANCH   4  17
TORSDOF 5
ENDMDL
MODEL 4
REMARK VINA RESULT:      -6.1      2.048      2.876
REMARK  5 active torsions:
REMARK  status: ('A' for Active; 'I' for Inactive)
REMARK    1  A    between atoms: N_2  and  C_3 
REMARK    2  A    between atoms: N_2  and  C_16 
REMARK    3  A    between atoms: C_3  and  C_4 
REMARK    4  A    between atoms: C_4  and  N_5 
REMARK       I    between atoms: N_5  and  C_6 
REMARK       I    between atoms: C_6  and  N_8 
REMARK    5  A    between atoms: N_8  and  C_9 
ROOT
HETATM    1  N   UNL     1     -40.978 -51.410  13.490  1.00  0.00    -0.341 N 
HETATM    2  C   UNL     1     -40.715 -51.961  12.279  1.00  0.00     0.321 C 
HETATM    3  O   UNL     1     -40.560 -53.168  12.098  1.00  0.00    -0.247 OA
HETATM    4  N   UNL     1     -40.632 -51.105  11.221  1.00  0.00    -0.295 N 
HETATM    5  H   UNL     1     -41.054 -50.395  13.500  1.00  0.00     0.164 HD
HETATM    6  H   UNL     1     -40.468 -51.579  10.345  1.00  0.00     0.172 HD
ENDROOT
BRANCH   1   7
HETATM    7  C   UNL     1     -41.094 -52.146  14.727  1.00  0.00     0.154 C 
BRANCH   7   8
HETATM    8  C   UNL     1     -42.541 -52.172  15.267  1.00  0.00     0.292 C 
BRANCH   8   9
HETATM    9  N   UNL     1     -43.285 -53.428  14.979  1.00  0.00     0.090 N 
HETATM   10  C   UNL     1     -42.345 -54.554  14.901  1.00  0.00     0.310 C 
BRANCH   9  11
HETATM   11  C   UNL     1     -44.112 -53.319  13.739  1.00  0.00     0.222 C 
HETATM   12  C   UNL     1     -44.961 -52.024  13.671  1.00  0.00     0.036 C 
HETATM   13  C   UNL     1     -46.016 -51.979  14.775  1.00  0.00     0.002 C 
HETATM   14  C   UNL     1     -46.987 -53.145  14.626  1.00  0.00     0.000 C 
HETATM   15  C   UNL     1     -46.261 -54.488  14.571  1.00  0.00     0.002 C 
HETATM   16  C   UNL     1     -45.114 -54.494  13.556  1.00  0.00     0.036 C 
ENDBRANCH   9  11
ENDBRANCH   8   9
ENDBRANCH   7   8
ENDBRANCH   1   7
BRANCH   4  17
HETATM   17  C   UNL     1     -40.721 -49.708  11.218  1.00  0.00     0.108 A 
HETATM   18  C   UNL     1     -39.632 -48.983  11.686  1.00  0.00     0.049 A 
HETATM   19  C   UNL     1     -39.711 -47.591  11.711  1.00  0.00     0.005 A 
HETATM   20  C   UNL     1     -40.871 -46.964  11.272  1.00  0.00     0.017 A 
HETATM   21  C   UNL     1     -41.906 -47.759  10.820  1.00  0.00     0.089 A 
HETATM   22  N   UNL     1     -41.855 -49.108  10.784  1.00  0.00    -0.352 N 
ATOM     23  HN  UNL     1     -42.644 -49.657  10.441  1.00  0.00     0.166 HD
ENDBRANCH   4  17
TORSDOF 5
ENDMDL
MODEL 5
REMARK VINA RESULT:      -5.7      2.988      6.439
REMARK  5 active torsions:
REMARK  status: ('A' for Active; 'I' for Inactive)
REMARK    1  A    between atoms: N_2  and  C_3 
REMARK    2  A    between atoms: N_2  and  C_16 
REMARK    3  A    between atoms: C_3  and  C_4 
REMARK    4  A    between atoms: C_4  and  N_5 
REMARK       I    between atoms: N_5  and  C_6 
REMARK       I    between atoms: C_6  and  N_8 
REMARK    5  A    between atoms: N_8  and  C_9 
ROOT
HETATM    1  N   UNL     1     -41.761 -50.897  11.823  1.00  0.00    -0.341 N 
HETATM    2  C   UNL     1     -41.500 -52.151  12.268  1.00  0.00     0.321 C 
HETATM    3  O   UNL     1     -40.405 -52.701  12.153  1.00  0.00    -0.247 OA
HETATM    4  N   UNL     1     -42.525 -52.811  12.881  1.00  0.00    -0.295 N 
HETATM    5  H   UNL     1     -42.718 -50.577  11.958  1.00  0.00     0.164 HD
HETATM    6  H   UNL     1     -42.257 -53.723  13.218  1.00  0.00     0.172 HD
ENDROOT
BRANCH   1   7
HETATM    7  C   UNL     1     -40.813 -50.045  11.144  1.00  0.00     0.154 C 
BRANCH   7   8
HETATM    8  C   UNL     1     -40.394 -48.828  11.996  1.00  0.00     0.292 C 
BRANCH   8   9
HETATM    9  N   UNL     1     -39.005 -48.893  12.526  1.00  0.00     0.090 N 
HETATM   10  C   UNL     1     -38.161 -49.670  11.607  1.00  0.00     0.310 C 
BRANCH   9  11
HETATM   11  C   UNL     1     -38.957 -49.448  13.912  1.00  0.00     0.222 C 
HETATM   12  C   UNL     1     -39.899 -48.719  14.904  1.00  0.00     0.036 C 
HETATM   13  C   UNL     1     -39.482 -47.265  15.118  1.00  0.00     0.002 C 
HETATM   14  C   UNL     1     -38.082 -47.199  15.717  1.00  0.00     0.000 C 
HETATM   15  C   UNL     1     -37.067 -47.978  14.882  1.00  0.00     0.002 C 
HETATM   16  C   UNL     1     -37.543 -49.396  14.554  1.00  0.00     0.036 C 
ENDBRANCH   9  11
ENDBRANCH   8   9
ENDBRANCH   7   8
ENDBRANCH   1   7
BRANCH   4  17
HETATM   17  C   UNL     1     -43.848 -52.392  13.063  1.00  0.00     0.108 A 
HETATM   18  C   UNL     1     -44.144 -51.633  14.189  1.00  0.00     0.049 A 
HETATM   19  C   UNL     1     -45.461 -51.226  14.399  1.00  0.00     0.005 A 
HETATM   20  C   UNL     1     -46.442 -51.586  13.483  1.00  0.00     0.017 A 
HETATM   21  C   UNL     1     -46.062 -52.338  12.389  1.00  0.00     0.089 A 
HETATM   22  N   UNL     1     -44.794 -52.745  12.161  1.00  0.00    -0.352 N 
ATOM     23  HN  UNL     1     -44.558 -53.300  11.338  1.00  0.00     0.166 HD
ENDBRANCH   4  17
TORSDOF 5
ENDMDL
MODEL 6
REMARK VINA RESULT:      -5.7      2.436      6.753
REMARK  5 active torsions:
REMARK  status: ('A' for Active; 'I' for Inactive)
REMARK    1  A    between atoms: N_2  and  C_3 
REMARK    2  A    between atoms: N_2  and  C_16 
REMARK    3  A    between atoms: C_3  and  C_4 
REMARK    4  A    between atoms: C_4  and  N_5 
REMARK       I    between atoms: N_5  and  C_6 
REMARK       I    between atoms: C_6  and  N_8 
REMARK    5  A    between atoms: N_8  and  C_9 
ROOT
HETATM    1  N   UNL     1     -41.877 -51.011  11.922  1.00  0.00    -0.341 N 
HETATM    2  C   UNL     1     -41.675 -52.299  12.295  1.00  0.00     0.321 C 
HETATM    3  O   UNL     1     -40.608 -52.893  12.143  1.00  0.00    -0.247 OA
HETATM    4  N   UNL     1     -42.729 -52.942  12.874  1.00  0.00    -0.295 N 
HETATM    5  H   UNL     1     -42.817 -50.654  12.080  1.00  0.00     0.164 HD
HETATM    6  H   UNL     1     -42.505 -53.884  13.158  1.00  0.00     0.172 HD
ENDROOT
BRANCH   1   7
HETATM    7  C   UNL     1     -40.891 -50.168  11.287  1.00  0.00     0.154 C 
BRANCH   7   8
HETATM    8  C   UNL     1     -40.631 -48.865  12.074  1.00  0.00     0.292 C 
BRANCH   8   9
HETATM    9  N   UNL     1     -41.240 -47.648  11.472  1.00  0.00     0.090 N 
HETATM   10  C   UNL     1     -41.933 -48.006  10.226  1.00  0.00     0.310 C 
BRANCH   9  11
HETATM   11  C   UNL     1     -40.232 -46.568  11.246  1.00  0.00     0.222 C 
HETATM   12  C   UNL     1     -39.636 -45.993  12.556  1.00  0.00     0.036 C 
HETATM   13  C   UNL     1     -40.695 -45.284  13.398  1.00  0.00     0.002 C 
HETATM   14  C   UNL     1     -41.278 -44.104  12.629  1.00  0.00     0.000 C 
HETATM   15  C   UNL     1     -41.809 -44.522  11.259  1.00  0.00     0.002 C 
HETATM   16  C   UNL     1     -40.794 -45.348  10.464  1.00  0.00     0.036 C 
ENDBRANCH   9  11
ENDBRANCH   8   9
ENDBRANCH   7   8
ENDBRANCH   1   7
BRANCH   4  17
HETATM   17  C   UNL     1     -44.030 -52.472  13.087  1.00  0.00     0.108 A 
HETATM   18  C   UNL     1     -44.295 -51.799  14.274  1.00  0.00     0.049 A 
HETATM   19  C   UNL     1     -45.591 -51.342  14.512  1.00  0.00     0.005 A 
HETATM   20  C   UNL     1     -46.582 -51.570  13.565  1.00  0.00     0.017 A 
HETATM   21  C   UNL     1     -46.232 -52.244  12.411  1.00  0.00     0.089 A 
HETATM   22  N   UNL     1     -44.986 -52.696  12.154  1.00  0.00    -0.352 N 
ATOM     23  HN  UNL     1     -44.772 -53.189  11.287  1.00  0.00     0.166 HD
ENDBRANCH   4  17
TORSDOF 5
ENDMDL
MODEL 7
REMARK VINA RESULT:      -5.5      3.752      6.100
REMARK  5 active torsions:
REMARK  status: ('A' for Active; 'I' for Inactive)
REMARK    1  A    between atoms: N_2  and  C_3 
REMARK    2  A    between atoms: N_2  and  C_16 
REMARK    3  A    between atoms: C_3  and  C_4 
REMARK    4  A    between atoms: C_4  and  N_5 
REMARK       I    between atoms: N_5  and  C_6 
REMARK       I    between atoms: C_6  and  N_8 
REMARK    5  A    between atoms: N_8  and  C_9 
ROOT
HETATM    1  N   UNL     1     -41.319 -52.457  13.205  1.00  0.00    -0.341 N 
HETATM    2  C   UNL     1     -40.157 -51.822  12.913  1.00  0.00     0.321 C 
HETATM    3  O   UNL     1     -40.044 -50.983  12.021  1.00  0.00    -0.247 OA
HETATM    4  N   UNL     1     -39.073 -52.147  13.674  1.00  0.00    -0.295 N 
HETATM    5  H   UNL     1     -41.263 -53.150  13.950  1.00  0.00     0.164 HD
HETATM    6  H   UNL     1     -38.249 -51.618  13.429  1.00  0.00     0.172 HD
ENDROOT
BRANCH   1   7
HETATM    7  C   UNL     1     -42.569 -52.257  12.511  1.00  0.00     0.154 C 
BRANCH   7   8
HETATM    8  C   UNL     1     -43.478 -53.505  12.556  1.00  0.00     0.292 C 
BRANCH   8   9
HETATM    9  N   UNL     1     -44.225 -53.678  13.831  1.00  0.00     0.090 N 
HETATM   10  C   UNL     1     -43.707 -54.849  14.554  1.00  0.00     0.310 C 
BRANCH   9  11
HETATM   11  C   UNL     1     -45.699 -53.781  13.610  1.00  0.00     0.222 C 
HETATM   12  C   UNL     1     -46.308 -52.542  12.905  1.00  0.00     0.036 C 
HETATM   13  C   UNL     1     -46.191 -51.285  13.766  1.00  0.00     0.002 C 
HETATM   14  C   UNL     1     -46.959 -51.465  15.070  1.00  0.00     0.000 C 
HETATM   15  C   UNL     1     -46.524 -52.724  15.819  1.00  0.00     0.002 C 
HETATM   16  C   UNL     1     -46.513 -53.965  14.921  1.00  0.00     0.036 C 
ENDBRANCH   9  11
ENDBRANCH   8   9
ENDBRANCH   7   8
ENDBRANCH   1   7
BRANCH   4  17
HETATM   17  C   UNL     1     -38.974 -53.104  14.691  1.00  0.00     0.108 A 
HETATM   18  C   UNL     1     -39.046 -52.668  16.008  1.00  0.00     0.049 A 
HETATM   19  C   UNL     1     -38.928 -53.604  17.035  1.00  0.00     0.005 A 
HETATM   20  C   UNL     1     -38.740 -54.944  16.719  1.00  0.00     0.017 A 
HETATM   21  C   UNL     1     -38.683 -55.294  15.385  1.00  0.00     0.089 A 
HETATM   22  N   UNL     1     -38.795 -54.408  14.371  1.00  0.00    -0.352 N 
ATOM     23  HN  UNL     1     -38.748 -54.711  13.398  1.00  0.00     0.166 HD
ENDBRANCH   4  17
TORSDOF 5
ENDMDL
MODEL 8
REMARK VINA RESULT:      -5.5      2.285      6.357
REMARK  5 active torsions:
REMARK  status: ('A' for Active; 'I' for Inactive)
REMARK    1  A    between atoms: N_2  and  C_3 
REMARK    2  A    between atoms: N_2  and  C_16 
REMARK    3  A    between atoms: C_3  and  C_4 
REMARK    4  A    between atoms: C_4  and  N_5 
REMARK       I    between atoms: N_5  and  C_6 
REMARK       I    between atoms: C_6  and  N_8 
REMARK    5  A    between atoms: N_8  and  C_9 
ROOT
HETATM    1  N   UNL     1     -41.814 -52.017  13.076  1.00  0.00    -0.341 N 
HETATM    2  C   UNL     1     -42.052 -53.351  13.030  1.00  0.00     0.321 C 
HETATM    3  O   UNL     1     -41.176 -54.193  12.833  1.00  0.00    -0.247 OA
HETATM    4  N   UNL     1     -43.341 -53.752  13.224  1.00  0.00    -0.295 N 
HETATM    5  H   UNL     1     -42.636 -51.432  13.217  1.00  0.00     0.164 HD
HETATM    6  H   UNL     1     -43.446 -54.755  13.211  1.00  0.00     0.172 HD
ENDROOT
BRANCH   1   7
HETATM    7  C   UNL     1     -40.523 -51.399  12.886  1.00  0.00     0.154 C 
BRANCH   7   8
HETATM    8  C   UNL     1     -40.403 -50.686  11.521  1.00  0.00     0.292 C 
BRANCH   8   9
HETATM    9  N   UNL     1     -39.961 -49.267  11.603  1.00  0.00     0.090 N 
HETATM   10  C   UNL     1     -38.659 -49.191  12.281  1.00  0.00     0.310 C 
BRANCH   9  11
HETATM   11  C   UNL     1     -40.977 -48.400  12.273  1.00  0.00     0.222 C 
HETATM   12  C   UNL     1     -42.356 -48.401  11.565  1.00  0.00     0.036 C 
HETATM   13  C   UNL     1     -42.276 -47.793  10.165  1.00  0.00     0.002 C 
HETATM   14  C   UNL     1     -41.829 -46.338  10.246  1.00  0.00     0.000 C 
HETATM   15  C   UNL     1     -40.521 -46.186  11.022  1.00  0.00     0.002 C 
HETATM   16  C   UNL     1     -40.552 -46.908  12.372  1.00  0.00     0.036 C 
ENDBRANCH   9  11
ENDBRANCH   8   9
ENDBRANCH   7   8
ENDBRANCH   1   7
BRANCH   4  17
HETATM   17  C   UNL     1     -44.483 -52.963  13.407  1.00  0.00     0.108 A 
HETATM   18  C   UNL     1     -44.808 -52.574  14.701  1.00  0.00     0.049 A 
HETATM   19  C   UNL     1     -45.954 -51.806  14.904  1.00  0.00     0.005 A 
HETATM   20  C   UNL     1     -46.741 -51.450  13.816  1.00  0.00     0.017 A 
HETATM   21  C   UNL     1     -46.344 -51.875  12.563  1.00  0.00     0.089 A 
HETATM   22  N   UNL     1     -45.239 -52.618  12.338  1.00  0.00    -0.352 N 
ATOM     23  HN  UNL     1     -44.983 -52.910  11.394  1.00  0.00     0.166 HD
ENDBRANCH   4  17
TORSDOF 5
ENDMDL
MODEL 9
REMARK VINA RESULT:      -5.4     14.070     16.322
REMARK  5 active torsions:
REMARK  status: ('A' for Active; 'I' for Inactive)
REMARK    1  A    between atoms: N_2  and  C_3 
REMARK    2  A    between atoms: N_2  and  C_16 
REMARK    3  A    between atoms: C_3  and  C_4 
REMARK    4  A    between atoms: C_4  and  N_5 
REMARK       I    between atoms: N_5  and  C_6 
REMARK       I    between atoms: C_6  and  N_8 
REMARK    5  A    between atoms: N_8  and  C_9 
ROOT
HETATM    1  N   UNL     1     -49.538 -51.870  -0.803  1.00  0.00    -0.341 N 
HETATM    2  C   UNL     1     -48.214 -51.793  -1.083  1.00  0.00     0.321 C 
HETATM    3  O   UNL     1     -47.471 -50.924  -0.628  1.00  0.00    -0.247 OA
HETATM    4  N   UNL     1     -47.704 -52.750  -1.910  1.00  0.00    -0.295 N 
HETATM    5  H   UNL     1     -50.039 -52.623  -1.271  1.00  0.00     0.164 HD
HETATM    6  H   UNL     1     -46.710 -52.656  -2.052  1.00  0.00     0.172 HD
ENDROOT
BRANCH   1   7
HETATM    7  C   UNL     1     -50.262 -50.949   0.041  1.00  0.00     0.154 C 
BRANCH   7   8
HETATM    8  C   UNL     1     -51.595 -50.490  -0.589  1.00  0.00     0.292 C 
BRANCH   8   9
HETATM    9  N   UNL     1     -51.958 -51.196  -1.848  1.00  0.00     0.090 N 
HETATM   10  C   UNL     1     -51.882 -50.263  -2.980  1.00  0.00     0.310 C 
BRANCH   9  11
HETATM   11  C   UNL     1     -53.303 -51.843  -1.762  1.00  0.00     0.222 C 
HETATM   12  C   UNL     1     -53.422 -52.875  -0.612  1.00  0.00     0.036 C 
HETATM   13  C   UNL     1     -52.495 -54.071  -0.826  1.00  0.00     0.002 C 
HETATM   14  C   UNL     1     -52.866 -54.804  -2.110  1.00  0.00     0.000 C 
HETATM   15  C   UNL     1     -52.891 -53.865  -3.315  1.00  0.00     0.002 C 
HETATM   16  C   UNL     1     -53.713 -52.599  -3.056  1.00  0.00     0.036 C 
ENDBRANCH   9  11
ENDBRANCH   8   9
ENDBRANCH   7   8
ENDBRANCH   1   7
BRANCH   4  17
HETATM   17  C   UNL     1     -48.379 -53.782  -2.572  1.00  0.00     0.108 A 
HETATM   18  C   UNL     1     -48.848 -53.538  -3.857  1.00  0.00     0.049 A 
HETATM   19  C   UNL     1     -49.542 -54.548  -4.523  1.00  0.00     0.005 A 
HETATM   20  C   UNL     1     -49.750 -55.767  -3.889  1.00  0.00     0.017 A 
HETATM   21  C   UNL     1     -49.248 -55.928  -2.613  1.00  0.00     0.089 A 
HETATM   22  N   UNL     1     -48.572 -54.967  -1.946  1.00  0.00    -0.352 N 
ATOM     23  HN  UNL     1     -48.218 -55.130  -1.002  1.00  0.00     0.166 HD
ENDBRANCH   4  17
TORSDOF 5
ENDMDL
