MODEL 1
REMARK VINA RESULT:      -5.2      0.000      0.000
REMARK  6 active torsions:
REMARK  status: ('A' for Active; 'I' for Inactive)
REMARK       I    between atoms: N_2  and  C_3 
REMARK    1  A    between atoms: C_3  and  C_5 
REMARK    2  A    between atoms: C_5  and  S_6 
REMARK    3  A    between atoms: S_6  and  C_7 
REMARK    4  A    between atoms: N_16  and  C_17 
REMARK    5  A    between atoms: C_17  and  C_18 
REMARK    6  A    between atoms: C_18  and  O_19 
ROOT
HETATM    1  C   UNL     1     -42.289 -50.070  12.896  1.00  0.00     0.148 A 
HETATM    2  N   UNL     1     -43.565 -49.949  13.174  1.00  0.00    -0.335 N 
ATOM      3  HN  UNL     1     -44.078 -49.089  13.368  1.00  0.00     0.168 HD
HETATM    4  C   UNL     1     -44.059 -51.229  13.147  1.00  0.00     0.061 A 
HETATM    5  C   UNL     1     -45.381 -51.673  13.310  1.00  0.00     0.032 A 
HETATM    6  C   UNL     1     -45.657 -53.042  13.198  1.00  0.00     0.002 A 
HETATM    7  C   UNL     1     -44.634 -53.953  12.944  1.00  0.00     0.002 A 
HETATM    8  C   UNL     1     -43.305 -53.533  12.795  1.00  0.00     0.032 A 
HETATM    9  C   UNL     1     -43.047 -52.157  12.894  1.00  0.00     0.063 A 
HETATM   10  N   UNL     1     -41.906 -51.387  12.774  1.00  0.00    -0.324 N 
ENDROOT
BRANCH   1  11
HETATM   11  S   UNL     1     -41.214 -48.737  12.627  1.00  0.00    -0.084 SA
BRANCH  11  12
HETATM   12  C   UNL     1     -41.202 -48.664  10.816  1.00  0.00     0.185 C 
BRANCH  12  13
HETATM   13  C   UNL     1     -42.482 -47.993  10.342  1.00  0.00     0.226 C 
HETATM   14  N   UNL     1     -42.697 -48.078   8.980  1.00  0.00    -0.365 N 
HETATM   15  C   UNL     1     -43.840 -47.455   8.365  1.00  0.00     0.149 C 
HETATM   16  H   UNL     1     -41.974 -48.468   8.387  1.00  0.00     0.161 HD
HETATM   17  O   UNL     1     -43.249 -47.417  11.108  1.00  0.00    -0.273 OA
ENDBRANCH  12  13
ENDBRANCH  11  12
ENDBRANCH   1  11
BRANCH  10  18
HETATM   18  C   UNL     1     -40.571 -51.886  12.501  1.00  0.00     0.157 C 
BRANCH  18  19
HETATM   19  C   UNL     1     -39.698 -52.014  13.749  1.00  0.00     0.187 C 
BRANCH  19  20
HETATM   20  O   UNL     1     -38.881 -53.182  13.631  1.00  0.00    -0.394 OA
HETATM   21  C   UNL     1     -39.644 -54.367  13.835  1.00  0.00     0.201 C 
ENDBRANCH  19  20
ENDBRANCH  18  19
ENDBRANCH  10  18
TORSDOF 6
ENDMDL
MODEL 2
REMARK VINA RESULT:      -5.2      2.230      4.283
REMARK  6 active torsions:
REMARK  status: ('A' for Active; 'I' for Inactive)
REMARK       I    between atoms: N_2  and  C_3 
REMARK    1  A    between atoms: C_3  and  C_5 
REMARK    2  A    between atoms: C_5  and  S_6 
REMARK    3  A    between atoms: S_6  and  C_7 
REMARK    4  A    between atoms: N_16  and  C_17 
REMARK    5  A    between atoms: C_17  and  C_18 
REMARK    6  A    between atoms: C_18  and  O_19 
ROOT
HETATM    1  C   UNL     1     -41.483 -49.073  11.649  1.00  0.00     0.148 A 
HETATM    2  N   UNL     1     -40.362 -48.892  10.993  1.00  0.00    -0.335 N 
ATOM      3  HN  UNL     1     -40.209 -48.294  10.181  1.00  0.00     0.168 HD
HETATM    4  C   UNL     1     -39.441 -49.681  11.635  1.00  0.00     0.061 A 
HETATM    5  C   UNL     1     -38.065 -49.817  11.389  1.00  0.00     0.032 A 
HETATM    6  C   UNL     1     -37.307 -50.660  12.213  1.00  0.00     0.002 A 
HETATM    7  C   UNL     1     -37.912 -51.367  13.252  1.00  0.00     0.002 A 
HETATM    8  C   UNL     1     -39.286 -51.259  13.503  1.00  0.00     0.032 A 
HETATM    9  C   UNL     1     -40.028 -50.397  12.679  1.00  0.00     0.063 A 
HETATM   10  N   UNL     1     -41.356 -50.017  12.644  1.00  0.00    -0.324 N 
ENDROOT
BRANCH   1  11
HETATM   11  S   UNL     1     -42.940 -48.178  11.367  1.00  0.00    -0.084 SA
BRANCH  11  12
HETATM   12  C   UNL     1     -42.560 -47.394   9.777  1.00  0.00     0.185 C 
BRANCH  12  13
HETATM   13  C   UNL     1     -43.707 -47.656   8.813  1.00  0.00     0.226 C 
HETATM   14  N   UNL     1     -44.937 -47.810   9.424  1.00  0.00    -0.365 N 
HETATM   15  C   UNL     1     -46.119 -48.108   8.657  1.00  0.00     0.149 C 
HETATM   16  H   UNL     1     -44.988 -47.845  10.435  1.00  0.00     0.161 HD
HETATM   17  O   UNL     1     -43.547 -47.734   7.598  1.00  0.00    -0.273 OA
ENDBRANCH  12  13
ENDBRANCH  11  12
ENDBRANCH   1  11
BRANCH  10  18
HETATM   18  C   UNL     1     -42.397 -50.485  13.541  1.00  0.00     0.157 C 
BRANCH  18  19
HETATM   19  C   UNL     1     -43.142 -51.715  13.026  1.00  0.00     0.187 C 
BRANCH  19  20
HETATM   20  O   UNL     1     -42.831 -52.834  13.861  1.00  0.00    -0.394 OA
HETATM   21  C   UNL     1     -42.027 -53.785  13.170  1.00  0.00     0.201 C 
ENDBRANCH  19  20
ENDBRANCH  18  19
ENDBRANCH  10  18
TORSDOF 6
ENDMDL
MODEL 3
REMARK VINA RESULT:      -5.2      4.877      5.971
REMARK  6 active torsions:
REMARK  status: ('A' for Active; 'I' for Inactive)
REMARK       I    between atoms: N_2  and  C_3 
REMARK    1  A    between atoms: C_3  and  C_5 
REMARK    2  A    between atoms: C_5  and  S_6 
REMARK    3  A    between atoms: S_6  and  C_7 
REMARK    4  A    between atoms: N_16  and  C_17 
REMARK    5  A    between atoms: C_17  and  C_18 
REMARK    6  A    between atoms: C_18  and  O_19 
ROOT
HETATM    1  C   UNL     1     -39.882 -47.343  11.725  1.00  0.00     0.148 A 
HETATM    2  N   UNL     1     -39.352 -48.380  11.122  1.00  0.00    -0.335 N 
ATOM      3  HN  UNL     1     -39.407 -48.617  10.131  1.00  0.00     0.168 HD
HETATM    4  C   UNL     1     -38.708 -49.079  12.113  1.00  0.00     0.061 A 
HETATM    5  C   UNL     1     -37.920 -50.237  12.013  1.00  0.00     0.032 A 
HETATM    6  C   UNL     1     -37.321 -50.752  13.170  1.00  0.00     0.002 A 
HETATM    7  C   UNL     1     -37.515 -50.135  14.405  1.00  0.00     0.002 A 
HETATM    8  C   UNL     1     -38.311 -48.988  14.529  1.00  0.00     0.032 A 
HETATM    9  C   UNL     1     -38.891 -48.475  13.358  1.00  0.00     0.063 A 
HETATM   10  N   UNL     1     -39.686 -47.377  13.087  1.00  0.00    -0.324 N 
ENDROOT
BRANCH   1  11
HETATM   11  S   UNL     1     -40.666 -46.031  10.908  1.00  0.00    -0.084 SA
BRANCH  11  12
HETATM   12  C   UNL     1     -42.386 -46.604  10.908  1.00  0.00     0.185 C 
BRANCH  12  13
HETATM   13  C   UNL     1     -42.909 -46.590   9.480  1.00  0.00     0.226 C 
HETATM   14  N   UNL     1     -42.918 -47.829   8.867  1.00  0.00    -0.365 N 
HETATM   15  C   UNL     1     -43.342 -47.981   7.499  1.00  0.00     0.149 C 
HETATM   16  H   UNL     1     -42.497 -48.619   9.340  1.00  0.00     0.161 HD
HETATM   17  O   UNL     1     -43.280 -45.562   8.921  1.00  0.00    -0.273 OA
ENDBRANCH  12  13
ENDBRANCH  11  12
ENDBRANCH   1  11
BRANCH  10  18
HETATM   18  C   UNL     1     -40.158 -46.410  14.061  1.00  0.00     0.157 C 
BRANCH  18  19
HETATM   19  C   UNL     1     -39.071 -45.456  14.553  1.00  0.00     0.187 C 
BRANCH  19  20
HETATM   20  O   UNL     1     -39.007 -44.328  13.676  1.00  0.00    -0.394 OA
HETATM   21  C   UNL     1     -40.171 -43.516  13.793  1.00  0.00     0.201 C 
ENDBRANCH  19  20
ENDBRANCH  18  19
ENDBRANCH  10  18
TORSDOF 6
ENDMDL
MODEL 4
REMARK VINA RESULT:      -5.1      4.028      7.370
REMARK  6 active torsions:
REMARK  status: ('A' for Active; 'I' for Inactive)
REMARK       I    between atoms: N_2  and  C_3 
REMARK    1  A    between atoms: C_3  and  C_5 
REMARK    2  A    between atoms: C_5  and  S_6 
REMARK    3  A    between atoms: S_6  and  C_7 
REMARK    4  A    between atoms: N_16  and  C_17 
REMARK    5  A    between atoms: C_17  and  C_18 
REMARK    6  A    between atoms: C_18  and  O_19 
ROOT
HETATM    1  C   UNL     1     -40.048 -47.910  12.073  1.00  0.00     0.148 A 
HETATM    2  N   UNL     1     -39.324 -47.161  12.870  1.00  0.00    -0.335 N 
ATOM      3  HN  UNL     1     -38.644 -47.471  13.564  1.00  0.00     0.168 HD
HETATM    4  C   UNL     1     -39.680 -45.871  12.567  1.00  0.00     0.061 A 
HETATM    5  C   UNL     1     -39.166 -44.667  13.075  1.00  0.00     0.032 A 
HETATM    6  C   UNL     1     -39.661 -43.453  12.579  1.00  0.00     0.002 A 
HETATM    7  C   UNL     1     -40.660 -43.440  11.607  1.00  0.00     0.002 A 
HETATM    8  C   UNL     1     -41.199 -44.630  11.100  1.00  0.00     0.032 A 
HETATM    9  C   UNL     1     -40.681 -45.837  11.595  1.00  0.00     0.063 A 
HETATM   10  N   UNL     1     -40.929 -47.168  11.320  1.00  0.00    -0.324 N 
ENDROOT
BRANCH   1  11
HETATM   11  S   UNL     1     -39.869 -49.627  11.912  1.00  0.00    -0.084 SA
BRANCH  11  12
HETATM   12  C   UNL     1     -38.241 -49.877  12.670  1.00  0.00     0.185 C 
BRANCH  12  13
HETATM   13  C   UNL     1     -37.349 -50.616  11.685  1.00  0.00     0.226 C 
HETATM   14  N   UNL     1     -37.194 -49.976  10.470  1.00  0.00    -0.365 N 
HETATM   15  C   UNL     1     -36.416 -50.565   9.411  1.00  0.00     0.149 C 
HETATM   16  H   UNL     1     -37.742 -49.147  10.272  1.00  0.00     0.161 HD
HETATM   17  O   UNL     1     -36.822 -51.694  11.948  1.00  0.00    -0.273 OA
ENDBRANCH  12  13
ENDBRANCH  11  12
ENDBRANCH   1  11
BRANCH  10  18
HETATM   18  C   UNL     1     -41.895 -47.670  10.360  1.00  0.00     0.157 C 
BRANCH  18  19
HETATM   19  C   UNL     1     -43.331 -47.678  10.884  1.00  0.00     0.187 C 
BRANCH  19  20
HETATM   20  O   UNL     1     -44.225 -47.400   9.803  1.00  0.00    -0.394 OA
HETATM   21  C   UNL     1     -43.516 -47.223   8.580  1.00  0.00     0.201 C 
ENDBRANCH  19  20
ENDBRANCH  18  19
ENDBRANCH  10  18
TORSDOF 6
ENDMDL
MODEL 5
REMARK VINA RESULT:      -5.1      2.066      2.805
REMARK  6 active torsions:
REMARK  status: ('A' for Active; 'I' for Inactive)
REMARK       I    between atoms: N_2  and  C_3 
REMARK    1  A    between atoms: C_3  and  C_5 
REMARK    2  A    between atoms: C_5  and  S_6 
REMARK    3  A    between atoms: S_6  and  C_7 
REMARK    4  A    between atoms: N_16  and  C_17 
REMARK    5  A    between atoms: C_17  and  C_18 
REMARK    6  A    between atoms: C_18  and  O_19 
ROOT
HETATM    1  C   UNL     1     -42.420 -49.152  12.083  1.00  0.00     0.148 A 
HETATM    2  N   UNL     1     -43.365 -49.939  12.538  1.00  0.00    -0.335 N 
ATOM      3  HN  UNL     1     -44.333 -49.691  12.744  1.00  0.00     0.168 HD
HETATM    4  C   UNL     1     -42.770 -51.168  12.678  1.00  0.00     0.061 A 
HETATM    5  C   UNL     1     -43.339 -52.391  13.068  1.00  0.00     0.032 A 
HETATM    6  C   UNL     1     -42.534 -53.537  13.098  1.00  0.00     0.002 A 
HETATM    7  C   UNL     1     -41.183 -53.464  12.760  1.00  0.00     0.002 A 
HETATM    8  C   UNL     1     -40.591 -52.250  12.385  1.00  0.00     0.032 A 
HETATM    9  C   UNL     1     -41.415 -51.114  12.345  1.00  0.00     0.063 A 
HETATM   10  N   UNL     1     -41.205 -49.792  12.000  1.00  0.00    -0.324 N 
ENDROOT
BRANCH   1  11
HETATM   11  S   UNL     1     -42.673 -47.519  11.561  1.00  0.00    -0.084 SA
BRANCH  11  12
HETATM   12  C   UNL     1     -42.818 -47.748   9.768  1.00  0.00     0.185 C 
BRANCH  12  13
HETATM   13  C   UNL     1     -44.129 -47.137   9.299  1.00  0.00     0.226 C 
HETATM   14  N   UNL     1     -45.234 -47.946   9.492  1.00  0.00    -0.365 N 
HETATM   15  C   UNL     1     -46.544 -47.533   9.062  1.00  0.00     0.149 C 
HETATM   16  H   UNL     1     -45.101 -48.896   9.819  1.00  0.00     0.161 HD
HETATM   17  O   UNL     1     -44.195 -46.024   8.784  1.00  0.00    -0.273 OA
ENDBRANCH  12  13
ENDBRANCH  11  12
ENDBRANCH   1  11
BRANCH  10  18
HETATM   18  C   UNL     1     -39.944 -49.219  11.568  1.00  0.00     0.157 C 
BRANCH  18  19
HETATM   19  C   UNL     1     -39.045 -48.776  12.721  1.00  0.00     0.187 C 
BRANCH  19  20
HETATM   20  O   UNL     1     -37.839 -49.544  12.697  1.00  0.00    -0.394 OA
HETATM   21  C   UNL     1     -37.532 -49.980  11.376  1.00  0.00     0.201 C 
ENDBRANCH  19  20
ENDBRANCH  18  19
ENDBRANCH  10  18
TORSDOF 6
ENDMDL
MODEL 6
REMARK VINA RESULT:      -5.1      1.607      1.925
REMARK  6 active torsions:
REMARK  status: ('A' for Active; 'I' for Inactive)
REMARK       I    between atoms: N_2  and  C_3 
REMARK    1  A    between atoms: C_3  and  C_5 
REMARK    2  A    between atoms: C_5  and  S_6 
REMARK    3  A    between atoms: S_6  and  C_7 
REMARK    4  A    between atoms: N_16  and  C_17 
REMARK    5  A    between atoms: C_17  and  C_18 
REMARK    6  A    between atoms: C_18  and  O_19 
ROOT
HETATM    1  C   UNL     1     -42.041 -50.880  12.349  1.00  0.00     0.148 A 
HETATM    2  N   UNL     1     -43.171 -50.316  12.701  1.00  0.00    -0.335 N 
ATOM      3  HN  UNL     1     -43.376 -49.318  12.755  1.00  0.00     0.168 HD
HETATM    4  C   UNL     1     -44.020 -51.358  12.979  1.00  0.00     0.061 A 
HETATM    5  C   UNL     1     -45.376 -51.326  13.340  1.00  0.00     0.032 A 
HETATM    6  C   UNL     1     -46.057 -52.535  13.536  1.00  0.00     0.002 A 
HETATM    7  C   UNL     1     -45.394 -53.753  13.391  1.00  0.00     0.002 A 
HETATM    8  C   UNL     1     -44.036 -53.807  13.049  1.00  0.00     0.032 A 
HETATM    9  C   UNL     1     -43.373 -52.587  12.840  1.00  0.00     0.063 A 
HETATM   10  N   UNL     1     -42.085 -52.251  12.470  1.00  0.00    -0.324 N 
ENDROOT
BRANCH   1  11
HETATM   11  S   UNL     1     -40.671 -50.023  11.723  1.00  0.00    -0.084 SA
BRANCH  11  12
HETATM   12  C   UNL     1     -41.475 -48.560  11.014  1.00  0.00     0.185 C 
BRANCH  12  13
HETATM   13  C   UNL     1     -40.614 -47.339  11.301  1.00  0.00     0.226 C 
HETATM   14  N   UNL     1     -40.590 -46.409  10.278  1.00  0.00    -0.365 N 
HETATM   15  C   UNL     1     -39.787 -45.217  10.373  1.00  0.00     0.149 C 
HETATM   16  H   UNL     1     -41.036 -46.630   9.396  1.00  0.00     0.161 HD
HETATM   17  O   UNL     1     -39.988 -47.202  12.348  1.00  0.00    -0.273 OA
ENDBRANCH  12  13
ENDBRANCH  11  12
ENDBRANCH   1  11
BRANCH  10  18
HETATM   18  C   UNL     1     -41.009 -53.186  12.195  1.00  0.00     0.157 C 
BRANCH  18  19
HETATM   19  C   UNL     1     -40.452 -53.862  13.447  1.00  0.00     0.187 C 
BRANCH  19  20
HETATM   20  O   UNL     1     -39.061 -53.552  13.566  1.00  0.00    -0.394 OA
HETATM   21  C   UNL     1     -38.865 -52.313  14.241  1.00  0.00     0.201 C 
ENDBRANCH  19  20
ENDBRANCH  18  19
ENDBRANCH  10  18
TORSDOF 6
ENDMDL
MODEL 7
REMARK VINA RESULT:      -5.0      3.347      5.273
REMARK  6 active torsions:
REMARK  status: ('A' for Active; 'I' for Inactive)
REMARK       I    between atoms: N_2  and  C_3 
REMARK    1  A    between atoms: C_3  and  C_5 
REMARK    2  A    between atoms: C_5  and  S_6 
REMARK    3  A    between atoms: S_6  and  C_7 
REMARK    4  A    between atoms: N_16  and  C_17 
REMARK    5  A    between atoms: C_17  and  C_18 
REMARK    6  A    between atoms: C_18  and  O_19 
ROOT
HETATM    1  C   UNL     1     -41.007 -53.144  13.266  1.00  0.00     0.148 A 
HETATM    2  N   UNL     1     -39.893 -53.715  13.657  1.00  0.00    -0.335 N 
ATOM      3  HN  UNL     1     -38.964 -53.605  13.252  1.00  0.00     0.168 HD
HETATM    4  C   UNL     1     -40.249 -54.492  14.731  1.00  0.00     0.061 A 
HETATM    5  C   UNL     1     -39.436 -55.269  15.573  1.00  0.00     0.032 A 
HETATM    6  C   UNL     1     -40.025 -55.952  16.645  1.00  0.00     0.002 A 
HETATM    7  C   UNL     1     -41.399 -55.876  16.866  1.00  0.00     0.002 A 
HETATM    8  C   UNL     1     -42.231 -55.121  16.028  1.00  0.00     0.032 A 
HETATM    9  C   UNL     1     -41.623 -54.429  14.968  1.00  0.00     0.063 A 
HETATM   10  N   UNL     1     -42.097 -53.582  13.984  1.00  0.00    -0.324 N 
ENDROOT
BRANCH   1  11
HETATM   11  S   UNL     1     -41.102 -51.917  12.045  1.00  0.00    -0.084 SA
BRANCH  11  12
HETATM   12  C   UNL     1     -40.094 -50.608  12.793  1.00  0.00     0.185 C 
BRANCH  12  13
HETATM   13  C   UNL     1     -38.664 -50.742  12.292  1.00  0.00     0.226 C 
HETATM   14  N   UNL     1     -38.373 -49.958  11.192  1.00  0.00    -0.365 N 
HETATM   15  C   UNL     1     -37.076 -50.001  10.568  1.00  0.00     0.149 C 
HETATM   16  H   UNL     1     -39.118 -49.445  10.737  1.00  0.00     0.161 HD
HETATM   17  O   UNL     1     -37.846 -51.492  12.818  1.00  0.00    -0.273 OA
ENDBRANCH  12  13
ENDBRANCH  11  12
ENDBRANCH   1  11
BRANCH  10  18
HETATM   18  C   UNL     1     -43.481 -53.185  13.799  1.00  0.00     0.157 C 
BRANCH  18  19
HETATM   19  C   UNL     1     -44.129 -53.784  12.552  1.00  0.00     0.187 C 
BRANCH  19  20
HETATM   20  O   UNL     1     -45.474 -54.159  12.858  1.00  0.00    -0.394 OA
HETATM   21  C   UNL     1     -45.511 -55.197  13.834  1.00  0.00     0.201 C 
ENDBRANCH  19  20
ENDBRANCH  18  19
ENDBRANCH  10  18
TORSDOF 6
ENDMDL
MODEL 8
REMARK VINA RESULT:      -5.0      2.565      6.561
REMARK  6 active torsions:
REMARK  status: ('A' for Active; 'I' for Inactive)
REMARK       I    between atoms: N_2  and  C_3 
REMARK    1  A    between atoms: C_3  and  C_5 
REMARK    2  A    between atoms: C_5  and  S_6 
REMARK    3  A    between atoms: S_6  and  C_7 
REMARK    4  A    between atoms: N_16  and  C_17 
REMARK    5  A    between atoms: C_17  and  C_18 
REMARK    6  A    between atoms: C_18  and  O_19 
ROOT
HETATM    1  C   UNL     1     -41.556 -47.860  11.199  1.00  0.00     0.148 A 
HETATM    2  N   UNL     1     -42.566 -48.506  10.667  1.00  0.00    -0.335 N 
ATOM      3  HN  UNL     1     -42.744 -49.510  10.698  1.00  0.00     0.168 HD
HETATM    4  C   UNL     1     -43.330 -47.540  10.062  1.00  0.00     0.061 A 
HETATM    5  C   UNL     1     -44.561 -47.669   9.398  1.00  0.00     0.032 A 
HETATM    6  C   UNL     1     -45.182 -46.520   8.890  1.00  0.00     0.002 A 
HETATM    7  C   UNL     1     -44.581 -45.269   9.027  1.00  0.00     0.002 A 
HETATM    8  C   UNL     1     -43.345 -45.122   9.670  1.00  0.00     0.032 A 
HETATM    9  C   UNL     1     -42.743 -46.280  10.187  1.00  0.00     0.063 A 
HETATM   10  N   UNL     1     -41.579 -46.518  10.893  1.00  0.00    -0.324 N 
ENDROOT
BRANCH   1  11
HETATM   11  S   UNL     1     -40.371 -48.579  12.239  1.00  0.00    -0.084 SA
BRANCH  11  12
HETATM   12  C   UNL     1     -40.137 -50.187  11.434  1.00  0.00     0.185 C 
BRANCH  12  13
HETATM   13  C   UNL     1     -40.780 -51.265  12.294  1.00  0.00     0.226 C 
HETATM   14  N   UNL     1     -41.964 -51.765  11.786  1.00  0.00    -0.365 N 
HETATM   15  C   UNL     1     -42.721 -52.759  12.501  1.00  0.00     0.149 C 
HETATM   16  H   UNL     1     -42.374 -51.333  10.966  1.00  0.00     0.161 HD
HETATM   17  O   UNL     1     -40.290 -51.646  13.354  1.00  0.00    -0.273 OA
ENDBRANCH  12  13
ENDBRANCH  11  12
ENDBRANCH   1  11
BRANCH  10  18
HETATM   18  C   UNL     1     -40.607 -45.516  11.289  1.00  0.00     0.157 C 
BRANCH  18  19
HETATM   19  C   UNL     1     -39.378 -45.464  10.382  1.00  0.00     0.187 C 
BRANCH  19  20
HETATM   20  O   UNL     1     -39.574 -44.457   9.385  1.00  0.00    -0.394 OA
HETATM   21  C   UNL     1     -38.467 -44.395   8.490  1.00  0.00     0.201 C 
ENDBRANCH  19  20
ENDBRANCH  18  19
ENDBRANCH  10  18
TORSDOF 6
ENDMDL
MODEL 9
REMARK VINA RESULT:      -4.9      2.975      3.969
REMARK  6 active torsions:
REMARK  status: ('A' for Active; 'I' for Inactive)
REMARK       I    between atoms: N_2  and  C_3 
REMARK    1  A    between atoms: C_3  and  C_5 
REMARK    2  A    between atoms: C_5  and  S_6 
REMARK    3  A    between atoms: S_6  and  C_7 
REMARK    4  A    between atoms: N_16  and  C_17 
REMARK    5  A    between atoms: C_17  and  C_18 
REMARK    6  A    between atoms: C_18  and  O_19 
ROOT
HETATM    1  C   UNL     1     -43.163 -52.158  13.180  1.00  0.00     0.148 A 
HETATM    2  N   UNL     1     -44.249 -51.505  12.840  1.00  0.00    -0.335 N 
ATOM      3  HN  UNL     1     -44.412 -50.977  11.983  1.00  0.00     0.168 HD
HETATM    4  C   UNL     1     -45.118 -51.688  13.886  1.00  0.00     0.061 A 
HETATM    5  C   UNL     1     -46.449 -51.262  14.019  1.00  0.00     0.032 A 
HETATM    6  C   UNL     1     -47.161 -51.607  15.175  1.00  0.00     0.002 A 
HETATM    7  C   UNL     1     -46.554 -52.350  16.187  1.00  0.00     0.002 A 
HETATM    8  C   UNL     1     -45.222 -52.771  16.082  1.00  0.00     0.032 A 
HETATM    9  C   UNL     1     -44.527 -52.430  14.910  1.00  0.00     0.063 A 
HETATM   10  N   UNL     1     -43.251 -52.689  14.447  1.00  0.00    -0.324 N 
ENDROOT
BRANCH   1  11
HETATM   11  S   UNL     1     -41.801 -52.404  12.137  1.00  0.00    -0.084 SA
BRANCH  11  12
HETATM   12  C   UNL     1     -41.084 -50.738  12.106  1.00  0.00     0.185 C 
BRANCH  12  13
HETATM   13  C   UNL     1     -39.568 -50.855  12.133  1.00  0.00     0.226 C 
HETATM   14  N   UNL     1     -38.918 -49.995  11.268  1.00  0.00    -0.365 N 
HETATM   15  C   UNL     1     -37.484 -50.010  11.139  1.00  0.00     0.149 C 
HETATM   16  H   UNL     1     -39.462 -49.439  10.619  1.00  0.00     0.161 HD
HETATM   17  O   UNL     1     -38.978 -51.654  12.855  1.00  0.00    -0.273 OA
ENDBRANCH  12  13
ENDBRANCH  11  12
ENDBRANCH   1  11
BRANCH  10  18
HETATM   18  C   UNL     1     -42.229 -53.442  15.150  1.00  0.00     0.157 C 
BRANCH  18  19
HETATM   19  C   UNL     1     -42.327 -54.952  14.938  1.00  0.00     0.187 C 
BRANCH  19  20
HETATM   20  O   UNL     1     -42.965 -55.543  16.074  1.00  0.00    -0.394 OA
HETATM   21  C   UNL     1     -42.483 -54.977  17.289  1.00  0.00     0.201 C 
ENDBRANCH  19  20
ENDBRANCH  18  19
ENDBRANCH  10  18
TORSDOF 6
ENDMDL
