MODEL 1
REMARK VINA RESULT:      -5.9      0.000      0.000
REMARK  4 active torsions:
REMARK  status: ('A' for Active; 'I' for Inactive)
REMARK    1  A    between atoms: C_7  and  C_8 
REMARK    2  A    between atoms: C_8  and  C_9 
REMARK    3  A    between atoms: C_9  and  N_10 
REMARK       I    between atoms: N_10  and  C_11 
REMARK    4  A    between atoms: C_11  and  C_13 
ROOT
HETATM    1  N   UNL     1     -41.331 -50.905  11.573  1.00  0.00    -0.360 N 
HETATM    2  C   UNL     1     -40.807 -51.955  12.277  1.00  0.00     0.221 C 
HETATM    3  O   UNL     1     -39.610 -52.037  12.556  1.00  0.00    -0.273 OA
HETATM    4  H   UNL     1     -42.261 -50.983  11.176  1.00  0.00     0.162 HD
ENDROOT
BRANCH   1   5
HETATM    5  C   UNL     1     -40.454 -49.856  11.088  1.00  0.00     0.128 C 
BRANCH   5   6
HETATM    6  C   UNL     1     -40.604 -48.534  11.837  1.00  0.00     0.078 C 
BRANCH   6   7
HETATM    7  C   UNL     1     -41.615 -47.601  11.250  1.00  0.00     0.029 A 
HETATM    8  N   UNL     1     -41.369 -46.352  10.728  1.00  0.00    -0.350 N 
HETATM    9  C   UNL     1     -40.103 -45.675  10.595  1.00  0.00     0.156 C 
HETATM   10  C   UNL     1     -42.569 -45.821  10.342  1.00  0.00     0.182 A 
HETATM   11  N   UNL     1     -43.560 -46.650  10.567  1.00  0.00    -0.360 N 
HETATM   12  C   UNL     1     -42.985 -47.750  11.140  1.00  0.00     0.114 A 
ATOM     13  HN  UNL     1     -44.548 -46.506  10.358  1.00  0.00     0.166 HD
ENDBRANCH   6   7
ENDBRANCH   5   6
ENDBRANCH   1   5
BRANCH   2  14
HETATM   14  C   UNL     1     -41.788 -53.029  12.715  1.00  0.00     0.078 C 
HETATM   15  C   UNL     1     -41.629 -53.411  14.188  1.00  0.00     0.020 C 
HETATM   16  C   UNL     1     -42.471 -54.652  14.488  1.00  0.00     0.080 C 
HETATM   17  C   UNL     1     -43.931 -54.456  14.093  1.00  0.00     0.243 C 
HETATM   18  F   UNL     1     -44.586 -55.638  14.202  1.00  0.00    -0.206 F 
HETATM   19  F   UNL     1     -44.510 -53.610  14.985  1.00  0.00    -0.206 F 
HETATM   20  C   UNL     1     -44.129 -53.896  12.689  1.00  0.00     0.080 C 
HETATM   21  C   UNL     1     -43.250 -52.670  12.432  1.00  0.00     0.020 C 
ENDBRANCH   2  14
TORSDOF 4
ENDMDL
MODEL 2
REMARK VINA RESULT:      -5.8      3.819      5.142
REMARK  4 active torsions:
REMARK  status: ('A' for Active; 'I' for Inactive)
REMARK    1  A    between atoms: C_7  and  C_8 
REMARK    2  A    between atoms: C_8  and  C_9 
REMARK    3  A    between atoms: C_9  and  N_10 
REMARK       I    between atoms: N_10  and  C_11 
REMARK    4  A    between atoms: C_11  and  C_13 
ROOT
HETATM    1  N   UNL     1     -42.068 -53.791  15.351  1.00  0.00    -0.360 N 
HETATM    2  C   UNL     1     -43.280 -54.420  15.266  1.00  0.00     0.221 C 
HETATM    3  O   UNL     1     -43.388 -55.637  15.111  1.00  0.00    -0.273 OA
HETATM    4  H   UNL     1     -42.019 -52.783  15.253  1.00  0.00     0.162 HD
ENDROOT
BRANCH   1   5
HETATM    5  C   UNL     1     -40.846 -54.562  15.212  1.00  0.00     0.128 C 
BRANCH   5   6
HETATM    6  C   UNL     1     -39.777 -53.874  14.368  1.00  0.00     0.078 C 
BRANCH   6   7
HETATM    7  C   UNL     1     -40.313 -53.038  13.251  1.00  0.00     0.029 A 
HETATM    8  N   UNL     1     -40.272 -51.665  13.163  1.00  0.00    -0.350 N 
HETATM    9  C   UNL     1     -39.687 -50.730  14.093  1.00  0.00     0.156 C 
HETATM   10  C   UNL     1     -40.910 -51.304  12.009  1.00  0.00     0.182 A 
HETATM   11  N   UNL     1     -41.340 -52.351  11.346  1.00  0.00    -0.360 N 
HETATM   12  C   UNL     1     -40.988 -53.429  12.109  1.00  0.00     0.114 A 
ATOM     13  HN  UNL     1     -41.831 -52.360  10.452  1.00  0.00     0.166 HD
ENDBRANCH   6   7
ENDBRANCH   5   6
ENDBRANCH   1   5
BRANCH   2  14
HETATM   14  C   UNL     1     -44.509 -53.534  15.383  1.00  0.00     0.078 C 
HETATM   15  C   UNL     1     -44.184 -52.047  15.231  1.00  0.00     0.020 C 
HETATM   16  C   UNL     1     -45.412 -51.214  15.600  1.00  0.00     0.080 C 
HETATM   17  C   UNL     1     -46.639 -51.626  14.794  1.00  0.00     0.243 C 
HETATM   18  F   UNL     1     -47.731 -50.994  15.289  1.00  0.00    -0.206 F 
HETATM   19  F   UNL     1     -46.485 -51.186  13.517  1.00  0.00    -0.206 F 
HETATM   20  C   UNL     1     -46.893 -53.129  14.765  1.00  0.00     0.080 C 
HETATM   21  C   UNL     1     -45.629 -53.917  14.412  1.00  0.00     0.020 C 
ENDBRANCH   2  14
TORSDOF 4
ENDMDL
MODEL 3
REMARK VINA RESULT:      -5.8      2.717      3.881
REMARK  4 active torsions:
REMARK  status: ('A' for Active; 'I' for Inactive)
REMARK    1  A    between atoms: C_7  and  C_8 
REMARK    2  A    between atoms: C_8  and  C_9 
REMARK    3  A    between atoms: C_9  and  N_10 
REMARK       I    between atoms: N_10  and  C_11 
REMARK    4  A    between atoms: C_11  and  C_13 
ROOT
HETATM    1  N   UNL     1     -40.528 -53.324  14.367  1.00  0.00    -0.360 N 
HETATM    2  C   UNL     1     -41.440 -53.314  13.347  1.00  0.00     0.221 C 
HETATM    3  O   UNL     1     -41.116 -53.181  12.167  1.00  0.00    -0.273 OA
HETATM    4  H   UNL     1     -40.845 -53.212  15.323  1.00  0.00     0.162 HD
ENDROOT
BRANCH   1   5
HETATM    5  C   UNL     1     -39.120 -53.129  14.074  1.00  0.00     0.128 C 
BRANCH   5   6
HETATM    6  C   UNL     1     -38.639 -51.697  14.293  1.00  0.00     0.078 C 
BRANCH   6   7
HETATM    7  C   UNL     1     -38.680 -50.836  13.071  1.00  0.00     0.029 A 
HETATM    8  N   UNL     1     -39.691 -49.975  12.710  1.00  0.00    -0.350 N 
HETATM    9  C   UNL     1     -40.908 -49.681  13.425  1.00  0.00     0.156 C 
HETATM   10  C   UNL     1     -39.352 -49.420  11.507  1.00  0.00     0.182 A 
HETATM   11  N   UNL     1     -38.189 -49.854  11.084  1.00  0.00    -0.360 N 
HETATM   12  C   UNL     1     -37.768 -50.740  12.036  1.00  0.00     0.114 A 
ATOM     13  HN  UNL     1     -37.702 -49.588  10.228  1.00  0.00     0.166 HD
ENDBRANCH   6   7
ENDBRANCH   5   6
ENDBRANCH   1   5
BRANCH   2  14
HETATM   14  C   UNL     1     -42.896 -53.487  13.744  1.00  0.00     0.078 C 
HETATM   15  C   UNL     1     -43.827 -53.624  12.537  1.00  0.00     0.020 C 
HETATM   16  C   UNL     1     -45.282 -53.550  13.002  1.00  0.00     0.080 C 
HETATM   17  C   UNL     1     -45.584 -54.577  14.086  1.00  0.00     0.243 C 
HETATM   18  F   UNL     1     -46.820 -54.344  14.592  1.00  0.00    -0.206 F 
HETATM   19  F   UNL     1     -45.626 -55.810  13.515  1.00  0.00    -0.206 F 
HETATM   20  C   UNL     1     -44.568 -54.603  15.224  1.00  0.00     0.080 C 
HETATM   21  C   UNL     1     -43.129 -54.656  14.707  1.00  0.00     0.020 C 
ENDBRANCH   2  14
TORSDOF 4
ENDMDL
MODEL 4
REMARK VINA RESULT:      -5.8      1.247      1.906
REMARK  4 active torsions:
REMARK  status: ('A' for Active; 'I' for Inactive)
REMARK    1  A    between atoms: C_7  and  C_8 
REMARK    2  A    between atoms: C_8  and  C_9 
REMARK    3  A    between atoms: C_9  and  N_10 
REMARK       I    between atoms: N_10  and  C_11 
REMARK    4  A    between atoms: C_11  and  C_13 
ROOT
HETATM    1  N   UNL     1     -42.128 -51.069  12.118  1.00  0.00    -0.360 N 
HETATM    2  C   UNL     1     -42.045 -52.377  12.511  1.00  0.00     0.221 C 
HETATM    3  O   UNL     1     -41.065 -53.083  12.272  1.00  0.00    -0.273 OA
HETATM    4  H   UNL     1     -43.025 -50.597  12.135  1.00  0.00     0.162 HD
ENDROOT
BRANCH   1   5
HETATM    5  C   UNL     1     -41.047 -50.480  11.349  1.00  0.00     0.128 C 
BRANCH   5   6
HETATM    6  C   UNL     1     -40.615 -49.104  11.849  1.00  0.00     0.078 C 
BRANCH   6   7
HETATM    7  C   UNL     1     -41.156 -47.958  11.055  1.00  0.00     0.029 A 
HETATM    8  N   UNL     1     -40.822 -46.631  11.201  1.00  0.00    -0.350 N 
HETATM    9  C   UNL     1     -39.869 -46.047  12.112  1.00  0.00     0.156 C 
HETATM   10  C   UNL     1     -41.576 -45.915  10.313  1.00  0.00     0.182 A 
HETATM   11  N   UNL     1     -42.354 -46.693   9.600  1.00  0.00    -0.360 N 
HETATM   12  C   UNL     1     -42.113 -47.958  10.057  1.00  0.00     0.114 A 
ATOM     13  HN  UNL     1     -43.001 -46.415   8.861  1.00  0.00     0.166 HD
ENDBRANCH   6   7
ENDBRANCH   5   6
ENDBRANCH   1   5
BRANCH   2  14
HETATM   14  C   UNL     1     -43.236 -52.926  13.279  1.00  0.00     0.078 C 
HETATM   15  C   UNL     1     -44.488 -53.064  12.412  1.00  0.00     0.020 C 
HETATM   16  C   UNL     1     -45.692 -53.385  13.298  1.00  0.00     0.080 C 
HETATM   17  C   UNL     1     -45.447 -54.617  14.163  1.00  0.00     0.243 C 
HETATM   18  F   UNL     1     -46.458 -54.744  15.057  1.00  0.00    -0.206 F 
HETATM   19  F   UNL     1     -45.492 -55.719  13.369  1.00  0.00    -0.206 F 
HETATM   20  C   UNL     1     -44.114 -54.605  14.904  1.00  0.00     0.080 C 
HETATM   21  C   UNL     1     -42.946 -54.258  13.978  1.00  0.00     0.020 C 
ENDBRANCH   2  14
TORSDOF 4
ENDMDL
MODEL 5
REMARK VINA RESULT:      -5.7      1.786      2.443
REMARK  4 active torsions:
REMARK  status: ('A' for Active; 'I' for Inactive)
REMARK    1  A    between atoms: C_7  and  C_8 
REMARK    2  A    between atoms: C_8  and  C_9 
REMARK    3  A    between atoms: C_9  and  N_10 
REMARK       I    between atoms: N_10  and  C_11 
REMARK    4  A    between atoms: C_11  and  C_13 
ROOT
HETATM    1  N   UNL     1     -40.259 -51.998  13.874  1.00  0.00    -0.360 N 
HETATM    2  C   UNL     1     -40.304 -53.345  13.635  1.00  0.00     0.221 C 
HETATM    3  O   UNL     1     -39.290 -54.033  13.515  1.00  0.00    -0.273 OA
HETATM    4  H   UNL     1     -41.093 -51.438  13.745  1.00  0.00     0.162 HD
ENDROOT
BRANCH   1   5
HETATM    5  C   UNL     1     -38.975 -51.325  13.953  1.00  0.00     0.128 C 
BRANCH   5   6
HETATM    6  C   UNL     1     -38.495 -50.760  12.618  1.00  0.00     0.078 C 
BRANCH   6   7
HETATM    7  C   UNL     1     -39.457 -49.821  11.961  1.00  0.00     0.029 A 
HETATM    8  N   UNL     1     -39.660 -48.499  12.284  1.00  0.00    -0.350 N 
HETATM    9  C   UNL     1     -38.986 -47.714  13.289  1.00  0.00     0.156 C 
HETATM   10  C   UNL     1     -40.653 -48.023  11.474  1.00  0.00     0.182 A 
HETATM   11  N   UNL     1     -41.085 -48.944  10.646  1.00  0.00    -0.360 N 
HETATM   12  C   UNL     1     -40.362 -50.064  10.945  1.00  0.00     0.114 A 
ATOM     13  HN  UNL     1     -41.807 -48.845   9.931  1.00  0.00     0.166 HD
ENDBRANCH   6   7
ENDBRANCH   5   6
ENDBRANCH   1   5
BRANCH   2  14
HETATM   14  C   UNL     1     -41.688 -53.964  13.531  1.00  0.00     0.078 C 
HETATM   15  C   UNL     1     -42.251 -54.389  14.888  1.00  0.00     0.020 C 
HETATM   16  C   UNL     1     -43.521 -55.214  14.680  1.00  0.00     0.080 C 
HETATM   17  C   UNL     1     -44.548 -54.470  13.833  1.00  0.00     0.243 C 
HETATM   18  F   UNL     1     -45.565 -55.311  13.523  1.00  0.00    -0.206 F 
HETATM   19  F   UNL     1     -45.087 -53.473  14.583  1.00  0.00    -0.206 F 
HETATM   20  C   UNL     1     -43.982 -53.866  12.552  1.00  0.00     0.080 C 
HETATM   21  C   UNL     1     -42.702 -53.069  12.811  1.00  0.00     0.020 C 
ENDBRANCH   2  14
TORSDOF 4
ENDMDL
MODEL 6
REMARK VINA RESULT:      -5.3     14.716     15.706
REMARK  4 active torsions:
REMARK  status: ('A' for Active; 'I' for Inactive)
REMARK    1  A    between atoms: C_7  and  C_8 
REMARK    2  A    between atoms: C_8  and  C_9 
REMARK    3  A    between atoms: C_9  and  N_10 
REMARK       I    between atoms: N_10  and  C_11 
REMARK    4  A    between atoms: C_11  and  C_13 
ROOT
HETATM    1  N   UNL     1     -50.318 -50.683  -0.306  1.00  0.00    -0.360 N 
HETATM    2  C   UNL     1     -49.744 -51.895  -0.577  1.00  0.00     0.221 C 
HETATM    3  O   UNL     1     -48.524 -52.069  -0.571  1.00  0.00    -0.273 OA
HETATM    4  H   UNL     1     -51.293 -50.528  -0.536  1.00  0.00     0.162 HD
ENDROOT
BRANCH   1   5
HETATM    5  C   UNL     1     -49.476 -49.531  -0.040  1.00  0.00     0.128 C 
BRANCH   5   6
HETATM    6  C   UNL     1     -49.597 -48.996   1.385  1.00  0.00     0.078 C 
BRANCH   6   7
HETATM    7  C   UNL     1     -50.742 -48.059   1.599  1.00  0.00     0.029 A 
HETATM    8  N   UNL     1     -50.658 -46.721   1.910  1.00  0.00    -0.350 N 
HETATM    9  C   UNL     1     -49.471 -45.917   2.069  1.00  0.00     0.156 C 
HETATM   10  C   UNL     1     -51.932 -46.250   2.063  1.00  0.00     0.182 A 
HETATM   11  N   UNL     1     -52.824 -47.189   1.854  1.00  0.00    -0.360 N 
HETATM   12  C   UNL     1     -52.101 -48.316   1.579  1.00  0.00     0.114 A 
ATOM     13  HN  UNL     1     -53.839 -47.099   1.890  1.00  0.00     0.166 HD
ENDBRANCH   6   7
ENDBRANCH   5   6
ENDBRANCH   1   5
BRANCH   2  14
HETATM   14  C   UNL     1     -50.696 -53.039  -0.881  1.00  0.00     0.078 C 
HETATM   15  C   UNL     1     -52.162 -52.666  -0.654  1.00  0.00     0.020 C 
HETATM   16  C   UNL     1     -53.030 -53.922  -0.743  1.00  0.00     0.080 C 
HETATM   17  C   UNL     1     -52.817 -54.665  -2.057  1.00  0.00     0.243 C 
HETATM   18  F   UNL     1     -53.459 -55.858  -2.005  1.00  0.00    -0.206 F 
HETATM   19  F   UNL     1     -53.403 -53.955  -3.056  1.00  0.00    -0.206 F 
HETATM   20  C   UNL     1     -51.353 -54.894  -2.416  1.00  0.00     0.080 C 
HETATM   21  C   UNL     1     -50.525 -53.613  -2.290  1.00  0.00     0.020 C 
ENDBRANCH   2  14
TORSDOF 4
ENDMDL
MODEL 7
REMARK VINA RESULT:      -5.1      2.631      3.567
REMARK  4 active torsions:
REMARK  status: ('A' for Active; 'I' for Inactive)
REMARK    1  A    between atoms: C_7  and  C_8 
REMARK    2  A    between atoms: C_8  and  C_9 
REMARK    3  A    between atoms: C_9  and  N_10 
REMARK       I    between atoms: N_10  and  C_11 
REMARK    4  A    between atoms: C_11  and  C_13 
ROOT
HETATM    1  N   UNL     1     -43.302 -49.405  13.858  1.00  0.00    -0.360 N 
HETATM    2  C   UNL     1     -43.827 -50.104  14.910  1.00  0.00     0.221 C 
HETATM    3  O   UNL     1     -43.865 -49.653  16.055  1.00  0.00    -0.273 OA
HETATM    4  H   UNL     1     -43.086 -49.887  12.993  1.00  0.00     0.162 HD
ENDROOT
BRANCH   1   5
HETATM    5  C   UNL     1     -42.724 -48.092  14.084  1.00  0.00     0.128 C 
BRANCH   5   6
HETATM    6  C   UNL     1     -42.009 -47.517  12.864  1.00  0.00     0.078 C 
BRANCH   6   7
HETATM    7  C   UNL     1     -41.193 -48.510  12.099  1.00  0.00     0.029 A 
HETATM    8  N   UNL     1     -40.026 -49.107  12.517  1.00  0.00    -0.350 N 
HETATM    9  C   UNL     1     -39.345 -48.944  13.778  1.00  0.00     0.156 C 
HETATM   10  C   UNL     1     -39.584 -49.910  11.503  1.00  0.00     0.182 A 
HETATM   11  N   UNL     1     -40.397 -49.881  10.473  1.00  0.00    -0.360 N 
HETATM   12  C   UNL     1     -41.389 -49.009  10.824  1.00  0.00     0.114 A 
ATOM     13  HN  UNL     1     -40.307 -50.397   9.598  1.00  0.00     0.166 HD
ENDBRANCH   6   7
ENDBRANCH   5   6
ENDBRANCH   1   5
BRANCH   2  14
HETATM   14  C   UNL     1     -44.377 -51.485  14.594  1.00  0.00     0.078 C 
HETATM   15  C   UNL     1     -45.163 -51.523  13.282  1.00  0.00     0.020 C 
HETATM   16  C   UNL     1     -45.882 -52.866  13.156  1.00  0.00     0.080 C 
HETATM   17  C   UNL     1     -44.919 -54.040  13.290  1.00  0.00     0.243 C 
HETATM   18  F   UNL     1     -45.627 -55.194  13.361  1.00  0.00    -0.206 F 
HETATM   19  F   UNL     1     -44.169 -54.116  12.159  1.00  0.00    -0.206 F 
HETATM   20  C   UNL     1     -43.983 -53.947  14.490  1.00  0.00     0.080 C 
HETATM   21  C   UNL     1     -43.305 -52.579  14.583  1.00  0.00     0.020 C 
ENDBRANCH   2  14
TORSDOF 4
ENDMDL
MODEL 8
REMARK VINA RESULT:      -4.9      4.728      6.882
REMARK  4 active torsions:
REMARK  status: ('A' for Active; 'I' for Inactive)
REMARK    1  A    between atoms: C_7  and  C_8 
REMARK    2  A    between atoms: C_8  and  C_9 
REMARK    3  A    between atoms: C_9  and  N_10 
REMARK       I    between atoms: N_10  and  C_11 
REMARK    4  A    between atoms: C_11  and  C_13 
ROOT
HETATM    1  N   UNL     1     -43.486 -53.135  16.346  1.00  0.00    -0.360 N 
HETATM    2  C   UNL     1     -44.680 -53.452  16.934  1.00  0.00     0.221 C 
HETATM    3  O   UNL     1     -44.985 -54.606  17.240  1.00  0.00    -0.273 OA
HETATM    4  H   UNL     1     -43.366 -52.227  15.913  1.00  0.00     0.162 HD
ENDROOT
BRANCH   1   5
HETATM    5  C   UNL     1     -42.542 -54.189  16.022  1.00  0.00     0.128 C 
BRANCH   5   6
HETATM    6  C   UNL     1     -42.746 -54.792  14.634  1.00  0.00     0.078 C 
BRANCH   6   7
HETATM    7  C   UNL     1     -42.313 -53.911  13.506  1.00  0.00     0.029 A 
HETATM    8  N   UNL     1     -41.017 -53.645  13.127  1.00  0.00    -0.350 N 
HETATM    9  C   UNL     1     -39.798 -54.167  13.693  1.00  0.00     0.156 C 
HETATM   10  C   UNL     1     -41.064 -52.760  12.085  1.00  0.00     0.182 A 
HETATM   11  N   UNL     1     -42.299 -52.456  11.763  1.00  0.00    -0.360 N 
HETATM   12  C   UNL     1     -43.080 -53.151  12.642  1.00  0.00     0.114 A 
ATOM     13  HN  UNL     1     -42.609 -51.834  11.016  1.00  0.00     0.166 HD
ENDBRANCH   6   7
ENDBRANCH   5   6
ENDBRANCH   1   5
BRANCH   2  14
HETATM   14  C   UNL     1     -45.626 -52.294  17.205  1.00  0.00     0.078 C 
HETATM   15  C   UNL     1     -46.916 -52.379  16.388  1.00  0.00     0.020 C 
HETATM   16  C   UNL     1     -47.698 -51.073  16.529  1.00  0.00     0.080 C 
HETATM   17  C   UNL     1     -47.958 -50.723  17.990  1.00  0.00     0.243 C 
HETATM   18  F   UNL     1     -48.481 -49.474  18.064  1.00  0.00    -0.206 F 
HETATM   19  F   UNL     1     -48.906 -51.567  18.475  1.00  0.00    -0.206 F 
HETATM   20  C   UNL     1     -46.725 -50.808  18.883  1.00  0.00     0.080 C 
HETATM   21  C   UNL     1     -45.968 -52.124  18.689  1.00  0.00     0.020 C 
ENDBRANCH   2  14
TORSDOF 4
ENDMDL
MODEL 9
REMARK VINA RESULT:      -4.9      2.439      2.973
REMARK  4 active torsions:
REMARK  status: ('A' for Active; 'I' for Inactive)
REMARK    1  A    between atoms: C_7  and  C_8 
REMARK    2  A    between atoms: C_8  and  C_9 
REMARK    3  A    between atoms: C_9  and  N_10 
REMARK       I    between atoms: N_10  and  C_11 
REMARK    4  A    between atoms: C_11  and  C_13 
ROOT
HETATM    1  N   UNL     1     -43.159 -49.017  14.086  1.00  0.00    -0.360 N 
HETATM    2  C   UNL     1     -43.302 -50.119  13.288  1.00  0.00     0.221 C 
HETATM    3  O   UNL     1     -42.489 -50.416  12.412  1.00  0.00    -0.273 OA
HETATM    4  H   UNL     1     -43.947 -48.688  14.632  1.00  0.00     0.162 HD
ENDROOT
BRANCH   1   5
HETATM    5  C   UNL     1     -42.033 -48.124  13.883  1.00  0.00     0.128 C 
BRANCH   5   6
HETATM    6  C   UNL     1     -42.426 -46.751  13.345  1.00  0.00     0.078 C 
BRANCH   6   7
HETATM    7  C   UNL     1     -41.758 -46.375  12.061  1.00  0.00     0.029 A 
HETATM    8  N   UNL     1     -40.569 -45.695  11.926  1.00  0.00    -0.350 N 
HETATM    9  C   UNL     1     -39.689 -45.223  12.966  1.00  0.00     0.156 C 
HETATM   10  C   UNL     1     -40.343 -45.518  10.588  1.00  0.00     0.182 A 
HETATM   11  N   UNL     1     -41.296 -46.053   9.862  1.00  0.00    -0.360 N 
HETATM   12  C   UNL     1     -42.183 -46.575  10.761  1.00  0.00     0.114 A 
ATOM     13  HN  UNL     1     -41.361 -46.074   8.844  1.00  0.00     0.166 HD
ENDBRANCH   6   7
ENDBRANCH   5   6
ENDBRANCH   1   5
BRANCH   2  14
HETATM   14  C   UNL     1     -44.528 -50.980  13.542  1.00  0.00     0.078 C 
HETATM   15  C   UNL     1     -44.335 -52.431  13.098  1.00  0.00     0.020 C 
HETATM   16  C   UNL     1     -45.674 -53.168  13.159  1.00  0.00     0.080 C 
HETATM   17  C   UNL     1     -46.317 -53.063  14.537  1.00  0.00     0.243 C 
HETATM   18  F   UNL     1     -47.575 -53.564  14.483  1.00  0.00    -0.206 F 
HETATM   19  F   UNL     1     -45.624 -53.853  15.399  1.00  0.00    -0.206 F 
HETATM   20  C   UNL     1     -46.360 -51.647  15.101  1.00  0.00     0.080 C 
HETATM   21  C   UNL     1     -45.003 -50.947  14.998  1.00  0.00     0.020 C 
ENDBRANCH   2  14
TORSDOF 4
ENDMDL
