MODEL 1
REMARK VINA RESULT:      -6.6      0.000      0.000
REMARK  6 active torsions:
REMARK  status: ('A' for Active; 'I' for Inactive)
REMARK    1  A    between atoms: N_4  and  C_8 
REMARK    2  A    between atoms: C_11  and  C_12 
REMARK    3  A    between atoms: C_12  and  N_13 
REMARK       I    between atoms: N_13  and  C_14 
REMARK       I    between atoms: C_14  and  N_16 
REMARK    4  A    between atoms: N_16  and  C_17 
REMARK    5  A    between atoms: C_17  and  C_18 
REMARK    6  A    between atoms: C_18  and  O_19 
ROOT
HETATM    1  C   UNL     1     -42.890 -52.795  13.816  1.00  0.00     0.103 A 
HETATM    2  C   UNL     1     -42.155 -51.863  14.546  1.00  0.00     0.049 A 
HETATM    3  C   UNL     1     -41.154 -51.104  13.935  1.00  0.00     0.014 A 
HETATM    4  C   UNL     1     -40.887 -51.276  12.584  1.00  0.00    -0.025 A 
HETATM    5  C   UNL     1     -41.608 -52.265  11.935  1.00  0.00     0.098 A 
HETATM    6  N   UNL     1     -42.579 -53.010  12.518  1.00  0.00    -0.352 N 
ATOM      7  HN  UNL     1     -43.069 -53.727  11.983  1.00  0.00     0.166 HD
ENDROOT
BRANCH   4   8
HETATM    8  C   UNL     1     -39.927 -50.393  11.851  1.00  0.00     0.164 C 
BRANCH   8   9
HETATM    9  N   UNL     1     -40.461 -49.838  10.629  1.00  0.00    -0.339 N 
HETATM   10  C   UNL     1     -41.346 -48.796  10.752  1.00  0.00     0.316 C 
HETATM   11  O   UNL     1     -41.659 -48.290  11.825  1.00  0.00    -0.247 OA
HETATM   12  N   UNL     1     -41.821 -48.373   9.547  1.00  0.00    -0.341 N 
HETATM   13  H   UNL     1     -41.263 -48.585   8.731  1.00  0.00     0.164 HD
HETATM   14  H   UNL     1     -40.677 -50.486   9.885  1.00  0.00     0.164 HD
BRANCH  12  15
HETATM   15  C   UNL     1     -42.765 -47.265   9.456  1.00  0.00     0.150 C 
BRANCH  15  16
HETATM   16  C   UNL     1     -43.710 -47.366   8.256  1.00  0.00     0.183 C 
BRANCH  16  17
HETATM   17  O   UNL     1     -42.957 -47.473   7.050  1.00  0.00    -0.399 OA
HETATM   18  H   UNL     1     -43.163 -46.668   6.541  1.00  0.00     0.209 HD
ENDBRANCH  16  17
ENDBRANCH  15  16
ENDBRANCH  12  15
ENDBRANCH   8   9
ENDBRANCH   4   8
BRANCH   1  19
HETATM   19  N   UNL     1     -43.895 -53.545  14.382  1.00  0.00    -0.363 N 
HETATM   20  C   UNL     1     -44.489 -53.132  15.663  1.00  0.00     0.155 C 
HETATM   21  C   UNL     1     -46.018 -53.363  15.602  1.00  0.00     0.135 C 
HETATM   22  C   UNL     1     -46.708 -52.343  14.696  1.00  0.00     0.041 C 
HETATM   23  O   UNL     1     -46.349 -54.716  15.220  1.00  0.00    -0.383 OA
HETATM   24  C   UNL     1     -45.709 -55.125  14.000  1.00  0.00     0.188 C 
HETATM   25  C   UNL     1     -44.184 -54.944  14.056  1.00  0.00     0.150 C 
ENDBRANCH   1  19
TORSDOF 6
ENDMDL
MODEL 2
REMARK VINA RESULT:      -5.9      1.732      1.870
REMARK  6 active torsions:
REMARK  status: ('A' for Active; 'I' for Inactive)
REMARK    1  A    between atoms: N_4  and  C_8 
REMARK    2  A    between atoms: C_11  and  C_12 
REMARK    3  A    between atoms: C_12  and  N_13 
REMARK       I    between atoms: N_13  and  C_14 
REMARK       I    between atoms: C_14  and  N_16 
REMARK    4  A    between atoms: N_16  and  C_17 
REMARK    5  A    between atoms: C_17  and  C_18 
REMARK    6  A    between atoms: C_18  and  O_19 
ROOT
HETATM    1  C   UNL     1     -42.642 -52.527  13.789  1.00  0.00     0.103 A 
HETATM    2  C   UNL     1     -41.642 -52.042  14.630  1.00  0.00     0.049 A 
HETATM    3  C   UNL     1     -40.531 -51.372  14.111  1.00  0.00     0.014 A 
HETATM    4  C   UNL     1     -40.420 -51.184  12.741  1.00  0.00    -0.025 A 
HETATM    5  C   UNL     1     -41.413 -51.750  11.958  1.00  0.00     0.098 A 
HETATM    6  N   UNL     1     -42.493 -52.405  12.451  1.00  0.00    -0.352 N 
ATOM      7  HN  UNL     1     -43.187 -52.802  11.818  1.00  0.00     0.166 HD
ENDROOT
BRANCH   4   8
HETATM    8  C   UNL     1     -39.327 -50.354  12.146  1.00  0.00     0.164 C 
BRANCH   8   9
HETATM    9  N   UNL     1     -39.785 -49.414  11.149  1.00  0.00    -0.339 N 
HETATM   10  C   UNL     1     -40.066 -48.140  11.576  1.00  0.00     0.316 C 
HETATM   11  O   UNL     1     -39.901 -47.755  12.729  1.00  0.00    -0.247 OA
HETATM   12  N   UNL     1     -40.529 -47.345  10.570  1.00  0.00    -0.341 N 
HETATM   13  H   UNL     1     -40.298 -47.617   9.624  1.00  0.00     0.164 HD
HETATM   14  H   UNL     1     -40.410 -49.765  10.438  1.00  0.00     0.164 HD
BRANCH  12  15
HETATM   15  C   UNL     1     -40.874 -45.949  10.812  1.00  0.00     0.150 C 
BRANCH  15  16
HETATM   16  C   UNL     1     -39.734 -44.977  10.498  1.00  0.00     0.183 C 
BRANCH  16  17
HETATM   17  O   UNL     1     -39.599 -44.821   9.087  1.00  0.00    -0.399 OA
HETATM   18  H   UNL     1     -40.013 -43.965   8.877  1.00  0.00     0.209 HD
ENDBRANCH  16  17
ENDBRANCH  15  16
ENDBRANCH  12  15
ENDBRANCH   8   9
ENDBRANCH   4   8
BRANCH   1  19
HETATM   19  N   UNL     1     -43.757 -53.175  14.269  1.00  0.00    -0.363 N 
HETATM   20  C   UNL     1     -44.613 -52.521  15.271  1.00  0.00     0.155 C 
HETATM   21  C   UNL     1     -46.094 -52.811  14.928  1.00  0.00     0.135 C 
HETATM   22  C   UNL     1     -46.553 -52.029  13.697  1.00  0.00     0.041 C 
HETATM   23  O   UNL     1     -46.351 -54.225  14.780  1.00  0.00    -0.383 OA
HETATM   24  C   UNL     1     -45.463 -54.859  13.845  1.00  0.00     0.188 C 
HETATM   25  C   UNL     1     -43.986 -54.620  14.193  1.00  0.00     0.150 C 
ENDBRANCH   1  19
TORSDOF 6
ENDMDL
MODEL 3
REMARK VINA RESULT:      -5.8      2.996      3.840
REMARK  6 active torsions:
REMARK  status: ('A' for Active; 'I' for Inactive)
REMARK    1  A    between atoms: N_4  and  C_8 
REMARK    2  A    between atoms: C_11  and  C_12 
REMARK    3  A    between atoms: C_12  and  N_13 
REMARK       I    between atoms: N_13  and  C_14 
REMARK       I    between atoms: C_14  and  N_16 
REMARK    4  A    between atoms: N_16  and  C_17 
REMARK    5  A    between atoms: C_17  and  C_18 
REMARK    6  A    between atoms: C_18  and  O_19 
ROOT
HETATM    1  C   UNL     1     -39.866 -52.776  14.164  1.00  0.00     0.103 A 
HETATM    2  C   UNL     1     -39.076 -51.756  14.691  1.00  0.00     0.049 A 
HETATM    3  C   UNL     1     -38.946 -50.534  14.026  1.00  0.00     0.014 A 
HETATM    4  C   UNL     1     -39.613 -50.330  12.825  1.00  0.00    -0.025 A 
HETATM    5  C   UNL     1     -40.324 -51.407  12.325  1.00  0.00     0.098 A 
HETATM    6  N   UNL     1     -40.454 -52.599  12.960  1.00  0.00    -0.352 N 
ATOM      7  HN  UNL     1     -40.990 -53.353  12.533  1.00  0.00     0.166 HD
ENDROOT
BRANCH   4   8
HETATM    8  C   UNL     1     -39.621 -48.997  12.146  1.00  0.00     0.164 C 
BRANCH   8   9
HETATM    9  N   UNL     1     -40.274 -49.004  10.858  1.00  0.00    -0.339 N 
HETATM   10  C   UNL     1     -41.393 -48.219  10.721  1.00  0.00     0.316 C 
HETATM   11  O   UNL     1     -41.825 -47.488  11.606  1.00  0.00    -0.247 OA
HETATM   12  N   UNL     1     -41.955 -48.328   9.485  1.00  0.00    -0.341 N 
HETATM   13  H   UNL     1     -41.360 -48.650   8.733  1.00  0.00     0.164 HD
HETATM   14  H   UNL     1     -40.319 -49.887  10.369  1.00  0.00     0.164 HD
BRANCH  12  15
HETATM   15  C   UNL     1     -43.146 -47.565   9.130  1.00  0.00     0.150 C 
BRANCH  15  16
HETATM   16  C   UNL     1     -43.661 -47.860   7.719  1.00  0.00     0.183 C 
BRANCH  16  17
HETATM   17  O   UNL     1     -42.717 -48.661   7.012  1.00  0.00    -0.399 OA
HETATM   18  H   UNL     1     -42.210 -48.041   6.458  1.00  0.00     0.209 HD
ENDBRANCH  16  17
ENDBRANCH  15  16
ENDBRANCH  12  15
ENDBRANCH   8   9
ENDBRANCH   4   8
BRANCH   1  19
HETATM   19  N   UNL     1     -40.030 -53.983  14.803  1.00  0.00    -0.363 N 
HETATM   20  C   UNL     1     -38.942 -54.974  14.793  1.00  0.00     0.155 C 
HETATM   21  C   UNL     1     -38.855 -55.634  16.190  1.00  0.00     0.135 C 
HETATM   22  C   UNL     1     -38.275 -54.676  17.232  1.00  0.00     0.041 C 
HETATM   23  O   UNL     1     -40.125 -56.171  16.618  1.00  0.00    -0.383 OA
HETATM   24  C   UNL     1     -41.188 -55.207  16.561  1.00  0.00     0.188 C 
HETATM   25  C   UNL     1     -41.321 -54.572  15.168  1.00  0.00     0.150 C 
ENDBRANCH   1  19
TORSDOF 6
ENDMDL
MODEL 4
REMARK VINA RESULT:      -5.8      1.829      7.406
REMARK  6 active torsions:
REMARK  status: ('A' for Active; 'I' for Inactive)
REMARK    1  A    between atoms: N_4  and  C_8 
REMARK    2  A    between atoms: C_11  and  C_12 
REMARK    3  A    between atoms: C_12  and  N_13 
REMARK       I    between atoms: N_13  and  C_14 
REMARK       I    between atoms: C_14  and  N_16 
REMARK    4  A    between atoms: N_16  and  C_17 
REMARK    5  A    between atoms: C_17  and  C_18 
REMARK    6  A    between atoms: C_18  and  O_19 
ROOT
HETATM    1  C   UNL     1     -42.028 -48.461  10.951  1.00  0.00     0.103 A 
HETATM    2  C   UNL     1     -42.767 -48.828  12.074  1.00  0.00     0.049 A 
HETATM    3  C   UNL     1     -42.374 -49.907  12.869  1.00  0.00     0.014 A 
HETATM    4  C   UNL     1     -41.232 -50.624  12.539  1.00  0.00    -0.025 A 
HETATM    5  C   UNL     1     -40.584 -50.250  11.374  1.00  0.00     0.098 A 
HETATM    6  N   UNL     1     -40.959 -49.206  10.593  1.00  0.00    -0.352 N 
ATOM      7  HN  UNL     1     -40.440 -48.987   9.744  1.00  0.00     0.166 HD
ENDROOT
BRANCH   4   8
HETATM    8  C   UNL     1     -40.690 -51.696  13.431  1.00  0.00     0.164 C 
BRANCH   8   9
HETATM    9  N   UNL     1     -41.350 -52.971  13.278  1.00  0.00    -0.339 N 
HETATM   10  C   UNL     1     -42.324 -53.284  14.193  1.00  0.00     0.316 C 
HETATM   11  O   UNL     1     -42.689 -52.527  15.086  1.00  0.00    -0.247 OA
HETATM   12  N   UNL     1     -42.855 -54.522  13.984  1.00  0.00    -0.341 N 
HETATM   13  H   UNL     1     -42.765 -54.911  13.055  1.00  0.00     0.164 HD
HETATM   14  H   UNL     1     -40.780 -53.753  12.988  1.00  0.00     0.164 HD
BRANCH  12  15
HETATM   15  C   UNL     1     -43.914 -55.040  14.840  1.00  0.00     0.150 C 
BRANCH  15  16
HETATM   16  C   UNL     1     -45.319 -54.640  14.383  1.00  0.00     0.183 C 
BRANCH  16  17
HETATM   17  O   UNL     1     -45.425 -54.765  12.966  1.00  0.00    -0.399 OA
HETATM   18  H   UNL     1     -44.975 -55.599  12.742  1.00  0.00     0.209 HD
ENDBRANCH  16  17
ENDBRANCH  15  16
ENDBRANCH  12  15
ENDBRANCH   8   9
ENDBRANCH   4   8
BRANCH   1  19
HETATM   19  N   UNL     1     -42.378 -47.392  10.158  1.00  0.00    -0.363 N 
HETATM   20  C   UNL     1     -42.928 -47.622   8.813  1.00  0.00     0.155 C 
HETATM   21  C   UNL     1     -44.077 -46.616   8.564  1.00  0.00     0.135 C 
HETATM   22  C   UNL     1     -45.323 -46.968   9.378  1.00  0.00     0.041 C 
HETATM   23  O   UNL     1     -43.665 -45.252   8.796  1.00  0.00    -0.383 OA
HETATM   24  C   UNL     1     -43.072 -45.059  10.090  1.00  0.00     0.188 C 
HETATM   25  C   UNL     1     -41.899 -46.020  10.340  1.00  0.00     0.150 C 
ENDBRANCH   1  19
TORSDOF 6
ENDMDL
MODEL 5
REMARK VINA RESULT:      -5.8      1.839      2.473
REMARK  6 active torsions:
REMARK  status: ('A' for Active; 'I' for Inactive)
REMARK    1  A    between atoms: N_4  and  C_8 
REMARK    2  A    between atoms: C_11  and  C_12 
REMARK    3  A    between atoms: C_12  and  N_13 
REMARK       I    between atoms: N_13  and  C_14 
REMARK       I    between atoms: C_14  and  N_16 
REMARK    4  A    between atoms: N_16  and  C_17 
REMARK    5  A    between atoms: C_17  and  C_18 
REMARK    6  A    between atoms: C_18  and  O_19 
ROOT
HETATM    1  C   UNL     1     -43.841 -51.495  13.507  1.00  0.00     0.103 A 
HETATM    2  C   UNL     1     -43.930 -50.264  14.156  1.00  0.00     0.049 A 
HETATM    3  C   UNL     1     -43.106 -49.198  13.785  1.00  0.00     0.014 A 
HETATM    4  C   UNL     1     -42.188 -49.363  12.757  1.00  0.00    -0.025 A 
HETATM    5  C   UNL     1     -42.105 -50.630  12.202  1.00  0.00     0.098 A 
HETATM    6  N   UNL     1     -42.897 -51.672  12.557  1.00  0.00    -0.352 N 
ATOM      7  HN  UNL     1     -42.781 -52.581  12.110  1.00  0.00     0.166 HD
ENDROOT
BRANCH   4   8
HETATM    8  C   UNL     1     -41.383 -48.218  12.228  1.00  0.00     0.164 C 
BRANCH   8   9
HETATM    9  N   UNL     1     -42.178 -47.075  11.845  1.00  0.00    -0.339 N 
HETATM   10  C   UNL     1     -42.656 -47.051  10.559  1.00  0.00     0.316 C 
HETATM   11  O   UNL     1     -42.488 -47.959   9.752  1.00  0.00    -0.247 OA
HETATM   12  N   UNL     1     -43.358 -45.915  10.287  1.00  0.00    -0.341 N 
HETATM   13  H   UNL     1     -43.745 -45.412  11.074  1.00  0.00     0.164 HD
HETATM   14  H   UNL     1     -41.893 -46.175  12.204  1.00  0.00     0.164 HD
BRANCH  12  15
HETATM   15  C   UNL     1     -43.962 -45.699   8.977  1.00  0.00     0.150 C 
BRANCH  15  16
HETATM   16  C   UNL     1     -45.345 -46.338   8.831  1.00  0.00     0.183 C 
BRANCH  16  17
HETATM   17  O   UNL     1     -45.224 -47.639   8.261  1.00  0.00    -0.399 OA
HETATM   18  H   UNL     1     -45.085 -48.243   9.012  1.00  0.00     0.209 HD
ENDBRANCH  16  17
ENDBRANCH  15  16
ENDBRANCH  12  15
ENDBRANCH   8   9
ENDBRANCH   4   8
BRANCH   1  19
HETATM   19  N   UNL     1     -44.650 -52.558  13.835  1.00  0.00    -0.363 N 
HETATM   20  C   UNL     1     -44.567 -53.810  13.067  1.00  0.00     0.155 C 
HETATM   21  C   UNL     1     -44.670 -55.005  14.046  1.00  0.00     0.135 C 
HETATM   22  C   UNL     1     -43.397 -55.166  14.876  1.00  0.00     0.041 C 
HETATM   23  O   UNL     1     -45.840 -54.918  14.888  1.00  0.00    -0.383 OA
HETATM   24  C   UNL     1     -45.938 -53.663  15.582  1.00  0.00     0.188 C 
HETATM   25  C   UNL     1     -45.882 -52.464  14.622  1.00  0.00     0.150 C 
ENDBRANCH   1  19
TORSDOF 6
ENDMDL
MODEL 6
REMARK VINA RESULT:      -5.5      3.665      6.007
REMARK  6 active torsions:
REMARK  status: ('A' for Active; 'I' for Inactive)
REMARK    1  A    between atoms: N_4  and  C_8 
REMARK    2  A    between atoms: C_11  and  C_12 
REMARK    3  A    between atoms: C_12  and  N_13 
REMARK       I    between atoms: N_13  and  C_14 
REMARK       I    between atoms: C_14  and  N_16 
REMARK    4  A    between atoms: N_16  and  C_17 
REMARK    5  A    between atoms: C_17  and  C_18 
REMARK    6  A    between atoms: C_18  and  O_19 
ROOT
HETATM    1  C   UNL     1     -46.793 -51.902  17.029  1.00  0.00     0.103 A 
HETATM    2  C   UNL     1     -47.181 -51.203  15.888  1.00  0.00     0.049 A 
HETATM    3  C   UNL     1     -46.792 -51.635  14.617  1.00  0.00     0.014 A 
HETATM    4  C   UNL     1     -46.012 -52.775  14.487  1.00  0.00    -0.025 A 
HETATM    5  C   UNL     1     -45.606 -53.382  15.664  1.00  0.00     0.098 A 
HETATM    6  N   UNL     1     -45.974 -52.969  16.902  1.00  0.00    -0.352 N 
ATOM      7  HN  UNL     1     -45.635 -53.460  17.729  1.00  0.00     0.166 HD
ENDROOT
BRANCH   4   8
HETATM    8  C   UNL     1     -45.686 -53.358  13.148  1.00  0.00     0.164 C 
BRANCH   8   9
HETATM    9  N   UNL     1     -44.665 -52.633  12.429  1.00  0.00    -0.339 N 
HETATM   10  C   UNL     1     -43.376 -53.091  12.544  1.00  0.00     0.316 C 
HETATM   11  O   UNL     1     -43.063 -54.095  13.173  1.00  0.00    -0.247 OA
HETATM   12  N   UNL     1     -42.487 -52.315  11.863  1.00  0.00    -0.341 N 
HETATM   13  H   UNL     1     -42.851 -51.750  11.107  1.00  0.00     0.164 HD
HETATM   14  H   UNL     1     -44.752 -51.627  12.396  1.00  0.00     0.164 HD
BRANCH  12  15
HETATM   15  C   UNL     1     -41.065 -52.637  11.846  1.00  0.00     0.150 C 
BRANCH  15  16
HETATM   16  C   UNL     1     -40.209 -51.660  12.656  1.00  0.00     0.183 C 
BRANCH  16  17
HETATM   17  O   UNL     1     -39.035 -51.316  11.924  1.00  0.00    -0.399 OA
HETATM   18  H   UNL     1     -38.538 -50.705  12.497  1.00  0.00     0.209 HD
ENDBRANCH  16  17
ENDBRANCH  15  16
ENDBRANCH  12  15
ENDBRANCH   8   9
ENDBRANCH   4   8
BRANCH   1  19
HETATM   19  N   UNL     1     -47.174 -51.515  18.293  1.00  0.00    -0.363 N 
HETATM   20  C   UNL     1     -46.396 -50.498  19.017  1.00  0.00     0.155 C 
HETATM   21  C   UNL     1     -47.373 -49.554  19.758  1.00  0.00     0.135 C 
HETATM   22  C   UNL     1     -48.106 -48.626  18.789  1.00  0.00     0.041 C 
HETATM   23  O   UNL     1     -48.299 -50.279  20.595  1.00  0.00    -0.383 OA
HETATM   24  C   UNL     1     -49.005 -51.310  19.886  1.00  0.00     0.188 C 
HETATM   25  C   UNL     1     -48.051 -52.285  19.179  1.00  0.00     0.150 C 
ENDBRANCH   1  19
TORSDOF 6
ENDMDL
MODEL 7
REMARK VINA RESULT:      -5.4      3.928      7.676
REMARK  6 active torsions:
REMARK  status: ('A' for Active; 'I' for Inactive)
REMARK    1  A    between atoms: N_4  and  C_8 
REMARK    2  A    between atoms: C_11  and  C_12 
REMARK    3  A    between atoms: C_12  and  N_13 
REMARK       I    between atoms: N_13  and  C_14 
REMARK       I    between atoms: C_14  and  N_16 
REMARK    4  A    between atoms: N_16  and  C_17 
REMARK    5  A    between atoms: C_17  and  C_18 
REMARK    6  A    between atoms: C_18  and  O_19 
ROOT
HETATM    1  C   UNL     1     -41.943 -48.482  10.916  1.00  0.00     0.103 A 
HETATM    2  C   UNL     1     -42.652 -48.925  12.031  1.00  0.00     0.049 A 
HETATM    3  C   UNL     1     -42.165 -49.971  12.819  1.00  0.00     0.014 A 
HETATM    4  C   UNL     1     -40.960 -50.577  12.491  1.00  0.00    -0.025 A 
HETATM    5  C   UNL     1     -40.342 -50.133  11.333  1.00  0.00     0.098 A 
HETATM    6  N   UNL     1     -40.808 -49.122  10.559  1.00  0.00    -0.352 N 
ATOM      7  HN  UNL     1     -40.305 -48.847   9.715  1.00  0.00     0.166 HD
ENDROOT
BRANCH   4   8
HETATM    8  C   UNL     1     -40.326 -51.602  13.378  1.00  0.00     0.164 C 
BRANCH   8   9
HETATM    9  N   UNL     1     -38.917 -51.383  13.607  1.00  0.00    -0.339 N 
HETATM   10  C   UNL     1     -38.576 -50.565  14.656  1.00  0.00     0.316 C 
HETATM   11  O   UNL     1     -39.391 -50.063  15.422  1.00  0.00    -0.247 OA
HETATM   12  N   UNL     1     -37.229 -50.391  14.761  1.00  0.00    -0.341 N 
HETATM   13  H   UNL     1     -36.638 -51.096  14.342  1.00  0.00     0.164 HD
HETATM   14  H   UNL     1     -38.327 -51.290  12.793  1.00  0.00     0.164 HD
BRANCH  12  15
HETATM   15  C   UNL     1     -36.657 -49.566  15.819  1.00  0.00     0.150 C 
BRANCH  15  16
HETATM   16  C   UNL     1     -36.278 -50.358  17.073  1.00  0.00     0.183 C 
BRANCH  16  17
HETATM   17  O   UNL     1     -34.877 -50.250  17.314  1.00  0.00    -0.399 OA
HETATM   18  H   UNL     1     -34.749 -49.379  17.729  1.00  0.00     0.209 HD
ENDBRANCH  16  17
ENDBRANCH  15  16
ENDBRANCH  12  15
ENDBRANCH   8   9
ENDBRANCH   4   8
BRANCH   1  19
HETATM   19  N   UNL     1     -42.385 -47.442  10.130  1.00  0.00    -0.363 N 
HETATM   20  C   UNL     1     -42.990 -47.718   8.817  1.00  0.00     0.155 C 
HETATM   21  C   UNL     1     -44.199 -46.773   8.616  1.00  0.00     0.135 C 
HETATM   22  C   UNL     1     -45.383 -47.175   9.496  1.00  0.00     0.041 C 
HETATM   23  O   UNL     1     -43.845 -45.387   8.811  1.00  0.00    -0.383 OA
HETATM   24  C   UNL     1     -43.198 -45.147  10.071  1.00  0.00     0.188 C 
HETATM   25  C   UNL     1     -41.967 -46.046  10.272  1.00  0.00     0.150 C 
ENDBRANCH   1  19
TORSDOF 6
ENDMDL
MODEL 8
REMARK VINA RESULT:      -5.4      2.660      3.125
REMARK  6 active torsions:
REMARK  status: ('A' for Active; 'I' for Inactive)
REMARK    1  A    between atoms: N_4  and  C_8 
REMARK    2  A    between atoms: C_11  and  C_12 
REMARK    3  A    between atoms: C_12  and  N_13 
REMARK       I    between atoms: N_13  and  C_14 
REMARK       I    between atoms: C_14  and  N_16 
REMARK    4  A    between atoms: N_16  and  C_17 
REMARK    5  A    between atoms: C_17  and  C_18 
REMARK    6  A    between atoms: C_18  and  O_19 
ROOT
HETATM    1  C   UNL     1     -42.718 -51.901  12.820  1.00  0.00     0.103 A 
HETATM    2  C   UNL     1     -43.396 -50.726  13.143  1.00  0.00     0.049 A 
HETATM    3  C   UNL     1     -42.927 -49.485  12.705  1.00  0.00     0.014 A 
HETATM    4  C   UNL     1     -41.773 -49.418  11.936  1.00  0.00    -0.025 A 
HETATM    5  C   UNL     1     -41.113 -50.614  11.709  1.00  0.00     0.098 A 
HETATM    6  N   UNL     1     -41.557 -51.823  12.133  1.00  0.00    -0.352 N 
ATOM      7  HN  UNL     1     -41.019 -52.666  11.934  1.00  0.00     0.166 HD
ENDROOT
BRANCH   4   8
HETATM    8  C   UNL     1     -41.308 -48.133  11.326  1.00  0.00     0.164 C 
BRANCH   8   9
HETATM    9  N   UNL     1     -41.816 -46.955  11.989  1.00  0.00    -0.339 N 
HETATM   10  C   UNL     1     -41.602 -45.749  11.368  1.00  0.00     0.316 C 
HETATM   11  O   UNL     1     -41.057 -45.631  10.276  1.00  0.00    -0.247 OA
HETATM   12  N   UNL     1     -42.083 -44.700  12.093  1.00  0.00    -0.341 N 
HETATM   13  H   UNL     1     -42.808 -44.900  12.769  1.00  0.00     0.164 HD
HETATM   14  H   UNL     1     -41.746 -46.927  12.996  1.00  0.00     0.164 HD
BRANCH  12  15
HETATM   15  C   UNL     1     -41.969 -43.332  11.603  1.00  0.00     0.150 C 
BRANCH  15  16
HETATM   16  C   UNL     1     -43.246 -42.813  10.939  1.00  0.00     0.183 C 
BRANCH  16  17
HETATM   17  O   UNL     1     -43.660 -43.707   9.908  1.00  0.00    -0.399 OA
HETATM   18  H   UNL     1     -43.678 -43.176   9.092  1.00  0.00     0.209 HD
ENDBRANCH  16  17
ENDBRANCH  15  16
ENDBRANCH  12  15
ENDBRANCH   8   9
ENDBRANCH   4   8
BRANCH   1  19
HETATM   19  N   UNL     1     -43.163 -53.140  13.219  1.00  0.00    -0.363 N 
HETATM   20  C   UNL     1     -42.227 -54.096  13.830  1.00  0.00     0.155 C 
HETATM   21  C   UNL     1     -42.939 -54.814  15.002  1.00  0.00     0.135 C 
HETATM   22  C   UNL     1     -43.127 -53.886  16.203  1.00  0.00     0.041 C 
HETATM   23  O   UNL     1     -44.191 -55.408  14.595  1.00  0.00    -0.383 OA
HETATM   24  C   UNL     1     -45.067 -54.474  13.943  1.00  0.00     0.188 C 
HETATM   25  C   UNL     1     -44.392 -53.782  12.748  1.00  0.00     0.150 C 
ENDBRANCH   1  19
TORSDOF 6
ENDMDL
MODEL 9
REMARK VINA RESULT:      -5.3      3.396      8.321
REMARK  6 active torsions:
REMARK  status: ('A' for Active; 'I' for Inactive)
REMARK    1  A    between atoms: N_4  and  C_8 
REMARK    2  A    between atoms: C_11  and  C_12 
REMARK    3  A    between atoms: C_12  and  N_13 
REMARK       I    between atoms: N_13  and  C_14 
REMARK       I    between atoms: C_14  and  N_16 
REMARK    4  A    between atoms: N_16  and  C_17 
REMARK    5  A    between atoms: C_17  and  C_18 
REMARK    6  A    between atoms: C_18  and  O_19 
ROOT
HETATM    1  C   UNL     1     -41.395 -46.137  11.295  1.00  0.00     0.103 A 
HETATM    2  C   UNL     1     -42.551 -46.914  11.247  1.00  0.00     0.049 A 
HETATM    3  C   UNL     1     -42.485 -48.304  11.373  1.00  0.00     0.014 A 
HETATM    4  C   UNL     1     -41.255 -48.921  11.551  1.00  0.00    -0.025 A 
HETATM    5  C   UNL     1     -40.142 -48.097  11.522  1.00  0.00     0.098 A 
HETATM    6  N   UNL     1     -40.194 -46.748  11.396  1.00  0.00    -0.352 N 
ATOM      7  HN  UNL     1     -39.335 -46.199  11.377  1.00  0.00     0.166 HD
ENDROOT
BRANCH   4   8
HETATM    8  C   UNL     1     -41.141 -50.386  11.832  1.00  0.00     0.164 C 
BRANCH   8   9
HETATM    9  N   UNL     1     -42.415 -51.061  11.927  1.00  0.00    -0.339 N 
HETATM   10  C   UNL     1     -42.415 -52.317  12.482  1.00  0.00     0.316 C 
HETATM   11  O   UNL     1     -41.416 -52.861  12.938  1.00  0.00    -0.247 OA
HETATM   12  N   UNL     1     -43.656 -52.881  12.488  1.00  0.00    -0.341 N 
HETATM   13  H   UNL     1     -44.448 -52.255  12.435  1.00  0.00     0.164 HD
HETATM   14  H   UNL     1     -43.058 -50.942  11.157  1.00  0.00     0.164 HD
BRANCH  12  15
HETATM   15  C   UNL     1     -43.875 -54.210  13.047  1.00  0.00     0.150 C 
BRANCH  15  16
HETATM   16  C   UNL     1     -45.326 -54.464  13.465  1.00  0.00     0.183 C 
BRANCH  16  17
HETATM   17  O   UNL     1     -46.194 -53.555  12.792  1.00  0.00    -0.399 OA
HETATM   18  H   UNL     1     -46.636 -53.046  13.495  1.00  0.00     0.209 HD
ENDBRANCH  16  17
ENDBRANCH  15  16
ENDBRANCH  12  15
ENDBRANCH   8   9
ENDBRANCH   4   8
BRANCH   1  19
HETATM   19  N   UNL     1     -41.428 -44.765  11.192  1.00  0.00    -0.363 N 
HETATM   20  C   UNL     1     -42.711 -44.071  11.008  1.00  0.00     0.155 C 
HETATM   21  C   UNL     1     -42.713 -42.785  11.870  1.00  0.00     0.135 C 
HETATM   22  C   UNL     1     -42.843 -43.104  13.359  1.00  0.00     0.041 C 
HETATM   23  O   UNL     1     -41.562 -41.954  11.607  1.00  0.00    -0.383 OA
HETATM   24  C   UNL     1     -40.319 -42.665  11.730  1.00  0.00     0.188 C 
HETATM   25  C   UNL     1     -40.280 -43.922  10.848  1.00  0.00     0.150 C 
ENDBRANCH   1  19
TORSDOF 6
ENDMDL
