MODEL 1
REMARK VINA RESULT:      -6.5      0.000      0.000
REMARK  3 active torsions:
REMARK  status: ('A' for Active; 'I' for Inactive)
REMARK    1  A    between atoms: C_5  and  N_6 
REMARK       I    between atoms: N_6  and  C_7 
REMARK       I    between atoms: C_7  and  N_9 
REMARK    2  A    between atoms: N_9  and  C_10 
REMARK    3  A    between atoms: C_13  and  N_17 
ROOT
HETATM    1  C   UNL     1     -39.911 -49.285  11.925  1.00  0.00     0.051 A 
HETATM    2  C   UNL     1     -38.557 -49.249  11.651  1.00  0.00     0.035 A 
HETATM    3  C   UNL     1     -37.651 -49.249  12.712  1.00  0.00     0.051 A 
HETATM    4  C   UNL     1     -38.086 -49.364  14.034  1.00  0.00     0.103 A 
HETATM    5  N   UNL     1     -39.411 -49.427  14.296  1.00  0.00    -0.350 N 
ATOM      6  HN  UNL     1     -39.747 -49.520  15.254  1.00  0.00     0.166 HD
HETATM    7  C   UNL     1     -40.289 -49.364  13.258  1.00  0.00     0.119 A 
ENDROOT
BRANCH   1   8
HETATM    8  N   UNL     1     -40.819 -49.245  10.851  1.00  0.00    -0.308 N 
HETATM    9  C   UNL     1     -41.574 -48.128  10.573  1.00  0.00     0.321 C 
HETATM   10  N   UNL     1     -42.449 -48.355   9.544  1.00  0.00    -0.330 N 
HETATM   11  O   UNL     1     -41.480 -47.055  11.151  1.00  0.00    -0.247 OA
HETATM   12  H   UNL     1     -42.369 -49.220   9.031  1.00  0.00     0.165 HD
HETATM   13  H   UNL     1     -40.582 -49.800  10.041  1.00  0.00     0.170 HD
BRANCH  10  14
HETATM   14  C   UNL     1     -43.162 -47.276   8.875  1.00  0.00     0.180 C 
HETATM   15  C   UNL     1     -44.203 -46.545   9.726  1.00  0.00     0.054 C 
HETATM   16  C   UNL     1     -45.477 -47.338   9.523  1.00  0.00     0.128 C 
HETATM   17  N   UNL     1     -45.348 -47.914   8.207  1.00  0.00    -0.355 N 
HETATM   18  C   UNL     1     -46.280 -48.915   7.743  1.00  0.00     0.152 C 
HETATM   19  C   UNL     1     -44.012 -47.958   7.804  1.00  0.00     0.242 C 
HETATM   20  O   UNL     1     -43.564 -48.614   6.870  1.00  0.00    -0.271 OA
ENDBRANCH  10  14
ENDBRANCH   1   8
BRANCH   4  21
HETATM   21  N   UNL     1     -37.192 -49.356  15.086  1.00  0.00    -0.363 N 
HETATM   22  C   UNL     1     -37.120 -50.435  16.079  1.00  0.00     0.150 C 
HETATM   23  C   UNL     1     -37.610 -49.944  17.450  1.00  0.00     0.187 C 
HETATM   24  O   UNL     1     -36.902 -48.772  17.877  1.00  0.00    -0.388 OA
HETATM   25  C   UNL     1     -37.107 -47.706  16.932  1.00  0.00     0.187 C 
HETATM   26  C   UNL     1     -36.598 -48.085  15.533  1.00  0.00     0.150 C 
ENDBRANCH   4  21
TORSDOF 3
ENDMDL
MODEL 2
REMARK VINA RESULT:      -6.4      4.012      8.613
REMARK  3 active torsions:
REMARK  status: ('A' for Active; 'I' for Inactive)
REMARK    1  A    between atoms: C_5  and  N_6 
REMARK       I    between atoms: N_6  and  C_7 
REMARK       I    between atoms: C_7  and  N_9 
REMARK    2  A    between atoms: N_9  and  C_10 
REMARK    3  A    between atoms: C_13  and  N_17 
ROOT
HETATM    1  C   UNL     1     -41.775 -49.942  12.586  1.00  0.00     0.051 A 
HETATM    2  C   UNL     1     -42.910 -49.157  12.671  1.00  0.00     0.035 A 
HETATM    3  C   UNL     1     -43.114 -48.156  11.721  1.00  0.00     0.051 A 
HETATM    4  C   UNL     1     -42.235 -47.988  10.649  1.00  0.00     0.103 A 
HETATM    5  N   UNL     1     -41.140 -48.775  10.555  1.00  0.00    -0.350 N 
ATOM      6  HN  UNL     1     -40.493 -48.672   9.774  1.00  0.00     0.166 HD
HETATM    7  C   UNL     1     -40.918 -49.708  11.520  1.00  0.00     0.119 A 
ENDROOT
BRANCH   1   8
HETATM    8  N   UNL     1     -41.557 -50.923  13.571  1.00  0.00    -0.308 N 
HETATM    9  C   UNL     1     -41.787 -52.259  13.335  1.00  0.00     0.321 C 
HETATM   10  N   UNL     1     -41.595 -53.010  14.465  1.00  0.00    -0.330 N 
HETATM   11  O   UNL     1     -42.110 -52.738  12.257  1.00  0.00    -0.247 OA
HETATM   12  H   UNL     1     -41.198 -52.559  15.276  1.00  0.00     0.165 HD
HETATM   13  H   UNL     1     -40.819 -50.737  14.234  1.00  0.00     0.170 HD
BRANCH  10  14
HETATM   14  C   UNL     1     -41.505 -54.463  14.429  1.00  0.00     0.180 C 
HETATM   15  C   UNL     1     -42.062 -55.189  15.655  1.00  0.00     0.054 C 
HETATM   16  C   UNL     1     -40.888 -55.270  16.609  1.00  0.00     0.128 C 
HETATM   17  N   UNL     1     -39.723 -55.291  15.759  1.00  0.00    -0.355 N 
HETATM   18  C   UNL     1     -38.397 -55.150  16.316  1.00  0.00     0.152 C 
HETATM   19  C   UNL     1     -40.010 -54.775  14.493  1.00  0.00     0.242 C 
HETATM   20  O   UNL     1     -39.187 -54.427  13.655  1.00  0.00    -0.271 OA
ENDBRANCH  10  14
ENDBRANCH   1   8
BRANCH   4  21
HETATM   21  N   UNL     1     -42.431 -46.992   9.713  1.00  0.00    -0.363 N 
HETATM   22  C   UNL     1     -41.983 -45.608   9.916  1.00  0.00     0.150 C 
HETATM   23  C   UNL     1     -43.186 -44.668  10.091  1.00  0.00     0.187 C 
HETATM   24  O   UNL     1     -44.108 -44.780   8.999  1.00  0.00    -0.388 OA
HETATM   25  C   UNL     1     -44.613 -46.126   8.921  1.00  0.00     0.187 C 
HETATM   26  C   UNL     1     -43.483 -47.140   8.693  1.00  0.00     0.150 C 
ENDBRANCH   4  21
TORSDOF 3
ENDMDL
MODEL 3
REMARK VINA RESULT:      -6.1      4.811      6.639
REMARK  3 active torsions:
REMARK  status: ('A' for Active; 'I' for Inactive)
REMARK    1  A    between atoms: C_5  and  N_6 
REMARK       I    between atoms: N_6  and  C_7 
REMARK       I    between atoms: C_7  and  N_9 
REMARK    2  A    between atoms: N_9  and  C_10 
REMARK    3  A    between atoms: C_13  and  N_17 
ROOT
HETATM    1  C   UNL     1     -42.309 -49.327  12.335  1.00  0.00     0.051 A 
HETATM    2  C   UNL     1     -43.310 -49.722  13.202  1.00  0.00     0.035 A 
HETATM    3  C   UNL     1     -43.569 -51.083  13.363  1.00  0.00     0.051 A 
HETATM    4  C   UNL     1     -42.786 -52.048  12.726  1.00  0.00     0.103 A 
HETATM    5  N   UNL     1     -41.790 -51.657  11.899  1.00  0.00    -0.350 N 
ATOM      6  HN  UNL     1     -41.203 -52.347  11.432  1.00  0.00     0.166 HD
HETATM    7  C   UNL     1     -41.585 -50.327  11.701  1.00  0.00     0.119 A 
ENDROOT
BRANCH   1   8
HETATM    8  N   UNL     1     -42.081 -47.951  12.148  1.00  0.00    -0.308 N 
HETATM    9  C   UNL     1     -40.877 -47.361  12.455  1.00  0.00     0.321 C 
HETATM   10  N   UNL     1     -40.921 -46.003  12.279  1.00  0.00    -0.330 N 
HETATM   11  O   UNL     1     -39.876 -47.958  12.826  1.00  0.00    -0.247 OA
HETATM   12  H   UNL     1     -41.738 -45.605  11.840  1.00  0.00     0.165 HD
HETATM   13  H   UNL     1     -42.579 -47.512  11.387  1.00  0.00     0.170 HD
BRANCH  10  14
HETATM   14  C   UNL     1     -39.721 -45.178  12.268  1.00  0.00     0.180 C 
HETATM   15  C   UNL     1     -39.383 -44.486  13.589  1.00  0.00     0.054 C 
HETATM   16  C   UNL     1     -40.130 -43.170  13.525  1.00  0.00     0.128 C 
HETATM   17  N   UNL     1     -40.216 -42.863  12.118  1.00  0.00    -0.355 N 
HETATM   18  C   UNL     1     -41.050 -41.782  11.646  1.00  0.00     0.152 C 
HETATM   19  C   UNL     1     -40.045 -44.009  11.339  1.00  0.00     0.242 C 
HETATM   20  O   UNL     1     -40.317 -44.117  10.148  1.00  0.00    -0.271 OA
ENDBRANCH  10  14
ENDBRANCH   1   8
BRANCH   4  21
HETATM   21  N   UNL     1     -43.046 -53.395  12.877  1.00  0.00    -0.363 N 
HETATM   22  C   UNL     1     -44.377 -53.978  12.666  1.00  0.00     0.150 C 
HETATM   23  C   UNL     1     -44.976 -54.461  13.995  1.00  0.00     0.187 C 
HETATM   24  O   UNL     1     -44.095 -55.365  14.676  1.00  0.00    -0.388 OA
HETATM   25  C   UNL     1     -42.850 -54.705  14.971  1.00  0.00     0.187 C 
HETATM   26  C   UNL     1     -42.146 -54.229  13.691  1.00  0.00     0.150 C 
ENDBRANCH   4  21
TORSDOF 3
ENDMDL
MODEL 4
REMARK VINA RESULT:      -6.0      4.032      7.990
REMARK  3 active torsions:
REMARK  status: ('A' for Active; 'I' for Inactive)
REMARK    1  A    between atoms: C_5  and  N_6 
REMARK       I    between atoms: N_6  and  C_7 
REMARK       I    between atoms: C_7  and  N_9 
REMARK    2  A    between atoms: N_9  and  C_10 
REMARK    3  A    between atoms: C_13  and  N_17 
ROOT
HETATM    1  C   UNL     1     -40.957 -49.347  13.020  1.00  0.00     0.051 A 
HETATM    2  C   UNL     1     -42.132 -48.619  13.005  1.00  0.00     0.035 A 
HETATM    3  C   UNL     1     -42.213 -47.479  12.206  1.00  0.00     0.051 A 
HETATM    4  C   UNL     1     -41.160 -47.108  11.367  1.00  0.00     0.103 A 
HETATM    5  N   UNL     1     -40.022 -47.838  11.365  1.00  0.00    -0.350 N 
ATOM      6  HN  UNL     1     -39.246 -47.587  10.752  1.00  0.00     0.166 HD
HETATM    7  C   UNL     1     -39.930 -48.913  12.193  1.00  0.00     0.119 A 
ENDROOT
BRANCH   1   8
HETATM    8  N   UNL     1     -40.869 -50.473  13.859  1.00  0.00    -0.308 N 
HETATM    9  C   UNL     1     -41.228 -51.731  13.433  1.00  0.00     0.321 C 
HETATM   10  N   UNL     1     -41.148 -52.648  14.448  1.00  0.00    -0.330 N 
HETATM   11  O   UNL     1     -41.565 -52.018  12.293  1.00  0.00    -0.247 OA
HETATM   12  H   UNL     1     -40.731 -52.360  15.321  1.00  0.00     0.165 HD
HETATM   13  H   UNL     1     -40.137 -50.460  14.554  1.00  0.00     0.170 HD
BRANCH  10  14
HETATM   14  C   UNL     1     -41.206 -54.084  14.208  1.00  0.00     0.180 C 
HETATM   15  C   UNL     1     -41.927 -54.903  15.280  1.00  0.00     0.054 C 
HETATM   16  C   UNL     1     -40.844 -55.246  16.282  1.00  0.00     0.128 C 
HETATM   17  N   UNL     1     -39.625 -55.282  15.510  1.00  0.00    -0.355 N 
HETATM   18  C   UNL     1     -38.339 -55.369  16.162  1.00  0.00     0.152 C 
HETATM   19  C   UNL     1     -39.760 -54.568  14.318  1.00  0.00     0.242 C 
HETATM   20  O   UNL     1     -38.844 -54.203  13.590  1.00  0.00    -0.271 OA
ENDBRANCH  10  14
ENDBRANCH   1   8
BRANCH   4  21
HETATM   21  N   UNL     1     -41.235 -45.975  10.582  1.00  0.00    -0.363 N 
HETATM   22  C   UNL     1     -40.068 -45.134  10.282  1.00  0.00     0.150 C 
HETATM   23  C   UNL     1     -40.188 -43.771  10.979  1.00  0.00     0.187 C 
HETATM   24  O   UNL     1     -41.421 -43.116  10.652  1.00  0.00    -0.388 OA
HETATM   25  C   UNL     1     -42.533 -43.924  11.080  1.00  0.00     0.187 C 
HETATM   26  C   UNL     1     -42.529 -45.298  10.393  1.00  0.00     0.150 C 
ENDBRANCH   4  21
TORSDOF 3
ENDMDL
MODEL 5
REMARK VINA RESULT:      -5.9      4.812      6.633
REMARK  3 active torsions:
REMARK  status: ('A' for Active; 'I' for Inactive)
REMARK    1  A    between atoms: C_5  and  N_6 
REMARK       I    between atoms: N_6  and  C_7 
REMARK       I    between atoms: C_7  and  N_9 
REMARK    2  A    between atoms: N_9  and  C_10 
REMARK    3  A    between atoms: C_13  and  N_17 
ROOT
HETATM    1  C   UNL     1     -42.282 -48.388  11.923  1.00  0.00     0.051 A 
HETATM    2  C   UNL     1     -42.617 -47.304  12.713  1.00  0.00     0.035 A 
HETATM    3  C   UNL     1     -41.855 -46.139  12.624  1.00  0.00     0.051 A 
HETATM    4  C   UNL     1     -40.815 -46.025  11.699  1.00  0.00     0.103 A 
HETATM    5  N   UNL     1     -40.509 -47.079  10.909  1.00  0.00    -0.350 N 
ATOM      6  HN  UNL     1     -39.758 -47.010  10.221  1.00  0.00     0.166 HD
HETATM    7  C   UNL     1     -41.218 -48.231  11.046  1.00  0.00     0.119 A 
ENDROOT
BRANCH   1   8
HETATM    8  N   UNL     1     -43.031 -49.573  12.048  1.00  0.00    -0.308 N 
HETATM    9  C   UNL     1     -42.629 -50.610  12.858  1.00  0.00     0.321 C 
HETATM   10  N   UNL     1     -43.465 -51.689  12.746  1.00  0.00    -0.330 N 
HETATM   11  O   UNL     1     -41.659 -50.585  13.603  1.00  0.00    -0.247 OA
HETATM   12  H   UNL     1     -44.318 -51.581  12.217  1.00  0.00     0.165 HD
HETATM   13  H   UNL     1     -44.032 -49.484  11.949  1.00  0.00     0.170 HD
BRANCH  10  14
HETATM   14  C   UNL     1     -43.430 -52.804  13.683  1.00  0.00     0.180 C 
HETATM   15  C   UNL     1     -43.830 -54.163  13.108  1.00  0.00     0.054 C 
HETATM   16  C   UNL     1     -45.332 -54.223  13.296  1.00  0.00     0.128 C 
HETATM   17  N   UNL     1     -45.591 -53.405  14.455  1.00  0.00    -0.355 N 
HETATM   18  C   UNL     1     -46.942 -53.046  14.820  1.00  0.00     0.152 C 
HETATM   19  C   UNL     1     -44.541 -52.516  14.692  1.00  0.00     0.242 C 
HETATM   20  O   UNL     1     -44.580 -51.537  15.429  1.00  0.00    -0.271 OA
ENDBRANCH  10  14
ENDBRANCH   1   8
BRANCH   4  21
HETATM   21  N   UNL     1     -40.055 -44.876  11.615  1.00  0.00    -0.363 N 
HETATM   22  C   UNL     1     -39.206 -44.401  12.715  1.00  0.00     0.150 C 
HETATM   23  C   UNL     1     -39.772 -43.106  13.317  1.00  0.00     0.187 C 
HETATM   24  O   UNL     1     -39.968 -42.098  12.315  1.00  0.00    -0.388 OA
HETATM   25  C   UNL     1     -40.905 -42.567  11.328  1.00  0.00     0.187 C 
HETATM   26  C   UNL     1     -40.400 -43.838  10.630  1.00  0.00     0.150 C 
ENDBRANCH   4  21
TORSDOF 3
ENDMDL
MODEL 6
REMARK VINA RESULT:      -5.8      4.522      5.932
REMARK  3 active torsions:
REMARK  status: ('A' for Active; 'I' for Inactive)
REMARK    1  A    between atoms: C_5  and  N_6 
REMARK       I    between atoms: N_6  and  C_7 
REMARK       I    between atoms: C_7  and  N_9 
REMARK    2  A    between atoms: N_9  and  C_10 
REMARK    3  A    between atoms: C_13  and  N_17 
ROOT
HETATM    1  C   UNL     1     -42.893 -47.984  12.515  1.00  0.00     0.051 A 
HETATM    2  C   UNL     1     -43.126 -48.725  13.658  1.00  0.00     0.035 A 
HETATM    3  C   UNL     1     -42.802 -50.082  13.664  1.00  0.00     0.051 A 
HETATM    4  C   UNL     1     -42.178 -50.680  12.568  1.00  0.00     0.103 A 
HETATM    5  N   UNL     1     -41.927 -49.945  11.461  1.00  0.00    -0.350 N 
ATOM      6  HN  UNL     1     -41.465 -50.364  10.654  1.00  0.00     0.166 HD
HETATM    7  C   UNL     1     -42.303 -48.638  11.442  1.00  0.00     0.119 A 
ENDROOT
BRANCH   1   8
HETATM    8  N   UNL     1     -43.259 -46.625  12.503  1.00  0.00    -0.308 N 
HETATM    9  C   UNL     1     -42.335 -45.618  12.657  1.00  0.00     0.321 C 
HETATM   10  N   UNL     1     -42.935 -44.387  12.706  1.00  0.00    -0.330 N 
HETATM   11  O   UNL     1     -41.124 -45.778  12.727  1.00  0.00    -0.247 OA
HETATM   12  H   UNL     1     -43.922 -44.328  12.504  1.00  0.00     0.165 HD
HETATM   13  H   UNL     1     -44.055 -46.379  11.932  1.00  0.00     0.170 HD
BRANCH  10  14
HETATM   14  C   UNL     1     -42.181 -43.147  12.589  1.00  0.00     0.180 C 
HETATM   15  C   UNL     1     -42.231 -42.225  13.809  1.00  0.00     0.054 C 
HETATM   16  C   UNL     1     -43.448 -41.355  13.572  1.00  0.00     0.128 C 
HETATM   17  N   UNL     1     -43.574 -41.280  12.137  1.00  0.00    -0.355 N 
HETATM   18  C   UNL     1     -44.752 -40.707  11.527  1.00  0.00     0.152 C 
HETATM   19  C   UNL     1     -42.905 -42.336  11.514  1.00  0.00     0.242 C 
HETATM   20  O   UNL     1     -43.042 -42.687  10.348  1.00  0.00    -0.271 OA
ENDBRANCH  10  14
ENDBRANCH   1   8
BRANCH   4  21
HETATM   21  N   UNL     1     -41.865 -52.025  12.569  1.00  0.00    -0.363 N 
HETATM   22  C   UNL     1     -42.776 -53.055  13.083  1.00  0.00     0.150 C 
HETATM   23  C   UNL     1     -42.222 -53.674  14.375  1.00  0.00     0.187 C 
HETATM   24  O   UNL     1     -40.891 -54.176  14.193  1.00  0.00    -0.388 OA
HETATM   25  C   UNL     1     -40.012 -53.103  13.810  1.00  0.00     0.187 C 
HETATM   26  C   UNL     1     -40.457 -52.450  12.493  1.00  0.00     0.150 C 
ENDBRANCH   4  21
TORSDOF 3
ENDMDL
MODEL 7
REMARK VINA RESULT:      -5.8      6.617     11.715
REMARK  3 active torsions:
REMARK  status: ('A' for Active; 'I' for Inactive)
REMARK    1  A    between atoms: C_5  and  N_6 
REMARK       I    between atoms: N_6  and  C_7 
REMARK       I    between atoms: C_7  and  N_9 
REMARK    2  A    between atoms: N_9  and  C_10 
REMARK    3  A    between atoms: C_13  and  N_17 
ROOT
HETATM    1  C   UNL     1     -40.115 -54.581  15.394  1.00  0.00     0.051 A 
HETATM    2  C   UNL     1     -40.105 -54.349  14.031  1.00  0.00     0.035 A 
HETATM    3  C   UNL     1     -41.319 -54.252  13.351  1.00  0.00     0.051 A 
HETATM    4  C   UNL     1     -42.536 -54.306  14.035  1.00  0.00     0.103 A 
HETATM    5  N   UNL     1     -42.541 -54.505  15.372  1.00  0.00    -0.350 N 
ATOM      6  HN  UNL     1     -43.419 -54.539  15.888  1.00  0.00     0.166 HD
HETATM    7  C   UNL     1     -41.353 -54.660  16.016  1.00  0.00     0.119 A 
ENDROOT
BRANCH   1   8
HETATM    8  N   UNL     1     -38.886 -54.717  16.065  1.00  0.00    -0.308 N 
HETATM    9  C   UNL     1     -38.553 -55.860  16.756  1.00  0.00     0.321 C 
HETATM   10  N   UNL     1     -37.353 -55.725  17.403  1.00  0.00    -0.330 N 
HETATM   11  O   UNL     1     -39.224 -56.882  16.790  1.00  0.00    -0.247 OA
HETATM   12  H   UNL     1     -36.798 -54.904  17.214  1.00  0.00     0.165 HD
HETATM   13  H   UNL     1     -38.099 -54.227  15.665  1.00  0.00     0.170 HD
BRANCH  10  14
HETATM   14  C   UNL     1     -36.644 -56.862  17.974  1.00  0.00     0.180 C 
HETATM   15  C   UNL     1     -36.830 -57.068  19.478  1.00  0.00     0.054 C 
HETATM   16  C   UNL     1     -35.735 -56.234  20.110  1.00  0.00     0.128 C 
HETATM   17  N   UNL     1     -34.676 -56.212  19.130  1.00  0.00    -0.355 N 
HETATM   18  C   UNL     1     -33.541 -55.333  19.287  1.00  0.00     0.152 C 
HETATM   19  C   UNL     1     -35.161 -56.512  17.855  1.00  0.00     0.242 C 
HETATM   20  O   UNL     1     -34.570 -56.321  16.798  1.00  0.00    -0.271 OA
ENDBRANCH  10  14
ENDBRANCH   1   8
BRANCH   4  21
HETATM   21  N   UNL     1     -43.739 -54.219  13.363  1.00  0.00    -0.363 N 
HETATM   22  C   UNL     1     -44.050 -53.133  12.423  1.00  0.00     0.150 C 
HETATM   23  C   UNL     1     -45.141 -52.216  12.996  1.00  0.00     0.187 C 
HETATM   24  O   UNL     1     -46.311 -52.955  13.370  1.00  0.00    -0.388 OA
HETATM   25  C   UNL     1     -45.976 -53.921  14.384  1.00  0.00     0.187 C 
HETATM   26  C   UNL     1     -44.923 -54.921  13.884  1.00  0.00     0.150 C 
ENDBRANCH   4  21
TORSDOF 3
ENDMDL
MODEL 8
REMARK VINA RESULT:      -5.6      6.650     11.922
REMARK  3 active torsions:
REMARK  status: ('A' for Active; 'I' for Inactive)
REMARK    1  A    between atoms: C_5  and  N_6 
REMARK       I    between atoms: N_6  and  C_7 
REMARK       I    between atoms: C_7  and  N_9 
REMARK    2  A    between atoms: N_9  and  C_10 
REMARK    3  A    between atoms: C_13  and  N_17 
ROOT
HETATM    1  C   UNL     1     -39.494 -54.305  16.186  1.00  0.00     0.051 A 
HETATM    2  C   UNL     1     -39.801 -54.566  14.864  1.00  0.00     0.035 A 
HETATM    3  C   UNL     1     -41.089 -54.296  14.401  1.00  0.00     0.051 A 
HETATM    4  C   UNL     1     -42.043 -53.697  15.226  1.00  0.00     0.103 A 
HETATM    5  N   UNL     1     -41.730 -53.418  16.512  1.00  0.00    -0.350 N 
ATOM      6  HN  UNL     1     -42.411 -52.973  17.126  1.00  0.00     0.166 HD
HETATM    7  C   UNL     1     -40.491 -53.742  16.971  1.00  0.00     0.119 A 
ENDROOT
BRANCH   1   8
HETATM    8  N   UNL     1     -38.205 -54.617  16.655  1.00  0.00    -0.308 N 
HETATM    9  C   UNL     1     -37.928 -55.802  17.298  1.00  0.00     0.321 C 
HETATM   10  N   UNL     1     -36.634 -55.842  17.744  1.00  0.00    -0.330 N 
HETATM   11  O   UNL     1     -38.720 -56.722  17.449  1.00  0.00    -0.247 OA
HETATM   12  H   UNL     1     -36.007 -55.104  17.460  1.00  0.00     0.165 HD
HETATM   13  H   UNL     1     -37.431 -54.237  16.130  1.00  0.00     0.170 HD
BRANCH  10  14
HETATM   14  C   UNL     1     -36.007 -57.072  18.209  1.00  0.00     0.180 C 
HETATM   15  C   UNL     1     -35.960 -57.257  19.727  1.00  0.00     0.054 C 
HETATM   16  C   UNL     1     -34.665 -56.593  20.146  1.00  0.00     0.128 C 
HETATM   17  N   UNL     1     -33.798 -56.718  19.000  1.00  0.00    -0.355 N 
HETATM   18  C   UNL     1     -32.539 -56.012  18.944  1.00  0.00     0.152 C 
HETATM   19  C   UNL     1     -34.531 -56.938  17.832  1.00  0.00     0.242 C 
HETATM   20  O   UNL     1     -34.110 -56.829  16.687  1.00  0.00    -0.271 OA
ENDBRANCH  10  14
ENDBRANCH   1   8
BRANCH   4  21
HETATM   21  N   UNL     1     -43.320 -53.437  14.772  1.00  0.00    -0.363 N 
HETATM   22  C   UNL     1     -44.479 -54.261  15.139  1.00  0.00     0.150 C 
HETATM   23  C   UNL     1     -44.995 -55.045  13.922  1.00  0.00     0.187 C 
HETATM   24  O   UNL     1     -45.280 -54.178  12.816  1.00  0.00    -0.388 OA
HETATM   25  C   UNL     1     -44.082 -53.486  12.415  1.00  0.00     0.187 C 
HETATM   26  C   UNL     1     -43.517 -52.629  13.557  1.00  0.00     0.150 C 
ENDBRANCH   4  21
TORSDOF 3
ENDMDL
MODEL 9
REMARK VINA RESULT:      -5.5      4.361      5.940
REMARK  3 active torsions:
REMARK  status: ('A' for Active; 'I' for Inactive)
REMARK    1  A    between atoms: C_5  and  N_6 
REMARK       I    between atoms: N_6  and  C_7 
REMARK       I    between atoms: C_7  and  N_9 
REMARK    2  A    between atoms: N_9  and  C_10 
REMARK    3  A    between atoms: C_13  and  N_17 
ROOT
HETATM    1  C   UNL     1     -41.304 -46.940  11.208  1.00  0.00     0.051 A 
HETATM    2  C   UNL     1     -40.059 -47.237  11.731  1.00  0.00     0.035 A 
HETATM    3  C   UNL     1     -39.730 -48.570  11.983  1.00  0.00     0.051 A 
HETATM    4  C   UNL     1     -40.603 -49.606  11.643  1.00  0.00     0.103 A 
HETATM    5  N   UNL     1     -41.808 -49.312  11.105  1.00  0.00    -0.350 N 
ATOM      6  HN  UNL     1     -42.454 -50.056  10.843  1.00  0.00     0.166 HD
HETATM    7  C   UNL     1     -42.144 -48.007  10.921  1.00  0.00     0.119 A 
ENDROOT
BRANCH   1   8
HETATM    8  N   UNL     1     -41.642 -45.592  10.994  1.00  0.00    -0.308 N 
HETATM    9  C   UNL     1     -42.344 -44.858  11.924  1.00  0.00     0.321 C 
HETATM   10  N   UNL     1     -42.637 -43.604  11.458  1.00  0.00    -0.330 N 
HETATM   11  O   UNL     1     -42.662 -45.253  13.036  1.00  0.00    -0.247 OA
HETATM   12  H   UNL     1     -42.221 -43.308  10.587  1.00  0.00     0.165 HD
HETATM   13  H   UNL     1     -41.000 -45.050  10.433  1.00  0.00     0.170 HD
BRANCH  10  14
HETATM   14  C   UNL     1     -43.124 -42.543  12.329  1.00  0.00     0.180 C 
HETATM   15  C   UNL     1     -43.910 -41.428  11.635  1.00  0.00     0.054 C 
HETATM   16  C   UNL     1     -42.853 -40.425  11.222  1.00  0.00     0.128 C 
HETATM   17  N   UNL     1     -41.798 -40.580  12.192  1.00  0.00    -0.355 N 
HETATM   18  C   UNL     1     -40.518 -39.936  12.003  1.00  0.00     0.152 C 
HETATM   19  C   UNL     1     -41.871 -41.823  12.825  1.00  0.00     0.242 C 
HETATM   20  O   UNL     1     -40.985 -42.343  13.493  1.00  0.00    -0.271 OA
ENDBRANCH  10  14
ENDBRANCH   1   8
BRANCH   4  21
HETATM   21  N   UNL     1     -40.283 -50.924  11.899  1.00  0.00    -0.363 N 
HETATM   22  C   UNL     1     -41.279 -52.003  11.887  1.00  0.00     0.150 C 
HETATM   23  C   UNL     1     -41.507 -52.547  13.305  1.00  0.00     0.187 C 
HETATM   24  O   UNL     1     -40.278 -52.957  13.919  1.00  0.00    -0.388 OA
HETATM   25  C   UNL     1     -39.383 -51.834  14.020  1.00  0.00     0.187 C 
HETATM   26  C   UNL     1     -39.052 -51.249  12.639  1.00  0.00     0.150 C 
ENDBRANCH   4  21
TORSDOF 3
ENDMDL
