MODEL 1
REMARK VINA RESULT:      -5.7      0.000      0.000
REMARK  7 active torsions:
REMARK  status: ('A' for Active; 'I' for Inactive)
REMARK    1  A    between atoms: C_2  and  C_3 
REMARK    2  A    between atoms: C_2  and  N_10 
REMARK    3  A    between atoms: C_3  and  N_4 
REMARK    4  A    between atoms: N_10  and  C_11 
REMARK    5  A    between atoms: C_11  and  C_12 
REMARK    6  A    between atoms: C_12  and  O_13 
REMARK    7  A    between atoms: O_13  and  C_14 
ROOT
HETATM    1  N   UNL     1     -41.155 -51.647  11.511  1.00  0.00     0.091 N 
HETATM    2  H   UNL     1     -40.492 -52.361  11.205  1.00  0.00     0.316 HD
ENDROOT
BRANCH   1   3
HETATM    3  C   UNL     1     -40.460 -50.633  12.323  1.00  0.00     0.236 C 
HETATM    4  C   UNL     1     -39.144 -51.175  12.898  1.00  0.00     0.044 C 
BRANCH   3   5
HETATM    5  C   UNL     1     -40.163 -49.385  11.467  1.00  0.00     0.183 C 
BRANCH   5   6
HETATM    6  N   UNL     1     -41.359 -48.652  11.102  1.00  0.00    -0.302 N 
HETATM    7  C   UNL     1     -42.290 -48.133  11.955  1.00  0.00     0.111 A 
HETATM    8  C   UNL     1     -43.237 -47.529  11.162  1.00  0.00     0.037 A 
HETATM    9  C   UNL     1     -42.794 -47.757   9.849  1.00  0.00     0.108 A 
HETATM   10  N   UNL     1     -41.660 -48.456   9.801  1.00  0.00    -0.310 N 
ATOM     11  HN  UNL     1     -41.145 -48.768   8.978  1.00  0.00     0.186 HD
ENDBRANCH   5   6
ENDBRANCH   3   5
ENDBRANCH   1   3
BRANCH   1  12
HETATM   12  C   UNL     1     -42.261 -52.325  12.179  1.00  0.00     0.296 C 
BRANCH  12  13
HETATM   13  C   UNL     1     -43.165 -51.504  13.118  1.00  0.00     0.198 C 
BRANCH  13  14
HETATM   14  O   UNL     1     -44.019 -52.495  13.654  1.00  0.00    -0.384 OA
BRANCH  14  15
HETATM   15  C   UNL     1     -45.207 -52.902  12.995  1.00  0.00     0.125 C 
HETATM   16  C   UNL     1     -46.300 -51.835  12.901  1.00  0.00     0.032 C 
HETATM   17  C   UNL     1     -46.687 -51.272  14.268  1.00  0.00     0.002 C 
HETATM   18  C   UNL     1     -47.021 -52.365  15.283  1.00  0.00     0.001 C 
HETATM   19  C   UNL     1     -46.016 -53.517  15.304  1.00  0.00     0.007 C 
HETATM   20  C   UNL     1     -45.718 -54.059  13.888  1.00  0.00     0.010 C 
HETATM   21  C   UNL     1     -44.686 -55.192  13.969  1.00  0.00     0.012 C 
ENDBRANCH  14  15
ENDBRANCH  13  14
ENDBRANCH  12  13
ENDBRANCH   1  12
TORSDOF 7
ENDMDL
MODEL 2
REMARK VINA RESULT:      -5.7      1.217      1.594
REMARK  7 active torsions:
REMARK  status: ('A' for Active; 'I' for Inactive)
REMARK    1  A    between atoms: C_2  and  C_3 
REMARK    2  A    between atoms: C_2  and  N_10 
REMARK    3  A    between atoms: C_3  and  N_4 
REMARK    4  A    between atoms: N_10  and  C_11 
REMARK    5  A    between atoms: C_11  and  C_12 
REMARK    6  A    between atoms: C_12  and  O_13 
REMARK    7  A    between atoms: O_13  and  C_14 
ROOT
HETATM    1  N   UNL     1     -41.947 -50.088  11.673  1.00  0.00     0.091 N 
HETATM    2  H   UNL     1     -41.087 -50.623  11.539  1.00  0.00     0.316 HD
ENDROOT
BRANCH   1   3
HETATM    3  C   UNL     1     -41.622 -48.671  11.916  1.00  0.00     0.236 C 
HETATM    4  C   UNL     1     -40.341 -48.520  12.748  1.00  0.00     0.044 C 
BRANCH   3   5
HETATM    5  C   UNL     1     -41.442 -47.934  10.572  1.00  0.00     0.183 C 
BRANCH   5   6
HETATM    6  N   UNL     1     -42.690 -47.753   9.856  1.00  0.00    -0.302 N 
HETATM    7  C   UNL     1     -43.907 -47.459  10.400  1.00  0.00     0.111 A 
HETATM    8  C   UNL     1     -44.786 -47.381   9.345  1.00  0.00     0.037 A 
HETATM    9  C   UNL     1     -44.003 -47.662   8.213  1.00  0.00     0.108 A 
HETATM   10  N   UNL     1     -42.728 -47.908   8.516  1.00  0.00    -0.310 N 
ATOM     11  HN  UNL     1     -41.965 -48.154   7.885  1.00  0.00     0.186 HD
ENDBRANCH   5   6
ENDBRANCH   3   5
ENDBRANCH   1   3
BRANCH   1  12
HETATM   12  C   UNL     1     -42.716 -50.737  12.730  1.00  0.00     0.296 C 
BRANCH  12  13
HETATM   13  C   UNL     1     -42.868 -52.270  12.691  1.00  0.00     0.198 C 
BRANCH  13  14
HETATM   14  O   UNL     1     -44.038 -52.473  13.456  1.00  0.00    -0.384 OA
BRANCH  14  15
HETATM   15  C   UNL     1     -45.223 -53.012  12.892  1.00  0.00     0.125 C 
HETATM   16  C   UNL     1     -46.375 -52.018  12.720  1.00  0.00     0.032 C 
HETATM   17  C   UNL     1     -46.748 -51.322  14.028  1.00  0.00     0.002 C 
HETATM   18  C   UNL     1     -46.990 -52.307  15.172  1.00  0.00     0.001 C 
HETATM   19  C   UNL     1     -45.925 -53.397  15.285  1.00  0.00     0.007 C 
HETATM   20  C   UNL     1     -45.643 -54.083  13.928  1.00  0.00     0.010 C 
HETATM   21  C   UNL     1     -44.550 -55.146  14.097  1.00  0.00     0.012 C 
ENDBRANCH  14  15
ENDBRANCH  13  14
ENDBRANCH  12  13
ENDBRANCH   1  12
TORSDOF 7
ENDMDL
MODEL 3
REMARK VINA RESULT:      -5.3      1.785      2.839
REMARK  7 active torsions:
REMARK  status: ('A' for Active; 'I' for Inactive)
REMARK    1  A    between atoms: C_2  and  C_3 
REMARK    2  A    between atoms: C_2  and  N_10 
REMARK    3  A    between atoms: C_3  and  N_4 
REMARK    4  A    between atoms: N_10  and  C_11 
REMARK    5  A    between atoms: C_11  and  C_12 
REMARK    6  A    between atoms: C_12  and  O_13 
REMARK    7  A    between atoms: O_13  and  C_14 
ROOT
HETATM    1  N   UNL     1     -40.877 -49.520  10.851  1.00  0.00     0.091 N 
HETATM    2  H   UNL     1     -39.977 -49.648  10.384  1.00  0.00     0.316 HD
ENDROOT
BRANCH   1   3
HETATM    3  C   UNL     1     -40.923 -48.195  11.494  1.00  0.00     0.236 C 
HETATM    4  C   UNL     1     -39.569 -47.821  12.114  1.00  0.00     0.044 C 
BRANCH   3   5
HETATM    5  C   UNL     1     -41.320 -47.120  10.461  1.00  0.00     0.183 C 
BRANCH   5   6
HETATM    6  N   UNL     1     -42.656 -47.312   9.932  1.00  0.00    -0.302 N 
HETATM    7  C   UNL     1     -43.811 -47.420  10.652  1.00  0.00     0.111 A 
HETATM    8  C   UNL     1     -44.818 -47.589   9.732  1.00  0.00     0.037 A 
HETATM    9  C   UNL     1     -44.164 -47.587   8.489  1.00  0.00     0.108 A 
HETATM   10  N   UNL     1     -42.844 -47.437   8.601  1.00  0.00    -0.310 N 
ATOM     11  HN  UNL     1     -42.145 -47.422   7.859  1.00  0.00     0.186 HD
ENDBRANCH   5   6
ENDBRANCH   3   5
ENDBRANCH   1   3
BRANCH   1  12
HETATM   12  C   UNL     1     -41.079 -50.652  11.749  1.00  0.00     0.296 C 
BRANCH  12  13
HETATM   13  C   UNL     1     -42.248 -50.595  12.750  1.00  0.00     0.198 C 
BRANCH  13  14
HETATM   14  O   UNL     1     -42.248 -51.904  13.284  1.00  0.00    -0.384 OA
BRANCH  14  15
HETATM   15  C   UNL     1     -42.533 -53.042  12.487  1.00  0.00     0.125 C 
HETATM   16  C   UNL     1     -44.017 -53.394  12.356  1.00  0.00     0.032 C 
HETATM   17  C   UNL     1     -44.695 -53.585  13.712  1.00  0.00     0.002 C 
HETATM   18  C   UNL     1     -43.941 -54.558  14.617  1.00  0.00     0.001 C 
HETATM   19  C   UNL     1     -42.432 -54.318  14.662  1.00  0.00     0.007 C 
HETATM   20  C   UNL     1     -41.819 -54.185  13.250  1.00  0.00     0.010 C 
HETATM   21  C   UNL     1     -40.311 -53.919  13.358  1.00  0.00     0.012 C 
ENDBRANCH  14  15
ENDBRANCH  13  14
ENDBRANCH  12  13
ENDBRANCH   1  12
TORSDOF 7
ENDMDL
MODEL 4
REMARK VINA RESULT:      -5.3      1.747      2.792
REMARK  7 active torsions:
REMARK  status: ('A' for Active; 'I' for Inactive)
REMARK    1  A    between atoms: C_2  and  C_3 
REMARK    2  A    between atoms: C_2  and  N_10 
REMARK    3  A    between atoms: C_3  and  N_4 
REMARK    4  A    between atoms: N_10  and  C_11 
REMARK    5  A    between atoms: C_11  and  C_12 
REMARK    6  A    between atoms: C_12  and  O_13 
REMARK    7  A    between atoms: O_13  and  C_14 
ROOT
HETATM    1  N   UNL     1     -42.503 -54.102  12.499  1.00  0.00     0.091 N 
HETATM    2  H   UNL     1     -42.256 -55.054  12.776  1.00  0.00     0.316 HD
ENDROOT
BRANCH   1   3
HETATM    3  C   UNL     1     -41.641 -53.136  13.204  1.00  0.00     0.236 C 
HETATM    4  C   UNL     1     -40.773 -53.825  14.266  1.00  0.00     0.044 C 
BRANCH   3   5
HETATM    5  C   UNL     1     -40.727 -52.410  12.195  1.00  0.00     0.183 C 
BRANCH   5   6
HETATM    6  N   UNL     1     -41.142 -51.046  11.937  1.00  0.00    -0.302 N 
HETATM    7  C   UNL     1     -42.165 -50.375  12.545  1.00  0.00     0.111 A 
HETATM    8  C   UNL     1     -42.184 -49.121  11.983  1.00  0.00     0.037 A 
HETATM    9  C   UNL     1     -41.147 -49.144  11.035  1.00  0.00     0.108 A 
HETATM   10  N   UNL     1     -40.518 -50.318  10.987  1.00  0.00    -0.310 N 
ATOM     11  HN  UNL     1     -39.750 -50.599  10.378  1.00  0.00     0.186 HD
ENDBRANCH   5   6
ENDBRANCH   3   5
ENDBRANCH   1   3
BRANCH   1  12
HETATM   12  C   UNL     1     -43.935 -53.931  12.719  1.00  0.00     0.296 C 
BRANCH  12  13
HETATM   13  C   UNL     1     -44.552 -54.506  14.008  1.00  0.00     0.198 C 
BRANCH  13  14
HETATM   14  O   UNL     1     -45.322 -53.419  14.482  1.00  0.00    -0.384 OA
BRANCH  14  15
HETATM   15  C   UNL     1     -44.836 -52.087  14.461  1.00  0.00     0.125 C 
HETATM   16  C   UNL     1     -44.235 -51.590  15.778  1.00  0.00     0.032 C 
HETATM   17  C   UNL     1     -45.207 -51.720  16.951  1.00  0.00     0.002 C 
HETATM   18  C   UNL     1     -46.571 -51.098  16.658  1.00  0.00     0.001 C 
HETATM   19  C   UNL     1     -47.138 -51.467  15.287  1.00  0.00     0.007 C 
HETATM   20  C   UNL     1     -46.108 -51.260  14.153  1.00  0.00     0.010 C 
HETATM   21  C   UNL     1     -46.721 -51.671  12.808  1.00  0.00     0.012 C 
ENDBRANCH  14  15
ENDBRANCH  13  14
ENDBRANCH  12  13
ENDBRANCH   1  12
TORSDOF 7
ENDMDL
MODEL 5
REMARK VINA RESULT:      -5.3      1.859      3.752
REMARK  7 active torsions:
REMARK  status: ('A' for Active; 'I' for Inactive)
REMARK    1  A    between atoms: C_2  and  C_3 
REMARK    2  A    between atoms: C_2  and  N_10 
REMARK    3  A    between atoms: C_3  and  N_4 
REMARK    4  A    between atoms: N_10  and  C_11 
REMARK    5  A    between atoms: C_11  and  C_12 
REMARK    6  A    between atoms: C_12  and  O_13 
REMARK    7  A    between atoms: O_13  and  C_14 
ROOT
HETATM    1  N   UNL     1     -41.864 -50.163  11.648  1.00  0.00     0.091 N 
HETATM    2  H   UNL     1     -41.068 -50.758  11.885  1.00  0.00     0.316 HD
ENDROOT
BRANCH   1   3
HETATM    3  C   UNL     1     -41.394 -48.953  10.950  1.00  0.00     0.236 C 
HETATM    4  C   UNL     1     -42.522 -47.926  10.779  1.00  0.00     0.044 C 
BRANCH   3   5
HETATM    5  C   UNL     1     -40.235 -48.307  11.737  1.00  0.00     0.183 C 
BRANCH   5   6
HETATM    6  N   UNL     1     -39.141 -49.224  11.986  1.00  0.00    -0.302 N 
HETATM    7  C   UNL     1     -38.681 -49.633  13.206  1.00  0.00     0.111 A 
HETATM    8  C   UNL     1     -37.642 -50.495  12.950  1.00  0.00     0.037 A 
HETATM    9  C   UNL     1     -37.543 -50.522  11.549  1.00  0.00     0.108 A 
HETATM   10  N   UNL     1     -38.440 -49.737  10.953  1.00  0.00    -0.310 N 
ATOM     11  HN  UNL     1     -38.566 -49.565   9.956  1.00  0.00     0.186 HD
ENDBRANCH   5   6
ENDBRANCH   3   5
ENDBRANCH   1   3
BRANCH   1  12
HETATM   12  C   UNL     1     -42.618 -49.919  12.873  1.00  0.00     0.296 C 
BRANCH  12  13
HETATM   13  C   UNL     1     -43.740 -50.904  13.252  1.00  0.00     0.198 C 
BRANCH  13  14
HETATM   14  O   UNL     1     -43.016 -52.080  13.552  1.00  0.00    -0.384 OA
BRANCH  14  15
HETATM   15  C   UNL     1     -43.066 -53.228  12.721  1.00  0.00     0.125 C 
HETATM   16  C   UNL     1     -44.320 -54.091  12.874  1.00  0.00     0.032 C 
HETATM   17  C   UNL     1     -44.548 -54.542  14.317  1.00  0.00     0.002 C 
HETATM   18  C   UNL     1     -43.311 -55.193  14.934  1.00  0.00     0.001 C 
HETATM   19  C   UNL     1     -42.016 -54.422  14.680  1.00  0.00     0.007 C 
HETATM   20  C   UNL     1     -41.839 -54.048  13.191  1.00  0.00     0.010 C 
HETATM   21  C   UNL     1     -40.539 -53.255  13.002  1.00  0.00     0.012 C 
ENDBRANCH  14  15
ENDBRANCH  13  14
ENDBRANCH  12  13
ENDBRANCH   1  12
TORSDOF 7
ENDMDL
MODEL 6
REMARK VINA RESULT:      -5.3      0.871      2.034
REMARK  7 active torsions:
REMARK  status: ('A' for Active; 'I' for Inactive)
REMARK    1  A    between atoms: C_2  and  C_3 
REMARK    2  A    between atoms: C_2  and  N_10 
REMARK    3  A    between atoms: C_3  and  N_4 
REMARK    4  A    between atoms: N_10  and  C_11 
REMARK    5  A    between atoms: C_11  and  C_12 
REMARK    6  A    between atoms: C_12  and  O_13 
REMARK    7  A    between atoms: O_13  and  C_14 
ROOT
HETATM    1  N   UNL     1     -40.814 -51.501  11.499  1.00  0.00     0.091 N 
HETATM    2  H   UNL     1     -40.170 -52.264  11.281  1.00  0.00     0.316 HD
ENDROOT
BRANCH   1   3
HETATM    3  C   UNL     1     -40.115 -50.461  12.273  1.00  0.00     0.236 C 
HETATM    4  C   UNL     1     -38.759 -50.959  12.793  1.00  0.00     0.044 C 
BRANCH   3   5
HETATM    5  C   UNL     1     -39.891 -49.211  11.395  1.00  0.00     0.183 C 
BRANCH   5   6
HETATM    6  N   UNL     1     -41.120 -48.499  11.103  1.00  0.00    -0.302 N 
HETATM    7  C   UNL     1     -41.906 -47.829  11.996  1.00  0.00     0.111 A 
HETATM    8  C   UNL     1     -42.953 -47.315  11.269  1.00  0.00     0.037 A 
HETATM    9  C   UNL     1     -42.715 -47.748   9.954  1.00  0.00     0.108 A 
HETATM   10  N   UNL     1     -41.610 -48.486   9.845  1.00  0.00    -0.310 N 
ATOM     11  HN  UNL     1     -41.228 -48.932   9.012  1.00  0.00     0.186 HD
ENDBRANCH   5   6
ENDBRANCH   3   5
ENDBRANCH   1   3
BRANCH   1  12
HETATM   12  C   UNL     1     -41.983 -52.080  12.153  1.00  0.00     0.296 C 
BRANCH  12  13
HETATM   13  C   UNL     1     -42.872 -51.161  13.014  1.00  0.00     0.198 C 
BRANCH  13  14
HETATM   14  O   UNL     1     -43.953 -52.012  13.340  1.00  0.00    -0.384 OA
BRANCH  14  15
HETATM   15  C   UNL     1     -44.263 -52.355  14.681  1.00  0.00     0.125 C 
HETATM   16  C   UNL     1     -43.510 -53.566  15.236  1.00  0.00     0.032 C 
HETATM   17  C   UNL     1     -43.692 -54.815  14.374  1.00  0.00     0.002 C 
HETATM   18  C   UNL     1     -45.161 -55.122  14.084  1.00  0.00     0.001 C 
HETATM   19  C   UNL     1     -45.975 -53.901  13.657  1.00  0.00     0.007 C 
HETATM   20  C   UNL     1     -45.771 -52.700  14.608  1.00  0.00     0.010 C 
HETATM   21  C   UNL     1     -46.589 -51.499  14.116  1.00  0.00     0.012 C 
ENDBRANCH  14  15
ENDBRANCH  13  14
ENDBRANCH  12  13
ENDBRANCH   1  12
TORSDOF 7
ENDMDL
MODEL 7
REMARK VINA RESULT:      -5.3      1.385      2.579
REMARK  7 active torsions:
REMARK  status: ('A' for Active; 'I' for Inactive)
REMARK    1  A    between atoms: C_2  and  C_3 
REMARK    2  A    between atoms: C_2  and  N_10 
REMARK    3  A    between atoms: C_3  and  N_4 
REMARK    4  A    between atoms: N_10  and  C_11 
REMARK    5  A    between atoms: C_11  and  C_12 
REMARK    6  A    between atoms: C_12  and  O_13 
REMARK    7  A    between atoms: O_13  and  C_14 
ROOT
HETATM    1  N   UNL     1     -41.804 -50.576  11.748  1.00  0.00     0.091 N 
HETATM    2  H   UNL     1     -40.801 -50.711  11.884  1.00  0.00     0.316 HD
ENDROOT
BRANCH   1   3
HETATM    3  C   UNL     1     -42.108 -49.137  11.648  1.00  0.00     0.236 C 
HETATM    4  C   UNL     1     -42.639 -48.579  12.976  1.00  0.00     0.044 C 
BRANCH   3   5
HETATM    5  C   UNL     1     -40.840 -48.358  11.241  1.00  0.00     0.183 C 
BRANCH   5   6
HETATM    6  N   UNL     1     -39.618 -48.980  11.712  1.00  0.00    -0.302 N 
HETATM    7  C   UNL     1     -39.067 -48.857  12.956  1.00  0.00     0.111 A 
HETATM    8  C   UNL     1     -37.924 -49.620  12.942  1.00  0.00     0.037 A 
HETATM    9  C   UNL     1     -37.866 -50.144  11.640  1.00  0.00     0.108 A 
HETATM   10  N   UNL     1     -38.885 -49.746  10.877  1.00  0.00    -0.310 N 
ATOM     11  HN  UNL     1     -39.065 -49.967   9.898  1.00  0.00     0.186 HD
ENDBRANCH   5   6
ENDBRANCH   3   5
ENDBRANCH   1   3
BRANCH   1  12
HETATM   12  C   UNL     1     -42.497 -51.283  12.819  1.00  0.00     0.296 C 
BRANCH  12  13
HETATM   13  C   UNL     1     -43.061 -52.687  12.527  1.00  0.00     0.198 C 
BRANCH  13  14
HETATM   14  O   UNL     1     -44.187 -52.740  13.379  1.00  0.00    -0.384 OA
BRANCH  14  15
HETATM   15  C   UNL     1     -45.486 -53.037  12.893  1.00  0.00     0.125 C 
HETATM   16  C   UNL     1     -46.464 -51.860  12.882  1.00  0.00     0.032 C 
HETATM   17  C   UNL     1     -46.612 -51.208  14.256  1.00  0.00     0.002 C 
HETATM   18  C   UNL     1     -46.925 -52.219  15.358  1.00  0.00     0.001 C 
HETATM   19  C   UNL     1     -46.053 -53.473  15.313  1.00  0.00     0.007 C 
HETATM   20  C   UNL     1     -45.997 -54.097  13.900  1.00  0.00     0.010 C 
HETATM   21  C   UNL     1     -45.089 -55.333  13.910  1.00  0.00     0.012 C 
ENDBRANCH  14  15
ENDBRANCH  13  14
ENDBRANCH  12  13
ENDBRANCH   1  12
TORSDOF 7
ENDMDL
MODEL 8
REMARK VINA RESULT:      -5.2      2.331      3.573
REMARK  7 active torsions:
REMARK  status: ('A' for Active; 'I' for Inactive)
REMARK    1  A    between atoms: C_2  and  C_3 
REMARK    2  A    between atoms: C_2  and  N_10 
REMARK    3  A    between atoms: C_3  and  N_4 
REMARK    4  A    between atoms: N_10  and  C_11 
REMARK    5  A    between atoms: C_11  and  C_12 
REMARK    6  A    between atoms: C_12  and  O_13 
REMARK    7  A    between atoms: O_13  and  C_14 
ROOT
HETATM    1  N   UNL     1     -42.119 -52.240  14.323  1.00  0.00     0.091 N 
HETATM    2  H   UNL     1     -42.969 -52.187  13.759  1.00  0.00     0.316 HD
ENDROOT
BRANCH   1   3
HETATM    3  C   UNL     1     -40.970 -52.588  13.468  1.00  0.00     0.236 C 
HETATM    4  C   UNL     1     -41.087 -54.017  12.920  1.00  0.00     0.044 C 
BRANCH   3   5
HETATM    5  C   UNL     1     -40.873 -51.599  12.287  1.00  0.00     0.183 C 
BRANCH   5   6
HETATM    6  N   UNL     1     -39.563 -50.991  12.166  1.00  0.00    -0.302 N 
HETATM    7  C   UNL     1     -38.493 -51.187  12.991  1.00  0.00     0.111 A 
HETATM    8  C   UNL     1     -37.477 -50.410  12.487  1.00  0.00     0.037 A 
HETATM    9  C   UNL     1     -38.043 -49.772  11.371  1.00  0.00     0.108 A 
HETATM   10  N   UNL     1     -39.319 -50.105  11.177  1.00  0.00    -0.310 N 
ATOM     11  HN  UNL     1     -39.957 -49.770  10.455  1.00  0.00     0.186 HD
ENDBRANCH   5   6
ENDBRANCH   3   5
ENDBRANCH   1   3
BRANCH   1  12
HETATM   12  C   UNL     1     -42.373 -53.162  15.425  1.00  0.00     0.296 C 
BRANCH  12  13
HETATM   13  C   UNL     1     -43.590 -52.901  16.334  1.00  0.00     0.198 C 
BRANCH  13  14
HETATM   14  O   UNL     1     -44.588 -52.544  15.400  1.00  0.00    -0.384 OA
BRANCH  14  15
HETATM   15  C   UNL     1     -45.640 -53.428  15.046  1.00  0.00     0.125 C 
HETATM   16  C   UNL     1     -45.401 -54.254  13.779  1.00  0.00     0.032 C 
HETATM   17  C   UNL     1     -45.087 -53.383  12.563  1.00  0.00     0.002 C 
HETATM   18  C   UNL     1     -46.115 -52.271  12.353  1.00  0.00     0.001 C 
HETATM   19  C   UNL     1     -46.478 -51.515  13.631  1.00  0.00     0.007 C 
HETATM   20  C   UNL     1     -46.828 -52.468  14.795  1.00  0.00     0.010 C 
HETATM   21  C   UNL     1     -47.157 -51.656  16.055  1.00  0.00     0.012 C 
ENDBRANCH  14  15
ENDBRANCH  13  14
ENDBRANCH  12  13
ENDBRANCH   1  12
TORSDOF 7
ENDMDL
MODEL 9
REMARK VINA RESULT:      -5.2      1.535      2.747
REMARK  7 active torsions:
REMARK  status: ('A' for Active; 'I' for Inactive)
REMARK    1  A    between atoms: C_2  and  C_3 
REMARK    2  A    between atoms: C_2  and  N_10 
REMARK    3  A    between atoms: C_3  and  N_4 
REMARK    4  A    between atoms: N_10  and  C_11 
REMARK    5  A    between atoms: C_11  and  C_12 
REMARK    6  A    between atoms: C_12  and  O_13 
REMARK    7  A    between atoms: O_13  and  C_14 
ROOT
HETATM    1  N   UNL     1     -42.001 -49.855  11.414  1.00  0.00     0.091 N 
HETATM    2  H   UNL     1     -41.360 -50.168  10.682  1.00  0.00     0.316 HD
ENDROOT
BRANCH   1   3
HETATM    3  C   UNL     1     -41.680 -48.471  11.804  1.00  0.00     0.236 C 
HETATM    4  C   UNL     1     -40.356 -48.395  12.578  1.00  0.00     0.044 C 
BRANCH   3   5
HETATM    5  C   UNL     1     -41.585 -47.578  10.549  1.00  0.00     0.183 C 
BRANCH   5   6
HETATM    6  N   UNL     1     -42.798 -47.586   9.757  1.00  0.00    -0.302 N 
HETATM    7  C   UNL     1     -44.060 -47.300  10.194  1.00  0.00     0.111 A 
HETATM    8  C   UNL     1     -44.881 -47.434   9.100  1.00  0.00     0.037 A 
HETATM    9  C   UNL     1     -44.020 -47.821   8.059  1.00  0.00     0.108 A 
HETATM   10  N   UNL     1     -42.752 -47.935   8.454  1.00  0.00    -0.310 N 
ATOM     11  HN  UNL     1     -41.942 -48.217   7.902  1.00  0.00     0.186 HD
ENDBRANCH   5   6
ENDBRANCH   3   5
ENDBRANCH   1   3
BRANCH   1  12
HETATM   12  C   UNL     1     -41.951 -50.832  12.497  1.00  0.00     0.296 C 
BRANCH  12  13
HETATM   13  C   UNL     1     -41.847 -52.326  12.133  1.00  0.00     0.198 C 
BRANCH  13  14
HETATM   14  O   UNL     1     -43.083 -52.833  12.594  1.00  0.00    -0.384 OA
BRANCH  14  15
HETATM   15  C   UNL     1     -43.580 -52.542  13.890  1.00  0.00     0.125 C 
HETATM   16  C   UNL     1     -42.945 -53.346  15.028  1.00  0.00     0.032 C 
HETATM   17  C   UNL     1     -43.050 -54.855  14.808  1.00  0.00     0.002 C 
HETATM   18  C   UNL     1     -44.476 -55.308  14.496  1.00  0.00     0.001 C 
HETATM   19  C   UNL     1     -45.187 -54.439  13.459  1.00  0.00     0.007 C 
HETATM   20  C   UNL     1     -45.075 -52.932  13.782  1.00  0.00     0.010 C 
HETATM   21  C   UNL     1     -45.782 -52.110  12.696  1.00  0.00     0.012 C 
ENDBRANCH  14  15
ENDBRANCH  13  14
ENDBRANCH  12  13
ENDBRANCH   1  12
TORSDOF 7
ENDMDL
