MODEL 1
REMARK VINA RESULT:      -5.4      0.000      0.000
REMARK  3 active torsions:
REMARK  status: ('A' for Active; 'I' for Inactive)
REMARK    1  A    between atoms: C_5  and  C_6 
REMARK    2  A    between atoms: C_6  and  C_7 
REMARK       I    between atoms: C_7  and  N_9 
REMARK    3  A    between atoms: N_9  and  C_10 
ROOT
HETATM    1  C   UNL     1     -42.872 -49.100  12.486  1.00  0.00     0.223 C 
HETATM    2  O   UNL     1     -43.234 -48.322  13.367  1.00  0.00    -0.273 OA
HETATM    3  N   UNL     1     -43.141 -50.456  12.509  1.00  0.00    -0.356 N 
HETATM    4  H   UNL     1     -42.583 -51.031  11.882  1.00  0.00     0.162 HD
ENDROOT
BRANCH   1   5
HETATM    5  C   UNL     1     -42.135 -48.621  11.253  1.00  0.00     0.160 C 
BRANCH   5   6
HETATM    6  C   UNL     1     -42.997 -47.751  10.403  1.00  0.00     0.025 A 
HETATM    7  N   UNL     1     -44.336 -48.086  10.246  1.00  0.00    -0.357 N 
HETATM    8  C   UNL     1     -44.945 -47.175   9.516  1.00  0.00     0.047 A 
ATOM      9  HN  UNL     1     -44.781 -48.914  10.638  1.00  0.00     0.166 HD
HETATM   10  C   UNL     1     -46.395 -47.187   9.186  1.00  0.00     0.076 C 
HETATM   11  S   UNL     1     -43.946 -45.905   8.934  1.00  0.00    -0.087 SA
HETATM   12  C   UNL     1     -42.609 -46.599   9.744  1.00  0.00     0.077 A 
ENDBRANCH   5   6
ENDBRANCH   1   5
BRANCH   3  13
HETATM   13  C   UNL     1     -43.750 -51.084  13.675  1.00  0.00     0.084 C 
HETATM   14  C   UNL     1     -42.978 -52.344  14.090  1.00  0.00     0.025 C 
HETATM   15  C   UNL     1     -43.190 -53.498  13.112  1.00  0.00     0.002 C 
HETATM   16  C   UNL     1     -44.672 -53.817  12.950  1.00  0.00     0.000 C 
HETATM   17  C   UNL     1     -45.468 -52.591  12.516  1.00  0.00     0.002 C 
HETATM   18  C   UNL     1     -45.234 -51.394  13.436  1.00  0.00     0.025 C 
ENDBRANCH   3  13
TORSDOF 3
ENDMDL
MODEL 2
REMARK VINA RESULT:      -5.4      1.375      2.053
REMARK  3 active torsions:
REMARK  status: ('A' for Active; 'I' for Inactive)
REMARK    1  A    between atoms: C_5  and  C_6 
REMARK    2  A    between atoms: C_6  and  C_7 
REMARK       I    between atoms: C_7  and  N_9 
REMARK    3  A    between atoms: N_9  and  C_10 
ROOT
HETATM    1  C   UNL     1     -42.745 -49.641  12.570  1.00  0.00     0.223 C 
HETATM    2  O   UNL     1     -41.956 -50.459  12.101  1.00  0.00    -0.273 OA
HETATM    3  N   UNL     1     -43.729 -49.969  13.485  1.00  0.00    -0.356 N 
HETATM    4  H   UNL     1     -44.473 -49.286  13.601  1.00  0.00     0.162 HD
ENDROOT
BRANCH   1   5
HETATM    5  C   UNL     1     -42.671 -48.170  12.220  1.00  0.00     0.160 C 
BRANCH   5   6
HETATM    6  C   UNL     1     -43.240 -47.899  10.869  1.00  0.00     0.025 A 
HETATM    7  N   UNL     1     -44.618 -47.784  10.735  1.00  0.00    -0.357 N 
HETATM    8  C   UNL     1     -44.925 -47.487   9.490  1.00  0.00     0.047 A 
ATOM      9  HN  UNL     1     -45.291 -47.911  11.489  1.00  0.00     0.166 HD
HETATM   10  C   UNL     1     -46.307 -47.242   8.996  1.00  0.00     0.076 C 
HETATM   11  S   UNL     1     -43.599 -47.382   8.404  1.00  0.00    -0.087 SA
HETATM   12  C   UNL     1     -42.529 -47.723   9.696  1.00  0.00     0.077 A 
ENDBRANCH   5   6
ENDBRANCH   1   5
BRANCH   3  13
HETATM   13  C   UNL     1     -43.993 -51.358  13.842  1.00  0.00     0.084 C 
HETATM   14  C   UNL     1     -45.114 -51.947  12.974  1.00  0.00     0.025 C 
HETATM   15  C   UNL     1     -46.485 -51.384  13.344  1.00  0.00     0.002 C 
HETATM   16  C   UNL     1     -46.791 -51.604  14.821  1.00  0.00     0.000 C 
HETATM   17  C   UNL     1     -45.707 -51.010  15.715  1.00  0.00     0.002 C 
HETATM   18  C   UNL     1     -44.311 -51.503  15.336  1.00  0.00     0.025 C 
ENDBRANCH   3  13
TORSDOF 3
ENDMDL
MODEL 3
REMARK VINA RESULT:      -5.3      3.479      4.787
REMARK  3 active torsions:
REMARK  status: ('A' for Active; 'I' for Inactive)
REMARK    1  A    between atoms: C_5  and  C_6 
REMARK    2  A    between atoms: C_6  and  C_7 
REMARK       I    between atoms: C_7  and  N_9 
REMARK    3  A    between atoms: N_9  and  C_10 
ROOT
HETATM    1  C   UNL     1     -42.225 -51.148  12.442  1.00  0.00     0.223 C 
HETATM    2  O   UNL     1     -41.509 -52.142  12.543  1.00  0.00    -0.273 OA
HETATM    3  N   UNL     1     -43.527 -51.096  12.902  1.00  0.00    -0.356 N 
HETATM    4  H   UNL     1     -44.097 -50.336  12.539  1.00  0.00     0.162 HD
ENDROOT
BRANCH   1   5
HETATM    5  C   UNL     1     -41.713 -49.855  11.841  1.00  0.00     0.160 C 
BRANCH   5   6
HETATM    6  C   UNL     1     -40.250 -49.685  12.071  1.00  0.00     0.025 A 
HETATM    7  N   UNL     1     -39.365 -50.114  11.089  1.00  0.00    -0.357 N 
HETATM    8  C   UNL     1     -38.130 -49.828  11.441  1.00  0.00     0.047 A 
ATOM      9  HN  UNL     1     -39.634 -50.581  10.224  1.00  0.00     0.166 HD
HETATM   10  C   UNL     1     -36.929 -50.101  10.608  1.00  0.00     0.076 C 
HETATM   11  S   UNL     1     -37.951 -49.086  12.980  1.00  0.00    -0.087 SA
HETATM   12  C   UNL     1     -39.651 -49.113  13.178  1.00  0.00     0.077 A 
ENDBRANCH   5   6
ENDBRANCH   1   5
BRANCH   3  13
HETATM   13  C   UNL     1     -44.195 -52.288  13.410  1.00  0.00     0.084 C 
HETATM   14  C   UNL     1     -45.495 -52.563  12.641  1.00  0.00     0.025 C 
HETATM   15  C   UNL     1     -46.593 -51.559  12.988  1.00  0.00     0.002 C 
HETATM   16  C   UNL     1     -46.862 -51.536  14.489  1.00  0.00     0.000 C 
HETATM   17  C   UNL     1     -45.594 -51.243  15.285  1.00  0.00     0.002 C 
HETATM   18  C   UNL     1     -44.451 -52.189  14.919  1.00  0.00     0.025 C 
ENDBRANCH   3  13
TORSDOF 3
ENDMDL
MODEL 4
REMARK VINA RESULT:      -5.2      2.306      3.319
REMARK  3 active torsions:
REMARK  status: ('A' for Active; 'I' for Inactive)
REMARK    1  A    between atoms: C_5  and  C_6 
REMARK    2  A    between atoms: C_6  and  C_7 
REMARK       I    between atoms: C_7  and  N_9 
REMARK    3  A    between atoms: N_9  and  C_10 
ROOT
HETATM    1  C   UNL     1     -42.520 -51.709  12.768  1.00  0.00     0.223 C 
HETATM    2  O   UNL     1     -42.241 -52.474  11.846  1.00  0.00    -0.273 OA
HETATM    3  N   UNL     1     -43.746 -51.701  13.406  1.00  0.00    -0.356 N 
HETATM    4  H   UNL     1     -43.955 -50.874  13.960  1.00  0.00     0.162 HD
ENDROOT
BRANCH   1   5
HETATM    5  C   UNL     1     -41.509 -50.732  13.327  1.00  0.00     0.160 C 
BRANCH   5   6
HETATM    6  C   UNL     1     -41.343 -49.546  12.438  1.00  0.00     0.025 A 
HETATM    7  N   UNL     1     -42.229 -49.373  11.383  1.00  0.00    -0.357 N 
HETATM    8  C   UNL     1     -41.963 -48.249  10.752  1.00  0.00     0.047 A 
ATOM      9  HN  UNL     1     -42.976 -50.021  11.134  1.00  0.00     0.166 HD
HETATM   10  C   UNL     1     -42.743 -47.721   9.600  1.00  0.00     0.076 C 
HETATM   11  S   UNL     1     -40.614 -47.368  11.346  1.00  0.00    -0.087 SA
HETATM   12  C   UNL     1     -40.387 -48.554  12.559  1.00  0.00     0.077 A 
ENDBRANCH   5   6
ENDBRANCH   1   5
BRANCH   3  13
HETATM   13  C   UNL     1     -44.857 -52.510  12.917  1.00  0.00     0.084 C 
HETATM   14  C   UNL     1     -46.154 -51.692  12.863  1.00  0.00     0.025 C 
HETATM   15  C   UNL     1     -46.715 -51.410  14.255  1.00  0.00     0.002 C 
HETATM   16  C   UNL     1     -46.939 -52.703  15.031  1.00  0.00     0.000 C 
HETATM   17  C   UNL     1     -45.662 -53.533  15.124  1.00  0.00     0.002 C 
HETATM   18  C   UNL     1     -45.035 -53.784  13.753  1.00  0.00     0.025 C 
ENDBRANCH   3  13
TORSDOF 3
ENDMDL
MODEL 5
REMARK VINA RESULT:      -5.1      0.911      1.104
REMARK  3 active torsions:
REMARK  status: ('A' for Active; 'I' for Inactive)
REMARK    1  A    between atoms: C_5  and  C_6 
REMARK    2  A    between atoms: C_6  and  C_7 
REMARK       I    between atoms: C_7  and  N_9 
REMARK    3  A    between atoms: N_9  and  C_10 
ROOT
HETATM    1  C   UNL     1     -42.498 -49.010  11.911  1.00  0.00     0.223 C 
HETATM    2  O   UNL     1     -43.127 -48.335  12.724  1.00  0.00    -0.273 OA
HETATM    3  N   UNL     1     -42.208 -50.349  12.094  1.00  0.00    -0.356 N 
HETATM    4  H   UNL     1     -41.476 -50.731  11.500  1.00  0.00     0.162 HD
ENDROOT
BRANCH   1   5
HETATM    5  C   UNL     1     -42.026 -48.434  10.593  1.00  0.00     0.160 C 
BRANCH   5   6
HETATM    6  C   UNL     1     -43.056 -47.547   9.981  1.00  0.00     0.025 A 
HETATM    7  N   UNL     1     -44.357 -48.018   9.860  1.00  0.00    -0.357 N 
HETATM    8  C   UNL     1     -45.131 -47.080   9.356  1.00  0.00     0.047 A 
ATOM      9  HN  UNL     1     -44.667 -48.953  10.122  1.00  0.00     0.166 HD
HETATM   10  C   UNL     1     -46.594 -47.221   9.133  1.00  0.00     0.076 C 
HETATM   11  S   UNL     1     -44.342 -45.609   8.951  1.00  0.00    -0.087 SA
HETATM   12  C   UNL     1     -42.865 -46.257   9.523  1.00  0.00     0.077 A 
ENDBRANCH   5   6
ENDBRANCH   1   5
BRANCH   3  13
HETATM   13  C   UNL     1     -42.505 -51.019  13.355  1.00  0.00     0.084 C 
HETATM   14  C   UNL     1     -41.391 -52.006  13.731  1.00  0.00     0.025 C 
HETATM   15  C   UNL     1     -41.398 -53.248  12.841  1.00  0.00     0.002 C 
HETATM   16  C   UNL     1     -42.754 -53.944  12.878  1.00  0.00     0.000 C 
HETATM   17  C   UNL     1     -43.884 -52.997  12.487  1.00  0.00     0.002 C 
HETATM   18  C   UNL     1     -43.873 -51.712  13.315  1.00  0.00     0.025 C 
ENDBRANCH   3  13
TORSDOF 3
ENDMDL
MODEL 6
REMARK VINA RESULT:      -5.0      1.862      2.580
REMARK  3 active torsions:
REMARK  status: ('A' for Active; 'I' for Inactive)
REMARK    1  A    between atoms: C_5  and  C_6 
REMARK    2  A    between atoms: C_6  and  C_7 
REMARK       I    between atoms: C_7  and  N_9 
REMARK    3  A    between atoms: N_9  and  C_10 
ROOT
HETATM    1  C   UNL     1     -42.282 -50.644  12.515  1.00  0.00     0.223 C 
HETATM    2  O   UNL     1     -41.325 -50.808  11.760  1.00  0.00    -0.273 OA
HETATM    3  N   UNL     1     -43.057 -51.682  12.999  1.00  0.00    -0.356 N 
HETATM    4  H   UNL     1     -43.958 -51.419  13.392  1.00  0.00     0.162 HD
ENDROOT
BRANCH   1   5
HETATM    5  C   UNL     1     -42.665 -49.274  13.031  1.00  0.00     0.160 C 
BRANCH   5   6
HETATM    6  C   UNL     1     -42.586 -48.242  11.958  1.00  0.00     0.025 A 
HETATM    7  N   UNL     1     -43.080 -48.551  10.696  1.00  0.00    -0.357 N 
HETATM    8  C   UNL     1     -42.979 -47.505   9.905  1.00  0.00     0.047 A 
ATOM      9  HN  UNL     1     -43.464 -49.456  10.424  1.00  0.00     0.166 HD
HETATM   10  C   UNL     1     -43.454 -47.462   8.496  1.00  0.00     0.076 C 
HETATM   11  S   UNL     1     -42.244 -46.118  10.601  1.00  0.00    -0.087 SA
HETATM   12  C   UNL     1     -42.079 -46.962  12.081  1.00  0.00     0.077 A 
ENDBRANCH   5   6
ENDBRANCH   1   5
BRANCH   3  13
HETATM   13  C   UNL     1     -42.879 -53.045  12.515  1.00  0.00     0.084 C 
HETATM   14  C   UNL     1     -44.210 -53.809  12.513  1.00  0.00     0.025 C 
HETATM   15  C   UNL     1     -44.674 -54.161  13.926  1.00  0.00     0.002 C 
HETATM   16  C   UNL     1     -43.610 -54.958  14.672  1.00  0.00     0.000 C 
HETATM   17  C   UNL     1     -42.276 -54.217  14.712  1.00  0.00     0.002 C 
HETATM   18  C   UNL     1     -41.809 -53.793  13.320  1.00  0.00     0.025 C 
ENDBRANCH   3  13
TORSDOF 3
ENDMDL
MODEL 7
REMARK VINA RESULT:      -5.0      4.249      6.455
REMARK  3 active torsions:
REMARK  status: ('A' for Active; 'I' for Inactive)
REMARK    1  A    between atoms: C_5  and  C_6 
REMARK    2  A    between atoms: C_6  and  C_7 
REMARK       I    between atoms: C_7  and  N_9 
REMARK    3  A    between atoms: N_9  and  C_10 
ROOT
HETATM    1  C   UNL     1     -41.218 -52.464  13.711  1.00  0.00     0.223 C 
HETATM    2  O   UNL     1     -41.690 -51.984  14.739  1.00  0.00    -0.273 OA
HETATM    3  N   UNL     1     -40.040 -52.026  13.136  1.00  0.00    -0.356 N 
HETATM    4  H   UNL     1     -39.884 -52.306  12.170  1.00  0.00     0.162 HD
ENDROOT
BRANCH   1   5
HETATM    5  C   UNL     1     -41.872 -53.633  13.004  1.00  0.00     0.160 C 
BRANCH   5   6
HETATM    6  C   UNL     1     -43.349 -53.639  13.204  1.00  0.00     0.025 A 
HETATM    7  N   UNL     1     -44.115 -52.677  12.557  1.00  0.00    -0.357 N 
HETATM    8  C   UNL     1     -45.392 -52.877  12.805  1.00  0.00     0.047 A 
ATOM      9  HN  UNL     1     -43.742 -51.927  11.975  1.00  0.00     0.166 HD
HETATM   10  C   UNL     1     -46.501 -52.066  12.236  1.00  0.00     0.076 C 
HETATM   11  S   UNL     1     -45.744 -54.183  13.863  1.00  0.00    -0.087 SA
HETATM   12  C   UNL     1     -44.072 -54.533  13.971  1.00  0.00     0.077 A 
ENDBRANCH   5   6
ENDBRANCH   1   5
BRANCH   3  13
HETATM   13  C   UNL     1     -39.349 -50.844  13.639  1.00  0.00     0.084 C 
HETATM   14  C   UNL     1     -39.748 -49.592  12.845  1.00  0.00     0.025 C 
HETATM   15  C   UNL     1     -39.149 -49.587  11.439  1.00  0.00     0.002 C 
HETATM   16  C   UNL     1     -37.630 -49.720  11.488  1.00  0.00     0.000 C 
HETATM   17  C   UNL     1     -37.199 -50.968  12.252  1.00  0.00     0.002 C 
HETATM   18  C   UNL     1     -37.828 -51.041  13.642  1.00  0.00     0.025 C 
ENDBRANCH   3  13
TORSDOF 3
ENDMDL
MODEL 8
REMARK VINA RESULT:      -5.0      3.446      4.570
REMARK  3 active torsions:
REMARK  status: ('A' for Active; 'I' for Inactive)
REMARK    1  A    between atoms: C_5  and  C_6 
REMARK    2  A    between atoms: C_6  and  C_7 
REMARK       I    between atoms: C_7  and  N_9 
REMARK    3  A    between atoms: N_9  and  C_10 
ROOT
HETATM    1  C   UNL     1     -41.911 -53.697  13.438  1.00  0.00     0.223 C 
HETATM    2  O   UNL     1     -41.639 -54.492  14.334  1.00  0.00    -0.273 OA
HETATM    3  N   UNL     1     -43.142 -53.081  13.311  1.00  0.00    -0.356 N 
HETATM    4  H   UNL     1     -43.337 -52.657  12.408  1.00  0.00     0.162 HD
ENDROOT
BRANCH   1   5
HETATM    5  C   UNL     1     -40.883 -53.274  12.409  1.00  0.00     0.160 C 
BRANCH   5   6
HETATM    6  C   UNL     1     -40.642 -51.803  12.446  1.00  0.00     0.025 A 
HETATM    7  N   UNL     1     -41.084 -51.026  11.383  1.00  0.00    -0.357 N 
HETATM    8  C   UNL     1     -40.837 -49.756  11.620  1.00  0.00     0.047 A 
ATOM      9  HN  UNL     1     -41.535 -51.388  10.542  1.00  0.00     0.166 HD
HETATM   10  C   UNL     1     -41.218 -48.637  10.718  1.00  0.00     0.076 C 
HETATM   11  S   UNL     1     -40.018 -49.424  13.093  1.00  0.00    -0.087 SA
HETATM   12  C   UNL     1     -40.025 -51.096  13.461  1.00  0.00     0.077 A 
ENDBRANCH   5   6
ENDBRANCH   1   5
BRANCH   3  13
HETATM   13  C   UNL     1     -44.265 -53.460  14.161  1.00  0.00     0.084 C 
HETATM   14  C   UNL     1     -45.514 -53.763  13.322  1.00  0.00     0.025 C 
HETATM   15  C   UNL     1     -46.133 -52.497  12.732  1.00  0.00     0.002 C 
HETATM   16  C   UNL     1     -46.463 -51.485  13.824  1.00  0.00     0.000 C 
HETATM   17  C   UNL     1     -45.236 -51.143  14.665  1.00  0.00     0.002 C 
HETATM   18  C   UNL     1     -44.552 -52.391  15.223  1.00  0.00     0.025 C 
ENDBRANCH   3  13
TORSDOF 3
ENDMDL
MODEL 9
REMARK VINA RESULT:      -4.7      2.080      2.597
REMARK  3 active torsions:
REMARK  status: ('A' for Active; 'I' for Inactive)
REMARK    1  A    between atoms: C_5  and  C_6 
REMARK    2  A    between atoms: C_6  and  C_7 
REMARK       I    between atoms: C_7  and  N_9 
REMARK    3  A    between atoms: N_9  and  C_10 
ROOT
HETATM    1  C   UNL     1     -43.147 -48.909  12.575  1.00  0.00     0.223 C 
HETATM    2  O   UNL     1     -42.728 -48.417  13.621  1.00  0.00    -0.273 OA
HETATM    3  N   UNL     1     -43.714 -50.167  12.497  1.00  0.00    -0.356 N 
HETATM    4  H   UNL     1     -43.782 -50.568  11.565  1.00  0.00     0.162 HD
ENDROOT
BRANCH   1   5
HETATM    5  C   UNL     1     -43.125 -48.142  11.269  1.00  0.00     0.160 C 
BRANCH   5   6
HETATM    6  C   UNL     1     -42.427 -46.833  11.413  1.00  0.00     0.025 A 
HETATM    7  N   UNL     1     -43.056 -45.815  12.119  1.00  0.00    -0.357 N 
HETATM    8  C   UNL     1     -42.267 -44.763  12.191  1.00  0.00     0.047 A 
ATOM      9  HN  UNL     1     -43.990 -45.873  12.522  1.00  0.00     0.166 HD
HETATM   10  C   UNL     1     -42.598 -43.507  12.914  1.00  0.00     0.076 C 
HETATM   11  S   UNL     1     -40.761 -44.911  11.377  1.00  0.00    -0.087 SA
HETATM   12  C   UNL     1     -41.175 -46.509  10.926  1.00  0.00     0.077 A 
ENDBRANCH   5   6
ENDBRANCH   1   5
BRANCH   3  13
HETATM   13  C   UNL     1     -43.713 -51.066  13.645  1.00  0.00     0.084 C 
HETATM   14  C   UNL     1     -43.473 -52.518  13.209  1.00  0.00     0.025 C 
HETATM   15  C   UNL     1     -44.686 -53.112  12.494  1.00  0.00     0.002 C 
HETATM   16  C   UNL     1     -45.936 -53.022  13.363  1.00  0.00     0.000 C 
HETATM   17  C   UNL     1     -46.217 -51.587  13.797  1.00  0.00     0.002 C 
HETATM   18  C   UNL     1     -45.005 -50.936  14.462  1.00  0.00     0.025 C 
ENDBRANCH   3  13
TORSDOF 3
ENDMDL
