MODEL 1
REMARK VINA RESULT:      -5.8      0.000      0.000
REMARK  4 active torsions:
REMARK  status: ('A' for Active; 'I' for Inactive)
REMARK    1  A    between atoms: C_8  and  C_9 
REMARK    2  A    between atoms: C_9  and  C_10 
REMARK    3  A    between atoms: C_10  and  N_11 
REMARK    4  A    between atoms: N_11  and  C_12 
ROOT
HETATM    1  N   UNL     1     -42.791 -51.279  15.120  1.00  0.00     0.089 N 
HETATM    2  H   UNL     1     -42.331 -51.450  16.016  1.00  0.00     0.316 HD
ENDROOT
BRANCH   1   3
HETATM    3  C   UNL     1     -43.206 -49.881  15.050  1.00  0.00     0.275 C 
BRANCH   3   4
HETATM    4  C   UNL     1     -41.968 -49.021  14.752  1.00  0.00     0.069 C 
BRANCH   4   5
HETATM    5  C   UNL     1     -41.622 -49.011  13.286  1.00  0.00    -0.048 A 
HETATM    6  C   UNL     1     -40.374 -49.406  12.783  1.00  0.00    -0.040 A 
HETATM    7  C   UNL     1     -39.255 -49.886  13.657  1.00  0.00     0.050 C 
HETATM    8  C   UNL     1     -40.184 -49.332  11.402  1.00  0.00     0.094 A 
HETATM    9  N   UNL     1     -41.118 -48.926  10.515  1.00  0.00    -0.375 N 
HETATM   10  C   UNL     1     -42.307 -48.553  11.027  1.00  0.00     0.088 A 
ATOM     11  HN  UNL     1     -40.934 -48.903   9.511  1.00  0.00     0.164 HD
HETATM   12  C   UNL     1     -42.603 -48.579  12.379  1.00  0.00     0.024 A 
ENDBRANCH   4   5
ENDBRANCH   3   4
ENDBRANCH   1   3
BRANCH   1  13
HETATM   13  C   UNL     1     -43.900 -52.200  14.890  1.00  0.00     0.238 C 
HETATM   14  C   UNL     1     -45.010 -51.628  13.958  1.00  0.00     0.051 C 
HETATM   15  C   UNL     1     -46.498 -51.477  13.673  1.00  0.00     0.035 C 
HETATM   16  C   UNL     1     -45.011 -53.135  13.428  1.00  0.00     0.138 C 
HETATM   17  C   UNL     1     -46.579 -51.976  12.208  1.00  0.00     0.168 C 
HETATM   18  O   UNL     1     -45.726 -53.137  12.180  1.00  0.00    -0.385 OA
HETATM   19  C   UNL     1     -43.479 -53.075  13.584  1.00  0.00     0.017 C 
HETATM   20  C   UNL     1     -42.622 -54.284  13.974  1.00  0.00     0.014 C 
HETATM   21  C   UNL     1     -42.827 -52.514  12.308  1.00  0.00     0.014 C 
HETATM   22  C   UNL     1     -41.328 -54.148  13.152  1.00  0.00     0.001 C 
HETATM   23  C   UNL     1     -41.353 -52.766  12.521  1.00  0.00     0.001 C 
ENDBRANCH   1  13
TORSDOF 4
ENDMDL
MODEL 2
REMARK VINA RESULT:      -5.4      2.075      3.090
REMARK  4 active torsions:
REMARK  status: ('A' for Active; 'I' for Inactive)
REMARK    1  A    between atoms: C_8  and  C_9 
REMARK    2  A    between atoms: C_9  and  C_10 
REMARK    3  A    between atoms: C_10  and  N_11 
REMARK    4  A    between atoms: N_11  and  C_12 
ROOT
HETATM    1  N   UNL     1     -42.088 -51.551  11.989  1.00  0.00     0.089 N 
HETATM    2  H   UNL     1     -41.286 -52.184  11.995  1.00  0.00     0.316 HD
ENDROOT
BRANCH   1   3
HETATM    3  C   UNL     1     -41.611 -50.171  11.954  1.00  0.00     0.275 C 
BRANCH   3   4
HETATM    4  C   UNL     1     -40.085 -50.189  11.782  1.00  0.00     0.069 C 
BRANCH   4   5
HETATM    5  C   UNL     1     -39.366 -49.792  13.046  1.00  0.00    -0.048 A 
HETATM    6  C   UNL     1     -38.049 -50.177  13.340  1.00  0.00    -0.040 A 
HETATM    7  C   UNL     1     -37.219 -51.020  12.420  1.00  0.00     0.050 C 
HETATM    8  C   UNL     1     -37.511 -49.750  14.555  1.00  0.00     0.094 A 
HETATM    9  N   UNL     1     -38.157 -48.981  15.459  1.00  0.00    -0.375 N 
HETATM   10  C   UNL     1     -39.420 -48.628  15.149  1.00  0.00     0.088 A 
ATOM     11  HN  UNL     1     -37.713 -48.685  16.328  1.00  0.00     0.164 HD
HETATM   12  C   UNL     1     -40.055 -48.998  13.977  1.00  0.00     0.024 A 
ENDBRANCH   4   5
ENDBRANCH   3   4
ENDBRANCH   1   3
BRANCH   1  13
HETATM   13  C   UNL     1     -42.990 -51.800  13.108  1.00  0.00     0.238 C 
HETATM   14  C   UNL     1     -44.052 -52.906  12.828  1.00  0.00     0.051 C 
HETATM   15  C   UNL     1     -45.495 -53.368  12.969  1.00  0.00     0.035 C 
HETATM   16  C   UNL     1     -43.736 -53.264  14.352  1.00  0.00     0.138 C 
HETATM   17  C   UNL     1     -45.305 -54.769  13.604  1.00  0.00     0.168 C 
HETATM   18  O   UNL     1     -44.275 -54.575  14.592  1.00  0.00    -0.385 OA
HETATM   19  C   UNL     1     -42.267 -52.947  14.007  1.00  0.00     0.017 C 
HETATM   20  C   UNL     1     -41.279 -52.335  15.005  1.00  0.00     0.014 C 
HETATM   21  C   UNL     1     -41.560 -54.197  13.455  1.00  0.00     0.014 C 
HETATM   22  C   UNL     1     -39.930 -53.018  14.716  1.00  0.00     0.001 C 
HETATM   23  C   UNL     1     -40.104 -53.796  13.421  1.00  0.00     0.001 C 
ENDBRANCH   1  13
TORSDOF 4
ENDMDL
MODEL 3
REMARK VINA RESULT:      -5.4      2.534      5.776
REMARK  4 active torsions:
REMARK  status: ('A' for Active; 'I' for Inactive)
REMARK    1  A    between atoms: C_8  and  C_9 
REMARK    2  A    between atoms: C_9  and  C_10 
REMARK    3  A    between atoms: C_10  and  N_11 
REMARK    4  A    between atoms: N_11  and  C_12 
ROOT
HETATM    1  N   UNL     1     -42.090 -51.076  14.575  1.00  0.00     0.089 N 
HETATM    2  H   UNL     1     -41.999 -52.085  14.710  1.00  0.00     0.316 HD
ENDROOT
BRANCH   1   3
HETATM    3  C   UNL     1     -43.500 -50.705  14.652  1.00  0.00     0.275 C 
BRANCH   3   4
HETATM    4  C   UNL     1     -44.219 -51.268  13.417  1.00  0.00     0.069 C 
BRANCH   4   5
HETATM    5  C   UNL     1     -44.999 -52.518  13.733  1.00  0.00    -0.048 A 
HETATM    6  C   UNL     1     -46.234 -52.511  14.399  1.00  0.00    -0.040 A 
HETATM    7  C   UNL     1     -46.907 -51.255  14.861  1.00  0.00     0.050 C 
HETATM    8  C   UNL     1     -46.841 -53.745  14.640  1.00  0.00     0.094 A 
HETATM    9  N   UNL     1     -46.337 -54.940  14.264  1.00  0.00    -0.375 N 
HETATM   10  C   UNL     1     -45.150 -54.916  13.626  1.00  0.00     0.088 A 
ATOM     11  HN  UNL     1     -46.828 -55.815  14.453  1.00  0.00     0.164 HD
HETATM   12  C   UNL     1     -44.457 -53.752  13.340  1.00  0.00     0.024 A 
ENDBRANCH   4   5
ENDBRANCH   3   4
ENDBRANCH   1   3
BRANCH   1  13
HETATM   13  C   UNL     1     -41.466 -50.632  13.333  1.00  0.00     0.238 C 
HETATM   14  C   UNL     1     -40.179 -49.779  13.544  1.00  0.00     0.051 C 
HETATM   15  C   UNL     1     -39.352 -48.573  13.121  1.00  0.00     0.035 C 
HETATM   16  C   UNL     1     -39.700 -50.616  12.270  1.00  0.00     0.138 C 
HETATM   17  C   UNL     1     -37.970 -49.226  12.869  1.00  0.00     0.168 C 
HETATM   18  O   UNL     1     -38.275 -50.450  12.174  1.00  0.00    -0.385 OA
HETATM   19  C   UNL     1     -40.423 -51.812  12.921  1.00  0.00     0.017 C 
HETATM   20  C   UNL     1     -41.117 -52.917  12.119  1.00  0.00     0.014 C 
HETATM   21  C   UNL     1     -39.483 -52.549  13.891  1.00  0.00     0.014 C 
HETATM   22  C   UNL     1     -40.844 -54.218  12.895  1.00  0.00     0.001 C 
HETATM   23  C   UNL     1     -40.239 -53.812  14.229  1.00  0.00     0.001 C 
ENDBRANCH   1  13
TORSDOF 4
ENDMDL
MODEL 4
REMARK VINA RESULT:      -5.3      1.514      2.058
REMARK  4 active torsions:
REMARK  status: ('A' for Active; 'I' for Inactive)
REMARK    1  A    between atoms: C_8  and  C_9 
REMARK    2  A    between atoms: C_9  and  C_10 
REMARK    3  A    between atoms: C_10  and  N_11 
REMARK    4  A    between atoms: N_11  and  C_12 
ROOT
HETATM    1  N   UNL     1     -42.631 -51.185  14.965  1.00  0.00     0.089 N 
HETATM    2  H   UNL     1     -42.228 -51.194  15.904  1.00  0.00     0.316 HD
ENDROOT
BRANCH   1   3
HETATM    3  C   UNL     1     -43.013 -49.819  14.619  1.00  0.00     0.275 C 
BRANCH   3   4
HETATM    4  C   UNL     1     -42.019 -49.286  13.575  1.00  0.00     0.069 C 
BRANCH   4   5
HETATM    5  C   UNL     1     -42.335 -47.873  13.159  1.00  0.00    -0.048 A 
HETATM    6  C   UNL     1     -42.193 -47.403  11.844  1.00  0.00    -0.040 A 
HETATM    7  C   UNL     1     -41.716 -48.266  10.716  1.00  0.00     0.050 C 
HETATM    8  C   UNL     1     -42.507 -46.065  11.601  1.00  0.00     0.094 A 
HETATM    9  N   UNL     1     -42.955 -45.196  12.534  1.00  0.00    -0.375 N 
HETATM   10  C   UNL     1     -43.082 -45.675  13.787  1.00  0.00     0.088 A 
ATOM     11  HN  UNL     1     -43.185 -44.229  12.301  1.00  0.00     0.164 HD
HETATM   12  C   UNL     1     -42.793 -46.981  14.142  1.00  0.00     0.024 A 
ENDBRANCH   4   5
ENDBRANCH   3   4
ENDBRANCH   1   3
BRANCH   1  13
HETATM   13  C   UNL     1     -43.742 -52.122  14.837  1.00  0.00     0.238 C 
HETATM   14  C   UNL     1     -44.893 -51.613  13.918  1.00  0.00     0.051 C 
HETATM   15  C   UNL     1     -46.392 -51.485  13.685  1.00  0.00     0.035 C 
HETATM   16  C   UNL     1     -44.906 -53.149  13.481  1.00  0.00     0.138 C 
HETATM   17  C   UNL     1     -46.529 -52.073  12.258  1.00  0.00     0.168 C 
HETATM   18  O   UNL     1     -45.671 -53.230  12.266  1.00  0.00    -0.385 OA
HETATM   19  C   UNL     1     -43.369 -53.074  13.571  1.00  0.00     0.017 C 
HETATM   20  C   UNL     1     -42.490 -54.254  13.999  1.00  0.00     0.014 C 
HETATM   21  C   UNL     1     -42.773 -52.590  12.238  1.00  0.00     0.014 C 
HETATM   22  C   UNL     1     -41.230 -54.164  13.118  1.00  0.00     0.001 C 
HETATM   23  C   UNL     1     -41.290 -52.823  12.406  1.00  0.00     0.001 C 
ENDBRANCH   1  13
TORSDOF 4
ENDMDL
MODEL 5
REMARK VINA RESULT:      -5.2      1.943      3.530
REMARK  4 active torsions:
REMARK  status: ('A' for Active; 'I' for Inactive)
REMARK    1  A    between atoms: C_8  and  C_9 
REMARK    2  A    between atoms: C_9  and  C_10 
REMARK    3  A    between atoms: C_10  and  N_11 
REMARK    4  A    between atoms: N_11  and  C_12 
ROOT
HETATM    1  N   UNL     1     -42.771 -51.036  13.669  1.00  0.00     0.089 N 
HETATM    2  H   UNL     1     -43.617 -50.671  14.111  1.00  0.00     0.316 HD
ENDROOT
BRANCH   1   3
HETATM    3  C   UNL     1     -42.434 -50.203  12.517  1.00  0.00     0.275 C 
BRANCH   3   4
HETATM    4  C   UNL     1     -43.038 -48.807  12.733  1.00  0.00     0.069 C 
BRANCH   4   5
HETATM    5  C   UNL     1     -42.654 -47.846  11.638  1.00  0.00    -0.048 A 
HETATM    6  C   UNL     1     -41.523 -47.018  11.696  1.00  0.00    -0.040 A 
HETATM    7  C   UNL     1     -40.575 -47.011  12.857  1.00  0.00     0.050 C 
HETATM    8  C   UNL     1     -41.294 -46.164  10.617  1.00  0.00     0.094 A 
HETATM    9  N   UNL     1     -42.071 -46.088   9.514  1.00  0.00    -0.375 N 
HETATM   10  C   UNL     1     -43.150 -46.895   9.485  1.00  0.00     0.088 A 
ATOM     11  HN  UNL     1     -41.852 -45.455   8.744  1.00  0.00     0.164 HD
HETATM   12  C   UNL     1     -43.477 -47.776  10.502  1.00  0.00     0.024 A 
ENDBRANCH   4   5
ENDBRANCH   3   4
ENDBRANCH   1   3
BRANCH   1  13
HETATM   13  C   UNL     1     -42.903 -52.445  13.316  1.00  0.00     0.238 C 
HETATM   14  C   UNL     1     -42.466 -53.421  14.449  1.00  0.00     0.051 C 
HETATM   15  C   UNL     1     -41.741 -54.703  14.833  1.00  0.00     0.035 C 
HETATM   16  C   UNL     1     -43.727 -54.239  13.908  1.00  0.00     0.138 C 
HETATM   17  C   UNL     1     -42.831 -55.435  15.655  1.00  0.00     0.168 C 
HETATM   18  O   UNL     1     -44.043 -55.226  14.905  1.00  0.00    -0.385 OA
HETATM   19  C   UNL     1     -44.412 -52.867  13.754  1.00  0.00     0.017 C 
HETATM   20  C   UNL     1     -45.425 -52.548  12.650  1.00  0.00     0.014 C 
HETATM   21  C   UNL     1     -45.106 -52.460  15.066  1.00  0.00     0.014 C 
HETATM   22  C   UNL     1     -46.479 -51.643  13.312  1.00  0.00     0.001 C 
HETATM   23  C   UNL     1     -45.929 -51.255  14.674  1.00  0.00     0.001 C 
ENDBRANCH   1  13
TORSDOF 4
ENDMDL
MODEL 6
REMARK VINA RESULT:      -5.2      3.031      6.518
REMARK  4 active torsions:
REMARK  status: ('A' for Active; 'I' for Inactive)
REMARK    1  A    between atoms: C_8  and  C_9 
REMARK    2  A    between atoms: C_9  and  C_10 
REMARK    3  A    between atoms: C_10  and  N_11 
REMARK    4  A    between atoms: N_11  and  C_12 
ROOT
HETATM    1  N   UNL     1     -42.436 -48.415  12.317  1.00  0.00     0.089 N 
HETATM    2  H   UNL     1     -41.657 -48.014  12.842  1.00  0.00     0.316 HD
ENDROOT
BRANCH   1   3
HETATM    3  C   UNL     1     -42.472 -49.859  12.537  1.00  0.00     0.275 C 
BRANCH   3   4
HETATM    4  C   UNL     1     -43.801 -50.213  13.220  1.00  0.00     0.069 C 
BRANCH   4   5
HETATM    5  C   UNL     1     -44.010 -51.702  13.319  1.00  0.00    -0.048 A 
HETATM    6  C   UNL     1     -45.259 -52.321  13.152  1.00  0.00    -0.040 A 
HETATM    7  C   UNL     1     -46.514 -51.560  12.852  1.00  0.00     0.050 C 
HETATM    8  C   UNL     1     -45.312 -53.709  13.286  1.00  0.00     0.094 A 
HETATM    9  N   UNL     1     -44.248 -54.501  13.545  1.00  0.00    -0.375 N 
HETATM   10  C   UNL     1     -43.063 -53.879  13.700  1.00  0.00     0.088 A 
ATOM     11  HN  UNL     1     -44.337 -55.515  13.620  1.00  0.00     0.164 HD
HETATM   12  C   UNL     1     -42.895 -52.509  13.596  1.00  0.00     0.024 A 
ENDBRANCH   4   5
ENDBRANCH   3   4
ENDBRANCH   1   3
BRANCH   1  13
HETATM   13  C   UNL     1     -42.376 -48.071  10.900  1.00  0.00     0.238 C 
HETATM   14  C   UNL     1     -43.703 -47.474  10.341  1.00  0.00     0.051 C 
HETATM   15  C   UNL     1     -44.708 -47.422   9.199  1.00  0.00     0.035 C 
HETATM   16  C   UNL     1     -42.675 -46.548   9.544  1.00  0.00     0.138 C 
HETATM   17  C   UNL     1     -44.795 -45.896   8.941  1.00  0.00     0.168 C 
HETATM   18  O   UNL     1     -43.430 -45.444   9.017  1.00  0.00    -0.385 OA
HETATM   19  C   UNL     1     -41.850 -46.532  10.846  1.00  0.00     0.017 C 
HETATM   20  C   UNL     1     -40.319 -46.464  10.875  1.00  0.00     0.014 C 
HETATM   21  C   UNL     1     -42.321 -45.395  11.770  1.00  0.00     0.014 C 
HETATM   22  C   UNL     1     -39.974 -45.565  12.076  1.00  0.00     0.001 C 
HETATM   23  C   UNL     1     -41.265 -45.354  12.849  1.00  0.00     0.001 C 
ENDBRANCH   1  13
TORSDOF 4
ENDMDL
MODEL 7
REMARK VINA RESULT:      -5.1      1.528      2.926
REMARK  4 active torsions:
REMARK  status: ('A' for Active; 'I' for Inactive)
REMARK    1  A    between atoms: C_8  and  C_9 
REMARK    2  A    between atoms: C_9  and  C_10 
REMARK    3  A    between atoms: C_10  and  N_11 
REMARK    4  A    between atoms: N_11  and  C_12 
ROOT
HETATM    1  N   UNL     1     -41.931 -53.265  13.683  1.00  0.00     0.089 N 
HETATM    2  H   UNL     1     -41.841 -52.640  14.486  1.00  0.00     0.316 HD
ENDROOT
BRANCH   1   3
HETATM    3  C   UNL     1     -40.913 -52.926  12.693  1.00  0.00     0.275 C 
BRANCH   3   4
HETATM    4  C   UNL     1     -39.900 -51.972  13.345  1.00  0.00     0.069 C 
BRANCH   4   5
HETATM    5  C   UNL     1     -39.887 -50.618  12.684  1.00  0.00    -0.048 A 
HETATM    6  C   UNL     1     -39.089 -49.550  13.124  1.00  0.00    -0.040 A 
HETATM    7  C   UNL     1     -38.163 -49.652  14.297  1.00  0.00     0.050 C 
HETATM    8  C   UNL     1     -39.187 -48.345  12.427  1.00  0.00     0.094 A 
HETATM    9  N   UNL     1     -39.977 -48.137  11.351  1.00  0.00    -0.375 N 
HETATM   10  C   UNL     1     -40.731 -49.180  10.951  1.00  0.00     0.088 A 
ATOM     11  HN  UNL     1     -40.002 -47.239  10.867  1.00  0.00     0.164 HD
HETATM   12  C   UNL     1     -40.719 -50.418  11.571  1.00  0.00     0.024 A 
ENDBRANCH   4   5
ENDBRANCH   3   4
ENDBRANCH   1   3
BRANCH   1  13
HETATM   13  C   UNL     1     -43.279 -53.246  13.124  1.00  0.00     0.238 C 
HETATM   14  C   UNL     1     -44.286 -54.166  13.877  1.00  0.00     0.051 C 
HETATM   15  C   UNL     1     -45.432 -55.164  13.785  1.00  0.00     0.035 C 
HETATM   16  C   UNL     1     -45.265 -52.940  13.579  1.00  0.00     0.138 C 
HETATM   17  C   UNL     1     -46.474 -54.518  14.733  1.00  0.00     0.168 C 
HETATM   18  O   UNL     1     -46.419 -53.114  14.419  1.00  0.00    -0.385 OA
HETATM   19  C   UNL     1     -44.054 -52.039  13.892  1.00  0.00     0.017 C 
HETATM   20  C   UNL     1     -43.806 -50.690  13.208  1.00  0.00     0.014 C 
HETATM   21  C   UNL     1     -43.975 -51.746  15.401  1.00  0.00     0.014 C 
HETATM   22  C   UNL     1     -43.231 -49.776  14.305  1.00  0.00     0.001 C 
HETATM   23  C   UNL     1     -42.923 -50.666  15.498  1.00  0.00     0.001 C 
ENDBRANCH   1  13
TORSDOF 4
ENDMDL
MODEL 8
REMARK VINA RESULT:      -5.1      2.745      4.748
REMARK  4 active torsions:
REMARK  status: ('A' for Active; 'I' for Inactive)
REMARK    1  A    between atoms: C_8  and  C_9 
REMARK    2  A    between atoms: C_9  and  C_10 
REMARK    3  A    between atoms: C_10  and  N_11 
REMARK    4  A    between atoms: N_11  and  C_12 
ROOT
HETATM    1  N   UNL     1     -43.352 -51.824  15.659  1.00  0.00     0.089 N 
HETATM    2  H   UNL     1     -42.526 -51.806  15.057  1.00  0.00     0.316 HD
ENDROOT
BRANCH   1   3
HETATM    3  C   UNL     1     -42.967 -52.285  16.990  1.00  0.00     0.275 C 
BRANCH   3   4
HETATM    4  C   UNL     1     -41.461 -52.587  16.983  1.00  0.00     0.069 C 
BRANCH   4   5
HETATM    5  C   UNL     1     -41.178 -54.067  16.953  1.00  0.00    -0.048 A 
HETATM    6  C   UNL     1     -39.962 -54.613  16.513  1.00  0.00    -0.040 A 
HETATM    7  C   UNL     1     -38.816 -53.776  16.033  1.00  0.00     0.050 C 
HETATM    8  C   UNL     1     -39.841 -56.004  16.524  1.00  0.00     0.094 A 
HETATM    9  N   UNL     1     -40.799 -56.859  16.943  1.00  0.00    -0.375 N 
HETATM   10  C   UNL     1     -41.955 -56.306  17.360  1.00  0.00     0.088 A 
ATOM     11  HN  UNL     1     -40.655 -57.869  16.944  1.00  0.00     0.164 HD
HETATM   12  C   UNL     1     -42.187 -54.941  17.386  1.00  0.00     0.024 A 
ENDBRANCH   4   5
ENDBRANCH   3   4
ENDBRANCH   1   3
BRANCH   1  13
HETATM   13  C   UNL     1     -44.430 -52.622  15.085  1.00  0.00     0.238 C 
HETATM   14  C   UNL     1     -45.398 -51.809  14.173  1.00  0.00     0.051 C 
HETATM   15  C   UNL     1     -46.832 -51.536  13.741  1.00  0.00     0.035 C 
HETATM   16  C   UNL     1     -45.346 -53.157  13.318  1.00  0.00     0.138 C 
HETATM   17  C   UNL     1     -46.720 -51.690  12.203  1.00  0.00     0.168 C 
HETATM   18  O   UNL     1     -45.886 -52.850  12.021  1.00  0.00    -0.385 OA
HETATM   19  C   UNL     1     -43.847 -53.199  13.680  1.00  0.00     0.017 C 
HETATM   20  C   UNL     1     -43.066 -54.499  13.891  1.00  0.00     0.014 C 
HETATM   21  C   UNL     1     -43.023 -52.394  12.659  1.00  0.00     0.014 C 
HETATM   22  C   UNL     1     -41.671 -54.238  13.295  1.00  0.00     0.001 C 
HETATM   23  C   UNL     1     -41.594 -52.749  12.998  1.00  0.00     0.001 C 
ENDBRANCH   1  13
TORSDOF 4
ENDMDL
MODEL 9
REMARK VINA RESULT:      -5.0      3.201      5.446
REMARK  4 active torsions:
REMARK  status: ('A' for Active; 'I' for Inactive)
REMARK    1  A    between atoms: C_8  and  C_9 
REMARK    2  A    between atoms: C_9  and  C_10 
REMARK    3  A    between atoms: C_10  and  N_11 
REMARK    4  A    between atoms: N_11  and  C_12 
ROOT
HETATM    1  N   UNL     1     -42.514 -52.680  16.981  1.00  0.00     0.089 N 
HETATM    2  H   UNL     1     -43.275 -53.259  16.621  1.00  0.00     0.316 HD
ENDROOT
BRANCH   1   3
HETATM    3  C   UNL     1     -42.796 -51.277  16.688  1.00  0.00     0.275 C 
BRANCH   3   4
HETATM    4  C   UNL     1     -44.320 -51.092  16.622  1.00  0.00     0.069 C 
BRANCH   4   5
HETATM    5  C   UNL     1     -44.836 -51.123  15.207  1.00  0.00    -0.048 A 
HETATM    6  C   UNL     1     -46.139 -51.517  14.867  1.00  0.00    -0.040 A 
HETATM    7  C   UNL     1     -47.155 -51.943  15.883  1.00  0.00     0.050 C 
HETATM    8  C   UNL     1     -46.480 -51.512  13.513  1.00  0.00     0.094 A 
HETATM    9  N   UNL     1     -45.655 -51.140  12.511  1.00  0.00    -0.375 N 
HETATM   10  C   UNL     1     -44.410 -50.766  12.867  1.00  0.00     0.088 A 
ATOM     11  HN  UNL     1     -45.958 -51.141  11.536  1.00  0.00     0.164 HD
HETATM   12  C   UNL     1     -43.963 -50.738  14.177  1.00  0.00     0.024 A 
ENDBRANCH   4   5
ENDBRANCH   3   4
ENDBRANCH   1   3
BRANCH   1  13
HETATM   13  C   UNL     1     -41.215 -53.104  16.469  1.00  0.00     0.238 C 
HETATM   14  C   UNL     1     -40.562 -54.258  17.287  1.00  0.00     0.051 C 
HETATM   15  C   UNL     1     -39.298 -54.844  17.901  1.00  0.00     0.035 C 
HETATM   16  C   UNL     1     -40.131 -54.734  15.825  1.00  0.00     0.138 C 
HETATM   17  C   UNL     1     -39.314 -56.279  17.318  1.00  0.00     0.168 C 
HETATM   18  O   UNL     1     -39.699 -56.100  15.942  1.00  0.00    -0.385 OA
HETATM   19  C   UNL     1     -41.534 -54.271  15.381  1.00  0.00     0.017 C 
HETATM   20  C   UNL     1     -41.829 -53.681  13.998  1.00  0.00     0.014 C 
HETATM   21  C   UNL     1     -42.559 -55.404  15.563  1.00  0.00     0.014 C 
HETATM   22  C   UNL     1     -43.216 -54.226  13.610  1.00  0.00     0.001 C 
HETATM   23  C   UNL     1     -43.788 -54.888  14.853  1.00  0.00     0.001 C 
ENDBRANCH   1  13
TORSDOF 4
ENDMDL
