MODEL 1
REMARK VINA RESULT:      -6.6      0.000      0.000
REMARK  4 active torsions:
REMARK  status: ('A' for Active; 'I' for Inactive)
REMARK    1  A    between atoms: S_2  and  N_5 
REMARK    2  A    between atoms: C_8  and  C_9 
REMARK    3  A    between atoms: C_9  and  N_10 
REMARK       I    between atoms: N_10  and  C_11 
REMARK       I    between atoms: C_11  and  N_13 
REMARK    4  A    between atoms: N_13  and  C_14 
ROOT
HETATM    1  N   UNL     1     -40.635 -50.852  11.463  1.00  0.00    -0.342 N 
HETATM    2  C   UNL     1     -41.421 -49.721  11.497  1.00  0.00     0.320 C 
HETATM    3  O   UNL     1     -42.073 -49.391  12.478  1.00  0.00    -0.247 OA
HETATM    4  N   UNL     1     -41.276 -48.979  10.341  1.00  0.00    -0.309 N 
HETATM    5  H   UNL     1     -40.521 -51.288  10.556  1.00  0.00     0.164 HD
HETATM    6  H   UNL     1     -40.365 -49.080   9.917  1.00  0.00     0.170 HD
ENDROOT
BRANCH   1   7
HETATM    7  C   UNL     1     -40.500 -51.680  12.640  1.00  0.00     0.129 C 
BRANCH   7   8
HETATM    8  C   UNL     1     -41.137 -53.065  12.438  1.00  0.00     0.006 C 
HETATM    9  C   UNL     1     -42.590 -52.919  11.963  1.00  0.00     0.027 C 
HETATM   10  C   UNL     1     -43.523 -52.441  13.074  1.00  0.00     0.135 C 
HETATM   11  N   UNL     1     -43.431 -53.319  14.259  1.00  0.00    -0.311 N 
HETATM   12  C   UNL     1     -42.058 -53.478  14.789  1.00  0.00     0.135 C 
HETATM   13  C   UNL     1     -41.103 -53.952  13.700  1.00  0.00     0.027 C 
BRANCH  11  14
HETATM   14  S   UNL     1     -44.495 -54.633  14.367  1.00  0.00     0.224 S 
HETATM   15  C   UNL     1     -45.681 -54.014  15.542  1.00  0.00     0.186 C 
HETATM   16  O   UNL     1     -43.801 -55.739  14.993  1.00  0.00    -0.206 OA
HETATM   17  O   UNL     1     -45.155 -54.788  13.087  1.00  0.00    -0.206 OA
ENDBRANCH  11  14
ENDBRANCH   7   8
ENDBRANCH   1   7
BRANCH   4  18
HETATM   18  C   UNL     1     -41.905 -47.724  10.202  1.00  0.00     0.038 A 
HETATM   19  C   UNL     1     -41.321 -46.612  10.799  1.00  0.00     0.046 A 
HETATM   20  C   UNL     1     -42.009 -45.412  10.740  1.00  0.00     0.090 A 
HETATM   21  N   UNL     1     -43.181 -45.246  10.090  1.00  0.00    -0.375 N 
HETATM   22  C   UNL     1     -43.701 -46.335   9.486  1.00  0.00     0.090 A 
ATOM     23  HN  UNL     1     -43.651 -44.342  10.058  1.00  0.00     0.164 HD
HETATM   24  C   UNL     1     -43.111 -47.585   9.513  1.00  0.00     0.046 A 
ENDBRANCH   4  18
TORSDOF 4
ENDMDL
MODEL 2
REMARK VINA RESULT:      -6.5      4.651      5.926
REMARK  4 active torsions:
REMARK  status: ('A' for Active; 'I' for Inactive)
REMARK    1  A    between atoms: S_2  and  N_5 
REMARK    2  A    between atoms: C_8  and  C_9 
REMARK    3  A    between atoms: C_9  and  N_10 
REMARK       I    between atoms: N_10  and  C_11 
REMARK       I    between atoms: C_11  and  N_13 
REMARK    4  A    between atoms: N_13  and  C_14 
ROOT
HETATM    1  N   UNL     1     -40.825 -49.371  10.504  1.00  0.00    -0.342 N 
HETATM    2  C   UNL     1     -41.969 -48.605  10.565  1.00  0.00     0.320 C 
HETATM    3  O   UNL     1     -42.466 -48.232  11.619  1.00  0.00    -0.247 OA
HETATM    4  N   UNL     1     -42.389 -48.236   9.302  1.00  0.00    -0.309 N 
HETATM    5  H   UNL     1     -40.748 -49.994   9.709  1.00  0.00     0.164 HD
HETATM    6  H   UNL     1     -41.630 -48.152   8.640  1.00  0.00     0.170 HD
ENDROOT
BRANCH   1   7
HETATM    7  C   UNL     1     -40.116 -49.719  11.715  1.00  0.00     0.129 C 
BRANCH   7   8
HETATM    8  C   UNL     1     -38.923 -48.781  11.966  1.00  0.00     0.006 C 
HETATM    9  C   UNL     1     -37.686 -49.594  12.376  1.00  0.00     0.027 C 
HETATM   10  C   UNL     1     -37.794 -50.148  13.795  1.00  0.00     0.135 C 
HETATM   11  N   UNL     1     -38.075 -49.071  14.766  1.00  0.00    -0.311 N 
HETATM   12  C   UNL     1     -39.277 -48.267  14.447  1.00  0.00     0.135 C 
HETATM   13  C   UNL     1     -39.197 -47.703  13.034  1.00  0.00     0.027 C 
BRANCH  11  14
HETATM   14  S   UNL     1     -36.763 -48.300  15.510  1.00  0.00     0.224 S 
HETATM   15  C   UNL     1     -37.585 -47.422  16.824  1.00  0.00     0.186 C 
HETATM   16  O   UNL     1     -36.229 -47.312  14.596  1.00  0.00    -0.206 OA
HETATM   17  O   UNL     1     -35.914 -49.315  16.098  1.00  0.00    -0.206 OA
ENDBRANCH  11  14
ENDBRANCH   7   8
ENDBRANCH   1   7
BRANCH   4  18
HETATM   18  C   UNL     1     -43.481 -47.360   9.130  1.00  0.00     0.038 A 
HETATM   19  C   UNL     1     -43.241 -45.990   9.091  1.00  0.00     0.046 A 
HETATM   20  C   UNL     1     -44.336 -45.144   9.027  1.00  0.00     0.090 A 
HETATM   21  N   UNL     1     -45.614 -45.571   8.943  1.00  0.00    -0.375 N 
HETATM   22  C   UNL     1     -45.811 -46.907   8.942  1.00  0.00     0.090 A 
ATOM     23  HN  UNL     1     -46.393 -44.916   8.885  1.00  0.00     0.164 HD
HETATM   24  C   UNL     1     -44.790 -47.834   9.034  1.00  0.00     0.046 A 
ENDBRANCH   4  18
TORSDOF 4
ENDMDL
MODEL 3
REMARK VINA RESULT:      -6.3      3.392      7.362
REMARK  4 active torsions:
REMARK  status: ('A' for Active; 'I' for Inactive)
REMARK    1  A    between atoms: S_2  and  N_5 
REMARK    2  A    between atoms: C_8  and  C_9 
REMARK    3  A    between atoms: C_9  and  N_10 
REMARK       I    between atoms: N_10  and  C_11 
REMARK       I    between atoms: C_11  and  N_13 
REMARK    4  A    between atoms: N_13  and  C_14 
ROOT
HETATM    1  N   UNL     1     -41.254 -51.870  11.665  1.00  0.00    -0.342 N 
HETATM    2  C   UNL     1     -42.204 -52.290  12.571  1.00  0.00     0.320 C 
HETATM    3  O   UNL     1     -42.110 -52.094  13.775  1.00  0.00    -0.247 OA
HETATM    4  N   UNL     1     -43.294 -52.842  11.929  1.00  0.00    -0.309 N 
HETATM    5  H   UNL     1     -41.156 -52.433  10.829  1.00  0.00     0.164 HD
HETATM    6  H   UNL     1     -43.454 -52.452  11.011  1.00  0.00     0.170 HD
ENDROOT
BRANCH   1   7
HETATM    7  C   UNL     1     -40.111 -51.106  12.111  1.00  0.00     0.129 C 
BRANCH   7   8
HETATM    8  C   UNL     1     -39.885 -49.858  11.241  1.00  0.00     0.006 C 
HETATM    9  C   UNL     1     -38.691 -49.051  11.770  1.00  0.00     0.027 C 
HETATM   10  C   UNL     1     -39.009 -48.319  13.072  1.00  0.00     0.135 C 
HETATM   11  N   UNL     1     -40.209 -47.469  12.924  1.00  0.00    -0.311 N 
HETATM   12  C   UNL     1     -41.409 -48.194  12.447  1.00  0.00     0.135 C 
HETATM   13  C   UNL     1     -41.118 -48.936  11.148  1.00  0.00     0.027 C 
BRANCH  11  14
HETATM   14  S   UNL     1     -39.995 -45.859  12.445  1.00  0.00     0.224 S 
HETATM   15  C   UNL     1     -41.605 -45.183  12.798  1.00  0.00     0.186 C 
HETATM   16  O   UNL     1     -39.817 -45.823  11.008  1.00  0.00    -0.206 OA
HETATM   17  O   UNL     1     -39.034 -45.244  13.336  1.00  0.00    -0.206 OA
ENDBRANCH  11  14
ENDBRANCH   7   8
ENDBRANCH   1   7
BRANCH   4  18
HETATM   18  C   UNL     1     -44.436 -53.243  12.654  1.00  0.00     0.038 A 
HETATM   19  C   UNL     1     -45.456 -52.320  12.861  1.00  0.00     0.046 A 
HETATM   20  C   UNL     1     -46.518 -52.701  13.665  1.00  0.00     0.090 A 
HETATM   21  N   UNL     1     -46.648 -53.929  14.210  1.00  0.00    -0.375 N 
HETATM   22  C   UNL     1     -45.661 -54.815  13.957  1.00  0.00     0.090 A 
ATOM     23  HN  UNL     1     -47.452 -54.175  14.786  1.00  0.00     0.164 HD
HETATM   24  C   UNL     1     -44.545 -54.525  13.195  1.00  0.00     0.046 A 
ENDBRANCH   4  18
TORSDOF 4
ENDMDL
MODEL 4
REMARK VINA RESULT:      -6.2      3.501      7.986
REMARK  4 active torsions:
REMARK  status: ('A' for Active; 'I' for Inactive)
REMARK    1  A    between atoms: S_2  and  N_5 
REMARK    2  A    between atoms: C_8  and  C_9 
REMARK    3  A    between atoms: C_9  and  N_10 
REMARK       I    between atoms: N_10  and  C_11 
REMARK       I    between atoms: C_11  and  N_13 
REMARK    4  A    between atoms: N_13  and  C_14 
ROOT
HETATM    1  N   UNL     1     -42.403 -50.529  12.066  1.00  0.00    -0.342 N 
HETATM    2  C   UNL     1     -42.964 -51.445  12.929  1.00  0.00     0.320 C 
HETATM    3  O   UNL     1     -42.522 -51.665  14.049  1.00  0.00    -0.247 OA
HETATM    4  N   UNL     1     -44.127 -51.975  12.406  1.00  0.00    -0.309 N 
HETATM    5  H   UNL     1     -42.506 -50.727  11.079  1.00  0.00     0.164 HD
HETATM    6  H   UNL     1     -44.611 -51.336  11.790  1.00  0.00     0.170 HD
ENDROOT
BRANCH   1   7
HETATM    7  C   UNL     1     -41.277 -49.727  12.488  1.00  0.00     0.129 C 
BRANCH   7   8
HETATM    8  C   UNL     1     -40.768 -48.819  11.356  1.00  0.00     0.006 C 
HETATM    9  C   UNL     1     -39.832 -47.740  11.920  1.00  0.00     0.027 C 
HETATM   10  C   UNL     1     -40.583 -46.665  12.703  1.00  0.00     0.135 C 
HETATM   11  N   UNL     1     -41.659 -46.067  11.887  1.00  0.00    -0.311 N 
HETATM   12  C   UNL     1     -42.619 -47.052  11.337  1.00  0.00     0.135 C 
HETATM   13  C   UNL     1     -41.896 -48.140  10.552  1.00  0.00     0.027 C 
BRANCH  11  14
HETATM   14  S   UNL     1     -41.298 -44.693  10.966  1.00  0.00     0.224 S 
HETATM   15  C   UNL     1     -40.424 -43.702  12.161  1.00  0.00     0.186 C 
HETATM   16  O   UNL     1     -42.534 -44.006  10.655  1.00  0.00    -0.206 OA
HETATM   17  O   UNL     1     -40.370 -45.077   9.922  1.00  0.00    -0.206 OA
ENDBRANCH  11  14
ENDBRANCH   7   8
ENDBRANCH   1   7
BRANCH   4  18
HETATM   18  C   UNL     1     -44.928 -52.854  13.164  1.00  0.00     0.038 A 
HETATM   19  C   UNL     1     -44.639 -54.214  13.138  1.00  0.00     0.046 A 
HETATM   20  C   UNL     1     -45.500 -55.071  13.804  1.00  0.00     0.090 A 
HETATM   21  N   UNL     1     -46.568 -54.658  14.521  1.00  0.00    -0.375 N 
HETATM   22  C   UNL     1     -46.797 -53.329  14.560  1.00  0.00     0.090 A 
ATOM     23  HN  UNL     1     -47.172 -55.319  15.008  1.00  0.00     0.164 HD
HETATM   24  C   UNL     1     -46.018 -52.394  13.905  1.00  0.00     0.046 A 
ENDBRANCH   4  18
TORSDOF 4
ENDMDL
MODEL 5
REMARK VINA RESULT:      -6.1      3.346      7.735
REMARK  4 active torsions:
REMARK  status: ('A' for Active; 'I' for Inactive)
REMARK    1  A    between atoms: S_2  and  N_5 
REMARK    2  A    between atoms: C_8  and  C_9 
REMARK    3  A    between atoms: C_9  and  N_10 
REMARK       I    between atoms: N_10  and  C_11 
REMARK       I    between atoms: C_11  and  N_13 
REMARK    4  A    between atoms: N_13  and  C_14 
ROOT
HETATM    1  N   UNL     1     -42.145 -51.124  11.921  1.00  0.00    -0.342 N 
HETATM    2  C   UNL     1     -42.814 -51.899  12.844  1.00  0.00     0.320 C 
HETATM    3  O   UNL     1     -42.455 -52.009  14.008  1.00  0.00    -0.247 OA
HETATM    4  N   UNL     1     -43.976 -52.418  12.308  1.00  0.00    -0.309 N 
HETATM    5  H   UNL     1     -42.201 -51.431  10.958  1.00  0.00     0.164 HD
HETATM    6  H   UNL     1     -44.380 -51.830  11.592  1.00  0.00     0.170 HD
ENDROOT
BRANCH   1   7
HETATM    7  C   UNL     1     -40.996 -50.344  12.323  1.00  0.00     0.129 C 
BRANCH   7   8
HETATM    8  C   UNL     1     -41.406 -48.968  12.875  1.00  0.00     0.006 C 
HETATM    9  C   UNL     1     -42.561 -48.386  12.046  1.00  0.00     0.027 C 
HETATM   10  C   UNL     1     -42.108 -47.910  10.667  1.00  0.00     0.135 C 
HETATM   11  N   UNL     1     -40.989 -46.952  10.777  1.00  0.00    -0.311 N 
HETATM   12  C   UNL     1     -39.827 -47.464  11.539  1.00  0.00     0.135 C 
HETATM   13  C   UNL     1     -40.250 -47.949  12.920  1.00  0.00     0.027 C 
BRANCH  11  14
HETATM   14  S   UNL     1     -41.354 -45.301  10.875  1.00  0.00     0.224 S 
HETATM   15  C   UNL     1     -42.912 -45.245  10.014  1.00  0.00     0.186 C 
HETATM   16  O   UNL     1     -40.393 -44.566  10.080  1.00  0.00    -0.206 OA
HETATM   17  O   UNL     1     -41.586 -44.970  12.266  1.00  0.00    -0.206 OA
ENDBRANCH  11  14
ENDBRANCH   7   8
ENDBRANCH   1   7
BRANCH   4  18
HETATM   18  C   UNL     1     -44.876 -53.155  13.107  1.00  0.00     0.038 A 
HETATM   19  C   UNL     1     -44.700 -54.530  13.220  1.00  0.00     0.046 A 
HETATM   20  C   UNL     1     -45.654 -55.247  13.922  1.00  0.00     0.090 A 
HETATM   21  N   UNL     1     -46.711 -54.685  14.547  1.00  0.00    -0.375 N 
HETATM   22  C   UNL     1     -46.831 -53.344  14.452  1.00  0.00     0.090 A 
ATOM     23  HN  UNL     1     -47.386 -55.246  15.065  1.00  0.00     0.164 HD
HETATM   24  C   UNL     1     -45.951 -52.541  13.750  1.00  0.00     0.046 A 
ENDBRANCH   4  18
TORSDOF 4
ENDMDL
MODEL 6
REMARK VINA RESULT:      -6.0      3.977      7.054
REMARK  4 active torsions:
REMARK  status: ('A' for Active; 'I' for Inactive)
REMARK    1  A    between atoms: S_2  and  N_5 
REMARK    2  A    between atoms: C_8  and  C_9 
REMARK    3  A    between atoms: C_9  and  N_10 
REMARK       I    between atoms: N_10  and  C_11 
REMARK       I    between atoms: C_11  and  N_13 
REMARK    4  A    between atoms: N_13  and  C_14 
ROOT
HETATM    1  N   UNL     1     -41.196 -51.566  11.512  1.00  0.00    -0.342 N 
HETATM    2  C   UNL     1     -42.261 -51.823  12.349  1.00  0.00     0.320 C 
HETATM    3  O   UNL     1     -42.580 -51.083  13.269  1.00  0.00    -0.247 OA
HETATM    4  N   UNL     1     -42.961 -52.939  11.935  1.00  0.00    -0.309 N 
HETATM    5  H   UNL     1     -40.732 -52.376  11.121  1.00  0.00     0.164 HD
HETATM    6  H   UNL     1     -42.917 -53.087  10.936  1.00  0.00     0.170 HD
ENDROOT
BRANCH   1   7
HETATM    7  C   UNL     1     -40.434 -50.347  11.659  1.00  0.00     0.129 C 
BRANCH   7   8
HETATM    8  C   UNL     1     -39.013 -50.623  12.179  1.00  0.00     0.006 C 
HETATM    9  C   UNL     1     -39.067 -51.152  13.620  1.00  0.00     0.027 C 
HETATM   10  C   UNL     1     -39.430 -50.065  14.629  1.00  0.00     0.135 C 
HETATM   11  N   UNL     1     -38.518 -48.908  14.515  1.00  0.00    -0.311 N 
HETATM   12  C   UNL     1     -38.443 -48.328  13.155  1.00  0.00     0.135 C 
HETATM   13  C   UNL     1     -38.084 -49.393  12.126  1.00  0.00     0.027 C 
BRANCH  11  14
HETATM   14  S   UNL     1     -37.124 -48.890  15.478  1.00  0.00     0.224 S 
HETATM   15  C   UNL     1     -37.818 -48.504  17.073  1.00  0.00     0.186 C 
HETATM   16  O   UNL     1     -36.302 -47.767  15.080  1.00  0.00    -0.206 OA
HETATM   17  O   UNL     1     -36.587 -50.234  15.525  1.00  0.00    -0.206 OA
ENDBRANCH  11  14
ENDBRANCH   7   8
ENDBRANCH   1   7
BRANCH   4  18
HETATM   18  C   UNL     1     -44.154 -53.326  12.580  1.00  0.00     0.038 A 
HETATM   19  C   UNL     1     -45.278 -52.516  12.454  1.00  0.00     0.046 A 
HETATM   20  C   UNL     1     -46.406 -52.858  13.180  1.00  0.00     0.090 A 
HETATM   21  N   UNL     1     -46.497 -53.959  13.957  1.00  0.00    -0.375 N 
HETATM   22  C   UNL     1     -45.403 -54.747  14.026  1.00  0.00     0.090 A 
ATOM     23  HN  UNL     1     -47.351 -54.184  14.467  1.00  0.00     0.164 HD
HETATM   24  C   UNL     1     -44.219 -54.477  13.366  1.00  0.00     0.046 A 
ENDBRANCH   4  18
TORSDOF 4
ENDMDL
MODEL 7
REMARK VINA RESULT:      -5.8      2.171      2.795
REMARK  4 active torsions:
REMARK  status: ('A' for Active; 'I' for Inactive)
REMARK    1  A    between atoms: S_2  and  N_5 
REMARK    2  A    between atoms: C_8  and  C_9 
REMARK    3  A    between atoms: C_9  and  N_10 
REMARK       I    between atoms: N_10  and  C_11 
REMARK       I    between atoms: C_11  and  N_13 
REMARK    4  A    between atoms: N_13  and  C_14 
ROOT
HETATM    1  N   UNL     1     -40.800 -49.307  10.668  1.00  0.00    -0.342 N 
HETATM    2  C   UNL     1     -41.933 -48.528  10.752  1.00  0.00     0.320 C 
HETATM    3  O   UNL     1     -42.371 -48.098  11.810  1.00  0.00    -0.247 OA
HETATM    4  N   UNL     1     -42.417 -48.217   9.496  1.00  0.00    -0.309 N 
HETATM    5  H   UNL     1     -40.770 -49.969   9.903  1.00  0.00     0.164 HD
HETATM    6  H   UNL     1     -41.694 -48.173   8.792  1.00  0.00     0.170 HD
ENDROOT
BRANCH   1   7
HETATM    7  C   UNL     1     -40.030 -49.602  11.856  1.00  0.00     0.129 C 
BRANCH   7   8
HETATM    8  C   UNL     1     -39.879 -51.117  12.074  1.00  0.00     0.006 C 
HETATM    9  C   UNL     1     -41.233 -51.818  11.893  1.00  0.00     0.027 C 
HETATM   10  C   UNL     1     -42.190 -51.554  13.054  1.00  0.00     0.135 C 
HETATM   11  N   UNL     1     -41.568 -51.912  14.346  1.00  0.00    -0.311 N 
HETATM   12  C   UNL     1     -40.271 -51.243  14.599  1.00  0.00     0.135 C 
HETATM   13  C   UNL     1     -39.297 -51.489  13.454  1.00  0.00     0.027 C 
BRANCH  11  14
HETATM   14  S   UNL     1     -41.795 -53.483  14.935  1.00  0.00     0.224 S 
HETATM   15  C   UNL     1     -40.178 -53.835  15.596  1.00  0.00     0.186 C 
HETATM   16  O   UNL     1     -42.007 -54.373  13.813  1.00  0.00    -0.206 OA
HETATM   17  O   UNL     1     -42.736 -53.424  16.035  1.00  0.00    -0.206 OA
ENDBRANCH  11  14
ENDBRANCH   7   8
ENDBRANCH   1   7
BRANCH   4  18
HETATM   18  C   UNL     1     -43.510 -47.339   9.338  1.00  0.00     0.038 A 
HETATM   19  C   UNL     1     -44.795 -47.870   9.292  1.00  0.00     0.046 A 
HETATM   20  C   UNL     1     -45.842 -47.002   9.030  1.00  0.00     0.090 A 
HETATM   21  N   UNL     1     -45.696 -45.669   8.875  1.00  0.00    -0.375 N 
HETATM   22  C   UNL     1     -44.442 -45.180   8.967  1.00  0.00     0.090 A 
ATOM     23  HN  UNL     1     -46.495 -45.061   8.697  1.00  0.00     0.164 HD
HETATM   24  C   UNL     1     -43.325 -45.963   9.193  1.00  0.00     0.046 A 
ENDBRANCH   4  18
TORSDOF 4
ENDMDL
MODEL 8
REMARK VINA RESULT:      -5.4      5.416      6.705
REMARK  4 active torsions:
REMARK  status: ('A' for Active; 'I' for Inactive)
REMARK    1  A    between atoms: S_2  and  N_5 
REMARK    2  A    between atoms: C_8  and  C_9 
REMARK    3  A    between atoms: C_9  and  N_10 
REMARK       I    between atoms: N_10  and  C_11 
REMARK       I    between atoms: C_11  and  N_13 
REMARK    4  A    between atoms: N_13  and  C_14 
ROOT
HETATM    1  N   UNL     1     -41.669 -45.366  11.169  1.00  0.00    -0.342 N 
HETATM    2  C   UNL     1     -42.482 -46.372  10.692  1.00  0.00     0.320 C 
HETATM    3  O   UNL     1     -42.750 -47.376  11.339  1.00  0.00    -0.247 OA
HETATM    4  N   UNL     1     -43.024 -46.036   9.468  1.00  0.00    -0.309 N 
HETATM    5  H   UNL     1     -41.144 -44.851  10.473  1.00  0.00     0.164 HD
HETATM    6  H   UNL     1     -43.147 -45.041   9.348  1.00  0.00     0.170 HD
ENDROOT
BRANCH   1   7
HETATM    7  C   UNL     1     -41.139 -45.434  12.512  1.00  0.00     0.129 C 
BRANCH   7   8
HETATM    8  C   UNL     1     -39.650 -45.821  12.518  1.00  0.00     0.006 C 
HETATM    9  C   UNL     1     -39.499 -47.349  12.545  1.00  0.00     0.027 C 
HETATM   10  C   UNL     1     -39.856 -47.949  13.903  1.00  0.00     0.135 C 
HETATM   11  N   UNL     1     -39.078 -47.313  14.986  1.00  0.00    -0.311 N 
HETATM   12  C   UNL     1     -39.205 -45.838  15.037  1.00  0.00     0.135 C 
HETATM   13  C   UNL     1     -38.856 -45.213  13.692  1.00  0.00     0.027 C 
BRANCH  11  14
HETATM   14  S   UNL     1     -37.598 -48.010  15.425  1.00  0.00     0.224 S 
HETATM   15  C   UNL     1     -37.335 -47.271  17.024  1.00  0.00     0.186 C 
HETATM   16  O   UNL     1     -36.568 -47.506  14.540  1.00  0.00    -0.206 OA
HETATM   17  O   UNL     1     -37.803 -49.432  15.606  1.00  0.00    -0.206 OA
ENDBRANCH  11  14
ENDBRANCH   7   8
ENDBRANCH   1   7
BRANCH   4  18
HETATM   18  C   UNL     1     -43.972 -46.872   8.842  1.00  0.00     0.038 A 
HETATM   19  C   UNL     1     -45.278 -46.879   9.320  1.00  0.00     0.046 A 
HETATM   20  C   UNL     1     -46.166 -47.783   8.760  1.00  0.00     0.090 A 
HETATM   21  N   UNL     1     -45.854 -48.615   7.744  1.00  0.00    -0.375 N 
HETATM   22  C   UNL     1     -44.590 -48.555   7.275  1.00  0.00     0.090 A 
ATOM     23  HN  UNL     1     -46.540 -49.258   7.350  1.00  0.00     0.164 HD
HETATM   24  C   UNL     1     -43.620 -47.712   7.784  1.00  0.00     0.046 A 
ENDBRANCH   4  18
TORSDOF 4
ENDMDL
MODEL 9
REMARK VINA RESULT:      -5.4      4.183      8.072
REMARK  4 active torsions:
REMARK  status: ('A' for Active; 'I' for Inactive)
REMARK    1  A    between atoms: S_2  and  N_5 
REMARK    2  A    between atoms: C_8  and  C_9 
REMARK    3  A    between atoms: C_9  and  N_10 
REMARK       I    between atoms: N_10  and  C_11 
REMARK       I    between atoms: C_11  and  N_13 
REMARK    4  A    between atoms: N_13  and  C_14 
ROOT
HETATM    1  N   UNL     1     -39.251 -54.045  14.021  1.00  0.00    -0.342 N 
HETATM    2  C   UNL     1     -39.031 -54.347  15.348  1.00  0.00     0.320 C 
HETATM    3  O   UNL     1     -39.548 -53.728  16.267  1.00  0.00    -0.247 OA
HETATM    4  N   UNL     1     -38.262 -55.486  15.478  1.00  0.00    -0.309 N 
HETATM    5  H   UNL     1     -38.492 -54.255  13.385  1.00  0.00     0.164 HD
HETATM    6  H   UNL     1     -38.383 -56.136  14.713  1.00  0.00     0.170 HD
ENDROOT
BRANCH   1   7
HETATM    7  C   UNL     1     -40.174 -52.993  13.658  1.00  0.00     0.129 C 
BRANCH   7   8
HETATM    8  C   UNL     1     -41.383 -53.541  12.881  1.00  0.00     0.006 C 
HETATM    9  C   UNL     1     -42.141 -52.392  12.200  1.00  0.00     0.027 C 
HETATM   10  C   UNL     1     -42.925 -51.537  13.193  1.00  0.00     0.135 C 
HETATM   11  N   UNL     1     -43.833 -52.370  14.009  1.00  0.00    -0.311 N 
HETATM   12  C   UNL     1     -43.159 -53.480  14.722  1.00  0.00     0.135 C 
HETATM   13  C   UNL     1     -42.366 -54.349  13.753  1.00  0.00     0.027 C 
BRANCH  11  14
HETATM   14  S   UNL     1     -45.415 -52.610  13.456  1.00  0.00     0.224 S 
HETATM   15  C   UNL     1     -46.089 -53.604  14.771  1.00  0.00     0.186 C 
HETATM   16  O   UNL     1     -45.370 -53.437  12.268  1.00  0.00    -0.206 OA
HETATM   17  O   UNL     1     -46.094 -51.331  13.454  1.00  0.00    -0.206 OA
ENDBRANCH  11  14
ENDBRANCH   7   8
ENDBRANCH   1   7
BRANCH   4  18
HETATM   18  C   UNL     1     -38.002 -56.044  16.747  1.00  0.00     0.038 A 
HETATM   19  C   UNL     1     -36.790 -55.760  17.368  1.00  0.00     0.046 A 
HETATM   20  C   UNL     1     -36.512 -56.401  18.564  1.00  0.00     0.090 A 
HETATM   21  N   UNL     1     -37.368 -57.238  19.187  1.00  0.00    -0.375 N 
HETATM   22  C   UNL     1     -38.553 -57.461  18.580  1.00  0.00     0.090 A 
ATOM     23  HN  UNL     1     -37.131 -57.682  20.075  1.00  0.00     0.164 HD
HETATM   24  C   UNL     1     -38.915 -56.896  17.371  1.00  0.00     0.046 A 
ENDBRANCH   4  18
TORSDOF 4
ENDMDL
