MODEL 1
REMARK VINA RESULT:      -6.0      0.000      0.000
REMARK  4 active torsions:
REMARK  status: ('A' for Active; 'I' for Inactive)
REMARK    1  A    between atoms: C_2  and  C_3 
REMARK    2  A    between atoms: C_2  and  N_10 
REMARK    3  A    between atoms: C_3  and  N_4 
REMARK       I    between atoms: N_10  and  C_11 
REMARK       I    between atoms: C_11  and  N_13 
REMARK    4  A    between atoms: C_17  and  N_19 
REMARK       I    between atoms: N_19  and  C_20 
ROOT
HETATM    1  N   UNL     1     -41.618 -48.728  11.530  1.00  0.00    -0.337 N 
HETATM    2  C   UNL     1     -42.543 -49.469  12.223  1.00  0.00     0.318 C 
HETATM    3  O   UNL     1     -43.709 -49.100  12.332  1.00  0.00    -0.247 OA
HETATM    4  N   UNL     1     -42.085 -50.667  12.732  1.00  0.00    -0.332 N 
HETATM    5  C   UNL     1     -40.715 -51.181  12.672  1.00  0.00     0.127 C 
HETATM    6  C   UNL     1     -40.688 -52.602  12.113  1.00  0.00     0.022 C 
HETATM    7  C   UNL     1     -41.609 -53.528  12.903  1.00  0.00     0.028 C 
HETATM    8  C   UNL     1     -43.033 -52.958  12.981  1.00  0.00     0.102 C 
HETATM    9  C   UNL     1     -43.021 -51.503  13.495  1.00  0.00     0.152 C 
HETATM   10  H   UNL     1     -40.717 -48.721  11.984  1.00  0.00     0.164 HD
ENDROOT
BRANCH   1  11
HETATM   11  C   UNL     1     -41.988 -47.455  10.895  1.00  0.00     0.100 C 
HETATM   12  C   UNL     1     -40.761 -46.536  10.892  1.00  0.00     0.034 C 
BRANCH  11  13
HETATM   13  C   UNL     1     -42.537 -47.645   9.462  1.00  0.00     0.153 C 
BRANCH  13  14
HETATM   14  N   UNL     1     -43.857 -47.085   9.252  1.00  0.00    -0.350 N 
HETATM   15  C   UNL     1     -45.044 -47.753   9.358  1.00  0.00     0.108 A 
HETATM   16  C   UNL     1     -46.006 -46.807   9.092  1.00  0.00     0.106 A 
HETATM   17  N   UNL     1     -45.433 -45.589   8.835  1.00  0.00    -0.361 N 
HETATM   18  C   UNL     1     -44.139 -45.780   8.961  1.00  0.00     0.182 A 
ATOM     19  HN  UNL     1     -45.909 -44.719   8.596  1.00  0.00     0.166 HD
ENDBRANCH  13  14
ENDBRANCH  11  13
ENDBRANCH   1  11
BRANCH   8  20
HETATM   20  N   UNL     1     -43.929 -53.834  13.733  1.00  0.00    -0.355 N 
HETATM   21  C   UNL     1     -45.269 -53.968  13.449  1.00  0.00     0.213 C 
HETATM   22  O   UNL     1     -45.836 -53.375  12.539  1.00  0.00    -0.274 OA
HETATM   23  C   UNL     1     -46.006 -54.921  14.347  1.00  0.00     0.117 C 
HETATM   24  H   UNL     1     -43.537 -54.349  14.511  1.00  0.00     0.162 HD
ENDBRANCH   8  20
TORSDOF 4
ENDMDL
MODEL 2
REMARK VINA RESULT:      -5.8      3.238      3.577
REMARK  4 active torsions:
REMARK  status: ('A' for Active; 'I' for Inactive)
REMARK    1  A    between atoms: C_2  and  C_3 
REMARK    2  A    between atoms: C_2  and  N_10 
REMARK    3  A    between atoms: C_3  and  N_4 
REMARK       I    between atoms: N_10  and  C_11 
REMARK       I    between atoms: C_11  and  N_13 
REMARK    4  A    between atoms: C_17  and  N_19 
REMARK       I    between atoms: N_19  and  C_20 
ROOT
HETATM    1  N   UNL     1     -41.047 -47.624  11.815  1.00  0.00    -0.337 N 
HETATM    2  C   UNL     1     -41.040 -48.661  12.715  1.00  0.00     0.318 C 
HETATM    3  O   UNL     1     -42.081 -49.107  13.189  1.00  0.00    -0.247 OA
HETATM    4  N   UNL     1     -39.799 -49.194  13.000  1.00  0.00    -0.332 N 
HETATM    5  C   UNL     1     -38.505 -48.721  12.504  1.00  0.00     0.127 C 
HETATM    6  C   UNL     1     -37.703 -49.866  11.890  1.00  0.00     0.022 C 
HETATM    7  C   UNL     1     -37.546 -51.025  12.870  1.00  0.00     0.028 C 
HETATM    8  C   UNL     1     -38.911 -51.487  13.402  1.00  0.00     0.102 C 
HETATM    9  C   UNL     1     -39.720 -50.298  13.964  1.00  0.00     0.152 C 
HETATM   10  H   UNL     1     -40.293 -46.974  11.978  1.00  0.00     0.164 HD
ENDROOT
BRANCH   1  11
HETATM   11  C   UNL     1     -42.307 -46.999  11.389  1.00  0.00     0.100 C 
HETATM   12  C   UNL     1     -42.452 -45.652  12.107  1.00  0.00     0.034 C 
BRANCH  11  13
HETATM   13  C   UNL     1     -42.388 -46.816   9.855  1.00  0.00     0.153 C 
BRANCH  13  14
HETATM   14  N   UNL     1     -43.605 -47.328   9.259  1.00  0.00    -0.350 N 
HETATM   15  C   UNL     1     -44.835 -47.376   9.852  1.00  0.00     0.108 A 
HETATM   16  C   UNL     1     -45.665 -47.918   8.899  1.00  0.00     0.106 A 
HETATM   17  N   UNL     1     -44.971 -48.191   7.748  1.00  0.00    -0.361 N 
HETATM   18  C   UNL     1     -43.739 -47.804   7.986  1.00  0.00     0.182 A 
ATOM     19  HN  UNL     1     -45.334 -48.606   6.890  1.00  0.00     0.166 HD
ENDBRANCH  13  14
ENDBRANCH  11  13
ENDBRANCH   1  11
BRANCH   8  20
HETATM   20  N   UNL     1     -38.780 -52.598  14.343  1.00  0.00    -0.355 N 
HETATM   21  C   UNL     1     -39.311 -53.847  14.115  1.00  0.00     0.213 C 
HETATM   22  O   UNL     1     -39.934 -54.150  13.104  1.00  0.00    -0.274 OA
HETATM   23  C   UNL     1     -39.058 -54.843  15.213  1.00  0.00     0.117 C 
HETATM   24  H   UNL     1     -38.287 -52.423  15.210  1.00  0.00     0.162 HD
ENDBRANCH   8  20
TORSDOF 4
ENDMDL
MODEL 3
REMARK VINA RESULT:      -5.6      2.170      7.044
REMARK  4 active torsions:
REMARK  status: ('A' for Active; 'I' for Inactive)
REMARK    1  A    between atoms: C_2  and  C_3 
REMARK    2  A    between atoms: C_2  and  N_10 
REMARK    3  A    between atoms: C_3  and  N_4 
REMARK       I    between atoms: N_10  and  C_11 
REMARK       I    between atoms: C_11  and  N_13 
REMARK    4  A    between atoms: C_17  and  N_19 
REMARK       I    between atoms: N_19  and  C_20 
ROOT
HETATM    1  N   UNL     1     -39.925 -52.385  13.404  1.00  0.00    -0.337 N 
HETATM    2  C   UNL     1     -40.510 -51.766  12.328  1.00  0.00     0.318 C 
HETATM    3  O   UNL     1     -41.446 -52.281  11.722  1.00  0.00    -0.247 OA
HETATM    4  N   UNL     1     -40.014 -50.516  12.018  1.00  0.00    -0.332 N 
HETATM    5  C   UNL     1     -38.893 -49.830  12.665  1.00  0.00     0.127 C 
HETATM    6  C   UNL     1     -39.291 -48.421  13.098  1.00  0.00     0.022 C 
HETATM    7  C   UNL     1     -39.850 -47.616  11.928  1.00  0.00     0.028 C 
HETATM    8  C   UNL     1     -41.004 -48.364  11.244  1.00  0.00     0.102 C 
HETATM    9  C   UNL     1     -40.589 -49.803  10.871  1.00  0.00     0.152 C 
HETATM   10  H   UNL     1     -38.922 -52.274  13.409  1.00  0.00     0.164 HD
ENDROOT
BRANCH   1  11
HETATM   11  C   UNL     1     -40.392 -53.699  13.869  1.00  0.00     0.100 C 
HETATM   12  C   UNL     1     -39.170 -54.563  14.201  1.00  0.00     0.034 C 
BRANCH  11  13
HETATM   13  C   UNL     1     -41.338 -53.594  15.089  1.00  0.00     0.153 C 
BRANCH  13  14
HETATM   14  N   UNL     1     -42.740 -53.778  14.770  1.00  0.00    -0.350 N 
HETATM   15  C   UNL     1     -43.418 -54.963  14.769  1.00  0.00     0.108 A 
HETATM   16  C   UNL     1     -44.708 -54.631  14.427  1.00  0.00     0.106 A 
HETATM   17  N   UNL     1     -44.826 -53.280  14.229  1.00  0.00    -0.361 N 
HETATM   18  C   UNL     1     -43.631 -52.789  14.465  1.00  0.00     0.182 A 
ATOM     19  HN  UNL     1     -45.664 -52.766  13.955  1.00  0.00     0.166 HD
ENDBRANCH  13  14
ENDBRANCH  11  13
ENDBRANCH   1  11
BRANCH   8  20
HETATM   20  N   UNL     1     -41.553 -47.607  10.121  1.00  0.00    -0.355 N 
HETATM   21  C   UNL     1     -42.898 -47.364   9.960  1.00  0.00     0.213 C 
HETATM   22  O   UNL     1     -43.760 -47.749  10.741  1.00  0.00    -0.274 OA
HETATM   23  C   UNL     1     -43.246 -46.564   8.735  1.00  0.00     0.117 C 
HETATM   24  H   UNL     1     -40.904 -47.265   9.424  1.00  0.00     0.162 HD
ENDBRANCH   8  20
TORSDOF 4
ENDMDL
MODEL 4
REMARK VINA RESULT:      -5.6      1.945      2.732
REMARK  4 active torsions:
REMARK  status: ('A' for Active; 'I' for Inactive)
REMARK    1  A    between atoms: C_2  and  C_3 
REMARK    2  A    between atoms: C_2  and  N_10 
REMARK    3  A    between atoms: C_3  and  N_4 
REMARK       I    between atoms: N_10  and  C_11 
REMARK       I    between atoms: C_11  and  N_13 
REMARK    4  A    between atoms: C_17  and  N_19 
REMARK       I    between atoms: N_19  and  C_20 
ROOT
HETATM    1  N   UNL     1     -39.921 -49.283  13.788  1.00  0.00    -0.337 N 
HETATM    2  C   UNL     1     -41.094 -49.930  14.087  1.00  0.00     0.318 C 
HETATM    3  O   UNL     1     -42.178 -49.355  14.030  1.00  0.00    -0.247 OA
HETATM    4  N   UNL     1     -40.972 -51.270  14.397  1.00  0.00    -0.332 N 
HETATM    5  C   UNL     1     -39.729 -52.036  14.510  1.00  0.00     0.127 C 
HETATM    6  C   UNL     1     -39.789 -53.305  13.663  1.00  0.00     0.022 C 
HETATM    7  C   UNL     1     -41.011 -54.150  14.012  1.00  0.00     0.028 C 
HETATM    8  C   UNL     1     -42.302 -53.322  13.917  1.00  0.00     0.102 C 
HETATM    9  C   UNL     1     -42.188 -52.019  14.737  1.00  0.00     0.152 C 
HETATM   10  H   UNL     1     -39.172 -49.545  14.411  1.00  0.00     0.164 HD
ENDROOT
BRANCH   1  11
HETATM   11  C   UNL     1     -39.916 -47.867  13.395  1.00  0.00     0.100 C 
HETATM   12  C   UNL     1     -38.859 -47.132  14.227  1.00  0.00     0.034 C 
BRANCH  11  13
HETATM   13  C   UNL     1     -39.657 -47.673  11.882  1.00  0.00     0.153 C 
BRANCH  13  14
HETATM   14  N   UNL     1     -40.861 -47.554  11.084  1.00  0.00    -0.350 N 
HETATM   15  C   UNL     1     -41.428 -46.390  10.647  1.00  0.00     0.108 A 
HETATM   16  C   UNL     1     -42.528 -46.784   9.921  1.00  0.00     0.106 A 
HETATM   17  N   UNL     1     -42.635 -48.150   9.904  1.00  0.00    -0.361 N 
HETATM   18  C   UNL     1     -41.605 -48.588  10.593  1.00  0.00     0.182 A 
ATOM     19  HN  UNL     1     -43.360 -48.709   9.453  1.00  0.00     0.166 HD
ENDBRANCH  13  14
ENDBRANCH  11  13
ENDBRANCH   1  11
BRANCH   8  20
HETATM   20  N   UNL     1     -43.484 -54.117  14.247  1.00  0.00    -0.355 N 
HETATM   21  C   UNL     1     -44.510 -54.348  13.361  1.00  0.00     0.213 C 
HETATM   22  O   UNL     1     -44.530 -53.920  12.212  1.00  0.00    -0.274 OA
HETATM   23  C   UNL     1     -45.628 -55.192  13.906  1.00  0.00     0.117 C 
HETATM   24  H   UNL     1     -43.547 -54.495  15.184  1.00  0.00     0.162 HD
ENDBRANCH   8  20
TORSDOF 4
ENDMDL
MODEL 5
REMARK VINA RESULT:      -5.5      5.848     10.987
REMARK  4 active torsions:
REMARK  status: ('A' for Active; 'I' for Inactive)
REMARK    1  A    between atoms: C_2  and  C_3 
REMARK    2  A    between atoms: C_2  and  N_10 
REMARK    3  A    between atoms: C_3  and  N_4 
REMARK       I    between atoms: N_10  and  C_11 
REMARK       I    between atoms: C_11  and  N_13 
REMARK    4  A    between atoms: C_17  and  N_19 
REMARK       I    between atoms: N_19  and  C_20 
ROOT
HETATM    1  N   UNL     1     -47.381 -53.725  19.965  1.00  0.00    -0.337 N 
HETATM    2  C   UNL     1     -46.524 -53.965  18.920  1.00  0.00     0.318 C 
HETATM    3  O   UNL     1     -45.927 -55.032  18.811  1.00  0.00    -0.247 OA
HETATM    4  N   UNL     1     -46.429 -52.954  17.985  1.00  0.00    -0.332 N 
HETATM    5  C   UNL     1     -47.082 -51.644  18.038  1.00  0.00     0.127 C 
HETATM    6  C   UNL     1     -47.836 -51.356  16.742  1.00  0.00     0.022 C 
HETATM    7  C   UNL     1     -46.924 -51.488  15.525  1.00  0.00     0.028 C 
HETATM    8  C   UNL     1     -46.225 -52.856  15.503  1.00  0.00     0.102 C 
HETATM    9  C   UNL     1     -45.521 -53.141  16.847  1.00  0.00     0.152 C 
HETATM   10  H   UNL     1     -47.303 -52.782  20.314  1.00  0.00     0.164 HD
ENDROOT
BRANCH   1  11
HETATM   11  C   UNL     1     -47.612 -54.739  21.004  1.00  0.00     0.100 C 
HETATM   12  C   UNL     1     -47.162 -54.167  22.354  1.00  0.00     0.034 C 
BRANCH  11  13
HETATM   13  C   UNL     1     -49.087 -55.199  21.066  1.00  0.00     0.153 C 
BRANCH  13  14
HETATM   14  N   UNL     1     -49.331 -56.494  20.463  1.00  0.00    -0.350 N 
HETATM   15  C   UNL     1     -50.529 -57.148  20.412  1.00  0.00     0.108 A 
HETATM   16  C   UNL     1     -50.267 -58.314  19.732  1.00  0.00     0.106 A 
HETATM   17  N   UNL     1     -48.948 -58.376  19.366  1.00  0.00    -0.361 N 
HETATM   18  C   UNL     1     -48.413 -57.257  19.799  1.00  0.00     0.182 A 
ATOM     19  HN  UNL     1     -48.480 -59.131  18.864  1.00  0.00     0.166 HD
ENDBRANCH  13  14
ENDBRANCH  11  13
ENDBRANCH   1  11
BRANCH   8  20
HETATM   20  N   UNL     1     -45.347 -53.000  14.344  1.00  0.00    -0.355 N 
HETATM   21  C   UNL     1     -45.106 -54.205  13.724  1.00  0.00     0.213 C 
HETATM   22  O   UNL     1     -45.606 -55.267  14.078  1.00  0.00    -0.274 OA
HETATM   23  C   UNL     1     -44.172 -54.128  12.549  1.00  0.00     0.117 C 
HETATM   24  H   UNL     1     -44.886 -52.168  13.999  1.00  0.00     0.162 HD
ENDBRANCH   8  20
TORSDOF 4
ENDMDL
MODEL 6
REMARK VINA RESULT:      -5.3      3.369      6.868
REMARK  4 active torsions:
REMARK  status: ('A' for Active; 'I' for Inactive)
REMARK    1  A    between atoms: C_2  and  C_3 
REMARK    2  A    between atoms: C_2  and  N_10 
REMARK    3  A    between atoms: C_3  and  N_4 
REMARK       I    between atoms: N_10  and  C_11 
REMARK       I    between atoms: C_11  and  N_13 
REMARK    4  A    between atoms: C_17  and  N_19 
REMARK       I    between atoms: N_19  and  C_20 
ROOT
HETATM    1  N   UNL     1     -41.278 -52.354  13.912  1.00  0.00    -0.337 N 
HETATM    2  C   UNL     1     -41.172 -51.487  12.853  1.00  0.00     0.318 C 
HETATM    3  O   UNL     1     -42.005 -51.470  11.951  1.00  0.00    -0.247 OA
HETATM    4  N   UNL     1     -40.107 -50.611  12.906  1.00  0.00    -0.332 N 
HETATM    5  C   UNL     1     -39.055 -50.567  13.925  1.00  0.00     0.127 C 
HETATM    6  C   UNL     1     -38.900 -49.158  14.491  1.00  0.00     0.022 C 
HETATM    7  C   UNL     1     -38.662 -48.136  13.383  1.00  0.00     0.028 C 
HETATM    8  C   UNL     1     -39.758 -48.217  12.310  1.00  0.00     0.102 C 
HETATM    9  C   UNL     1     -39.929 -49.664  11.799  1.00  0.00     0.152 C 
HETATM   10  H   UNL     1     -40.384 -52.733  14.186  1.00  0.00     0.164 HD
ENDROOT
BRANCH   1  11
HETATM   11  C   UNL     1     -42.394 -53.307  14.002  1.00  0.00     0.100 C 
HETATM   12  C   UNL     1     -41.905 -54.565  14.730  1.00  0.00     0.034 C 
BRANCH  11  13
HETATM   13  C   UNL     1     -43.630 -52.706  14.713  1.00  0.00     0.153 C 
BRANCH  13  14
HETATM   14  N   UNL     1     -44.747 -52.431  13.832  1.00  0.00    -0.350 N 
HETATM   15  C   UNL     1     -45.664 -51.430  13.980  1.00  0.00     0.108 A 
HETATM   16  C   UNL     1     -46.505 -51.559  12.900  1.00  0.00     0.106 A 
HETATM   17  N   UNL     1     -46.116 -52.605  12.103  1.00  0.00    -0.361 N 
HETATM   18  C   UNL     1     -45.042 -53.097  12.676  1.00  0.00     0.182 A 
ATOM     19  HN  UNL     1     -46.566 -52.932  11.248  1.00  0.00     0.166 HD
ENDBRANCH  13  14
ENDBRANCH  11  13
ENDBRANCH   1  11
BRANCH   8  20
HETATM   20  N   UNL     1     -39.545 -47.243  11.240  1.00  0.00    -0.355 N 
HETATM   21  C   UNL     1     -40.007 -45.948  11.295  1.00  0.00     0.213 C 
HETATM   22  O   UNL     1     -40.630 -45.485  12.243  1.00  0.00    -0.274 OA
HETATM   23  C   UNL     1     -39.677 -45.116  10.088  1.00  0.00     0.117 C 
HETATM   24  H   UNL     1     -39.047 -47.554  10.415  1.00  0.00     0.162 HD
ENDBRANCH   8  20
TORSDOF 4
ENDMDL
MODEL 7
REMARK VINA RESULT:      -5.3      3.171      4.260
REMARK  4 active torsions:
REMARK  status: ('A' for Active; 'I' for Inactive)
REMARK    1  A    between atoms: C_2  and  C_3 
REMARK    2  A    between atoms: C_2  and  N_10 
REMARK    3  A    between atoms: C_3  and  N_4 
REMARK       I    between atoms: N_10  and  C_11 
REMARK       I    between atoms: C_11  and  N_13 
REMARK    4  A    between atoms: C_17  and  N_19 
REMARK       I    between atoms: N_19  and  C_20 
ROOT
HETATM    1  N   UNL     1     -39.011 -50.732  14.506  1.00  0.00    -0.337 N 
HETATM    2  C   UNL     1     -40.301 -50.881  14.953  1.00  0.00     0.318 C 
HETATM    3  O   UNL     1     -40.956 -49.923  15.354  1.00  0.00    -0.247 OA
HETATM    4  N   UNL     1     -40.816 -52.158  14.867  1.00  0.00    -0.332 N 
HETATM    5  C   UNL     1     -40.110 -53.363  14.425  1.00  0.00     0.127 C 
HETATM    6  C   UNL     1     -40.898 -54.091  13.338  1.00  0.00     0.022 C 
HETATM    7  C   UNL     1     -42.321 -54.401  13.796  1.00  0.00     0.028 C 
HETATM    8  C   UNL     1     -43.035 -53.132  14.284  1.00  0.00     0.102 C 
HETATM    9  C   UNL     1     -42.187 -52.389  15.339  1.00  0.00     0.152 C 
HETATM   10  H   UNL     1     -38.415 -51.490  14.802  1.00  0.00     0.164 HD
ENDROOT
BRANCH   1  11
HETATM   11  C   UNL     1     -38.360 -49.414  14.498  1.00  0.00     0.100 C 
HETATM   12  C   UNL     1     -37.056 -49.509  15.300  1.00  0.00     0.034 C 
BRANCH  11  13
HETATM   13  C   UNL     1     -38.087 -48.897  13.066  1.00  0.00     0.153 C 
BRANCH  13  14
HETATM   14  N   UNL     1     -39.192 -49.083  12.147  1.00  0.00    -0.350 N 
HETATM   15  C   UNL     1     -40.311 -48.304  12.062  1.00  0.00     0.108 A 
HETATM   16  C   UNL     1     -41.051 -48.858  11.043  1.00  0.00     0.106 A 
HETATM   17  N   UNL     1     -40.405 -49.943  10.509  1.00  0.00    -0.361 N 
HETATM   18  C   UNL     1     -39.279 -50.042  11.177  1.00  0.00     0.182 A 
ATOM     19  HN  UNL     1     -40.730 -50.547   9.753  1.00  0.00     0.166 HD
ENDBRANCH  13  14
ENDBRANCH  11  13
ENDBRANCH   1  11
BRANCH   8  20
HETATM   20  N   UNL     1     -44.400 -53.411  14.726  1.00  0.00    -0.355 N 
HETATM   21  C   UNL     1     -45.459 -53.557  13.859  1.00  0.00     0.213 C 
HETATM   22  O   UNL     1     -45.360 -53.475  12.640  1.00  0.00    -0.274 OA
HETATM   23  C   UNL     1     -46.777 -53.841  14.525  1.00  0.00     0.117 C 
HETATM   24  H   UNL     1     -44.565 -53.481  15.722  1.00  0.00     0.162 HD
ENDBRANCH   8  20
TORSDOF 4
ENDMDL
MODEL 8
REMARK VINA RESULT:      -5.2      2.816      7.828
REMARK  4 active torsions:
REMARK  status: ('A' for Active; 'I' for Inactive)
REMARK    1  A    between atoms: C_2  and  C_3 
REMARK    2  A    between atoms: C_2  and  N_10 
REMARK    3  A    between atoms: C_3  and  N_4 
REMARK       I    between atoms: N_10  and  C_11 
REMARK       I    between atoms: C_11  and  N_13 
REMARK    4  A    between atoms: C_17  and  N_19 
REMARK       I    between atoms: N_19  and  C_20 
ROOT
HETATM    1  N   UNL     1     -42.684 -50.081  12.134  1.00  0.00    -0.337 N 
HETATM    2  C   UNL     1     -42.398 -48.834  12.633  1.00  0.00     0.318 C 
HETATM    3  O   UNL     1     -41.690 -48.686  13.625  1.00  0.00    -0.247 OA
HETATM    4  N   UNL     1     -42.913 -47.774  11.915  1.00  0.00    -0.332 N 
HETATM    5  C   UNL     1     -43.782 -47.849  10.737  1.00  0.00     0.127 C 
HETATM    6  C   UNL     1     -43.225 -47.006   9.593  1.00  0.00     0.022 C 
HETATM    7  C   UNL     1     -42.984 -45.563  10.030  1.00  0.00     0.028 C 
HETATM    8  C   UNL     1     -42.097 -45.506  11.283  1.00  0.00     0.102 C 
HETATM    9  C   UNL     1     -42.655 -46.413  12.400  1.00  0.00     0.152 C 
HETATM   10  H   UNL     1     -43.640 -50.157  11.822  1.00  0.00     0.164 HD
ENDROOT
BRANCH   1  11
HETATM   11  C   UNL     1     -42.156 -51.293  12.776  1.00  0.00     0.100 C 
HETATM   12  C   UNL     1     -43.272 -52.343  12.830  1.00  0.00     0.034 C 
BRANCH  11  13
HETATM   13  C   UNL     1     -40.909 -51.853  12.051  1.00  0.00     0.153 C 
BRANCH  13  14
HETATM   14  N   UNL     1     -39.657 -51.270  12.489  1.00  0.00    -0.350 N 
HETATM   15  C   UNL     1     -38.991 -50.241  11.886  1.00  0.00     0.108 A 
HETATM   16  C   UNL     1     -37.879 -50.033  12.669  1.00  0.00     0.106 A 
HETATM   17  N   UNL     1     -37.861 -50.903  13.728  1.00  0.00    -0.361 N 
HETATM   18  C   UNL     1     -38.955 -51.620  13.608  1.00  0.00     0.182 A 
ATOM     19  HN  UNL     1     -37.150 -50.978  14.456  1.00  0.00     0.166 HD
ENDBRANCH  13  14
ENDBRANCH  11  13
ENDBRANCH   1  11
BRANCH   8  20
HETATM   20  N   UNL     1     -41.855 -44.131  11.716  1.00  0.00    -0.355 N 
HETATM   21  C   UNL     1     -40.853 -43.342  11.198  1.00  0.00     0.213 C 
HETATM   22  O   UNL     1     -40.077 -43.710  10.323  1.00  0.00    -0.274 OA
HETATM   23  C   UNL     1     -40.781 -41.959  11.784  1.00  0.00     0.117 C 
HETATM   24  H   UNL     1     -42.448 -43.758  12.446  1.00  0.00     0.162 HD
ENDBRANCH   8  20
TORSDOF 4
ENDMDL
MODEL 9
REMARK VINA RESULT:      -5.1      3.007      4.337
REMARK  4 active torsions:
REMARK  status: ('A' for Active; 'I' for Inactive)
REMARK    1  A    between atoms: C_2  and  C_3 
REMARK    2  A    between atoms: C_2  and  N_10 
REMARK    3  A    between atoms: C_3  and  N_4 
REMARK       I    between atoms: N_10  and  C_11 
REMARK       I    between atoms: C_11  and  N_13 
REMARK    4  A    between atoms: C_17  and  N_19 
REMARK       I    between atoms: N_19  and  C_20 
ROOT
HETATM    1  N   UNL     1     -41.959 -49.669  11.417  1.00  0.00    -0.337 N 
HETATM    2  C   UNL     1     -40.997 -50.586  11.760  1.00  0.00     0.318 C 
HETATM    3  O   UNL     1     -39.800 -50.339  11.633  1.00  0.00    -0.247 OA
HETATM    4  N   UNL     1     -41.465 -51.766  12.301  1.00  0.00    -0.332 N 
HETATM    5  C   UNL     1     -42.866 -52.159  12.472  1.00  0.00     0.127 C 
HETATM    6  C   UNL     1     -43.137 -52.605  13.907  1.00  0.00     0.022 C 
HETATM    7  C   UNL     1     -42.179 -53.713  14.336  1.00  0.00     0.028 C 
HETATM    8  C   UNL     1     -40.717 -53.295  14.121  1.00  0.00     0.102 C 
HETATM    9  C   UNL     1     -40.489 -52.795  12.678  1.00  0.00     0.152 C 
HETATM   10  H   UNL     1     -42.752 -50.099  10.966  1.00  0.00     0.164 HD
ENDROOT
BRANCH   1  11
HETATM   11  C   UNL     1     -41.592 -48.352  10.875  1.00  0.00     0.100 C 
HETATM   12  C   UNL     1     -42.737 -47.854   9.986  1.00  0.00     0.034 C 
BRANCH  11  13
HETATM   13  C   UNL     1     -41.270 -47.324  11.985  1.00  0.00     0.153 C 
BRANCH  13  14
HETATM   14  N   UNL     1     -40.877 -46.020  11.490  1.00  0.00    -0.350 N 
HETATM   15  C   UNL     1     -41.452 -44.825  11.817  1.00  0.00     0.108 A 
HETATM   16  C   UNL     1     -40.731 -43.883  11.121  1.00  0.00     0.106 A 
HETATM   17  N   UNL     1     -39.735 -44.477  10.390  1.00  0.00    -0.361 N 
HETATM   18  C   UNL     1     -39.832 -45.761  10.649  1.00  0.00     0.182 A 
ATOM     19  HN  UNL     1     -39.062 -44.019   9.775  1.00  0.00     0.166 HD
ENDBRANCH  13  14
ENDBRANCH  11  13
ENDBRANCH   1  11
BRANCH   8  20
HETATM   20  N   UNL     1     -39.785 -54.345  14.528  1.00  0.00    -0.355 N 
HETATM   21  C   UNL     1     -39.188 -54.386  15.767  1.00  0.00     0.213 C 
HETATM   22  O   UNL     1     -39.384 -53.556  16.647  1.00  0.00    -0.274 OA
HETATM   23  C   UNL     1     -38.264 -55.553  15.977  1.00  0.00     0.117 C 
HETATM   24  H   UNL     1     -39.562 -55.062  13.850  1.00  0.00     0.162 HD
ENDBRANCH   8  20
TORSDOF 4
ENDMDL
