MODEL 1
REMARK VINA RESULT:      -7.1      0.000      0.000
REMARK  7 active torsions:
REMARK  status: ('A' for Active; 'I' for Inactive)
REMARK    1  A    between atoms: N_8  and  C_9 
REMARK    2  A    between atoms: C_9  and  C_10 
REMARK    3  A    between atoms: C_10  and  O_11 
REMARK    4  A    between atoms: C_10  and  C_12 
REMARK    5  A    between atoms: C_12  and  S_13 
REMARK    6  A    between atoms: S_13  and  C_14 
REMARK    7  A    between atoms: N_19  and  O_20 
ROOT
HETATM    1  C   UNL     1     -41.692 -49.344  12.471  1.00  0.00     0.162 C 
ENDROOT
BRANCH   1   2
HETATM    2  N   UNL     1     -41.986 -50.763  12.407  1.00  0.00    -0.339 N 
HETATM    3  C   UNL     1     -41.172 -51.704  11.839  1.00  0.00     0.184 A 
HETATM    4  N   UNL     1     -41.690 -52.907  11.920  1.00  0.00    -0.350 N 
HETATM    5  C   UNL     1     -42.885 -52.736  12.576  1.00  0.00     0.060 A 
ATOM      6  HN  UNL     1     -41.292 -53.779  11.571  1.00  0.00     0.166 HD
HETATM    7  C   UNL     1     -43.835 -53.696  12.952  1.00  0.00     0.039 A 
HETATM    8  C   UNL     1     -43.112 -51.397  12.878  1.00  0.00     0.062 A 
HETATM    9  C   UNL     1     -45.001 -53.294  13.631  1.00  0.00    -0.054 A 
HETATM   10  C   UNL     1     -45.990 -54.350  14.051  1.00  0.00     0.049 C 
HETATM   11  C   UNL     1     -45.218 -51.929  13.915  1.00  0.00    -0.054 A 
HETATM   12  C   UNL     1     -44.267 -50.956  13.530  1.00  0.00     0.039 A 
HETATM   13  C   UNL     1     -46.458 -51.477  14.642  1.00  0.00     0.049 C 
ENDBRANCH   1   2
BRANCH   1  14
HETATM   14  C   UNL     1     -42.630 -48.509  11.581  1.00  0.00     0.146 C 
BRANCH  14  15
HETATM   15  O   UNL     1     -43.312 -47.525  12.377  1.00  0.00    -0.393 OA
HETATM   16  H   UNL     1     -43.514 -47.908  13.249  1.00  0.00     0.210 HD
ENDBRANCH  14  15
BRANCH  14  17
HETATM   17  C   UNL     1     -41.876 -47.776  10.455  1.00  0.00     0.114 C 
BRANCH  17  18
HETATM   18  S   UNL     1     -42.897 -46.450   9.722  1.00  0.00    -0.107 SA
BRANCH  18  19
HETATM   19  C   UNL     1     -44.207 -47.331   8.857  1.00  0.00     0.098 A 
HETATM   20  C   UNL     1     -45.456 -47.342   9.512  1.00  0.00     0.039 A 
HETATM   21  C   UNL     1     -46.532 -48.060   8.999  1.00  0.00     0.004 A 
HETATM   22  C   UNL     1     -46.380 -48.781   7.826  1.00  0.00     0.020 A 
HETATM   23  C   UNL     1     -45.148 -48.769   7.178  1.00  0.00     0.124 A 
HETATM   24  N   UNL     1     -44.052 -48.063   7.672  1.00  0.00    -0.230 N 
BRANCH  24  25
HETATM   25  O   UNL     1     -42.955 -48.133   7.031  1.00  0.00    -0.282 OA
ATOM     26  HO  UNL     1     -42.558 -47.390   6.591  1.00  0.00     0.245 HD
ENDBRANCH  24  25
ENDBRANCH  18  19
ENDBRANCH  17  18
ENDBRANCH  14  17
ENDBRANCH   1  14
TORSDOF 7
ENDMDL
MODEL 2
REMARK VINA RESULT:      -6.9      3.374      4.125
REMARK  7 active torsions:
REMARK  status: ('A' for Active; 'I' for Inactive)
REMARK    1  A    between atoms: N_8  and  C_9 
REMARK    2  A    between atoms: C_9  and  C_10 
REMARK    3  A    between atoms: C_10  and  O_11 
REMARK    4  A    between atoms: C_10  and  C_12 
REMARK    5  A    between atoms: C_12  and  S_13 
REMARK    6  A    between atoms: S_13  and  C_14 
REMARK    7  A    between atoms: N_19  and  O_20 
ROOT
HETATM    1  C   UNL     1     -41.656 -50.399  12.143  1.00  0.00     0.162 C 
ENDROOT
BRANCH   1   2
HETATM    2  N   UNL     1     -42.070 -51.754  12.456  1.00  0.00    -0.339 N 
HETATM    3  C   UNL     1     -41.310 -52.872  12.246  1.00  0.00     0.184 A 
HETATM    4  N   UNL     1     -41.938 -53.963  12.617  1.00  0.00    -0.350 N 
HETATM    5  C   UNL     1     -43.152 -53.530  13.094  1.00  0.00     0.060 A 
ATOM      6  HN  UNL     1     -41.599 -54.923  12.562  1.00  0.00     0.166 HD
HETATM    7  C   UNL     1     -44.205 -54.274  13.642  1.00  0.00     0.039 A 
HETATM    8  C   UNL     1     -43.275 -52.148  12.988  1.00  0.00     0.062 A 
HETATM    9  C   UNL     1     -45.370 -53.617  14.080  1.00  0.00    -0.054 A 
HETATM   10  C   UNL     1     -46.473 -54.438  14.694  1.00  0.00     0.049 C 
HETATM   11  C   UNL     1     -45.481 -52.216  13.950  1.00  0.00    -0.054 A 
HETATM   12  C   UNL     1     -44.425 -51.462  13.389  1.00  0.00     0.039 A 
HETATM   13  C   UNL     1     -46.719 -51.492  14.412  1.00  0.00     0.049 C 
ENDBRANCH   1   2
BRANCH   1  14
HETATM   14  C   UNL     1     -40.218 -50.336  11.598  1.00  0.00     0.146 C 
BRANCH  14  15
HETATM   15  O   UNL     1     -40.237 -49.961  10.210  1.00  0.00    -0.393 OA
HETATM   16  H   UNL     1     -40.260 -50.767   9.665  1.00  0.00     0.210 HD
ENDBRANCH  14  15
BRANCH  14  17
HETATM   17  C   UNL     1     -39.345 -49.318  12.357  1.00  0.00     0.114 C 
BRANCH  17  18
HETATM   18  S   UNL     1     -40.367 -48.078  13.225  1.00  0.00    -0.107 SA
BRANCH  18  19
HETATM   19  C   UNL     1     -40.134 -46.570  12.270  1.00  0.00     0.098 A 
HETATM   20  C   UNL     1     -39.555 -45.496  12.978  1.00  0.00     0.039 A 
HETATM   21  C   UNL     1     -39.400 -44.245  12.387  1.00  0.00     0.004 A 
HETATM   22  C   UNL     1     -39.820 -44.044  11.083  1.00  0.00     0.020 A 
HETATM   23  C   UNL     1     -40.389 -45.105  10.383  1.00  0.00     0.124 A 
HETATM   24  N   UNL     1     -40.562 -46.366  10.951  1.00  0.00    -0.230 N 
BRANCH  24  25
HETATM   25  O   UNL     1     -41.119 -47.269  10.249  1.00  0.00    -0.282 OA
ATOM     26  HO  UNL     1     -41.712 -47.919  10.608  1.00  0.00     0.245 HD
ENDBRANCH  24  25
ENDBRANCH  18  19
ENDBRANCH  17  18
ENDBRANCH  14  17
ENDBRANCH   1  14
TORSDOF 7
ENDMDL
MODEL 3
REMARK VINA RESULT:      -6.8      1.946      2.209
REMARK  7 active torsions:
REMARK  status: ('A' for Active; 'I' for Inactive)
REMARK    1  A    between atoms: N_8  and  C_9 
REMARK    2  A    between atoms: C_9  and  C_10 
REMARK    3  A    between atoms: C_10  and  O_11 
REMARK    4  A    between atoms: C_10  and  C_12 
REMARK    5  A    between atoms: C_12  and  S_13 
REMARK    6  A    between atoms: S_13  and  C_14 
REMARK    7  A    between atoms: N_19  and  O_20 
ROOT
HETATM    1  C   UNL     1     -41.296 -49.820  12.634  1.00  0.00     0.162 C 
ENDROOT
BRANCH   1   2
HETATM    2  N   UNL     1     -41.487 -51.252  12.770  1.00  0.00    -0.339 N 
HETATM    3  C   UNL     1     -40.494 -52.186  12.661  1.00  0.00     0.184 A 
HETATM    4  N   UNL     1     -40.953 -53.405  12.824  1.00  0.00    -0.350 N 
HETATM    5  C   UNL     1     -42.299 -53.250  13.057  1.00  0.00     0.060 A 
ATOM      6  HN  UNL     1     -40.427 -54.277  12.786  1.00  0.00     0.166 HD
HETATM    7  C   UNL     1     -43.271 -54.224  13.324  1.00  0.00     0.039 A 
HETATM    8  C   UNL     1     -42.671 -51.910  13.010  1.00  0.00     0.062 A 
HETATM    9  C   UNL     1     -44.606 -53.835  13.542  1.00  0.00    -0.054 A 
HETATM   10  C   UNL     1     -45.623 -54.900  13.857  1.00  0.00     0.049 C 
HETATM   11  C   UNL     1     -44.965 -52.472  13.475  1.00  0.00    -0.054 A 
HETATM   12  C   UNL     1     -43.990 -51.487  13.197  1.00  0.00     0.039 A 
HETATM   13  C   UNL     1     -46.388 -52.034  13.705  1.00  0.00     0.049 C 
ENDBRANCH   1   2
BRANCH   1  14
HETATM   14  C   UNL     1     -40.223 -49.468  11.589  1.00  0.00     0.146 C 
BRANCH  14  15
HETATM   15  O   UNL     1     -40.618 -49.960  10.297  1.00  0.00    -0.393 OA
HETATM   16  H   UNL     1     -40.284 -50.868  10.189  1.00  0.00     0.210 HD
ENDBRANCH  14  15
BRANCH  14  17
HETATM   17  C   UNL     1     -39.991 -47.949  11.472  1.00  0.00     0.114 C 
BRANCH  17  18
HETATM   18  S   UNL     1     -41.368 -47.005  12.212  1.00  0.00    -0.107 SA
BRANCH  18  19
HETATM   19  C   UNL     1     -42.550 -46.824  10.867  1.00  0.00     0.098 A 
HETATM   20  C   UNL     1     -43.720 -47.603  10.988  1.00  0.00     0.039 A 
HETATM   21  C   UNL     1     -44.676 -47.627   9.977  1.00  0.00     0.004 A 
HETATM   22  C   UNL     1     -44.482 -46.877   8.828  1.00  0.00     0.020 A 
HETATM   23  C   UNL     1     -43.329 -46.106   8.710  1.00  0.00     0.124 A 
HETATM   24  N   UNL     1     -42.352 -46.067   9.704  1.00  0.00    -0.230 N 
BRANCH  24  25
HETATM   25  O   UNL     1     -41.315 -45.359   9.497  1.00  0.00    -0.282 OA
ATOM     26  HO  UNL     1     -40.436 -45.641   9.725  1.00  0.00     0.245 HD
ENDBRANCH  24  25
ENDBRANCH  18  19
ENDBRANCH  17  18
ENDBRANCH  14  17
ENDBRANCH   1  14
TORSDOF 7
ENDMDL
MODEL 4
REMARK VINA RESULT:      -6.7      3.860      5.633
REMARK  7 active torsions:
REMARK  status: ('A' for Active; 'I' for Inactive)
REMARK    1  A    between atoms: N_8  and  C_9 
REMARK    2  A    between atoms: C_9  and  C_10 
REMARK    3  A    between atoms: C_10  and  O_11 
REMARK    4  A    between atoms: C_10  and  C_12 
REMARK    5  A    between atoms: C_12  and  S_13 
REMARK    6  A    between atoms: S_13  and  C_14 
REMARK    7  A    between atoms: N_19  and  O_20 
ROOT
HETATM    1  C   UNL     1     -41.472 -49.121  12.740  1.00  0.00     0.162 C 
ENDROOT
BRANCH   1   2
HETATM    2  N   UNL     1     -42.224 -49.370  13.956  1.00  0.00    -0.339 N 
HETATM    3  C   UNL     1     -41.848 -48.958  15.205  1.00  0.00     0.184 A 
HETATM    4  N   UNL     1     -42.713 -49.327  16.120  1.00  0.00    -0.350 N 
HETATM    5  C   UNL     1     -43.694 -49.998  15.431  1.00  0.00     0.060 A 
ATOM      6  HN  UNL     1     -42.668 -49.153  17.124  1.00  0.00     0.166 HD
HETATM    7  C   UNL     1     -44.874 -50.583  15.911  1.00  0.00     0.039 A 
HETATM    8  C   UNL     1     -43.407 -50.062  14.071  1.00  0.00     0.062 A 
HETATM    9  C   UNL     1     -45.751 -51.222  15.015  1.00  0.00    -0.054 A 
HETATM   10  C   UNL     1     -47.026 -51.814  15.556  1.00  0.00     0.049 C 
HETATM   11  C   UNL     1     -45.433 -51.288  13.642  1.00  0.00    -0.054 A 
HETATM   12  C   UNL     1     -44.240 -50.708  13.153  1.00  0.00     0.039 A 
HETATM   13  C   UNL     1     -46.358 -51.967  12.665  1.00  0.00     0.049 C 
ENDBRANCH   1   2
BRANCH   1  14
HETATM   14  C   UNL     1     -40.680 -50.356  12.276  1.00  0.00     0.146 C 
BRANCH  14  15
HETATM   15  O   UNL     1     -40.620 -50.386  10.839  1.00  0.00    -0.393 OA
HETATM   16  H   UNL     1     -40.988 -49.555  10.490  1.00  0.00     0.210 HD
ENDBRANCH  14  15
BRANCH  14  17
HETATM   17  C   UNL     1     -39.237 -50.368  12.815  1.00  0.00     0.114 C 
BRANCH  17  18
HETATM   18  S   UNL     1     -38.908 -51.866  13.807  1.00  0.00    -0.107 SA
BRANCH  18  19
HETATM   19  C   UNL     1     -40.496 -52.710  13.869  1.00  0.00     0.098 A 
HETATM   20  C   UNL     1     -41.132 -52.701  15.128  1.00  0.00     0.039 A 
HETATM   21  C   UNL     1     -42.321 -53.392  15.339  1.00  0.00     0.004 A 
HETATM   22  C   UNL     1     -42.896 -54.104  14.299  1.00  0.00     0.020 A 
HETATM   23  C   UNL     1     -42.271 -54.111  13.056  1.00  0.00     0.124 A 
HETATM   24  N   UNL     1     -41.076 -53.433  12.817  1.00  0.00    -0.230 N 
BRANCH  24  25
HETATM   25  O   UNL     1     -40.558 -53.520  11.658  1.00  0.00    -0.282 OA
ATOM     26  HO  UNL     1     -40.117 -54.299  11.339  1.00  0.00     0.245 HD
ENDBRANCH  24  25
ENDBRANCH  18  19
ENDBRANCH  17  18
ENDBRANCH  14  17
ENDBRANCH   1  14
TORSDOF 7
ENDMDL
MODEL 5
REMARK VINA RESULT:      -6.4      4.053      7.382
REMARK  7 active torsions:
REMARK  status: ('A' for Active; 'I' for Inactive)
REMARK    1  A    between atoms: N_8  and  C_9 
REMARK    2  A    between atoms: C_9  and  C_10 
REMARK    3  A    between atoms: C_10  and  O_11 
REMARK    4  A    between atoms: C_10  and  C_12 
REMARK    5  A    between atoms: C_12  and  S_13 
REMARK    6  A    between atoms: S_13  and  C_14 
REMARK    7  A    between atoms: N_19  and  O_20 
ROOT
HETATM    1  C   UNL     1     -39.536 -49.997  13.491  1.00  0.00     0.162 C 
ENDROOT
BRANCH   1   2
HETATM    2  N   UNL     1     -40.079 -49.204  12.404  1.00  0.00    -0.339 N 
HETATM    3  C   UNL     1     -40.722 -49.716  11.311  1.00  0.00     0.184 A 
HETATM    4  N   UNL     1     -41.103 -48.770  10.485  1.00  0.00    -0.350 N 
HETATM    5  C   UNL     1     -40.696 -47.597  11.075  1.00  0.00     0.060 A 
ATOM      6  HN  UNL     1     -41.594 -48.880   9.598  1.00  0.00     0.166 HD
HETATM    7  C   UNL     1     -40.868 -46.277  10.636  1.00  0.00     0.039 A 
HETATM    8  C   UNL     1     -40.031 -47.836  12.273  1.00  0.00     0.062 A 
HETATM    9  C   UNL     1     -40.371 -45.214  11.412  1.00  0.00    -0.054 A 
HETATM   10  C   UNL     1     -40.598 -43.804  10.932  1.00  0.00     0.049 C 
HETATM   11  C   UNL     1     -39.686 -45.479  12.617  1.00  0.00    -0.054 A 
HETATM   12  C   UNL     1     -39.501 -46.809  13.060  1.00  0.00     0.039 A 
HETATM   13  C   UNL     1     -39.145 -44.356  13.464  1.00  0.00     0.049 C 
ENDBRANCH   1   2
BRANCH   1  14
HETATM   14  C   UNL     1     -39.433 -51.491  13.135  1.00  0.00     0.146 C 
BRANCH  14  15
HETATM   15  O   UNL     1     -38.055 -51.852  12.938  1.00  0.00    -0.393 OA
HETATM   16  H   UNL     1     -37.506 -51.050  12.997  1.00  0.00     0.210 HD
ENDBRANCH  14  15
BRANCH  14  17
HETATM   17  C   UNL     1     -40.013 -52.400  14.235  1.00  0.00     0.114 C 
BRANCH  17  18
HETATM   18  S   UNL     1     -40.479 -54.036  13.571  1.00  0.00    -0.107 SA
BRANCH  18  19
HETATM   19  C   UNL     1     -42.277 -53.985  13.496  1.00  0.00     0.098 A 
HETATM   20  C   UNL     1     -42.940 -54.760  14.469  1.00  0.00     0.039 A 
HETATM   21  C   UNL     1     -44.326 -54.882  14.471  1.00  0.00     0.004 A 
HETATM   22  C   UNL     1     -45.075 -54.235  13.501  1.00  0.00     0.020 A 
HETATM   23  C   UNL     1     -44.420 -53.467  12.542  1.00  0.00     0.124 A 
HETATM   24  N   UNL     1     -43.033 -53.332  12.512  1.00  0.00    -0.230 N 
BRANCH  24  25
HETATM   25  O   UNL     1     -42.517 -52.636  11.580  1.00  0.00    -0.282 OA
ATOM     26  HO  UNL     1     -42.173 -51.761  11.711  1.00  0.00     0.245 HD
ENDBRANCH  24  25
ENDBRANCH  18  19
ENDBRANCH  17  18
ENDBRANCH  14  17
ENDBRANCH   1  14
TORSDOF 7
ENDMDL
MODEL 6
REMARK VINA RESULT:      -6.3      4.131      6.890
REMARK  7 active torsions:
REMARK  status: ('A' for Active; 'I' for Inactive)
REMARK    1  A    between atoms: N_8  and  C_9 
REMARK    2  A    between atoms: C_9  and  C_10 
REMARK    3  A    between atoms: C_10  and  O_11 
REMARK    4  A    between atoms: C_10  and  C_12 
REMARK    5  A    between atoms: C_12  and  S_13 
REMARK    6  A    between atoms: S_13  and  C_14 
REMARK    7  A    between atoms: N_19  and  O_20 
ROOT
HETATM    1  C   UNL     1     -40.037 -51.485  12.823  1.00  0.00     0.162 C 
ENDROOT
BRANCH   1   2
HETATM    2  N   UNL     1     -40.132 -50.148  12.266  1.00  0.00    -0.339 N 
HETATM    3  C   UNL     1     -40.614 -49.854  11.020  1.00  0.00     0.184 A 
HETATM    4  N   UNL     1     -40.579 -48.565  10.777  1.00  0.00    -0.350 N 
HETATM    5  C   UNL     1     -40.060 -48.002  11.918  1.00  0.00     0.060 A 
ATOM      6  HN  UNL     1     -40.872 -48.085   9.926  1.00  0.00     0.166 HD
HETATM    7  C   UNL     1     -39.829 -46.652  12.215  1.00  0.00     0.039 A 
HETATM    8  C   UNL     1     -39.749 -48.972  12.867  1.00  0.00     0.062 A 
HETATM    9  C   UNL     1     -39.290 -46.295  13.465  1.00  0.00    -0.054 A 
HETATM   10  C   UNL     1     -39.081 -44.835  13.769  1.00  0.00     0.049 C 
HETATM   11  C   UNL     1     -38.968 -47.296  14.407  1.00  0.00    -0.054 A 
HETATM   12  C   UNL     1     -39.190 -48.659  14.109  1.00  0.00     0.039 A 
HETATM   13  C   UNL     1     -38.390 -46.936  15.752  1.00  0.00     0.049 C 
ENDBRANCH   1   2
BRANCH   1  14
HETATM   14  C   UNL     1     -41.135 -52.422  12.292  1.00  0.00     0.146 C 
BRANCH  14  15
HETATM   15  O   UNL     1     -40.548 -53.448  11.473  1.00  0.00    -0.393 OA
HETATM   16  H   UNL     1     -41.251 -54.048  11.165  1.00  0.00     0.210 HD
ENDBRANCH  14  15
BRANCH  14  17
HETATM   17  C   UNL     1     -41.923 -53.108  13.426  1.00  0.00     0.114 C 
BRANCH  17  18
HETATM   18  S   UNL     1     -43.498 -53.804  12.816  1.00  0.00    -0.107 SA
BRANCH  18  19
HETATM   19  C   UNL     1     -44.758 -52.748  13.547  1.00  0.00     0.098 A 
HETATM   20  C   UNL     1     -44.529 -52.380  14.889  1.00  0.00     0.039 A 
HETATM   21  C   UNL     1     -45.466 -51.640  15.603  1.00  0.00     0.004 A 
HETATM   22  C   UNL     1     -46.649 -51.255  14.992  1.00  0.00     0.020 A 
HETATM   23  C   UNL     1     -46.874 -51.615  13.666  1.00  0.00     0.124 A 
HETATM   24  N   UNL     1     -45.956 -52.361  12.929  1.00  0.00    -0.230 N 
BRANCH  24  25
HETATM   25  O   UNL     1     -46.258 -52.672  11.733  1.00  0.00    -0.282 OA
ATOM     26  HO  UNL     1     -46.593 -52.048  11.099  1.00  0.00     0.245 HD
ENDBRANCH  24  25
ENDBRANCH  18  19
ENDBRANCH  17  18
ENDBRANCH  14  17
ENDBRANCH   1  14
TORSDOF 7
ENDMDL
MODEL 7
REMARK VINA RESULT:      -6.2      3.841      6.492
REMARK  7 active torsions:
REMARK  status: ('A' for Active; 'I' for Inactive)
REMARK    1  A    between atoms: N_8  and  C_9 
REMARK    2  A    between atoms: C_9  and  C_10 
REMARK    3  A    between atoms: C_10  and  O_11 
REMARK    4  A    between atoms: C_10  and  C_12 
REMARK    5  A    between atoms: C_12  and  S_13 
REMARK    6  A    between atoms: S_13  and  C_14 
REMARK    7  A    between atoms: N_19  and  O_20 
ROOT
HETATM    1  C   UNL     1     -40.588 -52.195  13.632  1.00  0.00     0.162 C 
ENDROOT
BRANCH   1   2
HETATM    2  N   UNL     1     -39.905 -51.023  13.118  1.00  0.00    -0.339 N 
HETATM    3  C   UNL     1     -38.549 -50.844  13.124  1.00  0.00     0.184 A 
HETATM    4  N   UNL     1     -38.209 -49.689  12.602  1.00  0.00    -0.350 N 
HETATM    5  C   UNL     1     -39.395 -49.102  12.235  1.00  0.00     0.060 A 
ATOM      6  HN  UNL     1     -37.268 -49.310  12.492  1.00  0.00     0.166 HD
HETATM    7  C   UNL     1     -39.617 -47.869  11.605  1.00  0.00     0.039 A 
HETATM    8  C   UNL     1     -40.483 -49.905  12.564  1.00  0.00     0.062 A 
HETATM    9  C   UNL     1     -40.932 -47.463  11.311  1.00  0.00    -0.054 A 
HETATM   10  C   UNL     1     -41.139 -46.148  10.606  1.00  0.00     0.049 C 
HETATM   11  C   UNL     1     -42.022 -48.286  11.667  1.00  0.00    -0.054 A 
HETATM   12  C   UNL     1     -41.804 -49.525  12.311  1.00  0.00     0.039 A 
HETATM   13  C   UNL     1     -43.438 -47.870  11.362  1.00  0.00     0.049 C 
ENDBRANCH   1   2
BRANCH   1  14
HETATM   14  C   UNL     1     -41.365 -52.949  12.538  1.00  0.00     0.146 C 
BRANCH  14  15
HETATM   15  O   UNL     1     -40.509 -53.190  11.408  1.00  0.00    -0.393 OA
HETATM   16  H   UNL     1     -39.584 -53.219  11.712  1.00  0.00     0.210 HD
ENDBRANCH  14  15
BRANCH  14  17
HETATM   17  C   UNL     1     -41.904 -54.307  13.028  1.00  0.00     0.114 C 
BRANCH  17  18
HETATM   18  S   UNL     1     -42.771 -54.143  14.627  1.00  0.00    -0.107 SA
BRANCH  18  19
HETATM   19  C   UNL     1     -44.215 -53.140  14.244  1.00  0.00     0.098 A 
HETATM   20  C   UNL     1     -44.207 -51.842  14.795  1.00  0.00     0.039 A 
HETATM   21  C   UNL     1     -45.300 -50.992  14.653  1.00  0.00     0.004 A 
HETATM   22  C   UNL     1     -46.420 -51.423  13.960  1.00  0.00     0.020 A 
HETATM   23  C   UNL     1     -46.427 -52.703  13.413  1.00  0.00     0.124 A 
HETATM   24  N   UNL     1     -45.349 -53.577  13.546  1.00  0.00    -0.230 N 
BRANCH  24  25
HETATM   25  O   UNL     1     -45.454 -54.741  13.040  1.00  0.00    -0.282 OA
ATOM     26  HO  UNL     1     -46.011 -55.420  13.404  1.00  0.00     0.245 HD
ENDBRANCH  24  25
ENDBRANCH  18  19
ENDBRANCH  17  18
ENDBRANCH  14  17
ENDBRANCH   1  14
TORSDOF 7
ENDMDL
MODEL 8
REMARK VINA RESULT:      -6.2      2.700      3.584
REMARK  7 active torsions:
REMARK  status: ('A' for Active; 'I' for Inactive)
REMARK    1  A    between atoms: N_8  and  C_9 
REMARK    2  A    between atoms: C_9  and  C_10 
REMARK    3  A    between atoms: C_10  and  O_11 
REMARK    4  A    between atoms: C_10  and  C_12 
REMARK    5  A    between atoms: C_12  and  S_13 
REMARK    6  A    between atoms: S_13  and  C_14 
REMARK    7  A    between atoms: N_19  and  O_20 
ROOT
HETATM    1  C   UNL     1     -39.856 -52.175  14.066  1.00  0.00     0.162 C 
ENDROOT
BRANCH   1   2
HETATM    2  N   UNL     1     -41.125 -52.248  13.366  1.00  0.00    -0.339 N 
HETATM    3  C   UNL     1     -41.281 -52.663  12.073  1.00  0.00     0.184 A 
HETATM    4  N   UNL     1     -42.538 -52.622  11.697  1.00  0.00    -0.350 N 
HETATM    5  C   UNL     1     -43.223 -52.168  12.799  1.00  0.00     0.060 A 
ATOM      6  HN  UNL     1     -42.922 -52.871  10.786  1.00  0.00     0.166 HD
HETATM    7  C   UNL     1     -44.600 -51.961  12.963  1.00  0.00     0.039 A 
HETATM    8  C   UNL     1     -42.362 -51.904  13.859  1.00  0.00     0.062 A 
HETATM    9  C   UNL     1     -45.092 -51.492  14.196  1.00  0.00    -0.054 A 
HETATM   10  C   UNL     1     -46.578 -51.308  14.354  1.00  0.00     0.049 C 
HETATM   11  C   UNL     1     -44.200 -51.216  15.253  1.00  0.00    -0.054 A 
HETATM   12  C   UNL     1     -42.810 -51.415  15.090  1.00  0.00     0.039 A 
HETATM   13  C   UNL     1     -44.705 -50.714  16.581  1.00  0.00     0.049 C 
ENDBRANCH   1   2
BRANCH   1  14
HETATM   14  C   UNL     1     -38.953 -51.051  13.530  1.00  0.00     0.146 C 
BRANCH  14  15
HETATM   15  O   UNL     1     -38.512 -51.370  12.199  1.00  0.00    -0.393 OA
HETATM   16  H   UNL     1     -37.540 -51.336  12.171  1.00  0.00     0.210 HD
ENDBRANCH  14  15
BRANCH  14  17
HETATM   17  C   UNL     1     -39.672 -49.689  13.482  1.00  0.00     0.114 C 
BRANCH  17  18
HETATM   18  S   UNL     1     -39.319 -48.802  11.925  1.00  0.00    -0.107 SA
BRANCH  18  19
HETATM   19  C   UNL     1     -40.893 -48.051  11.480  1.00  0.00     0.098 A 
HETATM   20  C   UNL     1     -42.036 -48.748  11.921  1.00  0.00     0.039 A 
HETATM   21  C   UNL     1     -43.316 -48.327  11.571  1.00  0.00     0.004 A 
HETATM   22  C   UNL     1     -43.477 -47.205  10.775  1.00  0.00     0.020 A 
HETATM   23  C   UNL     1     -42.348 -46.514  10.342  1.00  0.00     0.124 A 
HETATM   24  N   UNL     1     -41.054 -46.917  10.672  1.00  0.00    -0.230 N 
BRANCH  24  25
HETATM   25  O   UNL     1     -40.079 -46.244  10.206  1.00  0.00    -0.282 OA
ATOM     26  HO  UNL     1     -40.073 -45.869   9.333  1.00  0.00     0.245 HD
ENDBRANCH  24  25
ENDBRANCH  18  19
ENDBRANCH  17  18
ENDBRANCH  14  17
ENDBRANCH   1  14
TORSDOF 7
ENDMDL
MODEL 9
REMARK VINA RESULT:      -6.1      2.783      3.957
REMARK  7 active torsions:
REMARK  status: ('A' for Active; 'I' for Inactive)
REMARK    1  A    between atoms: N_8  and  C_9 
REMARK    2  A    between atoms: C_9  and  C_10 
REMARK    3  A    between atoms: C_10  and  O_11 
REMARK    4  A    between atoms: C_10  and  C_12 
REMARK    5  A    between atoms: C_12  and  S_13 
REMARK    6  A    between atoms: S_13  and  C_14 
REMARK    7  A    between atoms: N_19  and  O_20 
ROOT
HETATM    1  C   UNL     1     -41.677 -49.390  12.472  1.00  0.00     0.162 C 
ENDROOT
BRANCH   1   2
HETATM    2  N   UNL     1     -41.953 -50.813  12.430  1.00  0.00    -0.339 N 
HETATM    3  C   UNL     1     -41.109 -51.758  11.914  1.00  0.00     0.184 A 
HETATM    4  N   UNL     1     -41.618 -52.964  12.003  1.00  0.00    -0.350 N 
HETATM    5  C   UNL     1     -42.839 -52.792  12.610  1.00  0.00     0.060 A 
ATOM      6  HN  UNL     1     -41.199 -53.840  11.690  1.00  0.00     0.166 HD
HETATM    7  C   UNL     1     -43.792 -53.753  12.973  1.00  0.00     0.039 A 
HETATM    8  C   UNL     1     -43.090 -51.449  12.874  1.00  0.00     0.062 A 
HETATM    9  C   UNL     1     -44.986 -53.349  13.600  1.00  0.00    -0.054 A 
HETATM   10  C   UNL     1     -45.979 -54.406  14.007  1.00  0.00     0.049 C 
HETATM   11  C   UNL     1     -45.227 -51.980  13.844  1.00  0.00    -0.054 A 
HETATM   12  C   UNL     1     -44.273 -51.006  13.472  1.00  0.00     0.039 A 
HETATM   13  C   UNL     1     -46.498 -51.525  14.514  1.00  0.00     0.049 C 
ENDBRANCH   1   2
BRANCH   1  14
HETATM   14  C   UNL     1     -42.066 -48.677  11.165  1.00  0.00     0.146 C 
BRANCH  14  15
HETATM   15  O   UNL     1     -43.489 -48.473  11.125  1.00  0.00    -0.393 OA
HETATM   16  H   UNL     1     -43.809 -48.300  12.028  1.00  0.00     0.210 HD
ENDBRANCH  14  15
BRANCH  14  17
HETATM   17  C   UNL     1     -41.381 -47.305  11.015  1.00  0.00     0.114 C 
BRANCH  17  18
HETATM   18  S   UNL     1     -42.483 -46.094  10.205  1.00  0.00    -0.107 SA
BRANCH  18  19
HETATM   19  C   UNL     1     -41.907 -44.500  10.811  1.00  0.00     0.098 A 
HETATM   20  C   UNL     1     -40.655 -44.522  11.459  1.00  0.00     0.039 A 
HETATM   21  C   UNL     1     -40.132 -43.378  12.054  1.00  0.00     0.004 A 
HETATM   22  C   UNL     1     -40.849 -42.193  12.013  1.00  0.00     0.020 A 
HETATM   23  C   UNL     1     -42.084 -42.170  11.371  1.00  0.00     0.124 A 
HETATM   24  N   UNL     1     -42.634 -43.302  10.773  1.00  0.00    -0.230 N 
BRANCH  24  25
HETATM   25  O   UNL     1     -43.783 -43.198  10.235  1.00  0.00    -0.282 OA
ATOM     26  HO  UNL     1     -44.259 -42.378  10.173  1.00  0.00     0.245 HD
ENDBRANCH  24  25
ENDBRANCH  18  19
ENDBRANCH  17  18
ENDBRANCH  14  17
ENDBRANCH   1  14
TORSDOF 7
ENDMDL
