MODEL 1
REMARK VINA RESULT:      -6.0      0.000      0.000
REMARK  6 active torsions:
REMARK  status: ('A' for Active; 'I' for Inactive)
REMARK    1  A    between atoms: N_6  and  C_7 
REMARK    2  A    between atoms: C_7  and  C_8 
REMARK    3  A    between atoms: C_8  and  C_9 
REMARK    4  A    between atoms: C_9  and  N_10 
REMARK       I    between atoms: N_10  and  C_11 
REMARK    5  A    between atoms: C_11  and  C_13 
REMARK    6  A    between atoms: C_13  and  N_14 
ROOT
HETATM    1  N   UNL     1     -39.468 -51.236  12.154  1.00  0.00    -0.360 N 
HETATM    2  C   UNL     1     -39.096 -49.936  11.968  1.00  0.00     0.235 C 
HETATM    3  O   UNL     1     -38.127 -49.699  11.244  1.00  0.00    -0.272 OA
HETATM    4  H   UNL     1     -38.924 -51.894  11.609  1.00  0.00     0.162 HD
ENDROOT
BRANCH   1   5
HETATM    5  C   UNL     1     -40.604 -51.728  12.902  1.00  0.00     0.124 C 
BRANCH   5   6
HETATM    6  C   UNL     1     -41.700 -52.295  12.004  1.00  0.00     0.050 C 
BRANCH   6   7
HETATM    7  C   UNL     1     -42.731 -53.088  12.814  1.00  0.00     0.274 C 
BRANCH   7   8
HETATM    8  N   UNL     1     -43.967 -52.336  13.099  1.00  0.00     0.088 N 
HETATM    9  C   UNL     1     -43.961 -51.751  14.450  1.00  0.00     0.272 C 
HETATM   10  C   UNL     1     -45.252 -50.996  14.763  1.00  0.00     0.031 C 
HETATM   11  C   UNL     1     -46.478 -51.872  14.546  1.00  0.00     0.007 C 
HETATM   12  C   UNL     1     -46.467 -52.514  13.156  1.00  0.00     0.010 C 
HETATM   13  C   UNL     1     -46.757 -51.492  12.052  1.00  0.00     0.011 C 
HETATM   14  C   UNL     1     -45.127 -53.230  12.922  1.00  0.00     0.276 C 
ENDBRANCH   7   8
ENDBRANCH   6   7
ENDBRANCH   5   6
ENDBRANCH   1   5
BRANCH   2  15
HETATM   15  C   UNL     1     -39.812 -48.817  12.734  1.00  0.00     0.235 C 
BRANCH  15  16
HETATM   16  N   UNL     1     -40.557 -47.931  11.833  1.00  0.00    -0.301 N 
HETATM   17  C   UNL     1     -41.483 -48.488  10.981  1.00  0.00     0.102 A 
HETATM   18  C   UNL     1     -42.202 -47.747  10.143  1.00  0.00     0.092 A 
HETATM   19  C   UNL     1     -42.012 -46.288  10.121  1.00  0.00     0.252 A 
HETATM   20  O   UNL     1     -42.716 -45.615   9.375  1.00  0.00    -0.268 OA
HETATM   21  N   UNL     1     -41.034 -45.790  10.962  1.00  0.00    -0.271 N 
HETATM   22  C   UNL     1     -40.771 -44.365  10.950  1.00  0.00     0.164 C 
HETATM   23  C   UNL     1     -40.307 -46.564  11.870  1.00  0.00     0.331 A 
HETATM   24  O   UNL     1     -39.497 -46.056  12.649  1.00  0.00    -0.246 OA
ENDBRANCH  15  16
ENDBRANCH   2  15
TORSDOF 6
ENDMDL
MODEL 2
REMARK VINA RESULT:      -6.0      1.944      3.049
REMARK  6 active torsions:
REMARK  status: ('A' for Active; 'I' for Inactive)
REMARK    1  A    between atoms: N_6  and  C_7 
REMARK    2  A    between atoms: C_7  and  C_8 
REMARK    3  A    between atoms: C_8  and  C_9 
REMARK    4  A    between atoms: C_9  and  N_10 
REMARK       I    between atoms: N_10  and  C_11 
REMARK    5  A    between atoms: C_11  and  C_13 
REMARK    6  A    between atoms: C_13  and  N_14 
ROOT
HETATM    1  N   UNL     1     -42.273 -49.810  11.809  1.00  0.00    -0.360 N 
HETATM    2  C   UNL     1     -42.367 -48.525  11.357  1.00  0.00     0.235 C 
HETATM    3  O   UNL     1     -43.445 -47.939  11.472  1.00  0.00    -0.272 OA
HETATM    4  H   UNL     1     -43.115 -50.141  12.263  1.00  0.00     0.162 HD
ENDROOT
BRANCH   1   5
HETATM    5  C   UNL     1     -41.096 -50.650  11.834  1.00  0.00     0.124 C 
BRANCH   5   6
HETATM    6  C   UNL     1     -41.432 -52.136  11.899  1.00  0.00     0.050 C 
BRANCH   6   7
HETATM    7  C   UNL     1     -41.496 -52.633  13.347  1.00  0.00     0.274 C 
BRANCH   7   8
HETATM    8  N   UNL     1     -42.835 -53.091  13.758  1.00  0.00     0.088 N 
HETATM    9  C   UNL     1     -42.804 -54.444  14.339  1.00  0.00     0.272 C 
HETATM   10  C   UNL     1     -44.194 -54.938  14.739  1.00  0.00     0.031 C 
HETATM   11  C   UNL     1     -45.171 -54.858  13.575  1.00  0.00     0.007 C 
HETATM   12  C   UNL     1     -45.177 -53.463  12.944  1.00  0.00     0.010 C 
HETATM   13  C   UNL     1     -45.860 -52.431  13.846  1.00  0.00     0.011 C 
HETATM   14  C   UNL     1     -43.741 -53.043  12.594  1.00  0.00     0.276 C 
ENDBRANCH   7   8
ENDBRANCH   6   7
ENDBRANCH   5   6
ENDBRANCH   1   5
BRANCH   2  15
HETATM   15  C   UNL     1     -41.181 -47.880  10.632  1.00  0.00     0.235 C 
BRANCH  15  16
HETATM   16  N   UNL     1     -40.644 -46.735  11.377  1.00  0.00    -0.301 N 
HETATM   17  C   UNL     1     -39.910 -46.978  12.515  1.00  0.00     0.102 A 
HETATM   18  C   UNL     1     -39.385 -45.992  13.237  1.00  0.00     0.092 A 
HETATM   19  C   UNL     1     -39.586 -44.598  12.812  1.00  0.00     0.252 A 
HETATM   20  O   UNL     1     -39.056 -43.703  13.463  1.00  0.00    -0.268 OA
HETATM   21  N   UNL     1     -40.373 -44.412  11.689  1.00  0.00    -0.271 N 
HETATM   22  C   UNL     1     -40.642 -43.057  11.251  1.00  0.00     0.164 C 
HETATM   23  C   UNL     1     -40.890 -45.449  10.910  1.00  0.00     0.331 A 
HETATM   24  O   UNL     1     -41.526 -45.226   9.876  1.00  0.00    -0.246 OA
ENDBRANCH  15  16
ENDBRANCH   2  15
TORSDOF 6
ENDMDL
MODEL 3
REMARK VINA RESULT:      -5.9      2.021      3.107
REMARK  6 active torsions:
REMARK  status: ('A' for Active; 'I' for Inactive)
REMARK    1  A    between atoms: N_6  and  C_7 
REMARK    2  A    between atoms: C_7  and  C_8 
REMARK    3  A    between atoms: C_8  and  C_9 
REMARK    4  A    between atoms: C_9  and  N_10 
REMARK       I    between atoms: N_10  and  C_11 
REMARK    5  A    between atoms: C_11  and  C_13 
REMARK    6  A    between atoms: C_13  and  N_14 
ROOT
HETATM    1  N   UNL     1     -40.348 -53.434  14.013  1.00  0.00    -0.360 N 
HETATM    2  C   UNL     1     -40.063 -52.479  13.079  1.00  0.00     0.235 C 
HETATM    3  O   UNL     1     -39.002 -51.860  13.177  1.00  0.00    -0.272 OA
HETATM    4  H   UNL     1     -39.602 -53.582  14.681  1.00  0.00     0.162 HD
ENDROOT
BRANCH   1   5
HETATM    5  C   UNL     1     -41.494 -54.316  14.047  1.00  0.00     0.124 C 
BRANCH   5   6
HETATM    6  C   UNL     1     -42.569 -53.849  15.024  1.00  0.00     0.050 C 
BRANCH   6   7
HETATM    7  C   UNL     1     -43.883 -54.608  14.814  1.00  0.00     0.274 C 
BRANCH   7   8
HETATM    8  N   UNL     1     -45.047 -53.729  14.599  1.00  0.00     0.088 N 
HETATM    9  C   UNL     1     -45.294 -53.476  13.169  1.00  0.00     0.272 C 
HETATM   10  C   UNL     1     -46.481 -52.541  12.940  1.00  0.00     0.031 C 
HETATM   11  C   UNL     1     -46.323 -51.238  13.712  1.00  0.00     0.007 C 
HETATM   12  C   UNL     1     -46.026 -51.498  15.192  1.00  0.00     0.010 C 
HETATM   13  C   UNL     1     -47.257 -52.022  15.938  1.00  0.00     0.011 C 
HETATM   14  C   UNL     1     -44.836 -52.462  15.325  1.00  0.00     0.276 C 
ENDBRANCH   7   8
ENDBRANCH   6   7
ENDBRANCH   5   6
ENDBRANCH   1   5
BRANCH   2  15
HETATM   15  C   UNL     1     -41.098 -52.126  12.004  1.00  0.00     0.235 C 
BRANCH  15  16
HETATM   16  N   UNL     1     -41.645 -50.779  12.198  1.00  0.00    -0.301 N 
HETATM   17  C   UNL     1     -42.683 -50.613  13.086  1.00  0.00     0.102 A 
HETATM   18  C   UNL     1     -43.225 -49.422  13.320  1.00  0.00     0.092 A 
HETATM   19  C   UNL     1     -42.703 -48.239  12.617  1.00  0.00     0.252 A 
HETATM   20  O   UNL     1     -43.183 -47.140  12.879  1.00  0.00    -0.268 OA
HETATM   21  N   UNL     1     -41.694 -48.473  11.700  1.00  0.00    -0.271 N 
HETATM   22  C   UNL     1     -41.172 -47.351  10.945  1.00  0.00     0.164 C 
HETATM   23  C   UNL     1     -41.100 -49.718  11.484  1.00  0.00     0.331 A 
HETATM   24  O   UNL     1     -40.152 -49.856  10.706  1.00  0.00    -0.246 OA
ENDBRANCH  15  16
ENDBRANCH   2  15
TORSDOF 6
ENDMDL
MODEL 4
REMARK VINA RESULT:      -5.8      3.831      7.546
REMARK  6 active torsions:
REMARK  status: ('A' for Active; 'I' for Inactive)
REMARK    1  A    between atoms: N_6  and  C_7 
REMARK    2  A    between atoms: C_7  and  C_8 
REMARK    3  A    between atoms: C_8  and  C_9 
REMARK    4  A    between atoms: C_9  and  N_10 
REMARK       I    between atoms: N_10  and  C_11 
REMARK    5  A    between atoms: C_11  and  C_13 
REMARK    6  A    between atoms: C_13  and  N_14 
ROOT
HETATM    1  N   UNL     1     -42.730 -52.675  11.800  1.00  0.00    -0.360 N 
HETATM    2  C   UNL     1     -43.529 -53.396  12.641  1.00  0.00     0.235 C 
HETATM    3  O   UNL     1     -44.481 -54.015  12.161  1.00  0.00    -0.272 OA
HETATM    4  H   UNL     1     -42.977 -52.776  10.823  1.00  0.00     0.162 HD
ENDROOT
BRANCH   1   5
HETATM    5  C   UNL     1     -41.533 -51.939  12.141  1.00  0.00     0.124 C 
BRANCH   5   6
HETATM    6  C   UNL     1     -41.755 -50.430  12.164  1.00  0.00     0.050 C 
BRANCH   6   7
HETATM    7  C   UNL     1     -40.755 -49.703  11.260  1.00  0.00     0.274 C 
BRANCH   7   8
HETATM    8  N   UNL     1     -41.273 -48.443  10.695  1.00  0.00     0.088 N 
HETATM    9  C   UNL     1     -40.519 -47.271  11.169  1.00  0.00     0.272 C 
HETATM   10  C   UNL     1     -41.070 -45.960  10.611  1.00  0.00     0.031 C 
HETATM   11  C   UNL     1     -42.558 -45.812  10.899  1.00  0.00     0.007 C 
HETATM   12  C   UNL     1     -43.340 -47.047  10.442  1.00  0.00     0.010 C 
HETATM   13  C   UNL     1     -43.441 -47.128   8.916  1.00  0.00     0.011 C 
HETATM   14  C   UNL     1     -42.704 -48.315  11.032  1.00  0.00     0.276 C 
ENDBRANCH   7   8
ENDBRANCH   6   7
ENDBRANCH   5   6
ENDBRANCH   1   5
BRANCH   2  15
HETATM   15  C   UNL     1     -43.295 -53.339  14.155  1.00  0.00     0.235 C 
BRANCH  15  16
HETATM   16  N   UNL     1     -44.503 -52.925  14.877  1.00  0.00    -0.301 N 
HETATM   17  C   UNL     1     -45.238 -51.873  14.380  1.00  0.00     0.102 A 
HETATM   18  C   UNL     1     -46.348 -51.447  14.975  1.00  0.00     0.092 A 
HETATM   19  C   UNL     1     -46.816 -52.118  16.199  1.00  0.00     0.252 A 
HETATM   20  O   UNL     1     -47.867 -51.743  16.709  1.00  0.00    -0.268 OA
HETATM   21  N   UNL     1     -46.012 -53.136  16.680  1.00  0.00    -0.271 N 
HETATM   22  C   UNL     1     -46.400 -53.802  17.907  1.00  0.00     0.164 C 
HETATM   23  C   UNL     1     -44.868 -53.607  16.033  1.00  0.00     0.331 A 
HETATM   24  O   UNL     1     -44.228 -54.568  16.469  1.00  0.00    -0.246 OA
ENDBRANCH  15  16
ENDBRANCH   2  15
TORSDOF 6
ENDMDL
MODEL 5
REMARK VINA RESULT:      -5.8      2.061      2.941
REMARK  6 active torsions:
REMARK  status: ('A' for Active; 'I' for Inactive)
REMARK    1  A    between atoms: N_6  and  C_7 
REMARK    2  A    between atoms: C_7  and  C_8 
REMARK    3  A    between atoms: C_8  and  C_9 
REMARK    4  A    between atoms: C_9  and  N_10 
REMARK       I    between atoms: N_10  and  C_11 
REMARK    5  A    between atoms: C_11  and  C_13 
REMARK    6  A    between atoms: C_13  and  N_14 
ROOT
HETATM    1  N   UNL     1     -42.014 -49.371  11.030  1.00  0.00    -0.360 N 
HETATM    2  C   UNL     1     -41.882 -48.115  10.509  1.00  0.00     0.235 C 
HETATM    3  O   UNL     1     -42.544 -47.820   9.511  1.00  0.00    -0.272 OA
HETATM    4  H   UNL     1     -42.714 -49.932  10.559  1.00  0.00     0.162 HD
ENDROOT
BRANCH   1   5
HETATM    5  C   UNL     1     -41.390 -49.898  12.223  1.00  0.00     0.124 C 
BRANCH   5   6
HETATM    6  C   UNL     1     -41.791 -51.341  12.510  1.00  0.00     0.050 C 
BRANCH   6   7
HETATM    7  C   UNL     1     -42.584 -51.452  13.816  1.00  0.00     0.274 C 
BRANCH   7   8
HETATM    8  N   UNL     1     -43.900 -52.097  13.658  1.00  0.00     0.088 N 
HETATM    9  C   UNL     1     -44.963 -51.122  13.360  1.00  0.00     0.272 C 
HETATM   10  C   UNL     1     -46.335 -51.780  13.225  1.00  0.00     0.031 C 
HETATM   11  C   UNL     1     -46.678 -52.614  14.451  1.00  0.00     0.007 C 
HETATM   12  C   UNL     1     -45.557 -53.602  14.788  1.00  0.00     0.010 C 
HETATM   13  C   UNL     1     -45.489 -54.753  13.780  1.00  0.00     0.011 C 
HETATM   14  C   UNL     1     -44.216 -52.856  14.883  1.00  0.00     0.276 C 
ENDBRANCH   7   8
ENDBRANCH   6   7
ENDBRANCH   5   6
ENDBRANCH   1   5
BRANCH   2  15
HETATM   15  C   UNL     1     -40.853 -47.145  11.101  1.00  0.00     0.235 C 
BRANCH  15  16
HETATM   16  N   UNL     1     -41.497 -45.994  11.743  1.00  0.00    -0.301 N 
HETATM   17  C   UNL     1     -42.182 -46.196  12.920  1.00  0.00     0.102 A 
HETATM   18  C   UNL     1     -42.783 -45.200  13.564  1.00  0.00     0.092 A 
HETATM   19  C   UNL     1     -42.715 -43.837  13.013  1.00  0.00     0.252 A 
HETATM   20  O   UNL     1     -43.235 -42.922  13.644  1.00  0.00    -0.268 OA
HETATM   21  N   UNL     1     -42.057 -43.702  11.804  1.00  0.00    -0.271 N 
HETATM   22  C   UNL     1     -41.998 -42.390  11.191  1.00  0.00     0.164 C 
HETATM   23  C   UNL     1     -41.393 -44.741  11.149  1.00  0.00     0.331 A 
HETATM   24  O   UNL     1     -40.758 -44.549  10.108  1.00  0.00    -0.246 OA
ENDBRANCH  15  16
ENDBRANCH   2  15
TORSDOF 6
ENDMDL
MODEL 6
REMARK VINA RESULT:      -5.8      3.044      7.631
REMARK  6 active torsions:
REMARK  status: ('A' for Active; 'I' for Inactive)
REMARK    1  A    between atoms: N_6  and  C_7 
REMARK    2  A    between atoms: C_7  and  C_8 
REMARK    3  A    between atoms: C_8  and  C_9 
REMARK    4  A    between atoms: C_9  and  N_10 
REMARK       I    between atoms: N_10  and  C_11 
REMARK    5  A    between atoms: C_11  and  C_13 
REMARK    6  A    between atoms: C_13  and  N_14 
ROOT
HETATM    1  N   UNL     1     -40.776 -51.318  11.444  1.00  0.00    -0.360 N 
HETATM    2  C   UNL     1     -40.873 -52.327  12.360  1.00  0.00     0.235 C 
HETATM    3  O   UNL     1     -40.509 -53.458  12.030  1.00  0.00    -0.272 OA
HETATM    4  H   UNL     1     -40.343 -51.603  10.574  1.00  0.00     0.162 HD
ENDROOT
BRANCH   1   5
HETATM    5  C   UNL     1     -41.080 -49.918  11.643  1.00  0.00     0.124 C 
BRANCH   5   6
HETATM    6  C   UNL     1     -39.830 -49.066  11.840  1.00  0.00     0.050 C 
BRANCH   6   7
HETATM    7  C   UNL     1     -40.075 -47.939  12.849  1.00  0.00     0.274 C 
BRANCH   7   8
HETATM    8  N   UNL     1     -39.678 -46.607  12.358  1.00  0.00     0.088 N 
HETATM    9  C   UNL     1     -39.317 -45.696  13.457  1.00  0.00     0.272 C 
HETATM   10  C   UNL     1     -38.934 -44.304  12.957  1.00  0.00     0.031 C 
HETATM   11  C   UNL     1     -40.025 -43.706  12.079  1.00  0.00     0.007 C 
HETATM   12  C   UNL     1     -40.431 -44.667  10.959  1.00  0.00     0.010 C 
HETATM   13  C   UNL     1     -39.348 -44.777   9.880  1.00  0.00     0.011 C 
HETATM   14  C   UNL     1     -40.777 -46.042  11.551  1.00  0.00     0.276 C 
ENDBRANCH   7   8
ENDBRANCH   6   7
ENDBRANCH   5   6
ENDBRANCH   1   5
BRANCH   2  15
HETATM   15  C   UNL     1     -41.519 -52.063  13.725  1.00  0.00     0.235 C 
BRANCH  15  16
HETATM   16  N   UNL     1     -42.745 -52.847  13.907  1.00  0.00    -0.301 N 
HETATM   17  C   UNL     1     -42.639 -54.127  14.400  1.00  0.00     0.102 A 
HETATM   18  C   UNL     1     -43.707 -54.894  14.600  1.00  0.00     0.092 A 
HETATM   19  C   UNL     1     -45.046 -54.365  14.292  1.00  0.00     0.252 A 
HETATM   20  O   UNL     1     -46.023 -55.069  14.526  1.00  0.00    -0.268 OA
HETATM   21  N   UNL     1     -45.088 -53.092  13.753  1.00  0.00    -0.271 N 
HETATM   22  C   UNL     1     -46.376 -52.538  13.388  1.00  0.00     0.164 C 
HETATM   23  C   UNL     1     -43.970 -52.274  13.580  1.00  0.00     0.331 A 
HETATM   24  O   UNL     1     -44.073 -51.117  13.163  1.00  0.00    -0.246 OA
ENDBRANCH  15  16
ENDBRANCH   2  15
TORSDOF 6
ENDMDL
MODEL 7
REMARK VINA RESULT:      -5.6      1.391      2.420
REMARK  6 active torsions:
REMARK  status: ('A' for Active; 'I' for Inactive)
REMARK    1  A    between atoms: N_6  and  C_7 
REMARK    2  A    between atoms: C_7  and  C_8 
REMARK    3  A    between atoms: C_8  and  C_9 
REMARK    4  A    between atoms: C_9  and  N_10 
REMARK       I    between atoms: N_10  and  C_11 
REMARK    5  A    between atoms: C_11  and  C_13 
REMARK    6  A    between atoms: C_13  and  N_14 
ROOT
HETATM    1  N   UNL     1     -39.951 -50.018  13.671  1.00  0.00    -0.360 N 
HETATM    2  C   UNL     1     -39.606 -48.743  13.321  1.00  0.00     0.235 C 
HETATM    3  O   UNL     1     -39.607 -47.873  14.195  1.00  0.00    -0.272 OA
HETATM    4  H   UNL     1     -40.121 -50.133  14.662  1.00  0.00     0.162 HD
ENDROOT
BRANCH   1   5
HETATM    5  C   UNL     1     -39.949 -51.191  12.826  1.00  0.00     0.124 C 
BRANCH   5   6
HETATM    6  C   UNL     1     -40.815 -52.318  13.380  1.00  0.00     0.050 C 
BRANCH   6   7
HETATM    7  C   UNL     1     -42.018 -52.598  12.472  1.00  0.00     0.274 C 
BRANCH   7   8
HETATM    8  N   UNL     1     -43.314 -52.546  13.172  1.00  0.00     0.088 N 
HETATM    9  C   UNL     1     -44.369 -53.266  12.440  1.00  0.00     0.272 C 
HETATM   10  C   UNL     1     -45.722 -53.190  13.145  1.00  0.00     0.031 C 
HETATM   11  C   UNL     1     -46.128 -51.749  13.422  1.00  0.00     0.007 C 
HETATM   12  C   UNL     1     -45.017 -50.985  14.148  1.00  0.00     0.010 C 
HETATM   13  C   UNL     1     -44.874 -51.433  15.606  1.00  0.00     0.011 C 
HETATM   14  C   UNL     1     -43.693 -51.135  13.381  1.00  0.00     0.276 C 
ENDBRANCH   7   8
ENDBRANCH   6   7
ENDBRANCH   5   6
ENDBRANCH   1   5
BRANCH   2  15
HETATM   15  C   UNL     1     -39.330 -48.399  11.853  1.00  0.00     0.235 C 
BRANCH  15  16
HETATM   16  N   UNL     1     -40.337 -47.481  11.310  1.00  0.00    -0.301 N 
HETATM   17  C   UNL     1     -39.985 -46.166  11.107  1.00  0.00     0.102 A 
HETATM   18  C   UNL     1     -40.842 -45.278  10.611  1.00  0.00     0.092 A 
HETATM   19  C   UNL     1     -42.206 -45.706  10.261  1.00  0.00     0.252 A 
HETATM   20  O   UNL     1     -42.969 -44.885   9.760  1.00  0.00    -0.268 OA
HETATM   21  N   UNL     1     -42.518 -47.026  10.532  1.00  0.00    -0.271 N 
HETATM   22  C   UNL     1     -43.861 -47.491  10.250  1.00  0.00     0.164 C 
HETATM   23  C   UNL     1     -41.607 -47.966  11.017  1.00  0.00     0.331 A 
HETATM   24  O   UNL     1     -41.919 -49.150  11.172  1.00  0.00    -0.246 OA
ENDBRANCH  15  16
ENDBRANCH   2  15
TORSDOF 6
ENDMDL
MODEL 8
REMARK VINA RESULT:      -5.5      4.441      7.974
REMARK  6 active torsions:
REMARK  status: ('A' for Active; 'I' for Inactive)
REMARK    1  A    between atoms: N_6  and  C_7 
REMARK    2  A    between atoms: C_7  and  C_8 
REMARK    3  A    between atoms: C_8  and  C_9 
REMARK    4  A    between atoms: C_9  and  N_10 
REMARK       I    between atoms: N_10  and  C_11 
REMARK    5  A    between atoms: C_11  and  C_13 
REMARK    6  A    between atoms: C_13  and  N_14 
ROOT
HETATM    1  N   UNL     1     -43.009 -54.067  13.580  1.00  0.00    -0.360 N 
HETATM    2  C   UNL     1     -43.826 -54.777  14.413  1.00  0.00     0.235 C 
HETATM    3  O   UNL     1     -43.310 -55.532  15.240  1.00  0.00    -0.272 OA
HETATM    4  H   UNL     1     -42.024 -54.195  13.775  1.00  0.00     0.162 HD
ENDROOT
BRANCH   1   5
HETATM    5  C   UNL     1     -43.399 -53.084  12.594  1.00  0.00     0.124 C 
BRANCH   5   6
HETATM    6  C   UNL     1     -42.312 -52.046  12.333  1.00  0.00     0.050 C 
BRANCH   6   7
HETATM    7  C   UNL     1     -40.913 -52.644  12.514  1.00  0.00     0.274 C 
BRANCH   7   8
HETATM    8  N   UNL     1     -39.858 -51.635  12.721  1.00  0.00     0.088 N 
HETATM    9  C   UNL     1     -39.795 -51.178  14.119  1.00  0.00     0.272 C 
HETATM   10  C   UNL     1     -38.725 -50.109  14.335  1.00  0.00     0.031 C 
HETATM   11  C   UNL     1     -38.905 -48.938  13.379  1.00  0.00     0.007 C 
HETATM   12  C   UNL     1     -39.011 -49.413  11.927  1.00  0.00     0.010 C 
HETATM   13  C   UNL     1     -37.664 -49.904  11.386  1.00  0.00     0.011 C 
HETATM   14  C   UNL     1     -40.093 -50.498  11.810  1.00  0.00     0.276 C 
ENDBRANCH   7   8
ENDBRANCH   6   7
ENDBRANCH   5   6
ENDBRANCH   1   5
BRANCH   2  15
HETATM   15  C   UNL     1     -45.347 -54.703  14.240  1.00  0.00     0.235 C 
BRANCH  15  16
HETATM   16  N   UNL     1     -45.931 -53.605  15.018  1.00  0.00    -0.301 N 
HETATM   17  C   UNL     1     -46.335 -52.470  14.352  1.00  0.00     0.102 A 
HETATM   18  C   UNL     1     -46.881 -51.438  14.988  1.00  0.00     0.092 A 
HETATM   19  C   UNL     1     -47.067 -51.504  16.447  1.00  0.00     0.252 A 
HETATM   20  O   UNL     1     -47.615 -50.563  17.012  1.00  0.00    -0.268 OA
HETATM   21  N   UNL     1     -46.598 -52.647  17.069  1.00  0.00    -0.271 N 
HETATM   22  C   UNL     1     -46.713 -52.747  18.510  1.00  0.00     0.164 C 
HETATM   23  C   UNL     1     -46.061 -53.746  16.395  1.00  0.00     0.331 A 
HETATM   24  O   UNL     1     -45.725 -54.771  16.994  1.00  0.00    -0.246 OA
ENDBRANCH  15  16
ENDBRANCH   2  15
TORSDOF 6
ENDMDL
MODEL 9
REMARK VINA RESULT:      -5.5      1.875      2.976
REMARK  6 active torsions:
REMARK  status: ('A' for Active; 'I' for Inactive)
REMARK    1  A    between atoms: N_6  and  C_7 
REMARK    2  A    between atoms: C_7  and  C_8 
REMARK    3  A    between atoms: C_8  and  C_9 
REMARK    4  A    between atoms: C_9  and  N_10 
REMARK       I    between atoms: N_10  and  C_11 
REMARK    5  A    between atoms: C_11  and  C_13 
REMARK    6  A    between atoms: C_13  and  N_14 
ROOT
HETATM    1  N   UNL     1     -42.367 -49.756  11.728  1.00  0.00    -0.360 N 
HETATM    2  C   UNL     1     -41.963 -48.553  11.224  1.00  0.00     0.235 C 
HETATM    3  O   UNL     1     -42.824 -47.759  10.836  1.00  0.00    -0.272 OA
HETATM    4  H   UNL     1     -43.374 -49.852  11.789  1.00  0.00     0.162 HD
ENDROOT
BRANCH   1   5
HETATM    5  C   UNL     1     -41.536 -50.795  12.295  1.00  0.00     0.124 C 
BRANCH   5   6
HETATM    6  C   UNL     1     -42.273 -51.643  13.327  1.00  0.00     0.050 C 
BRANCH   6   7
HETATM    7  C   UNL     1     -43.227 -52.637  12.656  1.00  0.00     0.274 C 
BRANCH   7   8
HETATM    8  N   UNL     1     -44.560 -52.696  13.285  1.00  0.00     0.088 N 
HETATM    9  C   UNL     1     -45.263 -51.404  13.217  1.00  0.00     0.272 C 
HETATM   10  C   UNL     1     -46.632 -51.451  13.894  1.00  0.00     0.031 C 
HETATM   11  C   UNL     1     -46.529 -51.949  15.329  1.00  0.00     0.007 C 
HETATM   12  C   UNL     1     -45.763 -53.272  15.408  1.00  0.00     0.010 C 
HETATM   13  C   UNL     1     -46.583 -54.441  14.852  1.00  0.00     0.011 C 
HETATM   14  C   UNL     1     -44.413 -53.138  14.685  1.00  0.00     0.276 C 
ENDBRANCH   7   8
ENDBRANCH   6   7
ENDBRANCH   5   6
ENDBRANCH   1   5
BRANCH   2  15
HETATM   15  C   UNL     1     -40.469 -48.257  11.053  1.00  0.00     0.235 C 
BRANCH  15  16
HETATM   16  N   UNL     1     -40.092 -46.984  11.678  1.00  0.00    -0.301 N 
HETATM   17  C   UNL     1     -40.005 -45.863  10.885  1.00  0.00     0.102 A 
HETATM   18  C   UNL     1     -39.678 -44.674  11.382  1.00  0.00     0.092 A 
HETATM   19  C   UNL     1     -39.401 -44.543  12.821  1.00  0.00     0.252 A 
HETATM   20  O   UNL     1     -39.147 -43.430  13.272  1.00  0.00    -0.268 OA
HETATM   21  N   UNL     1     -39.455 -45.711  13.560  1.00  0.00    -0.271 N 
HETATM   22  C   UNL     1     -39.148 -45.649  14.975  1.00  0.00     0.164 C 
HETATM   23  C   UNL     1     -39.837 -46.951  13.045  1.00  0.00     0.331 A 
HETATM   24  O   UNL     1     -39.939 -47.947  13.765  1.00  0.00    -0.246 OA
ENDBRANCH  15  16
ENDBRANCH   2  15
TORSDOF 6
ENDMDL
