MODEL 1
REMARK VINA RESULT:      -5.8      0.000      0.000
REMARK  3 active torsions:
REMARK  status: ('A' for Active; 'I' for Inactive)
REMARK    1  A    between atoms: O_2  and  C_3 
REMARK    2  A    between atoms: C_6  and  N_7 
REMARK       I    between atoms: N_7  and  C_8 
REMARK       I    between atoms: C_8  and  N_10 
REMARK    3  A    between atoms: N_10  and  C_11 
ROOT
HETATM    1  N   UNL     1     -43.471 -49.119  11.785  1.00  0.00    -0.308 N 
HETATM    2  C   UNL     1     -43.298 -49.882  12.917  1.00  0.00     0.321 C 
HETATM    3  O   UNL     1     -42.480 -49.660  13.802  1.00  0.00    -0.247 OA
HETATM    4  N   UNL     1     -44.168 -50.955  13.005  1.00  0.00    -0.338 N 
HETATM    5  H   UNL     1     -44.262 -49.328  11.193  1.00  0.00     0.170 HD
HETATM    6  H   UNL     1     -45.002 -50.937  12.436  1.00  0.00     0.164 HD
ENDROOT
BRANCH   1   7
HETATM    7  C   UNL     1     -42.730 -47.942  11.494  1.00  0.00     0.051 A 
HETATM    8  C   UNL     1     -43.053 -46.686  12.006  1.00  0.00     0.035 A 
HETATM    9  C   UNL     1     -42.324 -45.562  11.635  1.00  0.00     0.058 A 
HETATM   10  C   UNL     1     -41.266 -45.724  10.763  1.00  0.00     0.141 A 
HETATM   11  N   UNL     1     -40.887 -46.920  10.262  1.00  0.00    -0.345 N 
HETATM   12  C   UNL     1     -41.626 -47.996  10.643  1.00  0.00     0.119 A 
ATOM     13  HN  UNL     1     -40.089 -47.011   9.632  1.00  0.00     0.167 HD
BRANCH  10  14
HETATM   14  O   UNL     1     -40.600 -44.566  10.414  1.00  0.00    -0.341 OA
HETATM   15  C   UNL     1     -39.320 -44.803   9.846  1.00  0.00     0.211 C 
ENDBRANCH  10  14
ENDBRANCH   1   7
BRANCH   4  16
HETATM   16  C   UNL     1     -44.249 -51.641  14.299  1.00  0.00     0.086 C 
HETATM   17  C   UNL     1     -44.329 -53.167  14.188  1.00  0.00     0.025 C 
HETATM   18  C   UNL     1     -45.712 -53.713  13.842  1.00  0.00     0.002 C 
HETATM   19  C   UNL     1     -46.832 -53.069  14.654  1.00  0.00     0.000 C 
HETATM   20  C   UNL     1     -46.759 -51.549  14.616  1.00  0.00     0.002 C 
HETATM   21  C   UNL     1     -45.406 -51.068  15.130  1.00  0.00     0.025 C 
ENDBRANCH   4  16
TORSDOF 3
ENDMDL
MODEL 2
REMARK VINA RESULT:      -5.5      3.332      4.329
REMARK  3 active torsions:
REMARK  status: ('A' for Active; 'I' for Inactive)
REMARK    1  A    between atoms: O_2  and  C_3 
REMARK    2  A    between atoms: C_6  and  N_7 
REMARK       I    between atoms: N_7  and  C_8 
REMARK       I    between atoms: C_8  and  N_10 
REMARK    3  A    between atoms: N_10  and  C_11 
ROOT
HETATM    1  N   UNL     1     -41.241 -50.455  13.029  1.00  0.00    -0.308 N 
HETATM    2  C   UNL     1     -41.535 -51.800  13.003  1.00  0.00     0.321 C 
HETATM    3  O   UNL     1     -42.281 -52.345  12.197  1.00  0.00    -0.247 OA
HETATM    4  N   UNL     1     -40.884 -52.534  13.978  1.00  0.00    -0.338 N 
HETATM    5  H   UNL     1     -40.514 -50.146  13.659  1.00  0.00     0.170 HD
HETATM    6  H   UNL     1     -40.071 -52.123  14.416  1.00  0.00     0.164 HD
ENDROOT
BRANCH   1   7
HETATM    7  C   UNL     1     -41.750 -49.507  12.102  1.00  0.00     0.051 A 
HETATM    8  C   UNL     1     -42.951 -48.822  12.287  1.00  0.00     0.035 A 
HETATM    9  C   UNL     1     -43.425 -47.951  11.313  1.00  0.00     0.058 A 
HETATM   10  C   UNL     1     -42.670 -47.768  10.172  1.00  0.00     0.141 A 
HETATM   11  N   UNL     1     -41.484 -48.377   9.954  1.00  0.00    -0.345 N 
HETATM   12  C   UNL     1     -41.055 -49.227  10.926  1.00  0.00     0.119 A 
ATOM     13  HN  UNL     1     -40.941 -48.210   9.107  1.00  0.00     0.167 HD
BRANCH  10  14
HETATM   14  O   UNL     1     -43.209 -46.911   9.233  1.00  0.00    -0.341 OA
HETATM   15  C   UNL     1     -43.565 -47.558   8.020  1.00  0.00     0.211 C 
ENDBRANCH  10  14
ENDBRANCH   1   7
BRANCH   4  16
HETATM   16  C   UNL     1     -40.911 -53.994  13.841  1.00  0.00     0.086 C 
HETATM   17  C   UNL     1     -41.840 -54.693  14.840  1.00  0.00     0.025 C 
HETATM   18  C   UNL     1     -41.261 -54.861  16.243  1.00  0.00     0.002 C 
HETATM   19  C   UNL     1     -39.822 -55.368  16.241  1.00  0.00     0.000 C 
HETATM   20  C   UNL     1     -38.932 -54.547  15.319  1.00  0.00     0.002 C 
HETATM   21  C   UNL     1     -39.485 -54.558  13.897  1.00  0.00     0.025 C 
ENDBRANCH   4  16
TORSDOF 3
ENDMDL
MODEL 3
REMARK VINA RESULT:      -5.0      2.210      7.580
REMARK  3 active torsions:
REMARK  status: ('A' for Active; 'I' for Inactive)
REMARK    1  A    between atoms: O_2  and  C_3 
REMARK    2  A    between atoms: C_6  and  N_7 
REMARK       I    between atoms: N_7  and  C_8 
REMARK       I    between atoms: C_8  and  N_10 
REMARK    3  A    between atoms: N_10  and  C_11 
ROOT
HETATM    1  N   UNL     1     -42.257 -49.435  13.020  1.00  0.00    -0.308 N 
HETATM    2  C   UNL     1     -42.429 -48.331  12.216  1.00  0.00     0.321 C 
HETATM    3  O   UNL     1     -43.187 -48.267  11.255  1.00  0.00    -0.247 OA
HETATM    4  N   UNL     1     -41.672 -47.238  12.599  1.00  0.00    -0.338 N 
HETATM    5  H   UNL     1     -41.703 -49.324  13.857  1.00  0.00     0.170 HD
HETATM    6  H   UNL     1     -41.303 -47.222  13.539  1.00  0.00     0.164 HD
ENDROOT
BRANCH   1   7
HETATM    7  C   UNL     1     -42.958 -50.659  12.857  1.00  0.00     0.051 A 
HETATM    8  C   UNL     1     -44.261 -50.865  13.313  1.00  0.00     0.035 A 
HETATM    9  C   UNL     1     -44.870 -52.107  13.176  1.00  0.00     0.058 A 
HETATM   10  C   UNL     1     -44.162 -53.121  12.564  1.00  0.00     0.141 A 
HETATM   11  N   UNL     1     -42.912 -52.971  12.074  1.00  0.00    -0.345 N 
HETATM   12  C   UNL     1     -42.346 -51.745  12.230  1.00  0.00     0.119 A 
ATOM     13  HN  UNL     1     -42.420 -53.736  11.612  1.00  0.00     0.167 HD
BRANCH  10  14
HETATM   14  O   UNL     1     -44.813 -54.336  12.483  1.00  0.00    -0.341 OA
HETATM   15  C   UNL     1     -45.303 -54.796  13.735  1.00  0.00     0.211 C 
ENDBRANCH  10  14
ENDBRANCH   1   7
BRANCH   4  16
HETATM   16  C   UNL     1     -42.007 -45.949  11.984  1.00  0.00     0.086 C 
HETATM   17  C   UNL     1     -41.073 -45.547  10.837  1.00  0.00     0.025 C 
HETATM   18  C   UNL     1     -39.734 -44.960  11.277  1.00  0.00     0.002 C 
HETATM   19  C   UNL     1     -39.870 -43.922  12.387  1.00  0.00     0.000 C 
HETATM   20  C   UNL     1     -40.709 -44.439  13.548  1.00  0.00     0.002 C 
HETATM   21  C   UNL     1     -42.092 -44.856  13.059  1.00  0.00     0.025 C 
ENDBRANCH   4  16
TORSDOF 3
ENDMDL
MODEL 4
REMARK VINA RESULT:      -5.0     14.842     15.334
REMARK  3 active torsions:
REMARK  status: ('A' for Active; 'I' for Inactive)
REMARK    1  A    between atoms: O_2  and  C_3 
REMARK    2  A    between atoms: C_6  and  N_7 
REMARK       I    between atoms: N_7  and  C_8 
REMARK       I    between atoms: C_8  and  N_10 
REMARK    3  A    between atoms: N_10  and  C_11 
ROOT
HETATM    1  N   UNL     1     -51.658 -49.657  -0.441  1.00  0.00    -0.308 N 
HETATM    2  C   UNL     1     -51.069 -50.889  -0.269  1.00  0.00     0.321 C 
HETATM    3  O   UNL     1     -50.212 -51.153   0.565  1.00  0.00    -0.247 OA
HETATM    4  N   UNL     1     -51.552 -51.863  -1.126  1.00  0.00    -0.338 N 
HETATM    5  H   UNL     1     -52.442 -49.595  -1.074  1.00  0.00     0.170 HD
HETATM    6  H   UNL     1     -52.441 -51.699  -1.578  1.00  0.00     0.164 HD
ENDROOT
BRANCH   1   7
HETATM    7  C   UNL     1     -51.363 -48.513   0.348  1.00  0.00     0.051 A 
HETATM    8  C   UNL     1     -50.189 -47.771   0.214  1.00  0.00     0.035 A 
HETATM    9  C   UNL     1     -49.933 -46.697   1.059  1.00  0.00     0.058 A 
HETATM   10  C   UNL     1     -50.873 -46.375   2.017  1.00  0.00     0.141 A 
HETATM   11  N   UNL     1     -52.041 -47.037   2.170  1.00  0.00    -0.345 N 
HETATM   12  C   UNL     1     -52.255 -48.084   1.330  1.00  0.00     0.119 A 
ATOM     13  HN  UNL     1     -52.724 -46.765   2.877  1.00  0.00     0.167 HD
BRANCH  10  14
HETATM   14  O   UNL     1     -50.545 -45.316   2.840  1.00  0.00    -0.341 OA
HETATM   15  C   UNL     1     -49.176 -44.948   2.765  1.00  0.00     0.211 C 
ENDBRANCH  10  14
ENDBRANCH   1   7
BRANCH   4  16
HETATM   16  C   UNL     1     -51.196 -53.253  -0.821  1.00  0.00     0.086 C 
HETATM   17  C   UNL     1     -50.133 -53.840  -1.755  1.00  0.00     0.025 C 
HETATM   18  C   UNL     1     -50.657 -54.300  -3.113  1.00  0.00     0.002 C 
HETATM   19  C   UNL     1     -51.945 -55.112  -3.016  1.00  0.00     0.000 C 
HETATM   20  C   UNL     1     -52.998 -54.407  -2.174  1.00  0.00     0.002 C 
HETATM   21  C   UNL     1     -52.459 -54.124  -0.775  1.00  0.00     0.025 C 
ENDBRANCH   4  16
TORSDOF 3
ENDMDL
MODEL 5
REMARK VINA RESULT:      -4.9      1.989      2.300
REMARK  3 active torsions:
REMARK  status: ('A' for Active; 'I' for Inactive)
REMARK    1  A    between atoms: O_2  and  C_3 
REMARK    2  A    between atoms: C_6  and  N_7 
REMARK       I    between atoms: N_7  and  C_8 
REMARK       I    between atoms: C_8  and  N_10 
REMARK    3  A    between atoms: N_10  and  C_11 
ROOT
HETATM    1  N   UNL     1     -43.277 -49.146  11.891  1.00  0.00    -0.308 N 
HETATM    2  C   UNL     1     -42.329 -50.035  12.345  1.00  0.00     0.321 C 
HETATM    3  O   UNL     1     -41.135 -49.792  12.472  1.00  0.00    -0.247 OA
HETATM    4  N   UNL     1     -42.843 -51.273  12.688  1.00  0.00    -0.338 N 
HETATM    5  H   UNL     1     -44.246 -49.421  11.953  1.00  0.00     0.170 HD
HETATM    6  H   UNL     1     -43.837 -51.343  12.857  1.00  0.00     0.164 HD
ENDROOT
BRANCH   1   7
HETATM    7  C   UNL     1     -43.001 -47.802  11.523  1.00  0.00     0.051 A 
HETATM    8  C   UNL     1     -42.677 -47.414  10.223  1.00  0.00     0.035 A 
HETATM    9  C   UNL     1     -42.358 -46.091   9.939  1.00  0.00     0.058 A 
HETATM   10  C   UNL     1     -42.388 -45.172  10.969  1.00  0.00     0.141 A 
HETATM   11  N   UNL     1     -42.727 -45.484  12.239  1.00  0.00    -0.345 N 
HETATM   12  C   UNL     1     -43.027 -46.788  12.481  1.00  0.00     0.119 A 
ATOM     13  HN  UNL     1     -42.756 -44.780  12.976  1.00  0.00     0.167 HD
BRANCH  10  14
HETATM   14  O   UNL     1     -42.036 -43.882  10.626  1.00  0.00    -0.341 OA
HETATM   15  C   UNL     1     -40.807 -43.463  11.203  1.00  0.00     0.211 C 
ENDBRANCH  10  14
ENDBRANCH   1   7
BRANCH   4  16
HETATM   16  C   UNL     1     -41.965 -52.171  13.445  1.00  0.00     0.086 C 
HETATM   17  C   UNL     1     -42.131 -53.651  13.083  1.00  0.00     0.025 C 
HETATM   18  C   UNL     1     -43.337 -54.335  13.720  1.00  0.00     0.002 C 
HETATM   19  C   UNL     1     -43.493 -54.017  15.204  1.00  0.00     0.000 C 
HETATM   20  C   UNL     1     -43.442 -52.519  15.472  1.00  0.00     0.002 C 
HETATM   21  C   UNL     1     -42.134 -51.931  14.952  1.00  0.00     0.025 C 
ENDBRANCH   4  16
TORSDOF 3
ENDMDL
MODEL 6
REMARK VINA RESULT:      -4.9      2.894      3.354
REMARK  3 active torsions:
REMARK  status: ('A' for Active; 'I' for Inactive)
REMARK    1  A    between atoms: O_2  and  C_3 
REMARK    2  A    between atoms: C_6  and  N_7 
REMARK       I    between atoms: N_7  and  C_8 
REMARK       I    between atoms: C_8  and  N_10 
REMARK    3  A    between atoms: N_10  and  C_11 
ROOT
HETATM    1  N   UNL     1     -41.577 -49.344  12.699  1.00  0.00    -0.308 N 
HETATM    2  C   UNL     1     -41.036 -50.572  12.395  1.00  0.00     0.321 C 
HETATM    3  O   UNL     1     -40.209 -50.783  11.515  1.00  0.00    -0.247 OA
HETATM    4  N   UNL     1     -41.491 -51.599  13.204  1.00  0.00    -0.338 N 
HETATM    5  H   UNL     1     -42.150 -49.275  13.528  1.00  0.00     0.170 HD
HETATM    6  H   UNL     1     -41.922 -51.353  14.084  1.00  0.00     0.164 HD
ENDROOT
BRANCH   1   7
HETATM    7  C   UNL     1     -41.232 -48.133  12.040  1.00  0.00     0.051 A 
HETATM    8  C   UNL     1     -40.397 -47.166  12.601  1.00  0.00     0.035 A 
HETATM    9  C   UNL     1     -40.147 -45.974  11.930  1.00  0.00     0.058 A 
HETATM   10  C   UNL     1     -40.727 -45.782  10.693  1.00  0.00     0.141 A 
HETATM   11  N   UNL     1     -41.515 -46.697  10.087  1.00  0.00    -0.345 N 
HETATM   12  C   UNL     1     -41.743 -47.848  10.775  1.00  0.00     0.119 A 
ATOM     13  HN  UNL     1     -41.918 -46.533   9.164  1.00  0.00     0.167 HD
BRANCH  10  14
HETATM   14  O   UNL     1     -40.460 -44.568  10.092  1.00  0.00    -0.341 OA
HETATM   15  C   UNL     1     -40.409 -43.486  11.010  1.00  0.00     0.211 C 
ENDBRANCH  10  14
ENDBRANCH   1   7
BRANCH   4  16
HETATM   16  C   UNL     1     -40.759 -52.868  13.142  1.00  0.00     0.086 C 
HETATM   17  C   UNL     1     -41.664 -54.104  13.097  1.00  0.00     0.025 C 
HETATM   18  C   UNL     1     -42.236 -54.529  14.447  1.00  0.00     0.002 C 
HETATM   19  C   UNL     1     -41.196 -54.536  15.564  1.00  0.00     0.000 C 
HETATM   20  C   UNL     1     -40.421 -53.227  15.625  1.00  0.00     0.002 C 
HETATM   21  C   UNL     1     -39.741 -52.948  14.289  1.00  0.00     0.025 C 
ENDBRANCH   4  16
TORSDOF 3
ENDMDL
MODEL 7
REMARK VINA RESULT:      -4.9      5.938      8.907
REMARK  3 active torsions:
REMARK  status: ('A' for Active; 'I' for Inactive)
REMARK    1  A    between atoms: O_2  and  C_3 
REMARK    2  A    between atoms: C_6  and  N_7 
REMARK       I    between atoms: N_7  and  C_8 
REMARK       I    between atoms: C_8  and  N_10 
REMARK    3  A    between atoms: N_10  and  C_11 
ROOT
HETATM    1  N   UNL     1     -41.852 -54.228  15.605  1.00  0.00    -0.308 N 
HETATM    2  C   UNL     1     -43.054 -54.596  15.046  1.00  0.00     0.321 C 
HETATM    3  O   UNL     1     -43.490 -55.741  14.996  1.00  0.00    -0.247 OA
HETATM    4  N   UNL     1     -43.784 -53.534  14.541  1.00  0.00    -0.338 N 
HETATM    5  H   UNL     1     -41.661 -53.241  15.702  1.00  0.00     0.170 HD
HETATM    6  H   UNL     1     -43.549 -52.604  14.859  1.00  0.00     0.164 HD
ENDROOT
BRANCH   1   7
HETATM    7  C   UNL     1     -40.949 -55.132  16.227  1.00  0.00     0.051 A 
HETATM    8  C   UNL     1     -39.575 -55.131  15.987  1.00  0.00     0.035 A 
HETATM    9  C   UNL     1     -38.753 -56.082  16.581  1.00  0.00     0.058 A 
HETATM   10  C   UNL     1     -39.327 -57.010  17.427  1.00  0.00     0.141 A 
HETATM   11  N   UNL     1     -40.645 -57.037  17.723  1.00  0.00    -0.345 N 
HETATM   12  C   UNL     1     -41.419 -56.096  17.119  1.00  0.00     0.119 A 
ATOM     13  HN  UNL     1     -41.037 -57.726  18.365  1.00  0.00     0.167 HD
BRANCH  10  14
HETATM   14  O   UNL     1     -38.461 -57.941  17.964  1.00  0.00    -0.341 OA
HETATM   15  C   UNL     1     -39.114 -59.110  18.437  1.00  0.00     0.211 C 
ENDBRANCH  10  14
ENDBRANCH   1   7
BRANCH   4  16
HETATM   16  C   UNL     1     -45.185 -53.795  14.196  1.00  0.00     0.086 C 
HETATM   17  C   UNL     1     -45.648 -53.095  12.913  1.00  0.00     0.025 C 
HETATM   18  C   UNL     1     -45.991 -51.617  13.078  1.00  0.00     0.002 C 
HETATM   19  C   UNL     1     -46.847 -51.333  14.309  1.00  0.00     0.000 C 
HETATM   20  C   UNL     1     -46.258 -51.957  15.566  1.00  0.00     0.002 C 
HETATM   21  C   UNL     1     -46.095 -53.463  15.387  1.00  0.00     0.025 C 
ENDBRANCH   4  16
TORSDOF 3
ENDMDL
MODEL 8
REMARK VINA RESULT:      -4.7      4.496      5.058
REMARK  3 active torsions:
REMARK  status: ('A' for Active; 'I' for Inactive)
REMARK    1  A    between atoms: O_2  and  C_3 
REMARK    2  A    between atoms: C_6  and  N_7 
REMARK       I    between atoms: N_7  and  C_8 
REMARK       I    between atoms: C_8  and  N_10 
REMARK    3  A    between atoms: N_10  and  C_11 
ROOT
HETATM    1  N   UNL     1     -40.711 -50.561  14.734  1.00  0.00    -0.308 N 
HETATM    2  C   UNL     1     -40.971 -51.500  13.761  1.00  0.00     0.321 C 
HETATM    3  O   UNL     1     -40.176 -51.867  12.903  1.00  0.00    -0.247 OA
HETATM    4  N   UNL     1     -42.241 -52.044  13.834  1.00  0.00    -0.338 N 
HETATM    5  H   UNL     1     -41.400 -50.437  15.462  1.00  0.00     0.170 HD
HETATM    6  H   UNL     1     -42.747 -51.950  14.704  1.00  0.00     0.164 HD
ENDROOT
BRANCH   1   7
HETATM    7  C   UNL     1     -39.466 -49.897  14.892  1.00  0.00     0.051 A 
HETATM    8  C   UNL     1     -38.442 -50.372  15.712  1.00  0.00     0.035 A 
HETATM    9  C   UNL     1     -37.269 -49.643  15.872  1.00  0.00     0.058 A 
HETATM   10  C   UNL     1     -37.137 -48.453  15.186  1.00  0.00     0.141 A 
HETATM   11  N   UNL     1     -38.080 -47.961  14.353  1.00  0.00    -0.345 N 
HETATM   12  C   UNL     1     -39.216 -48.697  14.227  1.00  0.00     0.119 A 
ATOM     13  HN  UNL     1     -37.947 -47.085  13.848  1.00  0.00     0.167 HD
BRANCH  10  14
HETATM   14  O   UNL     1     -35.960 -47.765  15.409  1.00  0.00    -0.341 OA
HETATM   15  C   UNL     1     -35.439 -47.951  16.717  1.00  0.00     0.211 C 
ENDBRANCH  10  14
ENDBRANCH   1   7
BRANCH   4  16
HETATM   16  C   UNL     1     -42.497 -53.244  13.031  1.00  0.00     0.086 C 
HETATM   17  C   UNL     1     -43.871 -53.252  12.350  1.00  0.00     0.025 C 
HETATM   18  C   UNL     1     -45.033 -53.644  13.259  1.00  0.00     0.002 C 
HETATM   19  C   UNL     1     -44.735 -54.869  14.120  1.00  0.00     0.000 C 
HETATM   20  C   UNL     1     -43.413 -54.734  14.861  1.00  0.00     0.002 C 
HETATM   21  C   UNL     1     -42.271 -54.506  13.876  1.00  0.00     0.025 C 
ENDBRANCH   4  16
TORSDOF 3
ENDMDL
MODEL 9
REMARK VINA RESULT:      -4.7      4.721      6.181
REMARK  3 active torsions:
REMARK  status: ('A' for Active; 'I' for Inactive)
REMARK    1  A    between atoms: O_2  and  C_3 
REMARK    2  A    between atoms: C_6  and  N_7 
REMARK       I    between atoms: N_7  and  C_8 
REMARK       I    between atoms: C_8  and  N_10 
REMARK    3  A    between atoms: N_10  and  C_11 
ROOT
HETATM    1  N   UNL     1     -40.589 -47.760  13.126  1.00  0.00    -0.308 N 
HETATM    2  C   UNL     1     -39.342 -48.341  13.174  1.00  0.00     0.321 C 
HETATM    3  O   UNL     1     -38.708 -48.736  12.203  1.00  0.00    -0.247 OA
HETATM    4  N   UNL     1     -38.817 -48.431  14.451  1.00  0.00    -0.338 N 
HETATM    5  H   UNL     1     -40.954 -47.358  13.978  1.00  0.00     0.170 HD
HETATM    6  H   UNL     1     -39.214 -47.842  15.169  1.00  0.00     0.164 HD
ENDROOT
BRANCH   1   7
HETATM    7  C   UNL     1     -41.312 -47.516  11.927  1.00  0.00     0.051 A 
HETATM    8  C   UNL     1     -41.254 -46.310  11.228  1.00  0.00     0.035 A 
HETATM    9  C   UNL     1     -42.033 -46.113  10.093  1.00  0.00     0.058 A 
HETATM   10  C   UNL     1     -42.847 -47.144   9.668  1.00  0.00     0.141 A 
HETATM   11  N   UNL     1     -42.918 -48.344  10.285  1.00  0.00    -0.345 N 
HETATM   12  C   UNL     1     -42.147 -48.498  11.394  1.00  0.00     0.119 A 
ATOM     13  HN  UNL     1     -43.518 -49.092   9.938  1.00  0.00     0.167 HD
BRANCH  10  14
HETATM   14  O   UNL     1     -43.614 -46.875   8.552  1.00  0.00    -0.341 OA
HETATM   15  C   UNL     1     -43.550 -47.895   7.567  1.00  0.00     0.211 C 
ENDBRANCH  10  14
ENDBRANCH   1   7
BRANCH   4  16
HETATM   16  C   UNL     1     -37.393 -48.764  14.562  1.00  0.00     0.086 C 
HETATM   17  C   UNL     1     -37.127 -50.212  14.988  1.00  0.00     0.025 C 
HETATM   18  C   UNL     1     -37.280 -50.479  16.483  1.00  0.00     0.002 C 
HETATM   19  C   UNL     1     -36.608 -49.420  17.353  1.00  0.00     0.000 C 
HETATM   20  C   UNL     1     -37.017 -48.011  16.950  1.00  0.00     0.002 C 
HETATM   21  C   UNL     1     -36.685 -47.760  15.482  1.00  0.00     0.025 C 
ENDBRANCH   4  16
TORSDOF 3
ENDMDL
