MODEL 1
REMARK VINA RESULT:      -6.2      0.000      0.000
REMARK  4 active torsions:
REMARK  status: ('A' for Active; 'I' for Inactive)
REMARK    1  A    between atoms: C_2  and  C_4 
REMARK    2  A    between atoms: C_4  and  C_5 
REMARK    3  A    between atoms: C_9  and  N_10 
REMARK       I    between atoms: N_10  and  C_11 
REMARK       I    between atoms: C_11  and  N_13 
REMARK    4  A    between atoms: N_13  and  C_14 
ROOT
HETATM    1  N   UNL     1     -40.999 -50.297  11.831  1.00  0.00    -0.289 N 
HETATM    2  C   UNL     1     -41.312 -49.059  11.356  1.00  0.00     0.322 C 
HETATM    3  O   UNL     1     -40.417 -48.263  11.088  1.00  0.00    -0.247 OA
HETATM    4  N   UNL     1     -42.634 -48.833  11.112  1.00  0.00    -0.332 N 
HETATM    5  H   UNL     1     -40.020 -50.539  11.859  1.00  0.00     0.172 HD
HETATM    6  H   UNL     1     -43.273 -49.441  11.622  1.00  0.00     0.165 HD
ENDROOT
BRANCH   1   7
HETATM    7  C   UNL     1     -41.912 -51.199  12.278  1.00  0.00     0.152 A 
HETATM    8  N   UNL     1     -42.263 -52.331  11.708  1.00  0.00    -0.345 N 
HETATM    9  C   UNL     1     -43.315 -52.876  12.412  1.00  0.00     0.104 A 
ATOM     10  HN  UNL     1     -41.826 -52.740  10.881  1.00  0.00     0.167 HD
HETATM   11  C   UNL     1     -43.716 -52.164  13.523  1.00  0.00     0.002 A 
HETATM   12  S   UNL     1     -42.697 -50.791  13.725  1.00  0.00    -0.057 SA
BRANCH  11  13
HETATM   13  C   UNL     1     -44.870 -52.425  14.437  1.00  0.00     0.051 C 
BRANCH  13  14
HETATM   14  C   UNL     1     -46.023 -51.424  14.225  1.00  0.00    -0.018 C 
HETATM   15  C   UNL     1     -46.692 -51.596  12.857  1.00  0.00     0.010 C 
HETATM   16  C   UNL     1     -47.055 -51.569  15.340  1.00  0.00     0.010 C 
ENDBRANCH  13  14
ENDBRANCH  11  13
ENDBRANCH   1   7
BRANCH   4  17
HETATM   17  C   UNL     1     -43.191 -47.682  10.424  1.00  0.00     0.054 C 
HETATM   18  C   UNL     1     -42.745 -46.376  11.104  1.00  0.00     0.041 C 
HETATM   19  C   UNL     1     -44.698 -47.776  10.264  1.00  0.00     0.059 C 
HETATM   20  C   UNL     1     -44.974 -46.941   9.029  1.00  0.00     0.170 C 
HETATM   21  O   UNL     1     -43.777 -46.922   8.239  1.00  0.00    -0.389 OA
HETATM   22  C   UNL     1     -42.765 -47.652   8.949  1.00  0.00     0.198 C 
ENDBRANCH   4  17
TORSDOF 4
ENDMDL
MODEL 2
REMARK VINA RESULT:      -6.1      4.014      6.654
REMARK  4 active torsions:
REMARK  status: ('A' for Active; 'I' for Inactive)
REMARK    1  A    between atoms: C_2  and  C_4 
REMARK    2  A    between atoms: C_4  and  C_5 
REMARK    3  A    between atoms: C_9  and  N_10 
REMARK       I    between atoms: N_10  and  C_11 
REMARK       I    between atoms: C_11  and  N_13 
REMARK    4  A    between atoms: N_13  and  C_14 
ROOT
HETATM    1  N   UNL     1     -42.867 -53.783  12.435  1.00  0.00    -0.289 N 
HETATM    2  C   UNL     1     -44.199 -53.644  12.682  1.00  0.00     0.322 C 
HETATM    3  O   UNL     1     -44.952 -54.602  12.534  1.00  0.00    -0.247 OA
HETATM    4  N   UNL     1     -44.587 -52.439  13.189  1.00  0.00    -0.332 N 
HETATM    5  H   UNL     1     -42.539 -54.713  12.220  1.00  0.00     0.172 HD
HETATM    6  H   UNL     1     -43.945 -51.670  13.003  1.00  0.00     0.165 HD
ENDROOT
BRANCH   1   7
HETATM    7  C   UNL     1     -41.976 -52.757  12.443  1.00  0.00     0.152 A 
HETATM    8  N   UNL     1     -41.976 -51.691  11.673  1.00  0.00    -0.345 N 
HETATM    9  C   UNL     1     -40.826 -50.970  11.911  1.00  0.00     0.104 A 
ATOM     10  HN  UNL     1     -42.709 -51.439  11.009  1.00  0.00     0.167 HD
HETATM   11  C   UNL     1     -39.995 -51.485  12.884  1.00  0.00     0.002 A 
HETATM   12  S   UNL     1     -40.712 -52.894  13.565  1.00  0.00    -0.057 SA
BRANCH  11  13
HETATM   13  C   UNL     1     -38.645 -51.007  13.312  1.00  0.00     0.051 C 
BRANCH  13  14
HETATM   14  C   UNL     1     -38.269 -49.658  12.670  1.00  0.00    -0.018 C 
HETATM   15  C   UNL     1     -37.608 -48.706  13.672  1.00  0.00     0.010 C 
HETATM   16  C   UNL     1     -37.351 -49.883  11.471  1.00  0.00     0.010 C 
ENDBRANCH  13  14
ENDBRANCH  11  13
ENDBRANCH   1   7
BRANCH   4  17
HETATM   17  C   UNL     1     -45.902 -52.117  13.716  1.00  0.00     0.054 C 
HETATM   18  C   UNL     1     -46.842 -51.662  12.587  1.00  0.00     0.041 C 
HETATM   19  C   UNL     1     -45.838 -51.125  14.863  1.00  0.00     0.059 C 
HETATM   20  C   UNL     1     -47.087 -51.434  15.665  1.00  0.00     0.170 C 
HETATM   21  O   UNL     1     -47.450 -52.797  15.400  1.00  0.00    -0.389 OA
HETATM   22  C   UNL     1     -46.525 -53.321  14.435  1.00  0.00     0.198 C 
ENDBRANCH   4  17
TORSDOF 4
ENDMDL
MODEL 3
REMARK VINA RESULT:      -5.9      2.902      6.605
REMARK  4 active torsions:
REMARK  status: ('A' for Active; 'I' for Inactive)
REMARK    1  A    between atoms: C_2  and  C_4 
REMARK    2  A    between atoms: C_4  and  C_5 
REMARK    3  A    between atoms: C_9  and  N_10 
REMARK       I    between atoms: N_10  and  C_11 
REMARK       I    between atoms: C_11  and  N_13 
REMARK    4  A    between atoms: N_13  and  C_14 
ROOT
HETATM    1  N   UNL     1     -40.416 -50.848  11.345  1.00  0.00    -0.289 N 
HETATM    2  C   UNL     1     -41.310 -51.752  11.834  1.00  0.00     0.322 C 
HETATM    3  O   UNL     1     -41.052 -52.952  11.789  1.00  0.00    -0.247 OA
HETATM    4  N   UNL     1     -42.411 -51.230  12.445  1.00  0.00    -0.332 N 
HETATM    5  H   UNL     1     -39.524 -51.209  11.042  1.00  0.00     0.172 HD
HETATM    6  H   UNL     1     -42.637 -50.274  12.175  1.00  0.00     0.165 HD
ENDROOT
BRANCH   1   7
HETATM    7  C   UNL     1     -40.660 -49.516  11.230  1.00  0.00     0.152 A 
HETATM    8  N   UNL     1     -41.491 -48.924  10.401  1.00  0.00    -0.345 N 
HETATM    9  C   UNL     1     -41.336 -47.560  10.513  1.00  0.00     0.104 A 
ATOM     10  HN  UNL     1     -42.144 -49.398   9.776  1.00  0.00     0.167 HD
HETATM   11  C   UNL     1     -40.417 -47.144  11.455  1.00  0.00     0.002 A 
HETATM   12  S   UNL     1     -39.766 -48.515  12.267  1.00  0.00    -0.057 SA
BRANCH  11  13
HETATM   13  C   UNL     1     -39.947 -45.758  11.757  1.00  0.00     0.051 C 
BRANCH  13  14
HETATM   14  C   UNL     1     -40.245 -44.774  10.609  1.00  0.00    -0.018 C 
HETATM   15  C   UNL     1     -40.534 -43.359  11.122  1.00  0.00     0.010 C 
HETATM   16  C   UNL     1     -39.081 -44.750   9.622  1.00  0.00     0.010 C 
ENDBRANCH  13  14
ENDBRANCH  11  13
ENDBRANCH   1   7
BRANCH   4  17
HETATM   17  C   UNL     1     -43.395 -51.973  13.212  1.00  0.00     0.054 C 
HETATM   18  C   UNL     1     -42.792 -52.461  14.540  1.00  0.00     0.041 C 
HETATM   19  C   UNL     1     -44.029 -53.094  12.407  1.00  0.00     0.059 C 
HETATM   20  C   UNL     1     -45.388 -53.267  13.057  1.00  0.00     0.170 C 
HETATM   21  O   UNL     1     -45.734 -52.025  13.686  1.00  0.00    -0.389 OA
HETATM   22  C   UNL     1     -44.636 -51.118  13.507  1.00  0.00     0.198 C 
ENDBRANCH   4  17
TORSDOF 4
ENDMDL
MODEL 4
REMARK VINA RESULT:      -5.6      4.294      5.085
REMARK  4 active torsions:
REMARK  status: ('A' for Active; 'I' for Inactive)
REMARK    1  A    between atoms: C_2  and  C_4 
REMARK    2  A    between atoms: C_4  and  C_5 
REMARK    3  A    between atoms: C_9  and  N_10 
REMARK       I    between atoms: N_10  and  C_11 
REMARK       I    between atoms: C_11  and  N_13 
REMARK    4  A    between atoms: N_13  and  C_14 
ROOT
HETATM    1  N   UNL     1     -41.830 -54.232  12.836  1.00  0.00    -0.289 N 
HETATM    2  C   UNL     1     -40.769 -53.478  13.236  1.00  0.00     0.322 C 
HETATM    3  O   UNL     1     -39.640 -53.962  13.235  1.00  0.00    -0.247 OA
HETATM    4  N   UNL     1     -41.040 -52.172  13.519  1.00  0.00    -0.332 N 
HETATM    5  H   UNL     1     -41.623 -55.148  12.465  1.00  0.00     0.172 HD
HETATM    6  H   UNL     1     -42.013 -51.978  13.748  1.00  0.00     0.165 HD
ENDROOT
BRANCH   1   7
HETATM    7  C   UNL     1     -43.127 -53.836  12.923  1.00  0.00     0.152 A 
HETATM    8  N   UNL     1     -43.822 -53.171  12.027  1.00  0.00    -0.345 N 
HETATM    9  C   UNL     1     -45.050 -52.851  12.563  1.00  0.00     0.104 A 
ATOM     10  HN  UNL     1     -43.504 -52.932  11.087  1.00  0.00     0.167 HD
HETATM   11  C   UNL     1     -45.275 -53.314  13.843  1.00  0.00     0.002 A 
HETATM   12  S   UNL     1     -43.918 -54.232  14.370  1.00  0.00    -0.057 SA
BRANCH  11  13
HETATM   13  C   UNL     1     -46.448 -53.065  14.737  1.00  0.00     0.051 C 
BRANCH  13  14
HETATM   14  C   UNL     1     -46.580 -51.580  15.131  1.00  0.00    -0.018 C 
HETATM   15  C   UNL     1     -47.605 -51.370  16.250  1.00  0.00     0.010 C 
HETATM   16  C   UNL     1     -45.221 -51.025  15.548  1.00  0.00     0.010 C 
ENDBRANCH  13  14
ENDBRANCH  11  13
ENDBRANCH   1   7
BRANCH   4  17
HETATM   17  C   UNL     1     -40.059 -51.131  13.768  1.00  0.00     0.054 C 
HETATM   18  C   UNL     1     -40.752 -49.822  14.183  1.00  0.00     0.041 C 
HETATM   19  C   UNL     1     -39.102 -50.946  12.603  1.00  0.00     0.059 C 
HETATM   20  C   UNL     1     -37.852 -50.395  13.260  1.00  0.00     0.170 C 
HETATM   21  O   UNL     1     -37.856 -50.816  14.631  1.00  0.00    -0.389 OA
HETATM   22  C   UNL     1     -39.069 -51.546  14.866  1.00  0.00     0.198 C 
ENDBRANCH   4  17
TORSDOF 4
ENDMDL
MODEL 5
REMARK VINA RESULT:      -5.5      3.577      6.811
REMARK  4 active torsions:
REMARK  status: ('A' for Active; 'I' for Inactive)
REMARK    1  A    between atoms: C_2  and  C_4 
REMARK    2  A    between atoms: C_4  and  C_5 
REMARK    3  A    between atoms: C_9  and  N_10 
REMARK       I    between atoms: N_10  and  C_11 
REMARK       I    between atoms: C_11  and  N_13 
REMARK    4  A    between atoms: N_13  and  C_14 
ROOT
HETATM    1  N   UNL     1     -43.653 -49.906  12.714  1.00  0.00    -0.289 N 
HETATM    2  C   UNL     1     -44.111 -51.045  13.306  1.00  0.00     0.322 C 
HETATM    3  O   UNL     1     -45.286 -51.124  13.651  1.00  0.00    -0.247 OA
HETATM    4  N   UNL     1     -43.222 -52.076  13.377  1.00  0.00    -0.332 N 
HETATM    5  H   UNL     1     -44.340 -49.197  12.503  1.00  0.00     0.172 HD
HETATM    6  H   UNL     1     -42.242 -51.800  13.320  1.00  0.00     0.165 HD
ENDROOT
BRANCH   1   7
HETATM    7  C   UNL     1     -42.349 -49.669  12.415  1.00  0.00     0.152 A 
HETATM    8  N   UNL     1     -41.747 -49.849  11.260  1.00  0.00    -0.345 N 
HETATM    9  C   UNL     1     -40.398 -49.620  11.421  1.00  0.00     0.104 A 
ATOM     10  HN  UNL     1     -42.205 -50.116  10.388  1.00  0.00     0.167 HD
HETATM   11  C   UNL     1     -40.010 -49.233  12.687  1.00  0.00     0.002 A 
HETATM   12  S   UNL     1     -41.397 -49.096  13.697  1.00  0.00    -0.057 SA
BRANCH  11  13
HETATM   13  C   UNL     1     -38.630 -49.001  13.214  1.00  0.00     0.051 C 
BRANCH  13  14
HETATM   14  C   UNL     1     -37.992 -50.288  13.773  1.00  0.00    -0.018 C 
HETATM   15  C   UNL     1     -37.205 -51.053  12.704  1.00  0.00     0.010 C 
HETATM   16  C   UNL     1     -37.089 -49.955  14.958  1.00  0.00     0.010 C 
ENDBRANCH  13  14
ENDBRANCH  11  13
ENDBRANCH   1   7
BRANCH   4  17
HETATM   17  C   UNL     1     -43.525 -53.439  13.774  1.00  0.00     0.054 C 
HETATM   18  C   UNL     1     -42.248 -54.296  13.789  1.00  0.00     0.041 C 
HETATM   19  C   UNL     1     -44.634 -54.052  12.937  1.00  0.00     0.059 C 
HETATM   20  C   UNL     1     -45.241 -55.089  13.863  1.00  0.00     0.170 C 
HETATM   21  O   UNL     1     -44.968 -54.682  15.211  1.00  0.00    -0.389 OA
HETATM   22  C   UNL     1     -44.178 -53.485  15.162  1.00  0.00     0.198 C 
ENDBRANCH   4  17
TORSDOF 4
ENDMDL
MODEL 6
REMARK VINA RESULT:      -5.4      3.380      4.403
REMARK  4 active torsions:
REMARK  status: ('A' for Active; 'I' for Inactive)
REMARK    1  A    between atoms: C_2  and  C_4 
REMARK    2  A    between atoms: C_4  and  C_5 
REMARK    3  A    between atoms: C_9  and  N_10 
REMARK       I    between atoms: N_10  and  C_11 
REMARK       I    between atoms: C_11  and  N_13 
REMARK    4  A    between atoms: N_13  and  C_14 
ROOT
HETATM    1  N   UNL     1     -41.723 -48.955  10.656  1.00  0.00    -0.289 N 
HETATM    2  C   UNL     1     -41.627 -47.600  10.547  1.00  0.00     0.322 C 
HETATM    3  O   UNL     1     -42.341 -46.999   9.749  1.00  0.00    -0.247 OA
HETATM    4  N   UNL     1     -40.792 -46.990  11.435  1.00  0.00    -0.332 N 
HETATM    5  H   UNL     1     -42.455 -49.403  10.125  1.00  0.00     0.172 HD
HETATM    6  H   UNL     1     -40.075 -47.596  11.833  1.00  0.00     0.165 HD
ENDROOT
BRANCH   1   7
HETATM    7  C   UNL     1     -40.893 -49.723  11.410  1.00  0.00     0.152 A 
HETATM    8  N   UNL     1     -39.643 -50.040  11.152  1.00  0.00    -0.345 N 
HETATM    9  C   UNL     1     -39.210 -50.945  12.098  1.00  0.00     0.104 A 
ATOM     10  HN  UNL     1     -39.086 -49.676  10.380  1.00  0.00     0.167 HD
HETATM   11  C   UNL     1     -40.129 -51.265  13.075  1.00  0.00     0.002 A 
HETATM   12  S   UNL     1     -41.569 -50.355  12.831  1.00  0.00    -0.057 SA
BRANCH  11  13
HETATM   13  C   UNL     1     -40.014 -52.270  14.176  1.00  0.00     0.051 C 
BRANCH  13  14
HETATM   14  C   UNL     1     -39.881 -53.710  13.645  1.00  0.00    -0.018 C 
HETATM   15  C   UNL     1     -39.378 -54.678  14.721  1.00  0.00     0.010 C 
HETATM   16  C   UNL     1     -41.218 -54.190  13.086  1.00  0.00     0.010 C 
ENDBRANCH  13  14
ENDBRANCH  11  13
ENDBRANCH   1   7
BRANCH   4  17
HETATM   17  C   UNL     1     -40.673 -45.559  11.651  1.00  0.00     0.054 C 
HETATM   18  C   UNL     1     -39.769 -45.267  12.861  1.00  0.00     0.041 C 
HETATM   19  C   UNL     1     -42.025 -44.875  11.748  1.00  0.00     0.059 C 
HETATM   20  C   UNL     1     -41.734 -43.457  11.295  1.00  0.00     0.170 C 
HETATM   21  O   UNL     1     -40.572 -43.497  10.454  1.00  0.00    -0.389 OA
HETATM   22  C   UNL     1     -40.101 -44.852  10.414  1.00  0.00     0.198 C 
ENDBRANCH   4  17
TORSDOF 4
ENDMDL
MODEL 7
REMARK VINA RESULT:      -5.3      3.079      4.778
REMARK  4 active torsions:
REMARK  status: ('A' for Active; 'I' for Inactive)
REMARK    1  A    between atoms: C_2  and  C_4 
REMARK    2  A    between atoms: C_4  and  C_5 
REMARK    3  A    between atoms: C_9  and  N_10 
REMARK       I    between atoms: N_10  and  C_11 
REMARK       I    between atoms: C_11  and  N_13 
REMARK    4  A    between atoms: N_13  and  C_14 
ROOT
HETATM    1  N   UNL     1     -42.358 -47.761  10.299  1.00  0.00    -0.289 N 
HETATM    2  C   UNL     1     -41.861 -46.498  10.182  1.00  0.00     0.322 C 
HETATM    3  O   UNL     1     -42.438 -45.677   9.475  1.00  0.00    -0.247 OA
HETATM    4  N   UNL     1     -40.784 -46.208  10.966  1.00  0.00    -0.332 N 
HETATM    5  H   UNL     1     -43.247 -47.942   9.858  1.00  0.00     0.172 HD
HETATM    6  H   UNL     1     -40.250 -47.019  11.276  1.00  0.00     0.165 HD
ENDROOT
BRANCH   1   7
HETATM    7  C   UNL     1     -41.727 -48.774  10.948  1.00  0.00     0.152 A 
HETATM    8  N   UNL     1     -40.659 -49.433  10.556  1.00  0.00    -0.345 N 
HETATM    9  C   UNL     1     -40.428 -50.469  11.435  1.00  0.00     0.104 A 
ATOM     10  HN  UNL     1     -40.094 -49.212   9.736  1.00  0.00     0.167 HD
HETATM   11  C   UNL     1     -41.304 -50.552  12.497  1.00  0.00     0.002 A 
HETATM   12  S   UNL     1     -42.424 -49.247  12.421  1.00  0.00    -0.057 SA
BRANCH  11  13
HETATM   13  C   UNL     1     -41.390 -51.597  13.562  1.00  0.00     0.051 C 
BRANCH  13  14
HETATM   14  C   UNL     1     -40.578 -52.860  13.211  1.00  0.00    -0.018 C 
HETATM   15  C   UNL     1     -39.448 -53.116  14.214  1.00  0.00     0.010 C 
HETATM   16  C   UNL     1     -41.501 -54.073  13.134  1.00  0.00     0.010 C 
ENDBRANCH  13  14
ENDBRANCH  11  13
ENDBRANCH   1   7
BRANCH   4  17
HETATM   17  C   UNL     1     -40.205 -44.891  11.169  1.00  0.00     0.054 C 
HETATM   18  C   UNL     1     -39.373 -44.471   9.945  1.00  0.00     0.041 C 
HETATM   19  C   UNL     1     -39.426 -44.797  12.469  1.00  0.00     0.059 C 
HETATM   20  C   UNL     1     -39.505 -43.323  12.819  1.00  0.00     0.170 C 
HETATM   21  O   UNL     1     -40.677 -42.787  12.190  1.00  0.00    -0.389 OA
HETATM   22  C   UNL     1     -41.290 -43.837  11.427  1.00  0.00     0.198 C 
ENDBRANCH   4  17
TORSDOF 4
ENDMDL
MODEL 8
REMARK VINA RESULT:      -5.3      3.901      6.209
REMARK  4 active torsions:
REMARK  status: ('A' for Active; 'I' for Inactive)
REMARK    1  A    between atoms: C_2  and  C_4 
REMARK    2  A    between atoms: C_4  and  C_5 
REMARK    3  A    between atoms: C_9  and  N_10 
REMARK       I    between atoms: N_10  and  C_11 
REMARK       I    between atoms: C_11  and  N_13 
REMARK    4  A    between atoms: N_13  and  C_14 
ROOT
HETATM    1  N   UNL     1     -42.046 -51.954  12.273  1.00  0.00    -0.289 N 
HETATM    2  C   UNL     1     -40.961 -52.585  12.804  1.00  0.00     0.322 C 
HETATM    3  O   UNL     1     -39.849 -52.402  12.318  1.00  0.00    -0.247 OA
HETATM    4  N   UNL     1     -41.191 -53.314  13.933  1.00  0.00    -0.332 N 
HETATM    5  H   UNL     1     -41.867 -51.281  11.543  1.00  0.00     0.172 HD
HETATM    6  H   UNL     1     -42.159 -53.608  14.063  1.00  0.00     0.165 HD
ENDROOT
BRANCH   1   7
HETATM    7  C   UNL     1     -43.330 -52.189  12.652  1.00  0.00     0.152 A 
HETATM    8  N   UNL     1     -44.135 -53.129  12.209  1.00  0.00    -0.345 N 
HETATM    9  C   UNL     1     -45.388 -52.933  12.749  1.00  0.00     0.104 A 
ATOM     10  HN  UNL     1     -43.875 -53.880  11.570  1.00  0.00     0.167 HD
HETATM   11  C   UNL     1     -45.496 -51.870  13.622  1.00  0.00     0.002 A 
HETATM   12  S   UNL     1     -43.956 -51.125  13.815  1.00  0.00    -0.057 SA
BRANCH  11  13
HETATM   13  C   UNL     1     -46.716 -51.333  14.298  1.00  0.00     0.051 C 
BRANCH  13  14
HETATM   14  C   UNL     1     -47.125 -52.173  15.524  1.00  0.00    -0.018 C 
HETATM   15  C   UNL     1     -45.919 -52.840  16.194  1.00  0.00     0.010 C 
HETATM   16  C   UNL     1     -47.874 -51.303  16.531  1.00  0.00     0.010 C 
ENDBRANCH  13  14
ENDBRANCH  11  13
ENDBRANCH   1   7
BRANCH   4  17
HETATM   17  C   UNL     1     -40.178 -53.907  14.788  1.00  0.00     0.054 C 
HETATM   18  C   UNL     1     -39.190 -54.743  13.958  1.00  0.00     0.041 C 
HETATM   19  C   UNL     1     -40.781 -54.685  15.944  1.00  0.00     0.059 C 
HETATM   20  C   UNL     1     -39.703 -54.622  17.010  1.00  0.00     0.170 C 
HETATM   21  O   UNL     1     -38.908 -53.455  16.757  1.00  0.00    -0.389 OA
HETATM   22  C   UNL     1     -39.402 -52.832  15.562  1.00  0.00     0.198 C 
ENDBRANCH   4  17
TORSDOF 4
ENDMDL
MODEL 9
REMARK VINA RESULT:      -5.3      3.363      5.265
REMARK  4 active torsions:
REMARK  status: ('A' for Active; 'I' for Inactive)
REMARK    1  A    between atoms: C_2  and  C_4 
REMARK    2  A    between atoms: C_4  and  C_5 
REMARK    3  A    between atoms: C_9  and  N_10 
REMARK       I    between atoms: N_10  and  C_11 
REMARK       I    between atoms: C_11  and  N_13 
REMARK    4  A    between atoms: N_13  and  C_14 
ROOT
HETATM    1  N   UNL     1     -40.351 -51.160  11.852  1.00  0.00    -0.289 N 
HETATM    2  C   UNL     1     -39.217 -50.844  12.538  1.00  0.00     0.322 C 
HETATM    3  O   UNL     1     -38.121 -51.168  12.089  1.00  0.00    -0.247 OA
HETATM    4  N   UNL     1     -39.390 -50.080  13.653  1.00  0.00    -0.332 N 
HETATM    5  H   UNL     1     -40.230 -51.578  10.942  1.00  0.00     0.172 HD
HETATM    6  H   UNL     1     -40.324 -50.119  14.058  1.00  0.00     0.165 HD
ENDROOT
BRANCH   1   7
HETATM    7  C   UNL     1     -41.610 -50.963  12.324  1.00  0.00     0.152 A 
HETATM    8  N   UNL     1     -42.374 -49.907  12.148  1.00  0.00    -0.345 N 
HETATM    9  C   UNL     1     -43.516 -50.054  12.905  1.00  0.00     0.104 A 
ATOM     10  HN  UNL     1     -42.156 -49.110  11.550  1.00  0.00     0.167 HD
HETATM   11  C   UNL     1     -43.613 -51.236  13.608  1.00  0.00     0.002 A 
HETATM   12  S   UNL     1     -42.246 -52.224  13.263  1.00  0.00    -0.057 SA
BRANCH  11  13
HETATM   13  C   UNL     1     -44.662 -51.664  14.584  1.00  0.00     0.051 C 
BRANCH  13  14
HETATM   14  C   UNL     1     -46.085 -51.321  14.102  1.00  0.00    -0.018 C 
HETATM   15  C   UNL     1     -46.496 -52.153  12.882  1.00  0.00     0.010 C 
HETATM   16  C   UNL     1     -47.086 -51.519  15.237  1.00  0.00     0.010 C 
ENDBRANCH  13  14
ENDBRANCH  11  13
ENDBRANCH   1   7
BRANCH   4  17
HETATM   17  C   UNL     1     -38.335 -49.453  14.431  1.00  0.00     0.054 C 
HETATM   18  C   UNL     1     -37.744 -48.252  13.673  1.00  0.00     0.041 C 
HETATM   19  C   UNL     1     -37.277 -50.446  14.876  1.00  0.00     0.059 C 
HETATM   20  C   UNL     1     -36.716 -49.819  16.138  1.00  0.00     0.170 C 
HETATM   21  O   UNL     1     -37.726 -48.959  16.685  1.00  0.00    -0.389 OA
HETATM   22  C   UNL     1     -38.854 -48.980  15.796  1.00  0.00     0.198 C 
ENDBRANCH   4  17
TORSDOF 4
ENDMDL
