MODEL 1
REMARK VINA RESULT:      -6.5      0.000      0.000
REMARK  7 active torsions:
REMARK  status: ('A' for Active; 'I' for Inactive)
REMARK    1  A    between atoms: N_2  and  C_14 
REMARK    2  A    between atoms: C_3  and  N_9 
REMARK    3  A    between atoms: C_7  and  N_9 
REMARK    4  A    between atoms: C_12  and  C_14 
REMARK    5  A    between atoms: C_12  and  O_23 
REMARK    6  A    between atoms: C_13  and  O_25 
REMARK    7  A    between atoms: O_25  and  C_30 
ROOT
HETATM    1  C   UNL     1     -40.801 -50.950  12.722  1.00  0.00     0.122 A 
HETATM    2  N   UNL     1     -41.718 -52.902  13.133  1.00  0.00    -0.324 N 
HETATM    3  C   UNL     1     -40.436 -49.615  13.058  1.00  0.00     0.135 A 
HETATM    4  C   UNL     1     -41.351 -51.733  13.734  1.00  0.00     0.140 A 
HETATM    5  N   UNL     1     -40.776 -51.675  11.541  1.00  0.00    -0.346 N 
ATOM      6  HN  UNL     1     -40.383 -51.382  10.647  1.00  0.00     0.167 HD
HETATM    7  C   UNL     1     -41.365 -52.818  11.815  1.00  0.00     0.185 A 
HETATM    8  N   UNL     1     -40.643 -49.262  14.366  1.00  0.00    -0.337 N 
ATOM      9  HN  UNL     1     -40.414 -48.317  14.674  1.00  0.00     0.168 HD
HETATM   10  N   UNL     1     -41.528 -51.411  15.023  1.00  0.00    -0.336 N 
ATOM     11  HN  UNL     1     -41.903 -52.041  15.733  1.00  0.00     0.168 HD
HETATM   12  C   UNL     1     -41.144 -50.144  15.251  1.00  0.00     0.183 A 
ENDROOT
BRANCH   3  13
HETATM   13  N   UNL     1     -39.921 -48.619  12.169  1.00  0.00    -0.364 N 
HETATM   14  C   UNL     1     -38.503 -48.786  11.850  1.00  0.00     0.152 C 
BRANCH  13  15
HETATM   15  C   UNL     1     -40.777 -48.028  11.149  1.00  0.00     0.098 C 
HETATM   16  C   UNL     1     -41.172 -46.510  11.325  1.00  0.00    -0.001 C 
HETATM   17  C   UNL     1     -42.606 -46.929  10.839  1.00  0.00     0.133 C 
HETATM   18  C   UNL     1     -41.232 -45.916  12.739  1.00  0.00     0.019 C 
HETATM   19  C   UNL     1     -40.449 -45.553  10.372  1.00  0.00     0.019 C 
HETATM   20  C   UNL     1     -42.281 -48.356  11.322  1.00  0.00     0.059 C 
BRANCH  17  21
HETATM   21  O   UNL     1     -42.891 -46.804   9.423  1.00  0.00    -0.385 OA
BRANCH  21  22
HETATM   22  C   UNL     1     -44.172 -46.263   9.105  1.00  0.00     0.163 C 
HETATM   23  C   UNL     1     -45.188 -47.384   9.074  1.00  0.00     0.033 C 
ENDBRANCH  21  22
ENDBRANCH  17  21
ENDBRANCH  13  15
ENDBRANCH   3  13
BRANCH   2  24
HETATM   24  C   UNL     1     -42.475 -53.979  13.740  1.00  0.00     0.172 C 
BRANCH  24  25
HETATM   25  C   UNL     1     -43.992 -53.917  13.504  1.00  0.00     0.102 C 
HETATM   26  C   UNL     1     -44.722 -52.725  14.159  1.00  0.00     0.153 C 
HETATM   27  O   UNL     1     -46.041 -53.190  14.533  1.00  0.00    -0.383 OA
HETATM   28  C   UNL     1     -44.901 -51.489  13.293  1.00  0.00     0.042 C 
HETATM   29  C   UNL     1     -46.120 -54.592  14.250  1.00  0.00     0.171 C 
HETATM   30  C   UNL     1     -44.689 -55.081  14.200  1.00  0.00     0.068 C 
BRANCH  25  31
HETATM   31  O   UNL     1     -44.297 -54.049  12.108  1.00  0.00    -0.385 OA
HETATM   32  H   UNL     1     -43.470 -54.151  11.600  1.00  0.00     0.210 HD
ENDBRANCH  25  31
ENDBRANCH  24  25
ENDBRANCH   2  24
TORSDOF 7
ENDMDL
MODEL 2
REMARK VINA RESULT:      -6.4      1.168      2.032
REMARK  7 active torsions:
REMARK  status: ('A' for Active; 'I' for Inactive)
REMARK    1  A    between atoms: N_2  and  C_14 
REMARK    2  A    between atoms: C_3  and  N_9 
REMARK    3  A    between atoms: C_7  and  N_9 
REMARK    4  A    between atoms: C_12  and  C_14 
REMARK    5  A    between atoms: C_12  and  O_23 
REMARK    6  A    between atoms: C_13  and  O_25 
REMARK    7  A    between atoms: O_25  and  C_30 
ROOT
HETATM    1  C   UNL     1     -41.867 -50.214  13.225  1.00  0.00     0.122 A 
HETATM    2  N   UNL     1     -43.025 -51.534  14.543  1.00  0.00    -0.324 N 
HETATM    3  C   UNL     1     -40.964 -49.951  12.156  1.00  0.00     0.135 A 
HETATM    4  C   UNL     1     -42.275 -51.534  13.402  1.00  0.00     0.140 A 
HETATM    5  N   UNL     1     -42.427 -49.422  14.214  1.00  0.00    -0.346 N 
ATOM      6  HN  UNL     1     -42.350 -48.409  14.310  1.00  0.00     0.167 HD
HETATM    7  C   UNL     1     -43.079 -50.247  15.002  1.00  0.00     0.185 A 
HETATM    8  N   UNL     1     -40.622 -51.039  11.395  1.00  0.00    -0.337 N 
ATOM      9  HN  UNL     1     -39.971 -50.924  10.618  1.00  0.00     0.168 HD
HETATM   10  N   UNL     1     -41.975 -52.599  12.647  1.00  0.00    -0.336 N 
ATOM     11  HN  UNL     1     -42.335 -53.541  12.802  1.00  0.00     0.168 HD
HETATM   12  C   UNL     1     -41.134 -52.255  11.658  1.00  0.00     0.183 A 
ENDROOT
BRANCH   3  13
HETATM   13  N   UNL     1     -40.364 -48.692  11.833  1.00  0.00    -0.364 N 
HETATM   14  C   UNL     1     -38.901 -48.712  11.853  1.00  0.00     0.152 C 
BRANCH  13  15
HETATM   15  C   UNL     1     -41.014 -47.784  10.898  1.00  0.00     0.098 C 
HETATM   16  C   UNL     1     -41.094 -46.261  11.304  1.00  0.00    -0.001 C 
HETATM   17  C   UNL     1     -42.551 -46.283  10.719  1.00  0.00     0.133 C 
HETATM   18  C   UNL     1     -41.115 -45.888  12.793  1.00  0.00     0.019 C 
HETATM   19  C   UNL     1     -40.131 -45.350  10.537  1.00  0.00     0.019 C 
HETATM   20  C   UNL     1     -42.561 -47.802  10.975  1.00  0.00     0.059 C 
BRANCH  17  21
HETATM   21  O   UNL     1     -42.717 -45.887   9.334  1.00  0.00    -0.385 OA
BRANCH  21  22
HETATM   22  C   UNL     1     -43.965 -45.271   9.021  1.00  0.00     0.163 C 
HETATM   23  C   UNL     1     -45.018 -46.345   8.852  1.00  0.00     0.033 C 
ENDBRANCH  21  22
ENDBRANCH  17  21
ENDBRANCH  13  15
ENDBRANCH   3  13
BRANCH   2  24
HETATM   24  C   UNL     1     -43.546 -52.701  15.227  1.00  0.00     0.172 C 
BRANCH  24  25
HETATM   25  C   UNL     1     -44.742 -53.375  14.536  1.00  0.00     0.102 C 
HETATM   26  C   UNL     1     -45.966 -53.649  15.436  1.00  0.00     0.153 C 
HETATM   27  O   UNL     1     -46.577 -54.872  14.961  1.00  0.00    -0.383 OA
HETATM   28  C   UNL     1     -47.042 -52.575  15.451  1.00  0.00     0.042 C 
HETATM   29  C   UNL     1     -45.756 -55.407  13.916  1.00  0.00     0.171 C 
HETATM   30  C   UNL     1     -44.386 -54.798  14.119  1.00  0.00     0.068 C 
BRANCH  25  31
HETATM   31  O   UNL     1     -45.091 -52.683  13.328  1.00  0.00    -0.385 OA
HETATM   32  H   UNL     1     -45.999 -52.923  13.064  1.00  0.00     0.210 HD
ENDBRANCH  25  31
ENDBRANCH  24  25
ENDBRANCH   2  24
TORSDOF 7
ENDMDL
MODEL 3
REMARK VINA RESULT:      -6.3      2.061      7.255
REMARK  7 active torsions:
REMARK  status: ('A' for Active; 'I' for Inactive)
REMARK    1  A    between atoms: N_2  and  C_14 
REMARK    2  A    between atoms: C_3  and  N_9 
REMARK    3  A    between atoms: C_7  and  N_9 
REMARK    4  A    between atoms: C_12  and  C_14 
REMARK    5  A    between atoms: C_12  and  O_23 
REMARK    6  A    between atoms: C_13  and  O_25 
REMARK    7  A    between atoms: O_25  and  C_30 
ROOT
HETATM    1  C   UNL     1     -41.564 -49.568  11.560  1.00  0.00     0.122 A 
HETATM    2  N   UNL     1     -41.471 -47.460  10.950  1.00  0.00    -0.324 N 
HETATM    3  C   UNL     1     -40.990 -50.833  11.871  1.00  0.00     0.135 A 
HETATM    4  C   UNL     1     -40.688 -48.508  11.341  1.00  0.00     0.140 A 
HETATM    5  N   UNL     1     -42.866 -49.135  11.369  1.00  0.00    -0.346 N 
ATOM      6  HN  UNL     1     -43.722 -49.673  11.509  1.00  0.00     0.167 HD
HETATM    7  C   UNL     1     -42.770 -47.886  10.970  1.00  0.00     0.185 A 
HETATM    8  N   UNL     1     -39.622 -50.854  11.951  1.00  0.00    -0.337 N 
ATOM      9  HN  UNL     1     -39.143 -51.730  12.159  1.00  0.00     0.168 HD
HETATM   10  N   UNL     1     -39.352 -48.507  11.448  1.00  0.00    -0.336 N 
ATOM     11  HN  UNL     1     -38.759 -47.687  11.313  1.00  0.00     0.168 HD
HETATM   12  C   UNL     1     -38.901 -49.733  11.757  1.00  0.00     0.183 A 
ENDROOT
BRANCH   3  13
HETATM   13  N   UNL     1     -41.690 -52.066  12.066  1.00  0.00    -0.364 N 
HETATM   14  C   UNL     1     -40.825 -53.186  12.438  1.00  0.00     0.152 C 
BRANCH  13  15
HETATM   15  C   UNL     1     -43.053 -52.067  12.579  1.00  0.00     0.098 C 
HETATM   16  C   UNL     1     -43.248 -51.778  14.119  1.00  0.00    -0.001 C 
HETATM   17  C   UNL     1     -44.339 -52.908  14.092  1.00  0.00     0.133 C 
HETATM   18  C   UNL     1     -42.117 -52.141  15.092  1.00  0.00     0.019 C 
HETATM   19  C   UNL     1     -43.803 -50.387  14.437  1.00  0.00     0.019 C 
HETATM   20  C   UNL     1     -43.621 -53.482  12.855  1.00  0.00     0.059 C 
BRANCH  17  21
HETATM   21  O   UNL     1     -45.713 -52.500  13.877  1.00  0.00    -0.385 OA
BRANCH  21  22
HETATM   22  C   UNL     1     -46.628 -52.872  14.906  1.00  0.00     0.163 C 
HETATM   23  C   UNL     1     -47.123 -51.623  15.603  1.00  0.00     0.033 C 
ENDBRANCH  21  22
ENDBRANCH  17  21
ENDBRANCH  13  15
ENDBRANCH   3  13
BRANCH   2  24
HETATM   24  C   UNL     1     -41.006 -46.178  10.462  1.00  0.00     0.172 C 
BRANCH  24  25
HETATM   25  C   UNL     1     -40.792 -45.111  11.548  1.00  0.00     0.102 C 
HETATM   26  C   UNL     1     -42.077 -44.486  12.132  1.00  0.00     0.153 C 
HETATM   27  O   UNL     1     -41.771 -43.109  12.454  1.00  0.00    -0.383 OA
HETATM   28  C   UNL     1     -42.628 -45.138  13.390  1.00  0.00     0.042 C 
HETATM   29  C   UNL     1     -40.437 -42.830  12.010  1.00  0.00     0.171 C 
HETATM   30  C   UNL     1     -40.130 -43.871  10.956  1.00  0.00     0.068 C 
BRANCH  25  31
HETATM   31  O   UNL     1     -39.900 -45.589  12.565  1.00  0.00    -0.385 OA
HETATM   32  H   UNL     1     -40.024 -46.550  12.683  1.00  0.00     0.210 HD
ENDBRANCH  25  31
ENDBRANCH  24  25
ENDBRANCH   2  24
TORSDOF 7
ENDMDL
MODEL 4
REMARK VINA RESULT:      -6.1      3.341      7.113
REMARK  7 active torsions:
REMARK  status: ('A' for Active; 'I' for Inactive)
REMARK    1  A    between atoms: N_2  and  C_14 
REMARK    2  A    between atoms: C_3  and  N_9 
REMARK    3  A    between atoms: C_7  and  N_9 
REMARK    4  A    between atoms: C_12  and  C_14 
REMARK    5  A    between atoms: C_12  and  O_23 
REMARK    6  A    between atoms: C_13  and  O_25 
REMARK    7  A    between atoms: O_25  and  C_30 
ROOT
HETATM    1  C   UNL     1     -41.177 -51.980  13.294  1.00  0.00     0.122 A 
HETATM    2  N   UNL     1     -39.052 -51.535  13.626  1.00  0.00    -0.324 N 
HETATM    3  C   UNL     1     -42.483 -51.683  12.809  1.00  0.00     0.135 A 
HETATM    4  C   UNL     1     -40.155 -51.099  12.950  1.00  0.00     0.140 A 
HETATM    5  N   UNL     1     -40.670 -52.975  14.114  1.00  0.00    -0.346 N 
ATOM      6  HN  UNL     1     -41.169 -53.786  14.480  1.00  0.00     0.167 HD
HETATM    7  C   UNL     1     -39.412 -52.657  14.321  1.00  0.00     0.185 A 
HETATM    8  N   UNL     1     -42.576 -50.564  12.023  1.00  0.00    -0.337 N 
ATOM      9  HN  UNL     1     -43.484 -50.285  11.650  1.00  0.00     0.168 HD
HETATM   10  N   UNL     1     -40.226 -50.021  12.156  1.00  0.00    -0.336 N 
ATOM     11  HN  UNL     1     -39.433 -49.431  11.906  1.00  0.00     0.168 HD
HETATM   12  C   UNL     1     -41.487 -49.827  11.735  1.00  0.00     0.183 A 
ENDROOT
BRANCH   3  13
HETATM   13  N   UNL     1     -43.686 -52.405  13.092  1.00  0.00    -0.364 N 
HETATM   14  C   UNL     1     -43.757 -53.714  12.442  1.00  0.00     0.152 C 
BRANCH  13  15
HETATM   15  C   UNL     1     -44.351 -52.253  14.379  1.00  0.00     0.098 C 
HETATM   16  C   UNL     1     -45.923 -52.116  14.370  1.00  0.00    -0.001 C 
HETATM   17  C   UNL     1     -45.736 -51.025  15.485  1.00  0.00     0.133 C 
HETATM   18  C   UNL     1     -46.610 -51.515  13.135  1.00  0.00     0.019 C 
HETATM   19  C   UNL     1     -46.671 -53.365  14.844  1.00  0.00     0.019 C 
HETATM   20  C   UNL     1     -44.309 -50.811  14.943  1.00  0.00     0.059 C 
BRANCH  17  21
HETATM   21  O   UNL     1     -45.816 -51.464  16.864  1.00  0.00    -0.385 OA
BRANCH  21  22
HETATM   22  C   UNL     1     -46.717 -50.725  17.687  1.00  0.00     0.163 C 
HETATM   23  C   UNL     1     -48.133 -50.959  17.205  1.00  0.00     0.033 C 
ENDBRANCH  21  22
ENDBRANCH  17  21
ENDBRANCH  13  15
ENDBRANCH   3  13
BRANCH   2  24
HETATM   24  C   UNL     1     -37.775 -50.857  13.713  1.00  0.00     0.172 C 
BRANCH  24  25
HETATM   25  C   UNL     1     -37.697 -49.759  14.785  1.00  0.00     0.102 C 
HETATM   26  C   UNL     1     -37.435 -48.331  14.260  1.00  0.00     0.153 C 
HETATM   27  O   UNL     1     -36.643 -47.650  15.261  1.00  0.00    -0.383 OA
HETATM   28  C   UNL     1     -38.665 -47.479  13.992  1.00  0.00     0.042 C 
HETATM   29  C   UNL     1     -36.319 -48.589  16.294  1.00  0.00     0.171 C 
HETATM   30  C   UNL     1     -36.466 -49.956  15.664  1.00  0.00     0.068 C 
BRANCH  25  31
HETATM   31  O   UNL     1     -38.828 -49.823  15.666  1.00  0.00    -0.385 OA
HETATM   32  H   UNL     1     -38.969 -48.952  16.081  1.00  0.00     0.210 HD
ENDBRANCH  25  31
ENDBRANCH  24  25
ENDBRANCH   2  24
TORSDOF 7
ENDMDL
MODEL 5
REMARK VINA RESULT:      -6.1      2.032      7.303
REMARK  7 active torsions:
REMARK  status: ('A' for Active; 'I' for Inactive)
REMARK    1  A    between atoms: N_2  and  C_14 
REMARK    2  A    between atoms: C_3  and  N_9 
REMARK    3  A    between atoms: C_7  and  N_9 
REMARK    4  A    between atoms: C_12  and  C_14 
REMARK    5  A    between atoms: C_12  and  O_23 
REMARK    6  A    between atoms: C_13  and  O_25 
REMARK    7  A    between atoms: O_25  and  C_30 
ROOT
HETATM    1  C   UNL     1     -41.100 -49.778  12.464  1.00  0.00     0.122 A 
HETATM    2  N   UNL     1     -40.688 -47.858  11.481  1.00  0.00    -0.324 N 
HETATM    3  C   UNL     1     -40.844 -50.805  13.416  1.00  0.00     0.135 A 
HETATM    4  C   UNL     1     -40.338 -48.616  12.561  1.00  0.00     0.140 A 
HETATM    5  N   UNL     1     -41.948 -49.682  11.372  1.00  0.00    -0.346 N 
ATOM      6  HN  UNL     1     -42.657 -50.356  11.082  1.00  0.00     0.167 HD
HETATM    7  C   UNL     1     -41.648 -48.543  10.790  1.00  0.00     0.185 A 
HETATM    8  N   UNL     1     -39.885 -50.513  14.351  1.00  0.00    -0.337 N 
ATOM      9  HN  UNL     1     -39.643 -51.207  15.058  1.00  0.00     0.168 HD
HETATM   10  N   UNL     1     -39.422 -48.305  13.489  1.00  0.00    -0.336 N 
ATOM     11  HN  UNL     1     -38.920 -47.418  13.533  1.00  0.00     0.168 HD
HETATM   12  C   UNL     1     -39.258 -49.321  14.350  1.00  0.00     0.183 A 
ENDROOT
BRANCH   3  13
HETATM   13  N   UNL     1     -41.453 -52.099  13.464  1.00  0.00    -0.364 N 
HETATM   14  C   UNL     1     -40.542 -53.194  13.126  1.00  0.00     0.152 C 
BRANCH  13  15
HETATM   15  C   UNL     1     -42.519 -52.378  14.416  1.00  0.00     0.098 C 
HETATM   16  C   UNL     1     -43.731 -53.253  13.910  1.00  0.00    -0.001 C 
HETATM   17  C   UNL     1     -44.651 -52.268  14.717  1.00  0.00     0.133 C 
HETATM   18  C   UNL     1     -44.093 -53.231  12.418  1.00  0.00     0.019 C 
HETATM   19  C   UNL     1     -43.742 -54.689  14.443  1.00  0.00     0.019 C 
HETATM   20  C   UNL     1     -43.531 -51.218  14.584  1.00  0.00     0.059 C 
BRANCH  17  21
HETATM   21  O   UNL     1     -44.993 -52.640  16.076  1.00  0.00    -0.385 OA
BRANCH  21  22
HETATM   22  C   UNL     1     -46.383 -52.587  16.391  1.00  0.00     0.163 C 
HETATM   23  C   UNL     1     -47.088 -51.713  15.376  1.00  0.00     0.033 C 
ENDBRANCH  21  22
ENDBRANCH  17  21
ENDBRANCH  13  15
ENDBRANCH   3  13
BRANCH   2  24
HETATM   24  C   UNL     1     -40.058 -46.624  11.059  1.00  0.00     0.172 C 
BRANCH  24  25
HETATM   25  C   UNL     1     -40.532 -45.367  11.805  1.00  0.00     0.102 C 
HETATM   26  C   UNL     1     -42.061 -45.202  11.930  1.00  0.00     0.153 C 
HETATM   27  O   UNL     1     -42.340 -43.782  11.887  1.00  0.00    -0.383 OA
HETATM   28  C   UNL     1     -42.695 -45.753  13.198  1.00  0.00     0.042 C 
HETATM   29  C   UNL     1     -41.110 -43.091  11.639  1.00  0.00     0.171 C 
HETATM   30  C   UNL     1     -40.186 -44.111  11.011  1.00  0.00     0.068 C 
BRANCH  25  31
HETATM   31  O   UNL     1     -39.859 -45.237  13.066  1.00  0.00    -0.385 OA
HETATM   32  H   UNL     1     -40.512 -45.273  13.790  1.00  0.00     0.210 HD
ENDBRANCH  25  31
ENDBRANCH  24  25
ENDBRANCH   2  24
TORSDOF 7
ENDMDL
MODEL 6
REMARK VINA RESULT:      -6.1      2.553      7.323
REMARK  7 active torsions:
REMARK  status: ('A' for Active; 'I' for Inactive)
REMARK    1  A    between atoms: N_2  and  C_14 
REMARK    2  A    between atoms: C_3  and  N_9 
REMARK    3  A    between atoms: C_7  and  N_9 
REMARK    4  A    between atoms: C_12  and  C_14 
REMARK    5  A    between atoms: C_12  and  O_23 
REMARK    6  A    between atoms: C_13  and  O_25 
REMARK    7  A    between atoms: O_25  and  C_30 
ROOT
HETATM    1  C   UNL     1     -39.895 -50.620  13.531  1.00  0.00     0.122 A 
HETATM    2  N   UNL     1     -38.768 -48.784  13.959  1.00  0.00    -0.324 N 
HETATM    3  C   UNL     1     -40.722 -51.450  12.722  1.00  0.00     0.135 A 
HETATM    4  C   UNL     1     -39.421 -49.442  12.957  1.00  0.00     0.140 A 
HETATM    5  N   UNL     1     -39.467 -50.695  14.846  1.00  0.00    -0.346 N 
ATOM      6  HN  UNL     1     -39.615 -51.465  15.499  1.00  0.00     0.167 HD
HETATM    7  C   UNL     1     -38.831 -49.569  15.078  1.00  0.00     0.185 A 
HETATM    8  N   UNL     1     -40.932 -51.002  11.443  1.00  0.00    -0.337 N 
ATOM      9  HN  UNL     1     -41.524 -51.542  10.812  1.00  0.00     0.168 HD
HETATM   10  N   UNL     1     -39.591 -49.009  11.700  1.00  0.00    -0.336 N 
ATOM     11  HN  UNL     1     -39.187 -48.153  11.322  1.00  0.00     0.168 HD
HETATM   12  C   UNL     1     -40.369 -49.859  11.009  1.00  0.00     0.183 A 
ENDROOT
BRANCH   3  13
HETATM   13  N   UNL     1     -41.371 -52.661  13.122  1.00  0.00    -0.364 N 
HETATM   14  C   UNL     1     -40.506 -53.841  13.070  1.00  0.00     0.152 C 
BRANCH  13  15
HETATM   15  C   UNL     1     -42.419 -52.637  14.133  1.00  0.00     0.098 C 
HETATM   16  C   UNL     1     -43.771 -53.376  13.793  1.00  0.00    -0.001 C 
HETATM   17  C   UNL     1     -44.494 -52.158  14.473  1.00  0.00     0.133 C 
HETATM   18  C   UNL     1     -44.198 -53.507  12.324  1.00  0.00     0.019 C 
HETATM   19  C   UNL     1     -43.969 -54.705  14.528  1.00  0.00     0.019 C 
HETATM   20  C   UNL     1     -43.238 -51.322  14.159  1.00  0.00     0.059 C 
BRANCH  17  21
HETATM   21  O   UNL     1     -44.820 -52.281  15.880  1.00  0.00    -0.385 OA
BRANCH  21  22
HETATM   22  C   UNL     1     -46.169 -51.968  16.223  1.00  0.00     0.163 C 
HETATM   23  C   UNL     1     -46.900 -51.505  14.981  1.00  0.00     0.033 C 
ENDBRANCH  21  22
ENDBRANCH  17  21
ENDBRANCH  13  15
ENDBRANCH   3  13
BRANCH   2  24
HETATM   24  C   UNL     1     -38.232 -47.439  13.896  1.00  0.00     0.172 C 
BRANCH  24  25
HETATM   25  C   UNL     1     -39.261 -46.322  14.130  1.00  0.00     0.102 C 
HETATM   26  C   UNL     1     -38.938 -44.968  13.462  1.00  0.00     0.153 C 
HETATM   27  O   UNL     1     -39.445 -43.932  14.337  1.00  0.00    -0.383 OA
HETATM   28  C   UNL     1     -39.539 -44.738  12.085  1.00  0.00     0.042 C 
HETATM   29  C   UNL     1     -39.950 -44.555  15.524  1.00  0.00     0.171 C 
HETATM   30  C   UNL     1     -39.274 -45.906  15.597  1.00  0.00     0.068 C 
BRANCH  25  31
HETATM   31  O   UNL     1     -40.588 -46.779  13.834  1.00  0.00    -0.385 OA
HETATM   32  H   UNL     1     -40.669 -47.723  14.068  1.00  0.00     0.210 HD
ENDBRANCH  25  31
ENDBRANCH  24  25
ENDBRANCH   2  24
TORSDOF 7
ENDMDL
MODEL 7
REMARK VINA RESULT:      -5.9      1.702      6.956
REMARK  7 active torsions:
REMARK  status: ('A' for Active; 'I' for Inactive)
REMARK    1  A    between atoms: N_2  and  C_14 
REMARK    2  A    between atoms: C_3  and  N_9 
REMARK    3  A    between atoms: C_7  and  N_9 
REMARK    4  A    between atoms: C_12  and  C_14 
REMARK    5  A    between atoms: C_12  and  O_23 
REMARK    6  A    between atoms: C_13  and  O_25 
REMARK    7  A    between atoms: O_25  and  C_30 
ROOT
HETATM    1  C   UNL     1     -39.941 -49.162  13.418  1.00  0.00     0.122 A 
HETATM    2  N   UNL     1     -39.800 -47.085  12.717  1.00  0.00    -0.324 N 
HETATM    3  C   UNL     1     -39.721 -50.564  13.306  1.00  0.00     0.135 A 
HETATM    4  C   UNL     1     -39.342 -48.346  12.461  1.00  0.00     0.140 A 
HETATM    5  N   UNL     1     -40.696 -48.382  14.279  1.00  0.00    -0.346 N 
ATOM      6  HN  UNL     1     -41.205 -48.694  15.107  1.00  0.00     0.167 HD
HETATM    7  C   UNL     1     -40.619 -47.157  13.809  1.00  0.00     0.185 A 
HETATM    8  N   UNL     1     -38.906 -50.950  12.274  1.00  0.00    -0.337 N 
ATOM      9  HN  UNL     1     -38.714 -51.941  12.129  1.00  0.00     0.168 HD
HETATM   10  N   UNL     1     -38.518 -48.707  11.468  1.00  0.00    -0.336 N 
ATOM     11  HN  UNL     1     -38.074 -48.058  10.817  1.00  0.00     0.168 HD
HETATM   12  C   UNL     1     -38.356 -50.040  11.449  1.00  0.00     0.183 A 
ENDROOT
BRANCH   3  13
HETATM   13  N   UNL     1     -40.290 -51.587  14.130  1.00  0.00    -0.364 N 
HETATM   14  C   UNL     1     -39.627 -51.740  15.426  1.00  0.00     0.152 C 
BRANCH  13  15
HETATM   15  C   UNL     1     -41.714 -51.883  14.061  1.00  0.00     0.098 C 
HETATM   16  C   UNL     1     -42.131 -53.354  13.672  1.00  0.00    -0.001 C 
HETATM   17  C   UNL     1     -43.260 -52.699  12.799  1.00  0.00     0.133 C 
HETATM   18  C   UNL     1     -41.186 -54.189  12.797  1.00  0.00     0.019 C 
HETATM   19  C   UNL     1     -42.658 -54.193  14.841  1.00  0.00     0.019 C 
HETATM   20  C   UNL     1     -42.388 -51.430  12.742  1.00  0.00     0.059 C 
BRANCH  17  21
HETATM   21  O   UNL     1     -44.562 -52.529  13.414  1.00  0.00    -0.385 OA
BRANCH  21  22
HETATM   22  C   UNL     1     -45.675 -52.867  12.589  1.00  0.00     0.163 C 
HETATM   23  C   UNL     1     -46.594 -51.669  12.483  1.00  0.00     0.033 C 
ENDBRANCH  21  22
ENDBRANCH  17  21
ENDBRANCH  13  15
ENDBRANCH   3  13
BRANCH   2  24
HETATM   24  C   UNL     1     -39.580 -45.910  11.898  1.00  0.00     0.172 C 
BRANCH  24  25
HETATM   25  C   UNL     1     -40.695 -45.611  10.883  1.00  0.00     0.102 C 
HETATM   26  C   UNL     1     -41.851 -44.729  11.403  1.00  0.00     0.153 C 
HETATM   27  O   UNL     1     -43.056 -45.176  10.739  1.00  0.00    -0.383 OA
HETATM   28  C   UNL     1     -41.719 -43.235  11.156  1.00  0.00     0.042 C 
HETATM   29  C   UNL     1     -42.732 -46.323   9.944  1.00  0.00     0.171 C 
HETATM   30  C   UNL     1     -41.458 -46.884  10.535  1.00  0.00     0.068 C 
BRANCH  25  31
HETATM   31  O   UNL     1     -40.146 -45.127   9.649  1.00  0.00    -0.385 OA
HETATM   32  H   UNL     1     -39.246 -44.782   9.804  1.00  0.00     0.210 HD
ENDBRANCH  25  31
ENDBRANCH  24  25
ENDBRANCH   2  24
TORSDOF 7
ENDMDL
MODEL 8
REMARK VINA RESULT:      -5.9      2.911      7.631
REMARK  7 active torsions:
REMARK  status: ('A' for Active; 'I' for Inactive)
REMARK    1  A    between atoms: N_2  and  C_14 
REMARK    2  A    between atoms: C_3  and  N_9 
REMARK    3  A    between atoms: C_7  and  N_9 
REMARK    4  A    between atoms: C_12  and  C_14 
REMARK    5  A    between atoms: C_12  and  O_23 
REMARK    6  A    between atoms: C_13  and  O_25 
REMARK    7  A    between atoms: O_25  and  C_30 
ROOT
HETATM    1  C   UNL     1     -40.566 -50.192  13.535  1.00  0.00     0.122 A 
HETATM    2  N   UNL     1     -41.984 -48.834  12.550  1.00  0.00    -0.324 N 
HETATM    3  C   UNL     1     -39.963 -51.461  13.762  1.00  0.00     0.135 A 
HETATM    4  C   UNL     1     -41.467 -50.095  12.477  1.00  0.00     0.140 A 
HETATM    5  N   UNL     1     -40.494 -48.973  14.190  1.00  0.00    -0.346 N 
ATOM      6  HN  UNL     1     -39.882 -48.727  14.968  1.00  0.00     0.167 HD
HETATM    7  C   UNL     1     -41.379 -48.200  13.600  1.00  0.00     0.185 A 
HETATM    8  N   UNL     1     -40.321 -52.448  12.879  1.00  0.00    -0.337 N 
ATOM      9  HN  UNL     1     -39.935 -53.385  12.989  1.00  0.00     0.168 HD
HETATM   10  N   UNL     1     -41.801 -51.041  11.589  1.00  0.00    -0.336 N 
ATOM     11  HN  UNL     1     -42.442 -50.903  10.807  1.00  0.00     0.168 HD
HETATM   12  C   UNL     1     -41.176 -52.196  11.870  1.00  0.00     0.183 A 
ENDROOT
BRANCH   3  13
HETATM   13  N   UNL     1     -39.068 -51.806  14.824  1.00  0.00    -0.364 N 
HETATM   14  C   UNL     1     -37.899 -50.930  14.920  1.00  0.00     0.152 C 
BRANCH  13  15
HETATM   15  C   UNL     1     -39.577 -52.389  16.057  1.00  0.00     0.098 C 
HETATM   16  C   UNL     1     -39.198 -53.891  16.359  1.00  0.00    -0.001 C 
HETATM   17  C   UNL     1     -40.675 -54.060  16.865  1.00  0.00     0.133 C 
HETATM   18  C   UNL     1     -38.917 -54.838  15.184  1.00  0.00     0.019 C 
HETATM   19  C   UNL     1     -38.142 -54.070  17.454  1.00  0.00     0.019 C 
HETATM   20  C   UNL     1     -41.049 -52.863  15.969  1.00  0.00     0.059 C 
BRANCH  17  21
HETATM   21  O   UNL     1     -40.918 -53.872  18.282  1.00  0.00    -0.385 OA
BRANCH  21  22
HETATM   22  C   UNL     1     -41.539 -54.971  18.945  1.00  0.00     0.163 C 
HETATM   23  C   UNL     1     -41.765 -56.087  17.947  1.00  0.00     0.033 C 
ENDBRANCH  21  22
ENDBRANCH  17  21
ENDBRANCH  13  15
ENDBRANCH   3  13
BRANCH   2  24
HETATM   24  C   UNL     1     -43.075 -48.306  11.757  1.00  0.00     0.172 C 
BRANCH  24  25
HETATM   25  C   UNL     1     -42.655 -47.647  10.434  1.00  0.00     0.102 C 
HETATM   26  C   UNL     1     -42.183 -46.181  10.539  1.00  0.00     0.153 C 
HETATM   27  O   UNL     1     -42.586 -45.517   9.318  1.00  0.00    -0.383 OA
HETATM   28  C   UNL     1     -40.687 -45.967  10.703  1.00  0.00     0.042 C 
HETATM   29  C   UNL     1     -43.354 -46.441   8.537  1.00  0.00     0.171 C 
HETATM   30  C   UNL     1     -43.859 -47.481   9.512  1.00  0.00     0.068 C 
BRANCH  25  31
HETATM   31  O   UNL     1     -41.723 -48.475   9.724  1.00  0.00    -0.385 OA
HETATM   32  H   UNL     1     -41.501 -48.060   8.869  1.00  0.00     0.210 HD
ENDBRANCH  25  31
ENDBRANCH  24  25
ENDBRANCH   2  24
TORSDOF 7
ENDMDL
MODEL 9
REMARK VINA RESULT:      -5.7      2.135      2.361
REMARK  7 active torsions:
REMARK  status: ('A' for Active; 'I' for Inactive)
REMARK    1  A    between atoms: N_2  and  C_14 
REMARK    2  A    between atoms: C_3  and  N_9 
REMARK    3  A    between atoms: C_7  and  N_9 
REMARK    4  A    between atoms: C_12  and  C_14 
REMARK    5  A    between atoms: C_12  and  O_23 
REMARK    6  A    between atoms: C_13  and  O_25 
REMARK    7  A    between atoms: O_25  and  C_30 
ROOT
HETATM    1  C   UNL     1     -40.206 -51.268  13.325  1.00  0.00     0.122 A 
HETATM    2  N   UNL     1     -41.419 -53.093  13.179  1.00  0.00    -0.324 N 
HETATM    3  C   UNL     1     -39.561 -50.218  14.038  1.00  0.00     0.135 A 
HETATM    4  C   UNL     1     -40.772 -52.295  14.078  1.00  0.00     0.140 A 
HETATM    5  N   UNL     1     -40.455 -51.493  11.981  1.00  0.00    -0.346 N 
ATOM      6  HN  UNL     1     -40.121 -50.940  11.191  1.00  0.00     0.167 HD
HETATM    7  C   UNL     1     -41.211 -52.567  11.935  1.00  0.00     0.185 A 
HETATM    8  N   UNL     1     -39.545 -50.358  15.402  1.00  0.00    -0.337 N 
ATOM      9  HN  UNL     1     -39.108 -49.638  15.977  1.00  0.00     0.168 HD
HETATM   10  N   UNL     1     -40.735 -52.460  15.407  1.00  0.00    -0.336 N 
ATOM     11  HN  UNL     1     -41.136 -53.256  15.905  1.00  0.00     0.168 HD
HETATM   12  C   UNL     1     -40.097 -51.435  15.994  1.00  0.00     0.183 A 
ENDROOT
BRANCH   3  13
HETATM   13  N   UNL     1     -38.975 -49.038  13.480  1.00  0.00    -0.364 N 
HETATM   14  C   UNL     1     -37.799 -49.298  12.648  1.00  0.00     0.152 C 
BRANCH  13  15
HETATM   15  C   UNL     1     -39.809 -47.895  13.132  1.00  0.00     0.098 C 
HETATM   16  C   UNL     1     -39.709 -46.618  14.054  1.00  0.00    -0.001 C 
HETATM   17  C   UNL     1     -41.269 -46.510  13.906  1.00  0.00     0.133 C 
HETATM   18  C   UNL     1     -39.316 -46.794  15.527  1.00  0.00     0.019 C 
HETATM   19  C   UNL     1     -38.944 -45.446  13.431  1.00  0.00     0.019 C 
HETATM   20  C   UNL     1     -41.279 -48.021  13.604  1.00  0.00     0.059 C 
BRANCH  17  21
HETATM   21  O   UNL     1     -41.779 -45.663  12.846  1.00  0.00    -0.385 OA
BRANCH  21  22
HETATM   22  C   UNL     1     -42.695 -44.652  13.261  1.00  0.00     0.163 C 
HETATM   23  C   UNL     1     -42.803 -44.671  14.770  1.00  0.00     0.033 C 
ENDBRANCH  21  22
ENDBRANCH  17  21
ENDBRANCH  13  15
ENDBRANCH   3  13
BRANCH   2  24
HETATM   24  C   UNL     1     -42.288 -54.209  13.493  1.00  0.00     0.172 C 
BRANCH  24  25
HETATM   25  C   UNL     1     -43.791 -53.907  13.394  1.00  0.00     0.102 C 
HETATM   26  C   UNL     1     -44.275 -52.665  14.173  1.00  0.00     0.153 C 
HETATM   27  O   UNL     1     -45.616 -52.951  14.637  1.00  0.00    -0.383 OA
HETATM   28  C   UNL     1     -44.329 -51.361  13.393  1.00  0.00     0.042 C 
HETATM   29  C   UNL     1     -45.933 -54.304  14.288  1.00  0.00     0.171 C 
HETATM   30  C   UNL     1     -44.603 -54.997  14.087  1.00  0.00     0.068 C 
BRANCH  25  31
HETATM   31  O   UNL     1     -44.222 -53.900  12.025  1.00  0.00    -0.385 OA
HETATM   32  H   UNL     1     -44.513 -53.002  11.778  1.00  0.00     0.210 HD
ENDBRANCH  25  31
ENDBRANCH  24  25
ENDBRANCH   2  24
TORSDOF 7
ENDMDL
