MODEL 1
REMARK VINA RESULT:      -7.1      0.000      0.000
REMARK  7 active torsions:
REMARK  status: ('A' for Active; 'I' for Inactive)
REMARK    1  A    between atoms: O_1  and  C_2 
REMARK    2  A    between atoms: C_2  and  C_3 
REMARK    3  A    between atoms: N_12  and  C_13 
REMARK    4  A    between atoms: C_13  and  C_14 
REMARK    5  A    between atoms: C_14  and  O_15 
REMARK    6  A    between atoms: C_14  and  C_16 
REMARK    7  A    between atoms: C_19  and  C_22 
ROOT
HETATM    1  C   UNL     1     -40.386 -51.519  12.970  1.00  0.00     0.167 C 
ENDROOT
BRANCH   1   2
HETATM    2  N   UNL     1     -40.139 -50.206  12.388  1.00  0.00    -0.330 N 
HETATM    3  C   UNL     1     -38.917 -49.714  11.970  1.00  0.00     0.108 A 
HETATM    4  N   UNL     1     -39.066 -48.553  11.360  1.00  0.00    -0.342 N 
HETATM    5  C   UNL     1     -40.405 -48.271  11.401  1.00  0.00     0.060 A 
ATOM      6  HN  UNL     1     -38.332 -47.982  10.942  1.00  0.00     0.167 HD
HETATM    7  C   UNL     1     -41.094 -47.158  10.897  1.00  0.00     0.032 A 
HETATM    8  C   UNL     1     -41.108 -49.284  12.047  1.00  0.00     0.062 A 
HETATM    9  C   UNL     1     -42.484 -47.088  11.068  1.00  0.00     0.002 A 
HETATM   10  C   UNL     1     -43.171 -48.109  11.725  1.00  0.00     0.002 A 
HETATM   11  C   UNL     1     -42.499 -49.233  12.226  1.00  0.00     0.032 A 
BRANCH   3  12
HETATM   12  C   UNL     1     -37.616 -50.420  12.139  1.00  0.00     0.240 C 
BRANCH  12  13
HETATM   13  O   UNL     1     -37.358 -51.174  10.961  1.00  0.00    -0.393 OA
HETATM   14  H   UNL     1     -37.854 -50.742  10.244  1.00  0.00     0.209 HD
ENDBRANCH  12  13
ENDBRANCH   3  12
ENDBRANCH   1   2
BRANCH   1  15
HETATM   15  C   UNL     1     -41.244 -52.441  12.087  1.00  0.00     0.169 C 
BRANCH  15  16
HETATM   16  O   UNL     1     -40.468 -53.550  11.624  1.00  0.00    -0.389 OA
HETATM   17  H   UNL     1     -41.065 -54.305  11.500  1.00  0.00     0.210 HD
ENDBRANCH  15  16
BRANCH  15  18
HETATM   18  C   UNL     1     -42.484 -53.004  12.770  1.00  0.00    -0.028 A 
HETATM   19  C   UNL     1     -43.735 -52.463  12.432  1.00  0.00     0.011 A 
HETATM   20  C   UNL     1     -44.915 -52.947  13.008  1.00  0.00     0.017 A 
HETATM   21  C   UNL     1     -44.876 -53.995  13.935  1.00  0.00     0.047 A 
HETATM   22  C   UNL     1     -43.632 -54.554  14.262  1.00  0.00     0.017 A 
HETATM   23  C   UNL     1     -42.451 -54.069  13.684  1.00  0.00     0.011 A 
BRANCH  21  24
HETATM   24  C   UNL     1     -46.139 -54.522  14.569  1.00  0.00     0.417 C 
HETATM   25  F   UNL     1     -46.047 -54.688  15.919  1.00  0.00    -0.166 F 
HETATM   26  F   UNL     1     -47.208 -53.701  14.368  1.00  0.00    -0.166 F 
HETATM   27  F   UNL     1     -46.505 -55.737  14.071  1.00  0.00    -0.166 F 
ENDBRANCH  21  24
ENDBRANCH  15  18
ENDBRANCH   1  15
TORSDOF 7
ENDMDL
MODEL 2
REMARK VINA RESULT:      -6.9      4.089      6.458
REMARK  7 active torsions:
REMARK  status: ('A' for Active; 'I' for Inactive)
REMARK    1  A    between atoms: O_1  and  C_2 
REMARK    2  A    between atoms: C_2  and  C_3 
REMARK    3  A    between atoms: N_12  and  C_13 
REMARK    4  A    between atoms: C_13  and  C_14 
REMARK    5  A    between atoms: C_14  and  O_15 
REMARK    6  A    between atoms: C_14  and  C_16 
REMARK    7  A    between atoms: C_19  and  C_22 
ROOT
HETATM    1  C   UNL     1     -41.587 -50.724  14.197  1.00  0.00     0.167 C 
ENDROOT
BRANCH   1   2
HETATM    2  N   UNL     1     -42.595 -51.466  13.450  1.00  0.00    -0.330 N 
HETATM    3  C   UNL     1     -42.363 -52.307  12.377  1.00  0.00     0.108 A 
HETATM    4  N   UNL     1     -43.473 -52.930  12.026  1.00  0.00    -0.342 N 
HETATM    5  C   UNL     1     -44.450 -52.471  12.868  1.00  0.00     0.060 A 
ATOM      6  HN  UNL     1     -43.580 -53.615  11.278  1.00  0.00     0.167 HD
HETATM    7  C   UNL     1     -45.811 -52.810  12.919  1.00  0.00     0.032 A 
HETATM    8  C   UNL     1     -43.935 -51.543  13.770  1.00  0.00     0.062 A 
HETATM    9  C   UNL     1     -46.625 -52.193  13.878  1.00  0.00     0.002 A 
HETATM   10  C   UNL     1     -46.094 -51.261  14.769  1.00  0.00     0.002 A 
HETATM   11  C   UNL     1     -44.736 -50.917  14.737  1.00  0.00     0.032 A 
BRANCH   3  12
HETATM   12  C   UNL     1     -41.035 -52.520  11.738  1.00  0.00     0.240 C 
BRANCH  12  13
HETATM   13  O   UNL     1     -40.613 -53.850  12.014  1.00  0.00    -0.393 OA
HETATM   14  H   UNL     1     -39.810 -53.998  11.485  1.00  0.00     0.209 HD
ENDBRANCH  12  13
ENDBRANCH   3  12
ENDBRANCH   1   2
BRANCH   1  15
HETATM   15  C   UNL     1     -41.667 -49.200  14.006  1.00  0.00     0.169 C 
BRANCH  15  16
HETATM   16  O   UNL     1     -40.403 -48.595  14.295  1.00  0.00    -0.389 OA
HETATM   17  H   UNL     1     -39.916 -49.184  14.891  1.00  0.00     0.210 HD
ENDBRANCH  15  16
BRANCH  15  18
HETATM   18  C   UNL     1     -42.078 -48.754  12.609  1.00  0.00    -0.028 A 
HETATM   19  C   UNL     1     -43.346 -48.173  12.440  1.00  0.00     0.011 A 
HETATM   20  C   UNL     1     -43.779 -47.725  11.188  1.00  0.00     0.017 A 
HETATM   21  C   UNL     1     -42.949 -47.838  10.066  1.00  0.00     0.047 A 
HETATM   22  C   UNL     1     -41.673 -48.398  10.230  1.00  0.00     0.017 A 
HETATM   23  C   UNL     1     -41.241 -48.846  11.486  1.00  0.00     0.011 A 
BRANCH  21  24
HETATM   24  C   UNL     1     -43.405 -47.365   8.707  1.00  0.00     0.417 C 
HETATM   25  F   UNL     1     -42.969 -46.114   8.389  1.00  0.00    -0.166 F 
HETATM   26  F   UNL     1     -42.975 -48.176   7.700  1.00  0.00    -0.166 F 
HETATM   27  F   UNL     1     -44.762 -47.325   8.598  1.00  0.00    -0.166 F 
ENDBRANCH  21  24
ENDBRANCH  15  18
ENDBRANCH   1  15
TORSDOF 7
ENDMDL
MODEL 3
REMARK VINA RESULT:      -6.7      2.283      2.874
REMARK  7 active torsions:
REMARK  status: ('A' for Active; 'I' for Inactive)
REMARK    1  A    between atoms: O_1  and  C_2 
REMARK    2  A    between atoms: C_2  and  C_3 
REMARK    3  A    between atoms: N_12  and  C_13 
REMARK    4  A    between atoms: C_13  and  C_14 
REMARK    5  A    between atoms: C_14  and  O_15 
REMARK    6  A    between atoms: C_14  and  C_16 
REMARK    7  A    between atoms: C_19  and  C_22 
ROOT
HETATM    1  C   UNL     1     -39.795 -51.940  13.386  1.00  0.00     0.167 C 
ENDROOT
BRANCH   1   2
HETATM    2  N   UNL     1     -39.199 -50.639  13.662  1.00  0.00    -0.330 N 
HETATM    3  C   UNL     1     -38.176 -50.041  12.950  1.00  0.00     0.108 A 
HETATM    4  N   UNL     1     -37.973 -48.807  13.374  1.00  0.00    -0.342 N 
HETATM    5  C   UNL     1     -38.863 -48.604  14.395  1.00  0.00     0.060 A 
ATOM      6  HN  UNL     1     -37.291 -48.140  13.014  1.00  0.00     0.167 HD
HETATM    7  C   UNL     1     -39.061 -47.463  15.187  1.00  0.00     0.032 A 
HETATM    8  C   UNL     1     -39.643 -49.737  14.608  1.00  0.00     0.062 A 
HETATM    9  C   UNL     1     -40.041 -47.498  16.189  1.00  0.00     0.002 A 
HETATM   10  C   UNL     1     -40.808 -48.644  16.393  1.00  0.00     0.002 A 
HETATM   11  C   UNL     1     -40.629 -49.789  15.605  1.00  0.00     0.032 A 
BRANCH   3  12
HETATM   12  C   UNL     1     -37.438 -50.680  11.826  1.00  0.00     0.240 C 
BRANCH  12  13
HETATM   13  O   UNL     1     -37.906 -50.121  10.605  1.00  0.00    -0.393 OA
HETATM   14  H   UNL     1     -37.226 -50.313   9.937  1.00  0.00     0.209 HD
ENDBRANCH  12  13
ENDBRANCH   3  12
ENDBRANCH   1   2
BRANCH   1  15
HETATM   15  C   UNL     1     -40.758 -51.942  12.187  1.00  0.00     0.169 C 
BRANCH  15  16
HETATM   16  O   UNL     1     -40.526 -53.088  11.363  1.00  0.00    -0.389 OA
HETATM   17  H   UNL     1     -41.245 -53.145  10.715  1.00  0.00     0.210 HD
ENDBRANCH  15  16
BRANCH  15  18
HETATM   18  C   UNL     1     -42.236 -51.937  12.556  1.00  0.00    -0.028 A 
HETATM   19  C   UNL     1     -42.816 -50.726  12.969  1.00  0.00     0.011 A 
HETATM   20  C   UNL     1     -44.172 -50.648  13.304  1.00  0.00     0.017 A 
HETATM   21  C   UNL     1     -44.990 -51.782  13.229  1.00  0.00     0.047 A 
HETATM   22  C   UNL     1     -44.422 -52.990  12.798  1.00  0.00     0.017 A 
HETATM   23  C   UNL     1     -43.063 -53.066  12.461  1.00  0.00     0.011 A 
BRANCH  21  24
HETATM   24  C   UNL     1     -46.452 -51.715  13.594  1.00  0.00     0.417 C 
HETATM   25  F   UNL     1     -46.707 -50.949  14.692  1.00  0.00    -0.166 F 
HETATM   26  F   UNL     1     -47.218 -51.197  12.594  1.00  0.00    -0.166 F 
HETATM   27  F   UNL     1     -46.978 -52.942  13.867  1.00  0.00    -0.166 F 
ENDBRANCH  21  24
ENDBRANCH  15  18
ENDBRANCH   1  15
TORSDOF 7
ENDMDL
MODEL 4
REMARK VINA RESULT:      -6.6      4.055      6.736
REMARK  7 active torsions:
REMARK  status: ('A' for Active; 'I' for Inactive)
REMARK    1  A    between atoms: O_1  and  C_2 
REMARK    2  A    between atoms: C_2  and  C_3 
REMARK    3  A    between atoms: N_12  and  C_13 
REMARK    4  A    between atoms: C_13  and  C_14 
REMARK    5  A    between atoms: C_14  and  O_15 
REMARK    6  A    between atoms: C_14  and  C_16 
REMARK    7  A    between atoms: C_19  and  C_22 
ROOT
HETATM    1  C   UNL     1     -41.019 -51.777  12.265  1.00  0.00     0.167 C 
ENDROOT
BRANCH   1   2
HETATM    2  N   UNL     1     -41.442 -52.916  13.069  1.00  0.00    -0.330 N 
HETATM    3  C   UNL     1     -40.649 -53.642  13.938  1.00  0.00     0.108 A 
HETATM    4  N   UNL     1     -41.376 -54.513  14.615  1.00  0.00    -0.342 N 
HETATM    5  C   UNL     1     -42.661 -54.368  14.163  1.00  0.00     0.060 A 
ATOM      6  HN  UNL     1     -41.047 -55.161  15.329  1.00  0.00     0.167 HD
HETATM    7  C   UNL     1     -43.821 -55.054  14.551  1.00  0.00     0.032 A 
HETATM    8  C   UNL     1     -42.737 -53.379  13.186  1.00  0.00     0.062 A 
HETATM    9  C   UNL     1     -45.036 -54.731  13.932  1.00  0.00     0.002 A 
HETATM   10  C   UNL     1     -45.093 -53.743  12.949  1.00  0.00     0.002 A 
HETATM   11  C   UNL     1     -43.945 -53.042  12.556  1.00  0.00     0.032 A 
BRANCH   3  12
HETATM   12  C   UNL     1     -39.186 -53.437  14.124  1.00  0.00     0.240 C 
BRANCH  12  13
HETATM   13  O   UNL     1     -38.497 -54.480  13.445  1.00  0.00    -0.393 OA
HETATM   14  H   UNL     1     -39.180 -55.059  13.066  1.00  0.00     0.209 HD
ENDBRANCH  12  13
ENDBRANCH   3  12
ENDBRANCH   1   2
BRANCH   1  15
HETATM   15  C   UNL     1     -41.240 -50.416  12.946  1.00  0.00     0.169 C 
BRANCH  15  16
HETATM   16  O   UNL     1     -39.993 -49.873  13.391  1.00  0.00    -0.389 OA
HETATM   17  H   UNL     1     -39.808 -49.077  12.867  1.00  0.00     0.210 HD
ENDBRANCH  15  16
BRANCH  15  18
HETATM   18  C   UNL     1     -41.909 -49.365  12.069  1.00  0.00    -0.028 A 
HETATM   19  C   UNL     1     -41.238 -48.937  10.912  1.00  0.00     0.011 A 
HETATM   20  C   UNL     1     -41.804 -47.989  10.053  1.00  0.00     0.017 A 
HETATM   21  C   UNL     1     -43.065 -47.446  10.326  1.00  0.00     0.047 A 
HETATM   22  C   UNL     1     -43.750 -47.884  11.469  1.00  0.00     0.017 A 
HETATM   23  C   UNL     1     -43.182 -48.835  12.328  1.00  0.00     0.011 A 
BRANCH  21  24
HETATM   24  C   UNL     1     -43.686 -46.417   9.412  1.00  0.00     0.417 C 
HETATM   25  F   UNL     1     -45.042 -46.512   9.322  1.00  0.00    -0.166 F 
HETATM   26  F   UNL     1     -43.427 -45.140   9.811  1.00  0.00    -0.166 F 
HETATM   27  F   UNL     1     -43.222 -46.508   8.134  1.00  0.00    -0.166 F 
ENDBRANCH  21  24
ENDBRANCH  15  18
ENDBRANCH   1  15
TORSDOF 7
ENDMDL
MODEL 5
REMARK VINA RESULT:      -6.5      3.149      3.895
REMARK  7 active torsions:
REMARK  status: ('A' for Active; 'I' for Inactive)
REMARK    1  A    between atoms: O_1  and  C_2 
REMARK    2  A    between atoms: C_2  and  C_3 
REMARK    3  A    between atoms: N_12  and  C_13 
REMARK    4  A    between atoms: C_13  and  C_14 
REMARK    5  A    between atoms: C_14  and  O_15 
REMARK    6  A    between atoms: C_14  and  C_16 
REMARK    7  A    between atoms: C_19  and  C_22 
ROOT
HETATM    1  C   UNL     1     -42.673 -51.118  14.077  1.00  0.00     0.167 C 
ENDROOT
BRANCH   1   2
HETATM    2  N   UNL     1     -41.958 -50.552  12.941  1.00  0.00    -0.330 N 
HETATM    3  C   UNL     1     -41.037 -51.208  12.145  1.00  0.00     0.108 A 
HETATM    4  N   UNL     1     -40.687 -50.454  11.120  1.00  0.00    -0.342 N 
HETATM    5  C   UNL     1     -41.372 -49.276  11.261  1.00  0.00     0.060 A 
ATOM      6  HN  UNL     1     -40.037 -50.698  10.373  1.00  0.00     0.167 HD
HETATM    7  C   UNL     1     -41.357 -48.136  10.444  1.00  0.00     0.032 A 
HETATM    8  C   UNL     1     -42.174 -49.301  12.399  1.00  0.00     0.062 A 
HETATM    9  C   UNL     1     -42.149 -47.037  10.803  1.00  0.00     0.002 A 
HETATM   10  C   UNL     1     -42.941 -47.076  11.951  1.00  0.00     0.002 A 
HETATM   11  C   UNL     1     -42.974 -48.210  12.774  1.00  0.00     0.032 A 
BRANCH   3  12
HETATM   12  C   UNL     1     -40.547 -52.593  12.381  1.00  0.00     0.240 C 
BRANCH  12  13
HETATM   13  O   UNL     1     -40.668 -53.326  11.168  1.00  0.00    -0.393 OA
HETATM   14  H   UNL     1     -41.608 -53.296  10.923  1.00  0.00     0.209 HD
ENDBRANCH  12  13
ENDBRANCH   3  12
ENDBRANCH   1   2
BRANCH   1  15
HETATM   15  C   UNL     1     -44.101 -51.584  13.744  1.00  0.00     0.169 C 
BRANCH  15  16
HETATM   16  O   UNL     1     -44.112 -52.981  13.439  1.00  0.00    -0.389 OA
HETATM   17  H   UNL     1     -44.603 -53.439  14.139  1.00  0.00     0.210 HD
ENDBRANCH  15  16
BRANCH  15  18
HETATM   18  C   UNL     1     -45.121 -51.351  14.851  1.00  0.00    -0.028 A 
HETATM   19  C   UNL     1     -44.688 -50.740  16.039  1.00  0.00     0.011 A 
HETATM   20  C   UNL     1     -45.576 -50.480  17.088  1.00  0.00     0.017 A 
HETATM   21  C   UNL     1     -46.930 -50.818  16.974  1.00  0.00     0.047 A 
HETATM   22  C   UNL     1     -47.374 -51.410  15.782  1.00  0.00     0.017 A 
HETATM   23  C   UNL     1     -46.483 -51.668  14.732  1.00  0.00     0.011 A 
BRANCH  21  24
HETATM   24  C   UNL     1     -47.899 -50.550  18.099  1.00  0.00     0.417 C 
HETATM   25  F   UNL     1     -48.682 -49.453  17.898  1.00  0.00    -0.166 F 
HETATM   26  F   UNL     1     -48.758 -51.587  18.308  1.00  0.00    -0.166 F 
HETATM   27  F   UNL     1     -47.270 -50.343  19.290  1.00  0.00    -0.166 F 
ENDBRANCH  21  24
ENDBRANCH  15  18
ENDBRANCH   1  15
TORSDOF 7
ENDMDL
MODEL 6
REMARK VINA RESULT:      -6.4      4.493      7.020
REMARK  7 active torsions:
REMARK  status: ('A' for Active; 'I' for Inactive)
REMARK    1  A    between atoms: O_1  and  C_2 
REMARK    2  A    between atoms: C_2  and  C_3 
REMARK    3  A    between atoms: N_12  and  C_13 
REMARK    4  A    between atoms: C_13  and  C_14 
REMARK    5  A    between atoms: C_14  and  O_15 
REMARK    6  A    between atoms: C_14  and  C_16 
REMARK    7  A    between atoms: C_19  and  C_22 
ROOT
HETATM    1  C   UNL     1     -41.254 -51.301  13.722  1.00  0.00     0.167 C 
ENDROOT
BRANCH   1   2
HETATM    2  N   UNL     1     -42.260 -52.351  13.629  1.00  0.00    -0.330 N 
HETATM    3  C   UNL     1     -42.038 -53.709  13.761  1.00  0.00     0.108 A 
HETATM    4  N   UNL     1     -43.182 -54.369  13.766  1.00  0.00    -0.342 N 
HETATM    5  C   UNL     1     -44.165 -53.428  13.612  1.00  0.00     0.060 A 
ATOM      6  HN  UNL     1     -43.307 -55.376  13.865  1.00  0.00     0.167 HD
HETATM    7  C   UNL     1     -45.556 -53.599  13.549  1.00  0.00     0.032 A 
HETATM    8  C   UNL     1     -43.621 -52.151  13.513  1.00  0.00     0.062 A 
HETATM    9  C   UNL     1     -46.369 -52.470  13.377  1.00  0.00     0.002 A 
HETATM   10  C   UNL     1     -45.806 -51.198  13.274  1.00  0.00     0.002 A 
HETATM   11  C   UNL     1     -44.419 -51.009  13.343  1.00  0.00     0.032 A 
BRANCH   3  12
HETATM   12  C   UNL     1     -40.699 -54.338  13.926  1.00  0.00     0.240 C 
BRANCH  12  13
HETATM   13  O   UNL     1     -40.081 -54.422  12.647  1.00  0.00    -0.393 OA
HETATM   14  H   UNL     1     -40.652 -54.993  12.105  1.00  0.00     0.209 HD
ENDBRANCH  12  13
ENDBRANCH   3  12
ENDBRANCH   1   2
BRANCH   1  15
HETATM   15  C   UNL     1     -40.547 -50.996  12.391  1.00  0.00     0.169 C 
BRANCH  15  16
HETATM   16  O   UNL     1     -41.076 -51.818  11.346  1.00  0.00    -0.389 OA
HETATM   17  H   UNL     1     -41.522 -52.576  11.754  1.00  0.00     0.210 HD
ENDBRANCH  15  16
BRANCH  15  18
HETATM   18  C   UNL     1     -40.651 -49.548  11.930  1.00  0.00    -0.028 A 
HETATM   19  C   UNL     1     -41.900 -49.076  11.493  1.00  0.00     0.011 A 
HETATM   20  C   UNL     1     -42.070 -47.753  11.074  1.00  0.00     0.017 A 
HETATM   21  C   UNL     1     -40.993 -46.858  11.088  1.00  0.00     0.047 A 
HETATM   22  C   UNL     1     -39.747 -47.317  11.542  1.00  0.00     0.017 A 
HETATM   23  C   UNL     1     -39.579 -48.643  11.963  1.00  0.00     0.011 A 
BRANCH  21  24
HETATM   24  C   UNL     1     -41.159 -45.429  10.632  1.00  0.00     0.417 C 
HETATM   25  F   UNL     1     -40.117 -44.968   9.886  1.00  0.00    -0.166 F 
HETATM   26  F   UNL     1     -42.272 -45.250   9.868  1.00  0.00    -0.166 F 
HETATM   27  F   UNL     1     -41.282 -44.561  11.675  1.00  0.00    -0.166 F 
ENDBRANCH  21  24
ENDBRANCH  15  18
ENDBRANCH   1  15
TORSDOF 7
ENDMDL
MODEL 7
REMARK VINA RESULT:      -6.3      4.572      6.760
REMARK  7 active torsions:
REMARK  status: ('A' for Active; 'I' for Inactive)
REMARK    1  A    between atoms: O_1  and  C_2 
REMARK    2  A    between atoms: C_2  and  C_3 
REMARK    3  A    between atoms: N_12  and  C_13 
REMARK    4  A    between atoms: C_13  and  C_14 
REMARK    5  A    between atoms: C_14  and  O_15 
REMARK    6  A    between atoms: C_14  and  C_16 
REMARK    7  A    between atoms: C_19  and  C_22 
ROOT
HETATM    1  C   UNL     1     -40.734 -53.109  12.410  1.00  0.00     0.167 C 
ENDROOT
BRANCH   1   2
HETATM    2  N   UNL     1     -41.925 -52.309  12.663  1.00  0.00    -0.330 N 
HETATM    3  C   UNL     1     -42.068 -50.955  12.421  1.00  0.00     0.108 A 
HETATM    4  N   UNL     1     -43.315 -50.574  12.627  1.00  0.00    -0.342 N 
HETATM    5  C   UNL     1     -43.993 -51.694  13.032  1.00  0.00     0.060 A 
ATOM      6  HN  UNL     1     -43.696 -49.636  12.508  1.00  0.00     0.167 HD
HETATM    7  C   UNL     1     -45.345 -51.836  13.380  1.00  0.00     0.032 A 
HETATM    8  C   UNL     1     -43.148 -52.799  13.074  1.00  0.00     0.062 A 
HETATM    9  C   UNL     1     -45.812 -53.097  13.774  1.00  0.00     0.002 A 
HETATM   10  C   UNL     1     -44.950 -54.193  13.818  1.00  0.00     0.002 A 
HETATM   11  C   UNL     1     -43.599 -54.069  13.465  1.00  0.00     0.032 A 
BRANCH   3  12
HETATM   12  C   UNL     1     -40.978 -50.060  11.946  1.00  0.00     0.240 C 
BRANCH  12  13
HETATM   13  O   UNL     1     -40.678 -50.394  10.596  1.00  0.00    -0.393 OA
HETATM   14  H   UNL     1     -40.669 -51.365  10.549  1.00  0.00     0.209 HD
ENDBRANCH  12  13
ENDBRANCH   3  12
ENDBRANCH   1   2
BRANCH   1  15
HETATM   15  C   UNL     1     -39.877 -53.364  13.662  1.00  0.00     0.169 C 
BRANCH  15  16
HETATM   16  O   UNL     1     -38.908 -54.384  13.404  1.00  0.00    -0.389 OA
HETATM   17  H   UNL     1     -39.026 -54.689  12.490  1.00  0.00     0.210 HD
ENDBRANCH  15  16
BRANCH  15  18
HETATM   18  C   UNL     1     -39.128 -52.143  14.180  1.00  0.00    -0.028 A 
HETATM   19  C   UNL     1     -38.137 -51.572  13.364  1.00  0.00     0.011 A 
HETATM   20  C   UNL     1     -37.424 -50.440  13.771  1.00  0.00     0.017 A 
HETATM   21  C   UNL     1     -37.689 -49.839  15.008  1.00  0.00     0.047 A 
HETATM   22  C   UNL     1     -38.691 -50.391  15.820  1.00  0.00     0.017 A 
HETATM   23  C   UNL     1     -39.405 -51.526  15.409  1.00  0.00     0.011 A 
BRANCH  21  24
HETATM   24  C   UNL     1     -36.923 -48.621  15.464  1.00  0.00     0.417 C 
HETATM   25  F   UNL     1     -37.549 -47.918  16.449  1.00  0.00    -0.166 F 
HETATM   26  F   UNL     1     -35.691 -48.932  15.953  1.00  0.00    -0.166 F 
HETATM   27  F   UNL     1     -36.708 -47.733  14.453  1.00  0.00    -0.166 F 
ENDBRANCH  21  24
ENDBRANCH  15  18
ENDBRANCH   1  15
TORSDOF 7
ENDMDL
MODEL 8
REMARK VINA RESULT:      -6.2      4.564      6.539
REMARK  7 active torsions:
REMARK  status: ('A' for Active; 'I' for Inactive)
REMARK    1  A    between atoms: O_1  and  C_2 
REMARK    2  A    between atoms: C_2  and  C_3 
REMARK    3  A    between atoms: N_12  and  C_13 
REMARK    4  A    between atoms: C_13  and  C_14 
REMARK    5  A    between atoms: C_14  and  O_15 
REMARK    6  A    between atoms: C_14  and  C_16 
REMARK    7  A    between atoms: C_19  and  C_22 
ROOT
HETATM    1  C   UNL     1     -42.312 -53.396  15.525  1.00  0.00     0.167 C 
ENDROOT
BRANCH   1   2
HETATM    2  N   UNL     1     -43.019 -53.138  14.277  1.00  0.00    -0.330 N 
HETATM    3  C   UNL     1     -42.611 -53.522  13.013  1.00  0.00     0.108 A 
HETATM    4  N   UNL     1     -43.549 -53.258  12.122  1.00  0.00    -0.342 N 
HETATM    5  C   UNL     1     -44.576 -52.672  12.812  1.00  0.00     0.060 A 
ATOM      6  HN  UNL     1     -43.515 -53.452  11.121  1.00  0.00     0.167 HD
HETATM    7  C   UNL     1     -45.809 -52.198  12.338  1.00  0.00     0.032 A 
HETATM    8  C   UNL     1     -44.273 -52.573  14.167  1.00  0.00     0.062 A 
HETATM    9  C   UNL     1     -46.707 -51.623  13.248  1.00  0.00     0.002 A 
HETATM   10  C   UNL     1     -46.384 -51.526  14.601  1.00  0.00     0.002 A 
HETATM   11  C   UNL     1     -45.160 -52.002  15.092  1.00  0.00     0.032 A 
BRANCH   3  12
HETATM   12  C   UNL     1     -41.316 -54.187  12.705  1.00  0.00     0.240 C 
BRANCH  12  13
HETATM   13  O   UNL     1     -40.648 -53.428  11.704  1.00  0.00    -0.393 OA
HETATM   14  H   UNL     1     -41.102 -53.620  10.866  1.00  0.00     0.209 HD
ENDBRANCH  12  13
ENDBRANCH   3  12
ENDBRANCH   1   2
BRANCH   1  15
HETATM   15  C   UNL     1     -41.562 -52.174  16.080  1.00  0.00     0.169 C 
BRANCH  15  16
HETATM   16  O   UNL     1     -40.759 -52.549  17.203  1.00  0.00    -0.389 OA
HETATM   17  H   UNL     1     -39.913 -52.078  17.140  1.00  0.00     0.210 HD
ENDBRANCH  15  16
BRANCH  15  18
HETATM   18  C   UNL     1     -40.649 -51.478  15.079  1.00  0.00    -0.028 A 
HETATM   19  C   UNL     1     -41.131 -50.333  14.421  1.00  0.00     0.011 A 
HETATM   20  C   UNL     1     -40.338 -49.636  13.504  1.00  0.00     0.017 A 
HETATM   21  C   UNL     1     -39.033 -50.061  13.224  1.00  0.00     0.047 A 
HETATM   22  C   UNL     1     -38.539 -51.190  13.892  1.00  0.00     0.017 A 
HETATM   23  C   UNL     1     -39.334 -51.887  14.812  1.00  0.00     0.011 A 
BRANCH  21  24
HETATM   24  C   UNL     1     -38.169 -49.322  12.231  1.00  0.00     0.417 C 
HETATM   25  F   UNL     1     -37.606 -50.129  11.289  1.00  0.00    -0.166 F 
HETATM   26  F   UNL     1     -38.859 -48.371  11.542  1.00  0.00    -0.166 F 
HETATM   27  F   UNL     1     -37.132 -48.669  12.828  1.00  0.00    -0.166 F 
ENDBRANCH  21  24
ENDBRANCH  15  18
ENDBRANCH   1  15
TORSDOF 7
ENDMDL
MODEL 9
REMARK VINA RESULT:      -6.2      3.845      5.453
REMARK  7 active torsions:
REMARK  status: ('A' for Active; 'I' for Inactive)
REMARK    1  A    between atoms: O_1  and  C_2 
REMARK    2  A    between atoms: C_2  and  C_3 
REMARK    3  A    between atoms: N_12  and  C_13 
REMARK    4  A    between atoms: C_13  and  C_14 
REMARK    5  A    between atoms: C_14  and  O_15 
REMARK    6  A    between atoms: C_14  and  C_16 
REMARK    7  A    between atoms: C_19  and  C_22 
ROOT
HETATM    1  C   UNL     1     -42.379 -51.064  12.667  1.00  0.00     0.167 C 
ENDROOT
BRANCH   1   2
HETATM    2  N   UNL     1     -43.068 -50.963  13.946  1.00  0.00    -0.330 N 
HETATM    3  C   UNL     1     -42.521 -50.520  15.136  1.00  0.00     0.108 A 
HETATM    4  N   UNL     1     -43.452 -50.417  16.067  1.00  0.00    -0.342 N 
HETATM    5  C   UNL     1     -44.622 -50.821  15.481  1.00  0.00     0.060 A 
ATOM      6  HN  UNL     1     -43.325 -50.100  17.028  1.00  0.00     0.167 HD
HETATM    7  C   UNL     1     -45.909 -50.904  16.033  1.00  0.00     0.032 A 
HETATM    8  C   UNL     1     -44.416 -51.179  14.152  1.00  0.00     0.062 A 
HETATM    9  C   UNL     1     -46.962 -51.359  15.227  1.00  0.00     0.002 A 
HETATM   10  C   UNL     1     -46.736 -51.721  13.899  1.00  0.00     0.002 A 
HETATM   11  C   UNL     1     -45.457 -51.636  13.330  1.00  0.00     0.032 A 
BRANCH   3  12
HETATM   12  C   UNL     1     -41.089 -50.160  15.330  1.00  0.00     0.240 C 
BRANCH  12  13
HETATM   13  O   UNL     1     -40.922 -48.788  14.997  1.00  0.00    -0.393 OA
HETATM   14  H   UNL     1     -40.487 -48.371  15.761  1.00  0.00     0.209 HD
ENDBRANCH  12  13
ENDBRANCH   3  12
ENDBRANCH   1   2
BRANCH   1  15
HETATM   15  C   UNL     1     -42.069 -52.509  12.239  1.00  0.00     0.169 C 
BRANCH  15  16
HETATM   16  O   UNL     1     -41.249 -52.517  11.067  1.00  0.00    -0.389 OA
HETATM   17  H   UNL     1     -41.071 -51.596  10.817  1.00  0.00     0.210 HD
ENDBRANCH  15  16
BRANCH  15  18
HETATM   18  C   UNL     1     -41.363 -53.349  13.295  1.00  0.00    -0.028 A 
HETATM   19  C   UNL     1     -39.968 -53.233  13.416  1.00  0.00     0.011 A 
HETATM   20  C   UNL     1     -39.260 -53.962  14.378  1.00  0.00     0.017 A 
HETATM   21  C   UNL     1     -39.931 -54.824  15.254  1.00  0.00     0.047 A 
HETATM   22  C   UNL     1     -41.326 -54.929  15.152  1.00  0.00     0.017 A 
HETATM   23  C   UNL     1     -42.034 -54.197  14.189  1.00  0.00     0.011 A 
BRANCH  21  24
HETATM   24  C   UNL     1     -39.180 -55.621  16.291  1.00  0.00     0.417 C 
HETATM   25  F   UNL     1     -39.757 -56.820  16.584  1.00  0.00    -0.166 F 
HETATM   26  F   UNL     1     -37.904 -55.906  15.909  1.00  0.00    -0.166 F 
HETATM   27  F   UNL     1     -39.073 -54.961  17.479  1.00  0.00    -0.166 F 
ENDBRANCH  21  24
ENDBRANCH  15  18
ENDBRANCH   1  15
TORSDOF 7
ENDMDL
