MODEL 1
REMARK VINA RESULT:      -5.5      0.000      0.000
REMARK  2 active torsions:
REMARK  status: ('A' for Active; 'I' for Inactive)
REMARK    1  A    between atoms: C_6  and  N_7 
REMARK       I    between atoms: N_7  and  C_8 
REMARK    2  A    between atoms: C_8  and  C_10 
ROOT
HETATM    1  N   UNL     1     -42.769 -50.840  13.243  1.00  0.00    -0.307 N 
HETATM    2  C   UNL     1     -42.009 -51.670  12.445  1.00  0.00     0.282 C 
HETATM    3  O   UNL     1     -42.374 -52.680  11.854  1.00  0.00    -0.265 OA
HETATM    4  H   UNL     1     -42.305 -50.032  13.635  1.00  0.00     0.170 HD
ENDROOT
BRANCH   1   5
HETATM    5  C   UNL     1     -44.121 -51.046  13.541  1.00  0.00     0.108 A 
HETATM    6  C   UNL     1     -44.519 -51.022  14.873  1.00  0.00     0.049 A 
HETATM    7  C   UNL     1     -45.865 -51.214  15.180  1.00  0.00     0.006 A 
HETATM    8  C   UNL     1     -46.777 -51.443  14.153  1.00  0.00     0.025 A 
HETATM    9  C   UNL     1     -46.301 -51.463  12.850  1.00  0.00     0.007 A 
HETATM   10  C   UNL     1     -47.206 -51.750  11.691  1.00  0.00     0.068 C 
HETATM   11  N   UNL     1     -45.000 -51.267  12.552  1.00  0.00    -0.346 N 
ATOM     12  HN  UNL     1     -44.687 -51.288  11.581  1.00  0.00     0.167 HD
ENDBRANCH   1   5
BRANCH   2  13
HETATM   13  C   UNL     1     -40.574 -51.214  12.356  1.00  0.00     0.159 C 
HETATM   14  C   UNL     1     -39.672 -51.904  13.064  1.00  0.00     0.177 C 
HETATM   15  O   UNL     1     -38.341 -51.645  13.150  1.00  0.00    -0.358 OA
HETATM   16  C   UNL     1     -37.896 -50.497  12.443  1.00  0.00     0.201 C 
HETATM   17  C   UNL     1     -38.944 -49.622  11.744  1.00  0.00     0.202 C 
HETATM   18  O   UNL     1     -40.265 -50.129  11.570  1.00  0.00    -0.342 OA
ENDBRANCH   2  13
TORSDOF 2
ENDMDL
MODEL 2
REMARK VINA RESULT:      -5.4      3.448      4.893
REMARK  2 active torsions:
REMARK  status: ('A' for Active; 'I' for Inactive)
REMARK    1  A    between atoms: C_6  and  N_7 
REMARK       I    between atoms: N_7  and  C_8 
REMARK    2  A    between atoms: C_8  and  C_10 
ROOT
HETATM    1  N   UNL     1     -41.715 -49.747  11.368  1.00  0.00    -0.307 N 
HETATM    2  C   UNL     1     -42.409 -50.335  12.406  1.00  0.00     0.282 C 
HETATM    3  O   UNL     1     -43.347 -49.864  13.039  1.00  0.00    -0.265 OA
HETATM    4  H   UNL     1     -40.979 -50.294  10.943  1.00  0.00     0.170 HD
ENDROOT
BRANCH   1   5
HETATM    5  C   UNL     1     -41.962 -48.460  10.876  1.00  0.00     0.108 A 
HETATM    6  C   UNL     1     -41.001 -47.476  11.079  1.00  0.00     0.049 A 
HETATM    7  C   UNL     1     -41.232 -46.194  10.584  1.00  0.00     0.006 A 
HETATM    8  C   UNL     1     -42.421 -45.921   9.913  1.00  0.00     0.025 A 
HETATM    9  C   UNL     1     -43.335 -46.954   9.759  1.00  0.00     0.007 A 
HETATM   10  C   UNL     1     -44.658 -46.734   9.093  1.00  0.00     0.068 C 
HETATM   11  N   UNL     1     -43.108 -48.197  10.230  1.00  0.00    -0.346 N 
ATOM     12  HN  UNL     1     -43.803 -48.932  10.097  1.00  0.00     0.167 HD
ENDBRANCH   1   5
BRANCH   2  13
HETATM   13  C   UNL     1     -41.876 -51.705  12.742  1.00  0.00     0.159 C 
HETATM   14  C   UNL     1     -40.562 -51.901  12.584  1.00  0.00     0.177 C 
HETATM   15  O   UNL     1     -39.884 -53.060  12.797  1.00  0.00    -0.358 OA
HETATM   16  C   UNL     1     -40.682 -54.168  13.185  1.00  0.00     0.201 C 
HETATM   17  C   UNL     1     -42.204 -53.989  13.233  1.00  0.00     0.202 C 
HETATM   18  O   UNL     1     -42.748 -52.671  13.183  1.00  0.00    -0.342 OA
ENDBRANCH   2  13
TORSDOF 2
ENDMDL
MODEL 3
REMARK VINA RESULT:      -5.3      3.272      5.409
REMARK  2 active torsions:
REMARK  status: ('A' for Active; 'I' for Inactive)
REMARK    1  A    between atoms: C_6  and  N_7 
REMARK       I    between atoms: N_7  and  C_8 
REMARK    2  A    between atoms: C_8  and  C_10 
ROOT
HETATM    1  N   UNL     1     -42.035 -49.641  11.580  1.00  0.00    -0.307 N 
HETATM    2  C   UNL     1     -40.876 -50.385  11.667  1.00  0.00     0.282 C 
HETATM    3  O   UNL     1     -39.743 -50.044  11.350  1.00  0.00    -0.265 OA
HETATM    4  H   UNL     1     -42.884 -50.077  11.912  1.00  0.00     0.170 HD
ENDROOT
BRANCH   1   5
HETATM    5  C   UNL     1     -42.107 -48.341  11.066  1.00  0.00     0.108 A 
HETATM    6  C   UNL     1     -43.319 -47.896  10.552  1.00  0.00     0.049 A 
HETATM    7  C   UNL     1     -43.405 -46.599  10.048  1.00  0.00     0.006 A 
HETATM    8  C   UNL     1     -42.276 -45.785  10.055  1.00  0.00     0.025 A 
HETATM    9  C   UNL     1     -41.099 -46.305  10.575  1.00  0.00     0.007 A 
HETATM   10  C   UNL     1     -39.827 -45.514  10.576  1.00  0.00     0.068 C 
HETATM   11  N   UNL     1     -41.018 -47.556  11.071  1.00  0.00    -0.346 N 
ATOM     12  HN  UNL     1     -40.136 -47.904  11.448  1.00  0.00     0.167 HD
ENDBRANCH   1   5
BRANCH   2  13
HETATM   13  C   UNL     1     -41.130 -51.768  12.214  1.00  0.00     0.159 C 
HETATM   14  C   UNL     1     -42.406 -52.128  12.388  1.00  0.00     0.177 C 
HETATM   15  O   UNL     1     -42.853 -53.308  12.893  1.00  0.00    -0.358 OA
HETATM   16  C   UNL     1     -41.842 -54.213  13.311  1.00  0.00     0.201 C 
HETATM   17  C   UNL     1     -40.381 -53.754  13.245  1.00  0.00     0.202 C 
HETATM   18  O   UNL     1     -40.057 -52.577  12.506  1.00  0.00    -0.342 OA
ENDBRANCH   2  13
TORSDOF 2
ENDMDL
MODEL 4
REMARK VINA RESULT:      -5.2      2.639      6.053
REMARK  2 active torsions:
REMARK  status: ('A' for Active; 'I' for Inactive)
REMARK    1  A    between atoms: C_6  and  N_7 
REMARK       I    between atoms: N_7  and  C_8 
REMARK    2  A    between atoms: C_8  and  C_10 
ROOT
HETATM    1  N   UNL     1     -42.030 -51.301  12.641  1.00  0.00    -0.307 N 
HETATM    2  C   UNL     1     -41.753 -52.644  12.486  1.00  0.00     0.282 C 
HETATM    3  O   UNL     1     -40.743 -53.148  12.010  1.00  0.00    -0.265 OA
HETATM    4  H   UNL     1     -42.910 -51.063  13.078  1.00  0.00     0.170 HD
ENDROOT
BRANCH   1   5
HETATM    5  C   UNL     1     -41.183 -50.263  12.235  1.00  0.00     0.108 A 
HETATM    6  C   UNL     1     -41.743 -49.027  11.932  1.00  0.00     0.049 A 
HETATM    7  C   UNL     1     -40.908 -47.985  11.537  1.00  0.00     0.006 A 
HETATM    8  C   UNL     1     -39.537 -48.204  11.439  1.00  0.00     0.025 A 
HETATM    9  C   UNL     1     -39.054 -49.468  11.748  1.00  0.00     0.007 A 
HETATM   10  C   UNL     1     -37.599 -49.801  11.622  1.00  0.00     0.068 C 
HETATM   11  N   UNL     1     -39.861 -50.474  12.139  1.00  0.00    -0.346 N 
ATOM     12  HN  UNL     1     -39.470 -51.391  12.360  1.00  0.00     0.167 HD
ENDBRANCH   1   5
BRANCH   2  13
HETATM   13  C   UNL     1     -42.883 -53.516  12.972  1.00  0.00     0.159 C 
HETATM   14  C   UNL     1     -44.065 -53.376  12.360  1.00  0.00     0.177 C 
HETATM   15  O   UNL     1     -45.214 -54.037  12.659  1.00  0.00    -0.358 OA
HETATM   16  C   UNL     1     -45.136 -54.926  13.763  1.00  0.00     0.201 C 
HETATM   17  C   UNL     1     -43.825 -54.989  14.556  1.00  0.00     0.202 C 
HETATM   18  O   UNL     1     -42.652 -54.395  14.003  1.00  0.00    -0.342 OA
ENDBRANCH   2  13
TORSDOF 2
ENDMDL
MODEL 5
REMARK VINA RESULT:      -5.1      2.911      4.907
REMARK  2 active torsions:
REMARK  status: ('A' for Active; 'I' for Inactive)
REMARK    1  A    between atoms: C_6  and  N_7 
REMARK       I    between atoms: N_7  and  C_8 
REMARK    2  A    between atoms: C_8  and  C_10 
ROOT
HETATM    1  N   UNL     1     -42.026 -50.425  11.890  1.00  0.00    -0.307 N 
HETATM    2  C   UNL     1     -40.973 -49.677  11.404  1.00  0.00     0.282 C 
HETATM    3  O   UNL     1     -39.791 -49.995  11.354  1.00  0.00    -0.265 OA
HETATM    4  H   UNL     1     -42.946 -50.011  11.831  1.00  0.00     0.170 HD
ENDROOT
BRANCH   1   5
HETATM    5  C   UNL     1     -41.902 -51.700  12.453  1.00  0.00     0.108 A 
HETATM    6  C   UNL     1     -43.028 -52.513  12.513  1.00  0.00     0.049 A 
HETATM    7  C   UNL     1     -42.912 -53.789  13.062  1.00  0.00     0.006 A 
HETATM    8  C   UNL     1     -41.681 -54.216  13.552  1.00  0.00     0.025 A 
HETATM    9  C   UNL     1     -40.605 -53.342  13.466  1.00  0.00     0.007 A 
HETATM   10  C   UNL     1     -39.259 -53.704  14.013  1.00  0.00     0.068 C 
HETATM   11  N   UNL     1     -40.715 -52.111  12.927  1.00  0.00    -0.346 N 
ATOM     12  HN  UNL     1     -39.902 -51.497  12.879  1.00  0.00     0.167 HD
ENDBRANCH   1   5
BRANCH   2  13
HETATM   13  C   UNL     1     -41.418 -48.323  10.911  1.00  0.00     0.159 C 
HETATM   14  C   UNL     1     -40.587 -47.296  11.122  1.00  0.00     0.177 C 
HETATM   15  O   UNL     1     -40.804 -45.997  10.788  1.00  0.00    -0.358 OA
HETATM   16  C   UNL     1     -42.065 -45.722  10.198  1.00  0.00     0.201 C 
HETATM   17  C   UNL     1     -43.079 -46.867  10.080  1.00  0.00     0.202 C 
HETATM   18  O   UNL     1     -42.636 -48.208  10.283  1.00  0.00    -0.342 OA
ENDBRANCH   2  13
TORSDOF 2
ENDMDL
MODEL 6
REMARK VINA RESULT:      -5.0      1.842      2.390
REMARK  2 active torsions:
REMARK  status: ('A' for Active; 'I' for Inactive)
REMARK    1  A    between atoms: C_6  and  N_7 
REMARK       I    between atoms: N_7  and  C_8 
REMARK    2  A    between atoms: C_8  and  C_10 
ROOT
HETATM    1  N   UNL     1     -41.766 -52.118  12.554  1.00  0.00    -0.307 N 
HETATM    2  C   UNL     1     -40.977 -51.465  13.478  1.00  0.00     0.282 C 
HETATM    3  O   UNL     1     -41.207 -51.295  14.670  1.00  0.00    -0.265 OA
HETATM    4  H   UNL     1     -41.406 -52.184  11.612  1.00  0.00     0.170 HD
ENDROOT
BRANCH   1   5
HETATM    5  C   UNL     1     -43.015 -52.683  12.834  1.00  0.00     0.108 A 
HETATM    6  C   UNL     1     -43.059 -53.968  13.362  1.00  0.00     0.049 A 
HETATM    7  C   UNL     1     -44.297 -54.537  13.655  1.00  0.00     0.006 A 
HETATM    8  C   UNL     1     -45.461 -53.816  13.400  1.00  0.00     0.025 A 
HETATM    9  C   UNL     1     -45.335 -52.543  12.862  1.00  0.00     0.007 A 
HETATM   10  C   UNL     1     -46.537 -51.719  12.512  1.00  0.00     0.068 C 
HETATM   11  N   UNL     1     -44.137 -51.989  12.587  1.00  0.00    -0.346 N 
ATOM     12  HN  UNL     1     -44.083 -51.049  12.193  1.00  0.00     0.167 HD
ENDBRANCH   1   5
BRANCH   2  13
HETATM   13  C   UNL     1     -39.714 -50.918  12.862  1.00  0.00     0.159 C 
HETATM   14  C   UNL     1     -39.821 -49.782  12.163  1.00  0.00     0.177 C 
HETATM   15  O   UNL     1     -38.821 -49.139  11.505  1.00  0.00    -0.358 OA
HETATM   16  C   UNL     1     -37.556 -49.781  11.542  1.00  0.00     0.201 C 
HETATM   17  C   UNL     1     -37.455 -51.153  12.221  1.00  0.00     0.202 C 
HETATM   18  O   UNL     1     -38.534 -51.601  13.040  1.00  0.00    -0.342 OA
ENDBRANCH   2  13
TORSDOF 2
ENDMDL
MODEL 7
REMARK VINA RESULT:      -4.8      2.789      6.450
REMARK  2 active torsions:
REMARK  status: ('A' for Active; 'I' for Inactive)
REMARK    1  A    between atoms: C_6  and  N_7 
REMARK       I    between atoms: N_7  and  C_8 
REMARK    2  A    between atoms: C_8  and  C_10 
ROOT
HETATM    1  N   UNL     1     -40.922 -52.527  13.928  1.00  0.00    -0.307 N 
HETATM    2  C   UNL     1     -42.111 -52.166  13.329  1.00  0.00     0.282 C 
HETATM    3  O   UNL     1     -42.340 -51.158  12.671  1.00  0.00    -0.265 OA
HETATM    4  H   UNL     1     -40.906 -53.412  14.416  1.00  0.00     0.170 HD
ENDROOT
BRANCH   1   5
HETATM    5  C   UNL     1     -39.754 -51.755  13.907  1.00  0.00     0.108 A 
HETATM    6  C   UNL     1     -39.132 -51.457  15.114  1.00  0.00     0.049 A 
HETATM    7  C   UNL     1     -37.963 -50.698  15.102  1.00  0.00     0.006 A 
HETATM    8  C   UNL     1     -37.454 -50.242  13.890  1.00  0.00     0.025 A 
HETATM    9  C   UNL     1     -38.137 -50.572  12.728  1.00  0.00     0.007 A 
HETATM   10  C   UNL     1     -37.684 -50.081  11.388  1.00  0.00     0.068 C 
HETATM   11  N   UNL     1     -39.263 -51.314  12.739  1.00  0.00    -0.346 N 
ATOM     12  HN  UNL     1     -39.738 -51.538  11.864  1.00  0.00     0.167 HD
ENDBRANCH   1   5
BRANCH   2  13
HETATM   13  C   UNL     1     -43.201 -53.179  13.573  1.00  0.00     0.159 C 
HETATM   14  C   UNL     1     -43.914 -53.572  12.512  1.00  0.00     0.177 C 
HETATM   15  O   UNL     1     -44.954 -54.447  12.514  1.00  0.00    -0.358 OA
HETATM   16  C   UNL     1     -45.329 -54.944  13.790  1.00  0.00     0.201 C 
HETATM   17  C   UNL     1     -44.609 -54.392  15.026  1.00  0.00     0.202 C 
HETATM   18  O   UNL     1     -43.410 -53.639  14.851  1.00  0.00    -0.342 OA
ENDBRANCH   2  13
TORSDOF 2
ENDMDL
MODEL 8
REMARK VINA RESULT:      -4.7     14.433     16.905
REMARK  2 active torsions:
REMARK  status: ('A' for Active; 'I' for Inactive)
REMARK    1  A    between atoms: C_6  and  N_7 
REMARK       I    between atoms: N_7  and  C_8 
REMARK    2  A    between atoms: C_8  and  C_10 
ROOT
HETATM    1  N   UNL     1     -51.373 -52.615  -1.214  1.00  0.00    -0.307 N 
HETATM    2  C   UNL     1     -50.325 -52.180  -0.430  1.00  0.00     0.282 C 
HETATM    3  O   UNL     1     -49.265 -52.755  -0.211  1.00  0.00    -0.265 OA
HETATM    4  H   UNL     1     -52.166 -51.995  -1.301  1.00  0.00     0.170 HD
ENDROOT
BRANCH   1   5
HETATM    5  C   UNL     1     -51.407 -53.844  -1.883  1.00  0.00     0.108 A 
HETATM    6  C   UNL     1     -52.643 -54.395  -2.198  1.00  0.00     0.049 A 
HETATM    7  C   UNL     1     -52.688 -55.613  -2.874  1.00  0.00     0.006 A 
HETATM    8  C   UNL     1     -51.500 -56.258  -3.205  1.00  0.00     0.025 A 
HETATM    9  C   UNL     1     -50.305 -55.649  -2.848  1.00  0.00     0.007 A 
HETATM   10  C   UNL     1     -48.983 -56.298  -3.123  1.00  0.00     0.068 C 
HETATM   11  N   UNL     1     -50.261 -54.467  -2.201  1.00  0.00    -0.346 N 
ATOM     12  HN  UNL     1     -49.364 -54.048  -1.956  1.00  0.00     0.167 HD
ENDBRANCH   1   5
BRANCH   2  13
HETATM   13  C   UNL     1     -50.607 -50.840   0.202  1.00  0.00     0.159 C 
HETATM   14  C   UNL     1     -51.629 -50.136  -0.297  1.00  0.00     0.177 C 
HETATM   15  O   UNL     1     -52.033 -48.901   0.101  1.00  0.00    -0.358 OA
HETATM   16  C   UNL     1     -51.247 -48.302   1.121  1.00  0.00     0.201 C 
HETATM   17  C   UNL     1     -49.992 -49.041   1.600  1.00  0.00     0.202 C 
HETATM   18  O   UNL     1     -49.813 -50.409   1.239  1.00  0.00    -0.342 OA
ENDBRANCH   2  13
TORSDOF 2
ENDMDL
MODEL 9
REMARK VINA RESULT:      -4.6      2.669      3.512
REMARK  2 active torsions:
REMARK  status: ('A' for Active; 'I' for Inactive)
REMARK    1  A    between atoms: C_6  and  N_7 
REMARK       I    between atoms: N_7  and  C_8 
REMARK    2  A    between atoms: C_8  and  C_10 
ROOT
HETATM    1  N   UNL     1     -44.048 -50.444  12.752  1.00  0.00    -0.307 N 
HETATM    2  C   UNL     1     -42.729 -50.108  12.981  1.00  0.00     0.282 C 
HETATM    3  O   UNL     1     -41.932 -50.671  13.722  1.00  0.00    -0.265 OA
HETATM    4  H   UNL     1     -44.554 -49.879  12.085  1.00  0.00     0.170 HD
ENDROOT
BRANCH   1   5
HETATM    5  C   UNL     1     -44.718 -51.502  13.378  1.00  0.00     0.108 A 
HETATM    6  C   UNL     1     -46.052 -51.328  13.729  1.00  0.00     0.049 A 
HETATM    7  C   UNL     1     -46.732 -52.378  14.343  1.00  0.00     0.006 A 
HETATM    8  C   UNL     1     -46.060 -53.569  14.607  1.00  0.00     0.025 A 
HETATM    9  C   UNL     1     -44.726 -53.662  14.236  1.00  0.00     0.007 A 
HETATM   10  C   UNL     1     -43.917 -54.889  14.527  1.00  0.00     0.068 C 
HETATM   11  N   UNL     1     -44.071 -52.649  13.634  1.00  0.00    -0.346 N 
ATOM     12  HN  UNL     1     -43.089 -52.754  13.374  1.00  0.00     0.167 HD
ENDBRANCH   1   5
BRANCH   2  13
HETATM   13  C   UNL     1     -42.310 -48.890  12.198  1.00  0.00     0.159 C 
HETATM   14  C   UNL     1     -43.276 -48.207  11.573  1.00  0.00     0.177 C 
HETATM   15  O   UNL     1     -43.114 -47.105  10.793  1.00  0.00    -0.358 OA
HETATM   16  C   UNL     1     -41.772 -46.683  10.606  1.00  0.00     0.201 C 
HETATM   17  C   UNL     1     -40.649 -47.540  11.204  1.00  0.00     0.202 C 
HETATM   18  O   UNL     1     -40.980 -48.544  12.161  1.00  0.00    -0.342 OA
ENDBRANCH   2  13
TORSDOF 2
ENDMDL
