MODEL 1
REMARK VINA RESULT:      -6.2      0.000      0.000
REMARK  7 active torsions:
REMARK  status: ('A' for Active; 'I' for Inactive)
REMARK    1  A    between atoms: C_2  and  N_3 
REMARK    2  A    between atoms: C_2  and  C_14 
REMARK    3  A    between atoms: N_3  and  C_4 
REMARK    4  A    between atoms: C_4  and  C_6 
REMARK       I    between atoms: C_6  and  N_8 
REMARK    5  A    between atoms: N_8  and  C_9 
REMARK    6  A    between atoms: C_9  and  C_10 
REMARK    7  A    between atoms: C_14  and  N_16 
ROOT
HETATM    1  N   UNL     1     -40.439 -47.521  10.656  1.00  0.00     0.103 N 
HETATM    2  H   UNL     1     -41.217 -47.950  10.142  1.00  0.00     0.317 HD
ENDROOT
BRANCH   1   3
HETATM    3  C   UNL     1     -40.196 -48.332  11.877  1.00  0.00     0.241 C 
HETATM    4  C   UNL     1     -39.844 -47.435  13.074  1.00  0.00     0.045 C 
BRANCH   3   5
HETATM    5  C   UNL     1     -39.247 -49.565  11.703  1.00  0.00     0.136 C 
HETATM    6  C   UNL     1     -37.902 -49.435  12.428  1.00  0.00     0.036 C 
BRANCH   5   7
HETATM    7  N   UNL     1     -39.879 -50.831  12.077  1.00  0.00    -0.297 N 
HETATM    8  C   UNL     1     -39.632 -51.623  13.171  1.00  0.00     0.112 A 
HETATM    9  C   UNL     1     -40.556 -52.640  13.130  1.00  0.00     0.037 A 
HETATM   10  C   UNL     1     -41.285 -52.412  11.951  1.00  0.00     0.108 A 
HETATM   11  N   UNL     1     -40.862 -51.330  11.292  1.00  0.00    -0.310 N 
ATOM     12  HN  UNL     1     -41.201 -50.965  10.402  1.00  0.00     0.186 HD
ENDBRANCH   5   7
ENDBRANCH   3   5
ENDBRANCH   1   3
BRANCH   1  13
HETATM   13  C   UNL     1     -40.774 -46.087  10.810  1.00  0.00     0.308 C 
HETATM   14  C   UNL     1     -39.763 -45.079  10.262  1.00  0.00     0.053 C 
BRANCH  13  15
HETATM   15  C   UNL     1     -42.101 -45.834  10.056  1.00  0.00     0.251 C 
HETATM   16  O   UNL     1     -42.743 -44.792  10.161  1.00  0.00    -0.271 OA
HETATM   17  N   UNL     1     -42.486 -46.864   9.228  1.00  0.00    -0.351 N 
HETATM   18  H   UNL     1     -42.088 -47.779   9.436  1.00  0.00     0.162 HD
BRANCH  17  19
HETATM   19  C   UNL     1     -43.694 -46.763   8.415  1.00  0.00     0.240 C 
BRANCH  19  20
HETATM   20  C   UNL     1     -44.975 -47.346   9.030  1.00  0.00     0.403 C 
HETATM   21  F   UNL     1     -45.484 -48.359   8.294  1.00  0.00    -0.169 F 
HETATM   22  F   UNL     1     -44.770 -47.792  10.283  1.00  0.00    -0.169 F 
HETATM   23  F   UNL     1     -45.930 -46.384   9.093  1.00  0.00    -0.169 F 
ENDBRANCH  19  20
ENDBRANCH  17  19
ENDBRANCH  13  15
ENDBRANCH   1  13
TORSDOF 7
ENDMDL
MODEL 2
REMARK VINA RESULT:      -6.0      4.975      7.436
REMARK  7 active torsions:
REMARK  status: ('A' for Active; 'I' for Inactive)
REMARK    1  A    between atoms: C_2  and  N_3 
REMARK    2  A    between atoms: C_2  and  C_14 
REMARK    3  A    between atoms: N_3  and  C_4 
REMARK    4  A    between atoms: C_4  and  C_6 
REMARK       I    between atoms: C_6  and  N_8 
REMARK    5  A    between atoms: N_8  and  C_9 
REMARK    6  A    between atoms: C_9  and  C_10 
REMARK    7  A    between atoms: C_14  and  N_16 
ROOT
HETATM    1  N   UNL     1     -42.302 -53.850  12.528  1.00  0.00     0.103 N 
HETATM    2  H   UNL     1     -42.685 -54.292  11.685  1.00  0.00     0.317 HD
ENDROOT
BRANCH   1   3
HETATM    3  C   UNL     1     -43.310 -53.985  13.612  1.00  0.00     0.241 C 
HETATM    4  C   UNL     1     -42.797 -54.905  14.730  1.00  0.00     0.045 C 
BRANCH   3   5
HETATM    5  C   UNL     1     -44.774 -54.294  13.151  1.00  0.00     0.136 C 
HETATM    6  C   UNL     1     -45.430 -55.472  13.881  1.00  0.00     0.036 C 
BRANCH   5   7
HETATM    7  N   UNL     1     -45.655 -53.127  13.223  1.00  0.00    -0.297 N 
HETATM    8  C   UNL     1     -46.135 -52.483  14.337  1.00  0.00     0.112 A 
HETATM    9  C   UNL     1     -46.827 -51.386  13.880  1.00  0.00     0.037 A 
HETATM   10  C   UNL     1     -46.757 -51.476  12.480  1.00  0.00     0.108 A 
HETATM   11  N   UNL     1     -46.069 -52.547  12.074  1.00  0.00    -0.310 N 
ATOM     12  HN  UNL     1     -45.897 -52.856  11.116  1.00  0.00     0.186 HD
ENDBRANCH   5   7
ENDBRANCH   3   5
ENDBRANCH   1   3
BRANCH   1  13
HETATM   13  C   UNL     1     -41.862 -52.493  12.132  1.00  0.00     0.308 C 
HETATM   14  C   UNL     1     -42.605 -51.315  12.764  1.00  0.00     0.053 C 
BRANCH  13  15
HETATM   15  C   UNL     1     -40.377 -52.345  12.537  1.00  0.00     0.251 C 
HETATM   16  O   UNL     1     -39.731 -53.250  13.057  1.00  0.00    -0.271 OA
HETATM   17  N   UNL     1     -39.828 -51.119  12.231  1.00  0.00    -0.351 N 
HETATM   18  H   UNL     1     -40.487 -50.352  12.104  1.00  0.00     0.162 HD
BRANCH  17  19
HETATM   19  C   UNL     1     -38.424 -50.835  12.512  1.00  0.00     0.240 C 
BRANCH  19  20
HETATM   20  C   UNL     1     -37.898 -49.474  12.030  1.00  0.00     0.403 C 
HETATM   21  F   UNL     1     -37.382 -48.736  13.037  1.00  0.00    -0.169 F 
HETATM   22  F   UNL     1     -36.957 -49.610  11.078  1.00  0.00    -0.169 F 
HETATM   23  F   UNL     1     -38.916 -48.755  11.494  1.00  0.00    -0.169 F 
ENDBRANCH  19  20
ENDBRANCH  17  19
ENDBRANCH  13  15
ENDBRANCH   1  13
TORSDOF 7
ENDMDL
MODEL 3
REMARK VINA RESULT:      -5.9      4.192      6.291
REMARK  7 active torsions:
REMARK  status: ('A' for Active; 'I' for Inactive)
REMARK    1  A    between atoms: C_2  and  N_3 
REMARK    2  A    between atoms: C_2  and  C_14 
REMARK    3  A    between atoms: N_3  and  C_4 
REMARK    4  A    between atoms: C_4  and  C_6 
REMARK       I    between atoms: C_6  and  N_8 
REMARK    5  A    between atoms: N_8  and  C_9 
REMARK    6  A    between atoms: C_9  and  C_10 
REMARK    7  A    between atoms: C_14  and  N_16 
ROOT
HETATM    1  N   UNL     1     -42.430 -52.245  11.837  1.00  0.00     0.103 N 
HETATM    2  H   UNL     1     -41.838 -52.587  11.072  1.00  0.00     0.317 HD
ENDROOT
BRANCH   1   3
HETATM    3  C   UNL     1     -41.850 -50.967  12.326  1.00  0.00     0.241 C 
HETATM    4  C   UNL     1     -42.942 -50.045  12.889  1.00  0.00     0.045 C 
BRANCH   3   5
HETATM    5  C   UNL     1     -40.850 -50.253  11.355  1.00  0.00     0.136 C 
HETATM    6  C   UNL     1     -41.168 -48.776  11.095  1.00  0.00     0.036 C 
BRANCH   5   7
HETATM    7  N   UNL     1     -39.454 -50.382  11.777  1.00  0.00    -0.297 N 
HETATM    8  C   UNL     1     -38.955 -50.919  12.938  1.00  0.00     0.112 A 
HETATM    9  C   UNL     1     -37.586 -50.907  12.812  1.00  0.00     0.037 A 
HETATM   10  C   UNL     1     -37.346 -50.299  11.569  1.00  0.00     0.108 A 
HETATM   11  N   UNL     1     -38.476 -49.952  10.946  1.00  0.00    -0.310 N 
ATOM     12  HN  UNL     1     -38.578 -49.474  10.051  1.00  0.00     0.186 HD
ENDBRANCH   5   7
ENDBRANCH   3   5
ENDBRANCH   1   3
BRANCH   1  13
HETATM   13  C   UNL     1     -42.580 -53.368  12.790  1.00  0.00     0.308 C 
HETATM   14  C   UNL     1     -41.837 -53.246  14.121  1.00  0.00     0.053 C 
BRANCH  13  15
HETATM   15  C   UNL     1     -44.083 -53.492  13.134  1.00  0.00     0.251 C 
HETATM   16  O   UNL     1     -44.884 -54.101  12.431  1.00  0.00    -0.271 OA
HETATM   17  N   UNL     1     -44.443 -52.887  14.318  1.00  0.00    -0.351 N 
HETATM   18  H   UNL     1     -43.815 -52.161  14.660  1.00  0.00     0.162 HD
BRANCH  17  19
HETATM   19  C   UNL     1     -45.818 -52.950  14.806  1.00  0.00     0.240 C 
BRANCH  19  20
HETATM   20  C   UNL     1     -46.558 -51.609  14.921  1.00  0.00     0.403 C 
HETATM   21  F   UNL     1     -45.805 -50.655  15.512  1.00  0.00    -0.169 F 
HETATM   22  F   UNL     1     -46.955 -51.151  13.719  1.00  0.00    -0.169 F 
HETATM   23  F   UNL     1     -47.669 -51.764  15.684  1.00  0.00    -0.169 F 
ENDBRANCH  19  20
ENDBRANCH  17  19
ENDBRANCH  13  15
ENDBRANCH   1  13
TORSDOF 7
ENDMDL
MODEL 4
REMARK VINA RESULT:      -5.9      3.265      4.520
REMARK  7 active torsions:
REMARK  status: ('A' for Active; 'I' for Inactive)
REMARK    1  A    between atoms: C_2  and  N_3 
REMARK    2  A    between atoms: C_2  and  C_14 
REMARK    3  A    between atoms: N_3  and  C_4 
REMARK    4  A    between atoms: C_4  and  C_6 
REMARK       I    between atoms: C_6  and  N_8 
REMARK    5  A    between atoms: N_8  and  C_9 
REMARK    6  A    between atoms: C_9  and  C_10 
REMARK    7  A    between atoms: C_14  and  N_16 
ROOT
HETATM    1  N   UNL     1     -42.598 -50.732  12.104  1.00  0.00     0.103 N 
HETATM    2  H   UNL     1     -43.282 -50.956  11.372  1.00  0.00     0.317 HD
ENDROOT
BRANCH   1   3
HETATM    3  C   UNL     1     -42.290 -51.986  12.839  1.00  0.00     0.241 C 
HETATM    4  C   UNL     1     -40.902 -52.522  12.456  1.00  0.00     0.045 C 
BRANCH   3   5
HETATM    5  C   UNL     1     -43.416 -53.074  12.840  1.00  0.00     0.136 C 
HETATM    6  C   UNL     1     -43.172 -54.235  13.812  1.00  0.00     0.036 C 
BRANCH   5   7
HETATM    7  N   UNL     1     -44.750 -52.517  13.075  1.00  0.00    -0.297 N 
HETATM    8  C   UNL     1     -45.301 -52.081  14.255  1.00  0.00     0.112 A 
HETATM    9  C   UNL     1     -46.528 -51.549  13.935  1.00  0.00     0.037 A 
HETATM   10  C   UNL     1     -46.656 -51.753  12.551  1.00  0.00     0.108 A 
HETATM   11  N   UNL     1     -45.591 -52.365  12.026  1.00  0.00    -0.310 N 
ATOM     12  HN  UNL     1     -45.445 -52.653  11.058  1.00  0.00     0.186 HD
ENDBRANCH   5   7
ENDBRANCH   3   5
ENDBRANCH   1   3
BRANCH   1  13
HETATM   13  C   UNL     1     -43.149 -49.583  12.858  1.00  0.00     0.308 C 
HETATM   14  C   UNL     1     -42.476 -49.247  14.190  1.00  0.00     0.053 C 
BRANCH  13  15
HETATM   15  C   UNL     1     -43.009 -48.327  11.965  1.00  0.00     0.251 C 
HETATM   16  O   UNL     1     -43.110 -47.183  12.398  1.00  0.00    -0.271 OA
HETATM   17  N   UNL     1     -42.727 -48.601  10.645  1.00  0.00    -0.351 N 
HETATM   18  H   UNL     1     -42.970 -49.536  10.320  1.00  0.00     0.162 HD
BRANCH  17  19
HETATM   19  C   UNL     1     -42.524 -47.524   9.682  1.00  0.00     0.240 C 
BRANCH  19  20
HETATM   20  C   UNL     1     -43.512 -47.470   8.507  1.00  0.00     0.403 C 
HETATM   21  F   UNL     1     -43.104 -48.213   7.456  1.00  0.00    -0.169 F 
HETATM   22  F   UNL     1     -44.741 -47.884   8.868  1.00  0.00    -0.169 F 
HETATM   23  F   UNL     1     -43.629 -46.192   8.067  1.00  0.00    -0.169 F 
ENDBRANCH  19  20
ENDBRANCH  17  19
ENDBRANCH  13  15
ENDBRANCH   1  13
TORSDOF 7
ENDMDL
MODEL 5
REMARK VINA RESULT:      -5.8      1.537      2.585
REMARK  7 active torsions:
REMARK  status: ('A' for Active; 'I' for Inactive)
REMARK    1  A    between atoms: C_2  and  N_3 
REMARK    2  A    between atoms: C_2  and  C_14 
REMARK    3  A    between atoms: N_3  and  C_4 
REMARK    4  A    between atoms: C_4  and  C_6 
REMARK       I    between atoms: C_6  and  N_8 
REMARK    5  A    between atoms: N_8  and  C_9 
REMARK    6  A    between atoms: C_9  and  C_10 
REMARK    7  A    between atoms: C_14  and  N_16 
ROOT
HETATM    1  N   UNL     1     -41.896 -49.202  11.078  1.00  0.00     0.103 N 
HETATM    2  H   UNL     1     -42.597 -49.392  10.353  1.00  0.00     0.317 HD
ENDROOT
BRANCH   1   3
HETATM    3  C   UNL     1     -42.190 -50.084  12.237  1.00  0.00     0.241 C 
HETATM    4  C   UNL     1     -42.884 -49.302  13.363  1.00  0.00     0.045 C 
BRANCH   3   5
HETATM    5  C   UNL     1     -41.011 -50.992  12.724  1.00  0.00     0.136 C 
HETATM    6  C   UNL     1     -40.971 -52.379  12.073  1.00  0.00     0.036 C 
BRANCH   5   7
HETATM    7  N   UNL     1     -39.701 -50.353  12.584  1.00  0.00    -0.297 N 
HETATM    8  C   UNL     1     -39.069 -49.496  13.452  1.00  0.00     0.112 A 
HETATM    9  C   UNL     1     -37.821 -49.261  12.923  1.00  0.00     0.037 A 
HETATM   10  C   UNL     1     -37.807 -49.975  11.713  1.00  0.00     0.108 A 
HETATM   11  N   UNL     1     -38.956 -50.618  11.487  1.00  0.00    -0.310 N 
ATOM     12  HN  UNL     1     -39.212 -51.180  10.675  1.00  0.00     0.186 HD
ENDBRANCH   5   7
ENDBRANCH   3   5
ENDBRANCH   1   3
BRANCH   1  13
HETATM   13  C   UNL     1     -41.887 -47.737  11.285  1.00  0.00     0.308 C 
HETATM   14  C   UNL     1     -40.547 -47.022  11.100  1.00  0.00     0.053 C 
BRANCH  13  15
HETATM   15  C   UNL     1     -42.863 -47.114  10.259  1.00  0.00     0.251 C 
HETATM   16  O   UNL     1     -43.013 -45.902  10.127  1.00  0.00    -0.271 OA
HETATM   17  N   UNL     1     -43.528 -48.035   9.480  1.00  0.00    -0.351 N 
HETATM   18  H   UNL     1     -43.586 -48.980   9.857  1.00  0.00     0.162 HD
BRANCH  17  19
HETATM   19  C   UNL     1     -44.453 -47.607   8.436  1.00  0.00     0.240 C 
BRANCH  19  20
HETATM   20  C   UNL     1     -45.936 -47.938   8.668  1.00  0.00     0.403 C 
HETATM   21  F   UNL     1     -46.715 -46.834   8.670  1.00  0.00    -0.169 F 
HETATM   22  F   UNL     1     -46.408 -48.790   7.739  1.00  0.00    -0.169 F 
HETATM   23  F   UNL     1     -46.088 -48.531   9.878  1.00  0.00    -0.169 F 
ENDBRANCH  19  20
ENDBRANCH  17  19
ENDBRANCH  13  15
ENDBRANCH   1  13
TORSDOF 7
ENDMDL
MODEL 6
REMARK VINA RESULT:      -5.8      4.049      6.469
REMARK  7 active torsions:
REMARK  status: ('A' for Active; 'I' for Inactive)
REMARK    1  A    between atoms: C_2  and  N_3 
REMARK    2  A    between atoms: C_2  and  C_14 
REMARK    3  A    between atoms: N_3  and  C_4 
REMARK    4  A    between atoms: C_4  and  C_6 
REMARK       I    between atoms: C_6  and  N_8 
REMARK    5  A    between atoms: N_8  and  C_9 
REMARK    6  A    between atoms: C_9  and  C_10 
REMARK    7  A    between atoms: C_14  and  N_16 
ROOT
HETATM    1  N   UNL     1     -41.912 -50.147  11.434  1.00  0.00     0.103 N 
HETATM    2  H   UNL     1     -41.462 -50.964  11.006  1.00  0.00     0.317 HD
ENDROOT
BRANCH   1   3
HETATM    3  C   UNL     1     -41.055 -48.963  11.164  1.00  0.00     0.241 C 
HETATM    4  C   UNL     1     -39.860 -48.917  12.129  1.00  0.00     0.045 C 
BRANCH   3   5
HETATM    5  C   UNL     1     -41.803 -47.596  11.009  1.00  0.00     0.136 C 
HETATM    6  C   UNL     1     -40.885 -46.403  10.715  1.00  0.00     0.036 C 
BRANCH   5   7
HETATM    7  N   UNL     1     -42.875 -47.641  10.013  1.00  0.00    -0.297 N 
HETATM    8  C   UNL     1     -44.217 -47.409  10.188  1.00  0.00     0.112 A 
HETATM    9  C   UNL     1     -44.785 -47.464   8.937  1.00  0.00     0.037 A 
HETATM   10  C   UNL     1     -43.722 -47.784   8.076  1.00  0.00     0.108 A 
HETATM   11  N   UNL     1     -42.564 -47.920   8.727  1.00  0.00    -0.310 N 
ATOM     12  HN  UNL     1     -41.654 -48.176   8.342  1.00  0.00     0.186 HD
ENDBRANCH   5   7
ENDBRANCH   3   5
ENDBRANCH   1   3
BRANCH   1  13
HETATM   13  C   UNL     1     -42.200 -50.510  12.839  1.00  0.00     0.308 C 
HETATM   14  C   UNL     1     -43.402 -49.828  13.495  1.00  0.00     0.053 C 
BRANCH  13  15
HETATM   15  C   UNL     1     -42.480 -52.031  12.881  1.00  0.00     0.251 C 
HETATM   16  O   UNL     1     -41.660 -52.852  13.281  1.00  0.00    -0.271 OA
HETATM   17  N   UNL     1     -43.744 -52.384  12.463  1.00  0.00    -0.351 N 
HETATM   18  H   UNL     1     -44.224 -51.709  11.870  1.00  0.00     0.162 HD
BRANCH  17  19
HETATM   19  C   UNL     1     -44.178 -53.778  12.482  1.00  0.00     0.240 C 
BRANCH  19  20
HETATM   20  C   UNL     1     -45.139 -54.172  13.614  1.00  0.00     0.403 C 
HETATM   21  F   UNL     1     -44.585 -54.019  14.836  1.00  0.00    -0.169 F 
HETATM   22  F   UNL     1     -46.280 -53.460  13.573  1.00  0.00    -0.169 F 
HETATM   23  F   UNL     1     -45.474 -55.481  13.493  1.00  0.00    -0.169 F 
ENDBRANCH  19  20
ENDBRANCH  17  19
ENDBRANCH  13  15
ENDBRANCH   1  13
TORSDOF 7
ENDMDL
MODEL 7
REMARK VINA RESULT:      -5.7      3.568      6.166
REMARK  7 active torsions:
REMARK  status: ('A' for Active; 'I' for Inactive)
REMARK    1  A    between atoms: C_2  and  N_3 
REMARK    2  A    between atoms: C_2  and  C_14 
REMARK    3  A    between atoms: N_3  and  C_4 
REMARK    4  A    between atoms: C_4  and  C_6 
REMARK       I    between atoms: C_6  and  N_8 
REMARK    5  A    between atoms: N_8  and  C_9 
REMARK    6  A    between atoms: C_9  and  C_10 
REMARK    7  A    between atoms: C_14  and  N_16 
ROOT
HETATM    1  N   UNL     1     -41.666 -49.448  11.140  1.00  0.00     0.103 N 
HETATM    2  H   UNL     1     -41.929 -49.304  10.158  1.00  0.00     0.317 HD
ENDROOT
BRANCH   1   3
HETATM    3  C   UNL     1     -42.079 -48.242  11.903  1.00  0.00     0.241 C 
HETATM    4  C   UNL     1     -43.055 -48.612  13.031  1.00  0.00     0.045 C 
BRANCH   3   5
HETATM    5  C   UNL     1     -42.529 -47.010  11.048  1.00  0.00     0.136 C 
HETATM    6  C   UNL     1     -41.379 -46.113  10.577  1.00  0.00     0.036 C 
BRANCH   5   7
HETATM    7  N   UNL     1     -43.355 -47.384   9.897  1.00  0.00    -0.297 N 
HETATM    8  C   UNL     1     -44.718 -47.540   9.835  1.00  0.00     0.112 A 
HETATM    9  C   UNL     1     -45.018 -47.786   8.516  1.00  0.00     0.037 A 
HETATM   10  C   UNL     1     -43.774 -47.812   7.865  1.00  0.00     0.108 A 
HETATM   11  N   UNL     1     -42.757 -47.596   8.703  1.00  0.00    -0.310 N 
ATOM     12  HN  UNL     1     -41.758 -47.591   8.490  1.00  0.00     0.186 HD
ENDBRANCH   5   7
ENDBRANCH   3   5
ENDBRANCH   1   3
BRANCH   1  13
HETATM   13  C   UNL     1     -40.237 -49.835  11.142  1.00  0.00     0.308 C 
HETATM   14  C   UNL     1     -39.267 -48.887  11.848  1.00  0.00     0.053 C 
BRANCH  13  15
HETATM   15  C   UNL     1     -40.123 -51.199  11.862  1.00  0.00     0.251 C 
HETATM   16  O   UNL     1     -39.166 -51.508  12.566  1.00  0.00    -0.271 OA
HETATM   17  N   UNL     1     -41.206 -52.030  11.673  1.00  0.00    -0.351 N 
HETATM   18  H   UNL     1     -41.780 -51.838  10.853  1.00  0.00     0.162 HD
BRANCH  17  19
HETATM   19  C   UNL     1     -41.271 -53.337  12.320  1.00  0.00     0.240 C 
BRANCH  19  20
HETATM   20  C   UNL     1     -42.541 -53.628  13.133  1.00  0.00     0.403 C 
HETATM   21  F   UNL     1     -43.617 -53.849  12.346  1.00  0.00    -0.169 F 
HETATM   22  F   UNL     1     -42.383 -54.690  13.944  1.00  0.00    -0.169 F 
HETATM   23  F   UNL     1     -42.837 -52.560  13.916  1.00  0.00    -0.169 F 
ENDBRANCH  19  20
ENDBRANCH  17  19
ENDBRANCH  13  15
ENDBRANCH   1  13
TORSDOF 7
ENDMDL
MODEL 8
REMARK VINA RESULT:      -5.6      4.236      6.665
REMARK  7 active torsions:
REMARK  status: ('A' for Active; 'I' for Inactive)
REMARK    1  A    between atoms: C_2  and  N_3 
REMARK    2  A    between atoms: C_2  and  C_14 
REMARK    3  A    between atoms: N_3  and  C_4 
REMARK    4  A    between atoms: C_4  and  C_6 
REMARK       I    between atoms: C_6  and  N_8 
REMARK    5  A    between atoms: N_8  and  C_9 
REMARK    6  A    between atoms: C_9  and  C_10 
REMARK    7  A    between atoms: C_14  and  N_16 
ROOT
HETATM    1  N   UNL     1     -41.189 -50.849  12.628  1.00  0.00     0.103 N 
HETATM    2  H   UNL     1     -42.004 -50.392  13.053  1.00  0.00     0.317 HD
ENDROOT
BRANCH   1   3
HETATM    3  C   UNL     1     -40.593 -49.900  11.652  1.00  0.00     0.241 C 
HETATM    4  C   UNL     1     -39.067 -50.069  11.581  1.00  0.00     0.045 C 
BRANCH   3   5
HETATM    5  C   UNL     1     -41.065 -48.411  11.768  1.00  0.00     0.136 C 
HETATM    6  C   UNL     1     -39.949 -47.378  11.576  1.00  0.00     0.036 C 
BRANCH   5   7
HETATM    7  N   UNL     1     -42.180 -48.094  10.874  1.00  0.00    -0.297 N 
HETATM    8  C   UNL     1     -43.460 -47.718  11.200  1.00  0.00     0.112 A 
HETATM    9  C   UNL     1     -44.091 -47.428  10.013  1.00  0.00     0.037 A 
HETATM   10  C   UNL     1     -43.135 -47.705   9.022  1.00  0.00     0.108 A 
HETATM   11  N   UNL     1     -41.980 -48.136   9.536  1.00  0.00    -0.310 N 
ATOM     12  HN  UNL     1     -41.141 -48.430   9.036  1.00  0.00     0.186 HD
ENDBRANCH   5   7
ENDBRANCH   3   5
ENDBRANCH   1   3
BRANCH   1  13
HETATM   13  C   UNL     1     -41.648 -52.170  12.144  1.00  0.00     0.308 C 
HETATM   14  C   UNL     1     -40.819 -53.385  12.565  1.00  0.00     0.053 C 
BRANCH  13  15
HETATM   15  C   UNL     1     -43.076 -52.399  12.695  1.00  0.00     0.251 C 
HETATM   16  O   UNL     1     -43.682 -51.561  13.355  1.00  0.00    -0.271 OA
HETATM   17  N   UNL     1     -43.625 -53.615  12.352  1.00  0.00    -0.351 N 
HETATM   18  H   UNL     1     -42.965 -54.347  12.091  1.00  0.00     0.162 HD
BRANCH  17  19
HETATM   19  C   UNL     1     -44.981 -53.968  12.758  1.00  0.00     0.240 C 
BRANCH  19  20
HETATM   20  C   UNL     1     -45.104 -54.901  13.973  1.00  0.00     0.403 C 
HETATM   21  F   UNL     1     -43.904 -55.355  14.396  1.00  0.00    -0.169 F 
HETATM   22  F   UNL     1     -45.718 -54.297  15.007  1.00  0.00    -0.169 F 
HETATM   23  F   UNL     1     -45.844 -55.988  13.641  1.00  0.00    -0.169 F 
ENDBRANCH  19  20
ENDBRANCH  17  19
ENDBRANCH  13  15
ENDBRANCH   1  13
TORSDOF 7
ENDMDL
MODEL 9
REMARK VINA RESULT:      -5.5      4.414      6.549
REMARK  7 active torsions:
REMARK  status: ('A' for Active; 'I' for Inactive)
REMARK    1  A    between atoms: C_2  and  N_3 
REMARK    2  A    between atoms: C_2  and  C_14 
REMARK    3  A    between atoms: N_3  and  C_4 
REMARK    4  A    between atoms: C_4  and  C_6 
REMARK       I    between atoms: C_6  and  N_8 
REMARK    5  A    between atoms: N_8  and  C_9 
REMARK    6  A    between atoms: C_9  and  C_10 
REMARK    7  A    between atoms: C_14  and  N_16 
ROOT
HETATM    1  N   UNL     1     -41.784 -53.024  14.127  1.00  0.00     0.103 N 
HETATM    2  H   UNL     1     -42.443 -52.244  14.016  1.00  0.00     0.317 HD
ENDROOT
BRANCH   1   3
HETATM    3  C   UNL     1     -40.638 -52.785  13.211  1.00  0.00     0.241 C 
HETATM    4  C   UNL     1     -39.304 -52.860  13.969  1.00  0.00     0.045 C 
BRANCH   3   5
HETATM    5  C   UNL     1     -40.765 -51.546  12.263  1.00  0.00     0.136 C 
HETATM    6  C   UNL     1     -42.070 -50.757  12.425  1.00  0.00     0.036 C 
BRANCH   5   7
HETATM    7  N   UNL     1     -39.629 -50.628  12.365  1.00  0.00    -0.297 N 
HETATM    8  C   UNL     1     -39.376 -49.680  13.326  1.00  0.00     0.112 A 
HETATM    9  C   UNL     1     -38.136 -49.160  13.039  1.00  0.00     0.037 A 
HETATM   10  C   UNL     1     -37.738 -49.815  11.861  1.00  0.00     0.108 A 
HETATM   11  N   UNL     1     -38.652 -50.689  11.431  1.00  0.00    -0.310 N 
ATOM     12  HN  UNL     1     -38.621 -51.268  10.592  1.00  0.00     0.186 HD
ENDBRANCH   5   7
ENDBRANCH   3   5
ENDBRANCH   1   3
BRANCH   1  13
HETATM   13  C   UNL     1     -42.572 -54.268  13.970  1.00  0.00     0.308 C 
HETATM   14  C   UNL     1     -42.824 -55.088  15.237  1.00  0.00     0.053 C 
BRANCH  13  15
HETATM   15  C   UNL     1     -43.961 -53.875  13.416  1.00  0.00     0.251 C 
HETATM   16  O   UNL     1     -44.267 -53.989  12.232  1.00  0.00    -0.271 OA
HETATM   17  N   UNL     1     -44.842 -53.417  14.371  1.00  0.00    -0.351 N 
HETATM   18  H   UNL     1     -44.425 -53.063  15.231  1.00  0.00     0.162 HD
BRANCH  17  19
HETATM   19  C   UNL     1     -46.208 -53.045  14.015  1.00  0.00     0.240 C 
BRANCH  19  20
HETATM   20  C   UNL     1     -46.467 -51.547  13.796  1.00  0.00     0.403 C 
HETATM   21  F   UNL     1     -47.018 -51.290  12.589  1.00  0.00    -0.169 F 
HETATM   22  F   UNL     1     -47.271 -51.034  14.747  1.00  0.00    -0.169 F 
HETATM   23  F   UNL     1     -45.294 -50.867  13.848  1.00  0.00    -0.169 F 
ENDBRANCH  19  20
ENDBRANCH  17  19
ENDBRANCH  13  15
ENDBRANCH   1  13
TORSDOF 7
ENDMDL
