MODEL 1
REMARK VINA RESULT:      -5.8      0.000      0.000
REMARK  5 active torsions:
REMARK  status: ('A' for Active; 'I' for Inactive)
REMARK    1  A    between atoms: O_2  and  C_3 
REMARK    2  A    between atoms: C_3  and  C_4 
REMARK    3  A    between atoms: C_4  and  N_5 
REMARK       I    between atoms: N_5  and  C_6 
REMARK       I    between atoms: C_6  and  N_8 
REMARK    4  A    between atoms: N_8  and  C_9 
REMARK    5  A    between atoms: C_12  and  N_16 
ROOT
HETATM    1  C   UNL     1     -40.555 -49.710  11.259  1.00  0.00     0.051 A 
HETATM    2  C   UNL     1     -39.418 -49.324  11.944  1.00  0.00     0.035 A 
HETATM    3  C   UNL     1     -39.087 -47.973  12.053  1.00  0.00     0.051 A 
HETATM    4  C   UNL     1     -39.879 -46.989  11.473  1.00  0.00     0.103 A 
HETATM    5  N   UNL     1     -40.925 -47.372  10.699  1.00  0.00    -0.350 N 
ATOM      6  HN  UNL     1     -41.476 -46.675  10.198  1.00  0.00     0.166 HD
HETATM    7  C   UNL     1     -41.233 -48.697  10.599  1.00  0.00     0.119 A 
ENDROOT
BRANCH   1   8
HETATM    8  N   UNL     1     -41.031 -51.045  11.250  1.00  0.00    -0.308 N 
HETATM    9  C   UNL     1     -41.866 -51.551  12.225  1.00  0.00     0.320 C 
HETATM   10  N   UNL     1     -42.232 -52.859  11.989  1.00  0.00    -0.341 N 
HETATM   11  O   UNL     1     -42.301 -50.933  13.192  1.00  0.00    -0.247 OA
HETATM   12  H   UNL     1     -41.495 -53.452  11.633  1.00  0.00     0.164 HD
HETATM   13  H   UNL     1     -41.070 -51.525  10.363  1.00  0.00     0.170 HD
BRANCH  10  14
HETATM   14  C   UNL     1     -43.089 -53.480  12.992  1.00  0.00     0.150 C 
BRANCH  14  15
HETATM   15  C   UNL     1     -44.568 -53.428  12.637  1.00  0.00     0.186 C 
BRANCH  15  16
HETATM   16  O   UNL     1     -45.137 -54.728  12.821  1.00  0.00    -0.394 OA
HETATM   17  C   UNL     1     -45.738 -54.849  14.103  1.00  0.00     0.201 C 
ENDBRANCH  15  16
ENDBRANCH  14  15
ENDBRANCH  10  14
ENDBRANCH   1   8
BRANCH   4  18
HETATM   18  N   UNL     1     -39.645 -45.641  11.677  1.00  0.00    -0.367 N 
HETATM   19  C   UNL     1     -39.239 -45.057  12.955  1.00  0.00     0.124 C 
HETATM   20  C   UNL     1     -40.264 -44.018  13.403  1.00  0.00     0.020 C 
HETATM   21  C   UNL     1     -40.461 -42.956  12.328  1.00  0.00     0.003 C 
HETATM   22  C   UNL     1     -40.847 -43.605  11.000  1.00  0.00     0.020 C 
HETATM   23  C   UNL     1     -39.845 -44.689  10.582  1.00  0.00     0.124 C 
ENDBRANCH   4  18
TORSDOF 5
ENDMDL
MODEL 2
REMARK VINA RESULT:      -5.7      2.783      8.112
REMARK  5 active torsions:
REMARK  status: ('A' for Active; 'I' for Inactive)
REMARK    1  A    between atoms: O_2  and  C_3 
REMARK    2  A    between atoms: C_3  and  C_4 
REMARK    3  A    between atoms: C_4  and  N_5 
REMARK       I    between atoms: N_5  and  C_6 
REMARK       I    between atoms: C_6  and  N_8 
REMARK    4  A    between atoms: N_8  and  C_9 
REMARK    5  A    between atoms: C_12  and  N_16 
ROOT
HETATM    1  C   UNL     1     -41.264 -48.933  11.140  1.00  0.00     0.051 A 
HETATM    2  C   UNL     1     -40.281 -49.904  11.179  1.00  0.00     0.035 A 
HETATM    3  C   UNL     1     -40.554 -51.161  11.721  1.00  0.00     0.051 A 
HETATM    4  C   UNL     1     -41.807 -51.463  12.242  1.00  0.00     0.103 A 
HETATM    5  N   UNL     1     -42.733 -50.475  12.316  1.00  0.00    -0.350 N 
ATOM      6  HN  UNL     1     -43.633 -50.646  12.764  1.00  0.00     0.166 HD
HETATM    7  C   UNL     1     -42.450 -49.250  11.785  1.00  0.00     0.119 A 
ENDROOT
BRANCH   1   8
HETATM    8  N   UNL     1     -41.100 -47.700  10.460  1.00  0.00    -0.308 N 
HETATM    9  C   UNL     1     -40.480 -46.606  11.028  1.00  0.00     0.320 C 
HETATM   10  N   UNL     1     -40.399 -45.532  10.168  1.00  0.00    -0.341 N 
HETATM   11  O   UNL     1     -39.997 -46.557  12.155  1.00  0.00    -0.247 OA
HETATM   12  H   UNL     1     -41.221 -45.377   9.598  1.00  0.00     0.164 HD
HETATM   13  H   UNL     1     -41.099 -47.716   9.451  1.00  0.00     0.170 HD
BRANCH  10  14
HETATM   14  C   UNL     1     -39.788 -44.322  10.703  1.00  0.00     0.150 C 
BRANCH  14  15
HETATM   15  C   UNL     1     -40.804 -43.294  11.181  1.00  0.00     0.186 C 
BRANCH  15  16
HETATM   16  O   UNL     1     -42.081 -43.601  10.613  1.00  0.00    -0.394 OA
HETATM   17  C   UNL     1     -43.069 -42.671  11.037  1.00  0.00     0.201 C 
ENDBRANCH  15  16
ENDBRANCH  14  15
ENDBRANCH  10  14
ENDBRANCH   1   8
BRANCH   4  18
HETATM   18  N   UNL     1     -42.141 -52.737  12.664  1.00  0.00    -0.367 N 
HETATM   19  C   UNL     1     -43.509 -53.242  12.765  1.00  0.00     0.124 C 
HETATM   20  C   UNL     1     -43.801 -53.674  14.201  1.00  0.00     0.020 C 
HETATM   21  C   UNL     1     -42.779 -54.700  14.674  1.00  0.00     0.003 C 
HETATM   22  C   UNL     1     -41.361 -54.152  14.517  1.00  0.00     0.020 C 
HETATM   23  C   UNL     1     -41.091 -53.666  13.088  1.00  0.00     0.124 C 
ENDBRANCH   4  18
TORSDOF 5
ENDMDL
MODEL 3
REMARK VINA RESULT:      -5.5      2.608      8.293
REMARK  5 active torsions:
REMARK  status: ('A' for Active; 'I' for Inactive)
REMARK    1  A    between atoms: O_2  and  C_3 
REMARK    2  A    between atoms: C_3  and  C_4 
REMARK    3  A    between atoms: C_4  and  N_5 
REMARK       I    between atoms: N_5  and  C_6 
REMARK       I    between atoms: C_6  and  N_8 
REMARK    4  A    between atoms: N_8  and  C_9 
REMARK    5  A    between atoms: C_12  and  N_16 
ROOT
HETATM    1  C   UNL     1     -40.991 -49.263  12.006  1.00  0.00     0.051 A 
HETATM    2  C   UNL     1     -42.179 -49.352  12.706  1.00  0.00     0.035 A 
HETATM    3  C   UNL     1     -42.798 -50.589  12.886  1.00  0.00     0.051 A 
HETATM    4  C   UNL     1     -42.248 -51.753  12.361  1.00  0.00     0.103 A 
HETATM    5  N   UNL     1     -41.150 -51.651  11.572  1.00  0.00    -0.350 N 
ATOM      6  HN  UNL     1     -40.771 -52.478  11.110  1.00  0.00     0.166 HD
HETATM    7  C   UNL     1     -40.558 -50.434  11.402  1.00  0.00     0.119 A 
ENDROOT
BRANCH   1   8
HETATM    8  N   UNL     1     -40.232 -48.068  11.927  1.00  0.00    -0.308 N 
HETATM    9  C   UNL     1     -40.576 -47.013  11.107  1.00  0.00     0.320 C 
HETATM   10  N   UNL     1     -39.716 -45.942  11.225  1.00  0.00    -0.341 N 
HETATM   11  O   UNL     1     -41.555 -46.964  10.367  1.00  0.00    -0.247 OA
HETATM   12  H   UNL     1     -38.738 -46.186  11.310  1.00  0.00     0.164 HD
HETATM   13  H   UNL     1     -39.656 -47.824  12.719  1.00  0.00     0.170 HD
BRANCH  10  14
HETATM   14  C   UNL     1     -39.990 -44.797  10.366  1.00  0.00     0.150 C 
BRANCH  14  15
HETATM   15  C   UNL     1     -40.494 -43.579  11.127  1.00  0.00     0.186 C 
BRANCH  15  16
HETATM   16  O   UNL     1     -41.733 -43.151  10.552  1.00  0.00    -0.394 OA
HETATM   17  C   UNL     1     -42.784 -43.191  11.508  1.00  0.00     0.201 C 
ENDBRANCH  15  16
ENDBRANCH  14  15
ENDBRANCH  10  14
ENDBRANCH   1   8
BRANCH   4  18
HETATM   18  N   UNL     1     -42.772 -53.003  12.637  1.00  0.00    -0.367 N 
HETATM   19  C   UNL     1     -44.173 -53.374  12.442  1.00  0.00     0.124 C 
HETATM   20  C   UNL     1     -44.780 -53.831  13.767  1.00  0.00     0.020 C 
HETATM   21  C   UNL     1     -43.967 -54.971  14.369  1.00  0.00     0.003 C 
HETATM   22  C   UNL     1     -42.503 -54.560  14.521  1.00  0.00     0.020 C 
HETATM   23  C   UNL     1     -41.914 -54.048  13.201  1.00  0.00     0.124 C 
ENDBRANCH   4  18
TORSDOF 5
ENDMDL
MODEL 4
REMARK VINA RESULT:      -5.5      3.544      8.246
REMARK  5 active torsions:
REMARK  status: ('A' for Active; 'I' for Inactive)
REMARK    1  A    between atoms: O_2  and  C_3 
REMARK    2  A    between atoms: C_3  and  C_4 
REMARK    3  A    between atoms: C_4  and  N_5 
REMARK       I    between atoms: N_5  and  C_6 
REMARK       I    between atoms: C_6  and  N_8 
REMARK    4  A    between atoms: N_8  and  C_9 
REMARK    5  A    between atoms: C_12  and  N_16 
ROOT
HETATM    1  C   UNL     1     -40.614 -51.832  12.302  1.00  0.00     0.051 A 
HETATM    2  C   UNL     1     -41.483 -52.901  12.414  1.00  0.00     0.035 A 
HETATM    3  C   UNL     1     -41.445 -53.723  13.540  1.00  0.00     0.051 A 
HETATM    4  C   UNL     1     -40.533 -53.500  14.565  1.00  0.00     0.103 A 
HETATM    5  N   UNL     1     -39.601 -52.528  14.402  1.00  0.00    -0.350 N 
ATOM      6  HN  UNL     1     -38.871 -52.393  15.101  1.00  0.00     0.166 HD
HETATM    7  C   UNL     1     -39.648 -51.734  13.293  1.00  0.00     0.119 A 
ENDROOT
BRANCH   1   8
HETATM    8  N   UNL     1     -40.709 -50.868  11.267  1.00  0.00    -0.308 N 
HETATM    9  C   UNL     1     -41.332 -49.648  11.433  1.00  0.00     0.320 C 
HETATM   10  N   UNL     1     -41.268 -48.858  10.305  1.00  0.00    -0.341 N 
HETATM   11  O   UNL     1     -41.863 -49.244  12.464  1.00  0.00    -0.247 OA
HETATM   12  H   UNL     1     -41.397 -49.349   9.430  1.00  0.00     0.164 HD
HETATM   13  H   UNL     1     -40.020 -50.899  10.530  1.00  0.00     0.170 HD
BRANCH  10  14
HETATM   14  C   UNL     1     -41.934 -47.564  10.385  1.00  0.00     0.150 C 
BRANCH  14  15
HETATM   15  C   UNL     1     -43.358 -47.584   9.847  1.00  0.00     0.186 C 
BRANCH  15  16
HETATM   16  O   UNL     1     -43.373 -46.987   8.547  1.00  0.00    -0.394 OA
HETATM   17  C   UNL     1     -43.421 -47.977   7.527  1.00  0.00     0.201 C 
ENDBRANCH  15  16
ENDBRANCH  14  15
ENDBRANCH  10  14
ENDBRANCH   1   8
BRANCH   4  18
HETATM   18  N   UNL     1     -40.562 -54.218  15.746  1.00  0.00    -0.367 N 
HETATM   19  C   UNL     1     -39.375 -54.708  16.446  1.00  0.00     0.124 C 
HETATM   20  C   UNL     1     -39.439 -56.228  16.581  1.00  0.00     0.020 C 
HETATM   21  C   UNL     1     -40.726 -56.654  17.276  1.00  0.00     0.003 C 
HETATM   22  C   UNL     1     -41.942 -56.093  16.540  1.00  0.00     0.020 C 
HETATM   23  C   UNL     1     -41.846 -54.573  16.356  1.00  0.00     0.124 C 
ENDBRANCH   4  18
TORSDOF 5
ENDMDL
MODEL 5
REMARK VINA RESULT:      -5.4      2.006      2.659
REMARK  5 active torsions:
REMARK  status: ('A' for Active; 'I' for Inactive)
REMARK    1  A    between atoms: O_2  and  C_3 
REMARK    2  A    between atoms: C_3  and  C_4 
REMARK    3  A    between atoms: C_4  and  N_5 
REMARK       I    between atoms: N_5  and  C_6 
REMARK       I    between atoms: C_6  and  N_8 
REMARK    4  A    between atoms: N_8  and  C_9 
REMARK    5  A    between atoms: C_12  and  N_16 
ROOT
HETATM    1  C   UNL     1     -40.673 -49.073  10.916  1.00  0.00     0.051 A 
HETATM    2  C   UNL     1     -39.718 -48.341  11.595  1.00  0.00     0.035 A 
HETATM    3  C   UNL     1     -39.838 -46.955  11.702  1.00  0.00     0.051 A 
HETATM    4  C   UNL     1     -40.906 -46.279  11.124  1.00  0.00     0.103 A 
HETATM    5  N   UNL     1     -41.776 -46.979  10.355  1.00  0.00    -0.350 N 
ATOM      6  HN  UNL     1     -42.524 -46.497   9.855  1.00  0.00     0.166 HD
HETATM    7  C   UNL     1     -41.643 -48.333  10.257  1.00  0.00     0.119 A 
ENDROOT
BRANCH   1   8
HETATM    8  N   UNL     1     -40.695 -50.491  10.910  1.00  0.00    -0.308 N 
HETATM    9  C   UNL     1     -41.111 -51.239  11.991  1.00  0.00     0.320 C 
HETATM   10  N   UNL     1     -41.086 -52.595  11.744  1.00  0.00    -0.341 N 
HETATM   11  O   UNL     1     -41.511 -50.795  13.064  1.00  0.00    -0.247 OA
HETATM   12  H   UNL     1     -40.288 -52.919  11.214  1.00  0.00     0.164 HD
HETATM   13  H   UNL     1     -40.762 -50.956  10.017  1.00  0.00     0.170 HD
BRANCH  10  14
HETATM   14  C   UNL     1     -41.479 -53.460  12.850  1.00  0.00     0.150 C 
BRANCH  14  15
HETATM   15  C   UNL     1     -40.333 -54.302  13.393  1.00  0.00     0.186 C 
BRANCH  15  16
HETATM   16  O   UNL     1     -39.182 -53.468  13.565  1.00  0.00    -0.394 OA
HETATM   17  C   UNL     1     -39.178 -52.854  14.846  1.00  0.00     0.201 C 
ENDBRANCH  15  16
ENDBRANCH  14  15
ENDBRANCH  10  14
ENDBRANCH   1   8
BRANCH   4  18
HETATM   18  N   UNL     1     -41.117 -44.927  11.326  1.00  0.00    -0.367 N 
HETATM   19  C   UNL     1     -40.059 -43.917  11.335  1.00  0.00     0.124 C 
HETATM   20  C   UNL     1     -40.044 -43.188  12.676  1.00  0.00     0.020 C 
HETATM   21  C   UNL     1     -41.410 -42.584  12.977  1.00  0.00     0.003 C 
HETATM   22  C   UNL     1     -42.494 -43.661  12.922  1.00  0.00     0.020 C 
HETATM   23  C   UNL     1     -42.468 -44.429  11.595  1.00  0.00     0.124 C 
ENDBRANCH   4  18
TORSDOF 5
ENDMDL
MODEL 6
REMARK VINA RESULT:      -5.3      3.654      7.396
REMARK  5 active torsions:
REMARK  status: ('A' for Active; 'I' for Inactive)
REMARK    1  A    between atoms: O_2  and  C_3 
REMARK    2  A    between atoms: C_3  and  C_4 
REMARK    3  A    between atoms: C_4  and  N_5 
REMARK       I    between atoms: N_5  and  C_6 
REMARK       I    between atoms: C_6  and  N_8 
REMARK    4  A    between atoms: N_8  and  C_9 
REMARK    5  A    between atoms: C_12  and  N_16 
ROOT
HETATM    1  C   UNL     1     -40.464 -50.591  11.681  1.00  0.00     0.051 A 
HETATM    2  C   UNL     1     -41.155 -51.786  11.751  1.00  0.00     0.035 A 
HETATM    3  C   UNL     1     -40.968 -52.645  12.834  1.00  0.00     0.051 A 
HETATM    4  C   UNL     1     -40.081 -52.331  13.857  1.00  0.00     0.103 A 
HETATM    5  N   UNL     1     -39.313 -51.220  13.730  1.00  0.00    -0.350 N 
ATOM      6  HN  UNL     1     -38.599 -51.006  14.426  1.00  0.00     0.166 HD
HETATM    7  C   UNL     1     -39.505 -50.392  12.663  1.00  0.00     0.119 A 
ENDROOT
BRANCH   1   8
HETATM    8  N   UNL     1     -40.728 -49.606  10.697  1.00  0.00    -0.308 N 
HETATM    9  C   UNL     1     -41.686 -48.626  10.854  1.00  0.00     0.320 C 
HETATM   10  N   UNL     1     -41.740 -47.755   9.787  1.00  0.00    -0.341 N 
HETATM   11  O   UNL     1     -42.409 -48.475  11.835  1.00  0.00    -0.247 OA
HETATM   12  H   UNL     1     -41.637 -48.185   8.877  1.00  0.00     0.164 HD
HETATM   13  H   UNL     1     -39.990 -49.382  10.046  1.00  0.00     0.170 HD
BRANCH  10  14
HETATM   14  C   UNL     1     -42.752 -46.708   9.858  1.00  0.00     0.150 C 
BRANCH  14  15
HETATM   15  C   UNL     1     -43.531 -46.534   8.562  1.00  0.00     0.186 C 
BRANCH  15  16
HETATM   16  O   UNL     1     -44.465 -47.610   8.431  1.00  0.00    -0.394 OA
HETATM   17  C   UNL     1     -45.463 -47.551   9.441  1.00  0.00     0.201 C 
ENDBRANCH  15  16
ENDBRANCH  14  15
ENDBRANCH  10  14
ENDBRANCH   1   8
BRANCH   4  18
HETATM   18  N   UNL     1     -39.975 -53.100  15.002  1.00  0.00    -0.367 N 
HETATM   19  C   UNL     1     -39.808 -52.557  16.349  1.00  0.00     0.124 C 
HETATM   20  C   UNL     1     -38.517 -53.088  16.969  1.00  0.00     0.020 C 
HETATM   21  C   UNL     1     -38.501 -54.612  16.962  1.00  0.00     0.003 C 
HETATM   22  C   UNL     1     -38.716 -55.141  15.545  1.00  0.00     0.020 C 
HETATM   23  C   UNL     1     -39.983 -54.562  14.905  1.00  0.00     0.124 C 
ENDBRANCH   4  18
TORSDOF 5
ENDMDL
MODEL 7
REMARK VINA RESULT:      -5.3      2.172      3.224
REMARK  5 active torsions:
REMARK  status: ('A' for Active; 'I' for Inactive)
REMARK    1  A    between atoms: O_2  and  C_3 
REMARK    2  A    between atoms: C_3  and  C_4 
REMARK    3  A    between atoms: C_4  and  N_5 
REMARK       I    between atoms: N_5  and  C_6 
REMARK       I    between atoms: C_6  and  N_8 
REMARK    4  A    between atoms: N_8  and  C_9 
REMARK    5  A    between atoms: C_12  and  N_16 
ROOT
HETATM    1  C   UNL     1     -41.432 -47.475  10.689  1.00  0.00     0.051 A 
HETATM    2  C   UNL     1     -40.440 -46.542  10.930  1.00  0.00     0.035 A 
HETATM    3  C   UNL     1     -40.775 -45.229  11.263  1.00  0.00     0.051 A 
HETATM    4  C   UNL     1     -42.102 -44.825  11.351  1.00  0.00     0.103 A 
HETATM    5  N   UNL     1     -43.071 -45.704  10.997  1.00  0.00    -0.350 N 
ATOM      6  HN  UNL     1     -44.049 -45.412  10.976  1.00  0.00     0.166 HD
HETATM    7  C   UNL     1     -42.728 -46.983  10.669  1.00  0.00     0.119 A 
ENDROOT
BRANCH   1   8
HETATM    8  N   UNL     1     -41.162 -48.854  10.507  1.00  0.00    -0.308 N 
HETATM    9  C   UNL     1     -41.105 -49.752  11.553  1.00  0.00     0.320 C 
HETATM   10  N   UNL     1     -40.869 -51.045  11.135  1.00  0.00    -0.341 N 
HETATM   11  O   UNL     1     -41.280 -49.490  12.739  1.00  0.00    -0.247 OA
HETATM   12  H   UNL     1     -40.197 -51.136  10.385  1.00  0.00     0.164 HD
HETATM   13  H   UNL     1     -41.372 -49.259   9.607  1.00  0.00     0.170 HD
BRANCH  10  14
HETATM   14  C   UNL     1     -40.759 -52.052  12.183  1.00  0.00     0.150 C 
BRANCH  14  15
HETATM   15  C   UNL     1     -42.056 -52.810  12.429  1.00  0.00     0.186 C 
BRANCH  15  16
HETATM   16  O   UNL     1     -41.805 -53.876  13.350  1.00  0.00    -0.394 OA
HETATM   17  C   UNL     1     -40.421 -54.191  13.407  1.00  0.00     0.201 C 
ENDBRANCH  15  16
ENDBRANCH  14  15
ENDBRANCH  10  14
ENDBRANCH   1   8
BRANCH   4  18
HETATM   18  N   UNL     1     -42.459 -43.569  11.806  1.00  0.00    -0.367 N 
HETATM   19  C   UNL     1     -43.036 -42.519  10.966  1.00  0.00     0.124 C 
HETATM   20  C   UNL     1     -42.146 -41.279  10.997  1.00  0.00     0.020 C 
HETATM   21  C   UNL     1     -41.927 -40.807  12.429  1.00  0.00     0.003 C 
HETATM   22  C   UNL     1     -41.360 -41.940  13.284  1.00  0.00     0.020 C 
HETATM   23  C   UNL     1     -42.226 -43.202  13.205  1.00  0.00     0.124 C 
ENDBRANCH   4  18
TORSDOF 5
ENDMDL
MODEL 8
REMARK VINA RESULT:      -5.2      4.135      6.297
REMARK  5 active torsions:
REMARK  status: ('A' for Active; 'I' for Inactive)
REMARK    1  A    between atoms: O_2  and  C_3 
REMARK    2  A    between atoms: C_3  and  C_4 
REMARK    3  A    between atoms: C_4  and  N_5 
REMARK       I    between atoms: N_5  and  C_6 
REMARK       I    between atoms: C_6  and  N_8 
REMARK    4  A    between atoms: N_8  and  C_9 
REMARK    5  A    between atoms: C_12  and  N_16 
ROOT
HETATM    1  C   UNL     1     -39.477 -50.143  11.915  1.00  0.00     0.051 A 
HETATM    2  C   UNL     1     -39.930 -51.115  12.787  1.00  0.00     0.035 A 
HETATM    3  C   UNL     1     -39.270 -51.339  13.996  1.00  0.00     0.051 A 
HETATM    4  C   UNL     1     -38.144 -50.605  14.347  1.00  0.00     0.103 A 
HETATM    5  N   UNL     1     -37.627 -49.738  13.442  1.00  0.00    -0.350 N 
ATOM      6  HN  UNL     1     -36.757 -49.244  13.641  1.00  0.00     0.166 HD
HETATM    7  C   UNL     1     -38.281 -49.533  12.262  1.00  0.00     0.119 A 
ENDROOT
BRANCH   1   8
HETATM    8  N   UNL     1     -40.192 -49.758  10.753  1.00  0.00    -0.308 N 
HETATM    9  C   UNL     1     -41.224 -48.842  10.777  1.00  0.00     0.320 C 
HETATM   10  N   UNL     1     -41.745 -48.592   9.525  1.00  0.00    -0.341 N 
HETATM   11  O   UNL     1     -41.643 -48.253  11.770  1.00  0.00    -0.247 OA
HETATM   12  H   UNL     1     -41.836 -49.404   8.929  1.00  0.00     0.164 HD
HETATM   13  H   UNL     1     -39.731 -49.859   9.862  1.00  0.00     0.170 HD
BRANCH  10  14
HETATM   14  C   UNL     1     -42.865 -47.660   9.467  1.00  0.00     0.150 C 
BRANCH  14  15
HETATM   15  C   UNL     1     -43.536 -47.609   8.102  1.00  0.00     0.186 C 
BRANCH  15  16
HETATM   16  O   UNL     1     -44.941 -47.828   8.264  1.00  0.00    -0.394 OA
HETATM   17  C   UNL     1     -45.358 -47.528   9.589  1.00  0.00     0.201 C 
ENDBRANCH  15  16
ENDBRANCH  14  15
ENDBRANCH  10  14
ENDBRANCH   1   8
BRANCH   4  18
HETATM   18  N   UNL     1     -37.552 -50.717  15.592  1.00  0.00    -0.367 N 
HETATM   19  C   UNL     1     -38.065 -51.550  16.680  1.00  0.00     0.124 C 
HETATM   20  C   UNL     1     -38.359 -50.686  17.904  1.00  0.00     0.020 C 
HETATM   21  C   UNL     1     -37.121 -49.902  18.322  1.00  0.00     0.003 C 
HETATM   22  C   UNL     1     -36.592 -49.075  17.151  1.00  0.00     0.020 C 
HETATM   23  C   UNL     1     -36.352 -49.937  15.906  1.00  0.00     0.124 C 
ENDBRANCH   4  18
TORSDOF 5
ENDMDL
MODEL 9
REMARK VINA RESULT:      -5.0      4.290      8.603
REMARK  5 active torsions:
REMARK  status: ('A' for Active; 'I' for Inactive)
REMARK    1  A    between atoms: O_2  and  C_3 
REMARK    2  A    between atoms: C_3  and  C_4 
REMARK    3  A    between atoms: C_4  and  N_5 
REMARK       I    between atoms: N_5  and  C_6 
REMARK       I    between atoms: C_6  and  N_8 
REMARK    4  A    between atoms: N_8  and  C_9 
REMARK    5  A    between atoms: C_12  and  N_16 
ROOT
HETATM    1  C   UNL     1     -44.507 -51.130  13.623  1.00  0.00     0.051 A 
HETATM    2  C   UNL     1     -45.875 -51.233  13.455  1.00  0.00     0.035 A 
HETATM    3  C   UNL     1     -46.702 -51.476  14.553  1.00  0.00     0.051 A 
HETATM    4  C   UNL     1     -46.176 -51.629  15.830  1.00  0.00     0.103 A 
HETATM    5  N   UNL     1     -44.828 -51.649  15.977  1.00  0.00    -0.350 N 
ATOM      6  HN  UNL     1     -44.413 -51.838  16.890  1.00  0.00     0.166 HD
HETATM    7  C   UNL     1     -44.032 -51.415  14.894  1.00  0.00     0.119 A 
ENDROOT
BRANCH   1   8
HETATM    8  N   UNL     1     -43.633 -50.726  12.582  1.00  0.00    -0.308 N 
HETATM    9  C   UNL     1     -43.013 -49.494  12.559  1.00  0.00     0.320 C 
HETATM   10  N   UNL     1     -42.178 -49.336  11.473  1.00  0.00    -0.341 N 
HETATM   11  O   UNL     1     -43.124 -48.615  13.409  1.00  0.00    -0.247 OA
HETATM   12  H   UNL     1     -42.531 -49.713  10.603  1.00  0.00     0.164 HD
HETATM   13  H   UNL     1     -43.170 -51.448  12.050  1.00  0.00     0.170 HD
BRANCH  10  14
HETATM   14  C   UNL     1     -41.510 -48.046  11.355  1.00  0.00     0.150 C 
BRANCH  14  15
HETATM   15  C   UNL     1     -41.975 -47.234  10.154  1.00  0.00     0.186 C 
BRANCH  15  16
HETATM   16  O   UNL     1     -43.060 -47.918   9.521  1.00  0.00    -0.394 OA
HETATM   17  C   UNL     1     -43.744 -47.067   8.611  1.00  0.00     0.201 C 
ENDBRANCH  15  16
ENDBRANCH  14  15
ENDBRANCH  10  14
ENDBRANCH   1   8
BRANCH   4  18
HETATM   18  N   UNL     1     -46.981 -51.739  16.949  1.00  0.00    -0.367 N 
HETATM   19  C   UNL     1     -48.231 -51.005  17.143  1.00  0.00     0.124 C 
HETATM   20  C   UNL     1     -48.146 -50.154  18.408  1.00  0.00     0.020 C 
HETATM   21  C   UNL     1     -47.798 -51.015  19.616  1.00  0.00     0.003 C 
HETATM   22  C   UNL     1     -46.508 -51.795  19.362  1.00  0.00     0.020 C 
HETATM   23  C   UNL     1     -46.577 -52.603  18.061  1.00  0.00     0.124 C 
ENDBRANCH   4  18
TORSDOF 5
ENDMDL
