MODEL 1
REMARK VINA RESULT:      -6.4      0.000      0.000
REMARK  6 active torsions:
REMARK  status: ('A' for Active; 'I' for Inactive)
REMARK    1  A    between atoms: O_2  and  C_3 
REMARK    2  A    between atoms: C_6  and  O_7 
REMARK    3  A    between atoms: C_9  and  C_11 
REMARK    4  A    between atoms: C_11  and  O_12 
REMARK    5  A    between atoms: C_11  and  C_13 
REMARK    6  A    between atoms: C_13  and  N_14 
ROOT
HETATM    1  C   UNL     1     -41.182 -53.297  12.796  1.00  0.00     0.172 C 
ENDROOT
BRANCH   1   2
HETATM    2  C   UNL     1     -42.599 -53.698  13.183  1.00  0.00     0.008 A 
HETATM    3  C   UNL     1     -42.862 -54.531  14.287  1.00  0.00     0.077 A 
HETATM    4  C   UNL     1     -44.182 -54.861  14.608  1.00  0.00     0.040 A 
HETATM    5  C   UNL     1     -45.248 -54.345  13.864  1.00  0.00     0.039 A 
HETATM    6  C   UNL     1     -45.005 -53.495  12.787  1.00  0.00     0.069 A 
HETATM    7  C   UNL     1     -43.685 -53.187  12.445  1.00  0.00     0.049 A 
BRANCH   3   8
HETATM    8  O   UNL     1     -41.767 -54.943  14.998  1.00  0.00    -0.355 OA
HETATM    9  C   UNL     1     -41.985 -55.641  16.217  1.00  0.00     0.210 C 
ENDBRANCH   3   8
BRANCH   6  10
HETATM   10  O   UNL     1     -45.962 -52.908  12.004  1.00  0.00    -0.356 OA
HETATM   11  C   UNL     1     -46.560 -51.718  12.506  1.00  0.00     0.210 C 
ENDBRANCH   6  10
ENDBRANCH   1   2
BRANCH   1  12
HETATM   12  O   UNL     1     -40.525 -54.449  12.263  1.00  0.00    -0.389 OA
HETATM   13  H   UNL     1     -41.139 -55.195  12.399  1.00  0.00     0.210 HD
ENDBRANCH   1  12
BRANCH   1  14
HETATM   14  C   UNL     1     -41.128 -52.103  11.810  1.00  0.00     0.170 C 
BRANCH  14  15
HETATM   15  N   UNL     1     -40.564 -50.901  12.382  1.00  0.00    -0.295 N 
HETATM   16  C   UNL     1     -39.192 -50.716  12.672  1.00  0.00     0.329 A 
HETATM   17  O   UNL     1     -38.290 -51.521  12.493  1.00  0.00    -0.246 OA
HETATM   18  N   UNL     1     -39.070 -49.401  13.175  1.00  0.00    -0.302 N 
HETATM   19  C   UNL     1     -37.844 -48.761  13.554  1.00  0.00     0.161 C 
HETATM   20  C   UNL     1     -40.339 -48.808  13.210  1.00  0.00     0.065 A 
HETATM   21  C   UNL     1     -40.719 -47.544  13.614  1.00  0.00     0.032 A 
HETATM   22  C   UNL     1     -41.264 -49.739  12.728  1.00  0.00     0.066 A 
HETATM   23  C   UNL     1     -42.078 -47.229  13.526  1.00  0.00     0.002 A 
HETATM   24  C   UNL     1     -43.013 -48.169  13.044  1.00  0.00     0.002 A 
HETATM   25  C   UNL     1     -42.607 -49.444  12.634  1.00  0.00     0.032 A 
ENDBRANCH  14  15
ENDBRANCH   1  14
TORSDOF 6
ENDMDL
MODEL 2
REMARK VINA RESULT:      -6.1      1.151      2.458
REMARK  6 active torsions:
REMARK  status: ('A' for Active; 'I' for Inactive)
REMARK    1  A    between atoms: O_2  and  C_3 
REMARK    2  A    between atoms: C_6  and  O_7 
REMARK    3  A    between atoms: C_9  and  C_11 
REMARK    4  A    between atoms: C_11  and  O_12 
REMARK    5  A    between atoms: C_11  and  C_13 
REMARK    6  A    between atoms: C_13  and  N_14 
ROOT
HETATM    1  C   UNL     1     -41.206 -53.113  12.755  1.00  0.00     0.172 C 
ENDROOT
BRANCH   1   2
HETATM    2  C   UNL     1     -42.577 -53.625  13.176  1.00  0.00     0.008 A 
HETATM    3  C   UNL     1     -42.741 -54.514  14.257  1.00  0.00     0.077 A 
HETATM    4  C   UNL     1     -44.022 -54.946  14.611  1.00  0.00     0.040 A 
HETATM    5  C   UNL     1     -45.148 -54.480  13.925  1.00  0.00     0.039 A 
HETATM    6  C   UNL     1     -45.005 -53.577  12.874  1.00  0.00     0.069 A 
HETATM    7  C   UNL     1     -43.723 -53.166  12.498  1.00  0.00     0.049 A 
BRANCH   3   8
HETATM    8  O   UNL     1     -41.594 -54.874  14.912  1.00  0.00    -0.355 OA
HETATM    9  C   UNL     1     -41.501 -54.588  16.301  1.00  0.00     0.210 C 
ENDBRANCH   3   8
BRANCH   6  10
HETATM   10  O   UNL     1     -46.028 -53.029  12.148  1.00  0.00    -0.356 OA
HETATM   11  C   UNL     1     -46.490 -51.746  12.556  1.00  0.00     0.210 C 
ENDBRANCH   6  10
ENDBRANCH   1   2
BRANCH   1  12
HETATM   12  O   UNL     1     -40.492 -54.197  12.157  1.00  0.00    -0.389 OA
HETATM   13  H   UNL     1     -40.410 -53.975  11.210  1.00  0.00     0.210 HD
ENDBRANCH   1  12
BRANCH   1  14
HETATM   14  C   UNL     1     -41.272 -51.885  11.814  1.00  0.00     0.170 C 
BRANCH  14  15
HETATM   15  N   UNL     1     -41.005 -50.628  12.477  1.00  0.00    -0.295 N 
HETATM   16  C   UNL     1     -41.991 -49.664  12.799  1.00  0.00     0.329 A 
HETATM   17  O   UNL     1     -43.189 -49.738  12.571  1.00  0.00    -0.246 OA
HETATM   18  N   UNL     1     -41.315 -48.620  13.469  1.00  0.00    -0.302 N 
HETATM   19  C   UNL     1     -41.927 -47.449  14.024  1.00  0.00     0.161 C 
HETATM   20  C   UNL     1     -39.950 -48.930  13.535  1.00  0.00     0.065 A 
HETATM   21  C   UNL     1     -38.904 -48.225  14.094  1.00  0.00     0.032 A 
HETATM   22  C   UNL     1     -39.758 -50.168  12.914  1.00  0.00     0.066 A 
HETATM   23  C   UNL     1     -37.632 -48.799  14.012  1.00  0.00     0.002 A 
HETATM   24  C   UNL     1     -37.437 -50.045  13.382  1.00  0.00     0.002 A 
HETATM   25  C   UNL     1     -38.511 -50.748  12.825  1.00  0.00     0.032 A 
ENDBRANCH  14  15
ENDBRANCH   1  14
TORSDOF 6
ENDMDL
MODEL 3
REMARK VINA RESULT:      -6.0      2.402      5.313
REMARK  6 active torsions:
REMARK  status: ('A' for Active; 'I' for Inactive)
REMARK    1  A    between atoms: O_2  and  C_3 
REMARK    2  A    between atoms: C_6  and  O_7 
REMARK    3  A    between atoms: C_9  and  C_11 
REMARK    4  A    between atoms: C_11  and  O_12 
REMARK    5  A    between atoms: C_11  and  C_13 
REMARK    6  A    between atoms: C_13  and  N_14 
ROOT
HETATM    1  C   UNL     1     -41.367 -52.827  12.378  1.00  0.00     0.172 C 
ENDROOT
BRANCH   1   2
HETATM    2  C   UNL     1     -40.463 -51.943  13.226  1.00  0.00     0.008 A 
HETATM    3  C   UNL     1     -39.293 -52.439  13.834  1.00  0.00     0.077 A 
HETATM    4  C   UNL     1     -38.489 -51.584  14.593  1.00  0.00     0.040 A 
HETATM    5  C   UNL     1     -38.816 -50.231  14.729  1.00  0.00     0.039 A 
HETATM    6  C   UNL     1     -39.953 -49.718  14.109  1.00  0.00     0.069 A 
HETATM    7  C   UNL     1     -40.775 -50.577  13.374  1.00  0.00     0.049 A 
BRANCH   3   8
HETATM    8  O   UNL     1     -39.014 -53.758  13.601  1.00  0.00    -0.355 OA
HETATM    9  C   UNL     1     -38.933 -54.632  14.719  1.00  0.00     0.210 C 
ENDBRANCH   3   8
BRANCH   6  10
HETATM   10  O   UNL     1     -40.361 -48.412  14.145  1.00  0.00    -0.356 OA
HETATM   11  C   UNL     1     -41.050 -47.922  13.001  1.00  0.00     0.210 C 
ENDBRANCH   6  10
ENDBRANCH   1   2
BRANCH   1  12
HETATM   12  O   UNL     1     -40.557 -53.478  11.397  1.00  0.00    -0.389 OA
HETATM   13  H   UNL     1     -40.861 -53.144  10.532  1.00  0.00     0.210 HD
ENDBRANCH   1  12
BRANCH   1  14
HETATM   14  C   UNL     1     -42.186 -53.845  13.210  1.00  0.00     0.170 C 
BRANCH  14  15
HETATM   15  N   UNL     1     -43.091 -53.231  14.155  1.00  0.00    -0.295 N 
HETATM   16  C   UNL     1     -42.831 -53.083  15.538  1.00  0.00     0.329 A 
HETATM   17  O   UNL     1     -41.829 -53.444  16.137  1.00  0.00    -0.246 OA
HETATM   18  N   UNL     1     -43.946 -52.403  16.077  1.00  0.00    -0.302 N 
HETATM   19  C   UNL     1     -44.094 -51.992  17.443  1.00  0.00     0.161 C 
HETATM   20  C   UNL     1     -44.871 -52.161  15.052  1.00  0.00     0.065 A 
HETATM   21  C   UNL     1     -46.095 -51.527  15.092  1.00  0.00     0.032 A 
HETATM   22  C   UNL     1     -44.345 -52.681  13.866  1.00  0.00     0.066 A 
HETATM   23  C   UNL     1     -46.800 -51.427  13.888  1.00  0.00     0.002 A 
HETATM   24  C   UNL     1     -46.273 -51.955  12.692  1.00  0.00     0.002 A 
HETATM   25  C   UNL     1     -45.027 -52.591  12.671  1.00  0.00     0.032 A 
ENDBRANCH  14  15
ENDBRANCH   1  14
TORSDOF 6
ENDMDL
MODEL 4
REMARK VINA RESULT:      -5.9      2.645      3.427
REMARK  6 active torsions:
REMARK  status: ('A' for Active; 'I' for Inactive)
REMARK    1  A    between atoms: O_2  and  C_3 
REMARK    2  A    between atoms: C_6  and  O_7 
REMARK    3  A    between atoms: C_9  and  C_11 
REMARK    4  A    between atoms: C_11  and  O_12 
REMARK    5  A    between atoms: C_11  and  C_13 
REMARK    6  A    between atoms: C_13  and  N_14 
ROOT
HETATM    1  C   UNL     1     -40.901 -50.493  12.197  1.00  0.00     0.172 C 
ENDROOT
BRANCH   1   2
HETATM    2  C   UNL     1     -41.651 -51.778  12.522  1.00  0.00     0.008 A 
HETATM    3  C   UNL     1     -40.980 -52.960  12.890  1.00  0.00     0.077 A 
HETATM    4  C   UNL     1     -41.715 -54.110  13.190  1.00  0.00     0.040 A 
HETATM    5  C   UNL     1     -43.113 -54.092  13.161  1.00  0.00     0.039 A 
HETATM    6  C   UNL     1     -43.793 -52.922  12.828  1.00  0.00     0.069 A 
HETATM    7  C   UNL     1     -43.060 -51.778  12.499  1.00  0.00     0.049 A 
BRANCH   3   8
HETATM    8  O   UNL     1     -39.615 -52.876  12.952  1.00  0.00    -0.355 OA
HETATM    9  C   UNL     1     -38.994 -53.032  14.220  1.00  0.00     0.210 C 
ENDBRANCH   3   8
BRANCH   6  10
HETATM   10  O   UNL     1     -45.153 -52.773  12.794  1.00  0.00    -0.356 OA
HETATM   11  C   UNL     1     -45.677 -51.549  13.297  1.00  0.00     0.210 C 
ENDBRANCH   6  10
ENDBRANCH   1   2
BRANCH   1  12
HETATM   12  O   UNL     1     -40.757 -50.411  10.777  1.00  0.00    -0.389 OA
HETATM   13  H   UNL     1     -40.167 -51.147  10.524  1.00  0.00     0.210 HD
ENDBRANCH   1  12
BRANCH   1  14
HETATM   14  C   UNL     1     -41.576 -49.225  12.775  1.00  0.00     0.170 C 
BRANCH  14  15
HETATM   15  N   UNL     1     -41.490 -48.072  11.906  1.00  0.00    -0.295 N 
HETATM   16  C   UNL     1     -40.353 -47.238  11.788  1.00  0.00     0.329 A 
HETATM   17  O   UNL     1     -39.294 -47.353  12.388  1.00  0.00    -0.246 OA
HETATM   18  N   UNL     1     -40.677 -46.268  10.813  1.00  0.00    -0.302 N 
HETATM   19  C   UNL     1     -39.800 -45.241  10.332  1.00  0.00     0.161 C 
HETATM   20  C   UNL     1     -41.984 -46.494  10.363  1.00  0.00     0.065 A 
HETATM   21  C   UNL     1     -42.729 -45.818   9.419  1.00  0.00     0.032 A 
HETATM   22  C   UNL     1     -42.490 -47.604  11.046  1.00  0.00     0.066 A 
HETATM   23  C   UNL     1     -44.023 -46.287   9.172  1.00  0.00     0.002 A 
HETATM   24  C   UNL     1     -44.535 -47.404   9.863  1.00  0.00     0.002 A 
HETATM   25  C   UNL     1     -43.763 -48.080  10.814  1.00  0.00     0.032 A 
ENDBRANCH  14  15
ENDBRANCH   1  14
TORSDOF 6
ENDMDL
MODEL 5
REMARK VINA RESULT:      -5.9      2.615      5.938
REMARK  6 active torsions:
REMARK  status: ('A' for Active; 'I' for Inactive)
REMARK    1  A    between atoms: O_2  and  C_3 
REMARK    2  A    between atoms: C_6  and  O_7 
REMARK    3  A    between atoms: C_9  and  C_11 
REMARK    4  A    between atoms: C_11  and  O_12 
REMARK    5  A    between atoms: C_11  and  C_13 
REMARK    6  A    between atoms: C_13  and  N_14 
ROOT
HETATM    1  C   UNL     1     -41.384 -52.225  12.216  1.00  0.00     0.172 C 
ENDROOT
BRANCH   1   2
HETATM    2  C   UNL     1     -40.904 -50.789  12.053  1.00  0.00     0.008 A 
HETATM    3  C   UNL     1     -39.542 -50.443  12.149  1.00  0.00     0.077 A 
HETATM    4  C   UNL     1     -39.151 -49.112  11.980  1.00  0.00     0.040 A 
HETATM    5  C   UNL     1     -40.093 -48.123  11.684  1.00  0.00     0.039 A 
HETATM    6  C   UNL     1     -41.441 -48.454  11.555  1.00  0.00     0.069 A 
HETATM    7  C   UNL     1     -41.839 -49.779  11.753  1.00  0.00     0.049 A 
BRANCH   3   8
HETATM    8  O   UNL     1     -38.678 -51.479  12.381  1.00  0.00    -0.355 OA
HETATM    9  C   UNL     1     -37.419 -51.182  12.969  1.00  0.00     0.210 C 
ENDBRANCH   3   8
BRANCH   6  10
HETATM   10  O   UNL     1     -42.449 -47.583  11.241  1.00  0.00    -0.356 OA
HETATM   11  C   UNL     1     -42.154 -46.580  10.275  1.00  0.00     0.210 C 
ENDBRANCH   6  10
ENDBRANCH   1   2
BRANCH   1  12
HETATM   12  O   UNL     1     -40.567 -53.061  11.393  1.00  0.00    -0.389 OA
HETATM   13  H   UNL     1     -40.776 -52.817  10.471  1.00  0.00     0.210 HD
ENDBRANCH   1  12
BRANCH   1  14
HETATM   14  C   UNL     1     -41.392 -52.707  13.688  1.00  0.00     0.170 C 
BRANCH  14  15
HETATM   15  N   UNL     1     -42.643 -52.467  14.372  1.00  0.00    -0.295 N 
HETATM   16  C   UNL     1     -42.915 -51.335  15.177  1.00  0.00     0.329 A 
HETATM   17  O   UNL     1     -42.156 -50.409  15.419  1.00  0.00    -0.246 OA
HETATM   18  N   UNL     1     -44.251 -51.477  15.614  1.00  0.00    -0.302 N 
HETATM   19  C   UNL     1     -44.972 -50.533  16.419  1.00  0.00     0.161 C 
HETATM   20  C   UNL     1     -44.773 -52.673  15.105  1.00  0.00     0.065 A 
HETATM   21  C   UNL     1     -46.026 -53.231  15.253  1.00  0.00     0.032 A 
HETATM   22  C   UNL     1     -43.776 -53.289  14.344  1.00  0.00     0.066 A 
HETATM   23  C   UNL     1     -46.261 -54.450  14.611  1.00  0.00     0.002 A 
HETATM   24  C   UNL     1     -45.255 -55.074  13.846  1.00  0.00     0.002 A 
HETATM   25  C   UNL     1     -43.991 -54.491  13.703  1.00  0.00     0.032 A 
ENDBRANCH  14  15
ENDBRANCH   1  14
TORSDOF 6
ENDMDL
MODEL 6
REMARK VINA RESULT:      -5.9      3.072      7.041
REMARK  6 active torsions:
REMARK  status: ('A' for Active; 'I' for Inactive)
REMARK    1  A    between atoms: O_2  and  C_3 
REMARK    2  A    between atoms: C_6  and  O_7 
REMARK    3  A    between atoms: C_9  and  C_11 
REMARK    4  A    between atoms: C_11  and  O_12 
REMARK    5  A    between atoms: C_11  and  C_13 
REMARK    6  A    between atoms: C_13  and  N_14 
ROOT
HETATM    1  C   UNL     1     -41.374 -49.148  11.148  1.00  0.00     0.172 C 
ENDROOT
BRANCH   1   2
HETATM    2  C   UNL     1     -41.327 -47.636  10.977  1.00  0.00     0.008 A 
HETATM    3  C   UNL     1     -42.290 -46.941  10.220  1.00  0.00     0.077 A 
HETATM    4  C   UNL     1     -42.211 -45.551  10.104  1.00  0.00     0.040 A 
HETATM    5  C   UNL     1     -41.204 -44.836  10.759  1.00  0.00     0.039 A 
HETATM    6  C   UNL     1     -40.261 -45.505  11.537  1.00  0.00     0.069 A 
HETATM    7  C   UNL     1     -40.321 -46.898  11.631  1.00  0.00     0.049 A 
BRANCH   3   8
HETATM    8  O   UNL     1     -43.277 -47.709   9.662  1.00  0.00    -0.355 OA
HETATM    9  C   UNL     1     -43.565 -47.527   8.282  1.00  0.00     0.210 C 
ENDBRANCH   3   8
BRANCH   6  10
HETATM   10  O   UNL     1     -39.250 -44.915  12.246  1.00  0.00    -0.356 OA
HETATM   11  C   UNL     1     -39.531 -43.651  12.836  1.00  0.00     0.210 C 
ENDBRANCH   6  10
ENDBRANCH   1   2
BRANCH   1  12
HETATM   12  O   UNL     1     -40.289 -49.711  10.406  1.00  0.00    -0.389 OA
HETATM   13  H   UNL     1     -39.835 -50.323  11.016  1.00  0.00     0.210 HD
ENDBRANCH   1  12
BRANCH   1  14
HETATM   14  C   UNL     1     -41.346 -49.600  12.629  1.00  0.00     0.170 C 
BRANCH  14  15
HETATM   15  N   UNL     1     -41.699 -50.989  12.820  1.00  0.00    -0.295 N 
HETATM   16  C   UNL     1     -40.787 -52.069  12.740  1.00  0.00     0.329 A 
HETATM   17  O   UNL     1     -39.591 -52.001  12.499  1.00  0.00    -0.246 OA
HETATM   18  N   UNL     1     -41.532 -53.234  13.028  1.00  0.00    -0.302 N 
HETATM   19  C   UNL     1     -41.004 -54.565  13.109  1.00  0.00     0.161 C 
HETATM   20  C   UNL     1     -42.867 -52.876  13.259  1.00  0.00     0.065 A 
HETATM   21  C   UNL     1     -43.955 -53.661  13.580  1.00  0.00     0.032 A 
HETATM   22  C   UNL     1     -42.971 -51.489  13.122  1.00  0.00     0.066 A 
HETATM   23  C   UNL     1     -45.179 -53.010  13.761  1.00  0.00     0.002 A 
HETATM   24  C   UNL     1     -45.286 -51.611  13.618  1.00  0.00     0.002 A 
HETATM   25  C   UNL     1     -44.170 -50.831  13.297  1.00  0.00     0.032 A 
ENDBRANCH  14  15
ENDBRANCH   1  14
TORSDOF 6
ENDMDL
MODEL 7
REMARK VINA RESULT:      -5.8      2.012      2.754
REMARK  6 active torsions:
REMARK  status: ('A' for Active; 'I' for Inactive)
REMARK    1  A    between atoms: O_2  and  C_3 
REMARK    2  A    between atoms: C_6  and  O_7 
REMARK    3  A    between atoms: C_9  and  C_11 
REMARK    4  A    between atoms: C_11  and  O_12 
REMARK    5  A    between atoms: C_11  and  C_13 
REMARK    6  A    between atoms: C_13  and  N_14 
ROOT
HETATM    1  C   UNL     1     -41.411 -51.997  12.333  1.00  0.00     0.172 C 
ENDROOT
BRANCH   1   2
HETATM    2  C   UNL     1     -42.076 -53.086  13.164  1.00  0.00     0.008 A 
HETATM    3  C   UNL     1     -41.402 -53.737  14.215  1.00  0.00     0.077 A 
HETATM    4  C   UNL     1     -42.060 -54.722  14.957  1.00  0.00     0.040 A 
HETATM    5  C   UNL     1     -43.393 -55.047  14.686  1.00  0.00     0.039 A 
HETATM    6  C   UNL     1     -44.083 -54.392  13.669  1.00  0.00     0.069 A 
HETATM    7  C   UNL     1     -43.419 -53.426  12.907  1.00  0.00     0.049 A 
BRANCH   3   8
HETATM    8  O   UNL     1     -40.121 -53.317  14.453  1.00  0.00    -0.355 OA
HETATM    9  C   UNL     1     -39.062 -54.231  14.206  1.00  0.00     0.210 C 
ENDBRANCH   3   8
BRANCH   6  10
HETATM   10  O   UNL     1     -45.393 -54.601  13.331  1.00  0.00    -0.356 OA
HETATM   11  C   UNL     1     -46.331 -54.659  14.399  1.00  0.00     0.210 C 
ENDBRANCH   6  10
ENDBRANCH   1   2
BRANCH   1  12
HETATM   12  O   UNL     1     -41.292 -52.474  10.991  1.00  0.00    -0.389 OA
HETATM   13  H   UNL     1     -41.059 -51.696  10.448  1.00  0.00     0.210 HD
ENDBRANCH   1  12
BRANCH   1  14
HETATM   14  C   UNL     1     -42.156 -50.640  12.391  1.00  0.00     0.170 C 
BRANCH  14  15
HETATM   15  N   UNL     1     -41.276 -49.492  12.383  1.00  0.00    -0.295 N 
HETATM   16  C   UNL     1     -41.224 -48.527  11.349  1.00  0.00     0.329 A 
HETATM   17  O   UNL     1     -41.892 -48.512  10.327  1.00  0.00    -0.246 OA
HETATM   18  N   UNL     1     -40.270 -47.568  11.756  1.00  0.00    -0.302 N 
HETATM   19  C   UNL     1     -39.923 -46.376  11.037  1.00  0.00     0.161 C 
HETATM   20  C   UNL     1     -39.739 -47.950  12.995  1.00  0.00     0.065 A 
HETATM   21  C   UNL     1     -38.792 -47.332  13.786  1.00  0.00     0.032 A 
HETATM   22  C   UNL     1     -40.356 -49.144  13.378  1.00  0.00     0.066 A 
HETATM   23  C   UNL     1     -38.465 -47.956  14.994  1.00  0.00     0.002 A 
HETATM   24  C   UNL     1     -39.083 -49.163  15.379  1.00  0.00     0.002 A 
HETATM   25  C   UNL     1     -40.046 -49.772  14.566  1.00  0.00     0.032 A 
ENDBRANCH  14  15
ENDBRANCH   1  14
TORSDOF 6
ENDMDL
MODEL 8
REMARK VINA RESULT:      -5.8      2.575      6.215
REMARK  6 active torsions:
REMARK  status: ('A' for Active; 'I' for Inactive)
REMARK    1  A    between atoms: O_2  and  C_3 
REMARK    2  A    between atoms: C_6  and  O_7 
REMARK    3  A    between atoms: C_9  and  C_11 
REMARK    4  A    between atoms: C_11  and  O_12 
REMARK    5  A    between atoms: C_11  and  C_13 
REMARK    6  A    between atoms: C_13  and  N_14 
ROOT
HETATM    1  C   UNL     1     -41.430 -51.907  12.236  1.00  0.00     0.172 C 
ENDROOT
BRANCH   1   2
HETATM    2  C   UNL     1     -40.213 -51.036  12.511  1.00  0.00     0.008 A 
HETATM    3  C   UNL     1     -39.899 -49.919  11.712  1.00  0.00     0.077 A 
HETATM    4  C   UNL     1     -38.776 -49.144  12.014  1.00  0.00     0.040 A 
HETATM    5  C   UNL     1     -37.977 -49.445  13.121  1.00  0.00     0.039 A 
HETATM    6  C   UNL     1     -38.291 -50.528  13.939  1.00  0.00     0.069 A 
HETATM    7  C   UNL     1     -39.397 -51.323  13.623  1.00  0.00     0.049 A 
BRANCH   3   8
HETATM    8  O   UNL     1     -40.765 -49.659  10.685  1.00  0.00    -0.355 OA
HETATM    9  C   UNL     1     -41.511 -48.450  10.730  1.00  0.00     0.210 C 
ENDBRANCH   3   8
BRANCH   6  10
HETATM   10  O   UNL     1     -37.605 -50.904  15.062  1.00  0.00    -0.356 OA
HETATM   11  C   UNL     1     -36.668 -49.969  15.586  1.00  0.00     0.210 C 
ENDBRANCH   6  10
ENDBRANCH   1   2
BRANCH   1  12
HETATM   12  O   UNL     1     -41.207 -52.606  11.009  1.00  0.00    -0.389 OA
HETATM   13  H   UNL     1     -40.687 -52.001  10.446  1.00  0.00     0.210 HD
ENDBRANCH   1  12
BRANCH   1  14
HETATM   14  C   UNL     1     -41.764 -52.881  13.393  1.00  0.00     0.170 C 
BRANCH  14  15
HETATM   15  N   UNL     1     -42.756 -52.372  14.314  1.00  0.00    -0.295 N 
HETATM   16  C   UNL     1     -42.496 -52.016  15.659  1.00  0.00     0.329 A 
HETATM   17  O   UNL     1     -41.424 -52.084  16.241  1.00  0.00    -0.246 OA
HETATM   18  N   UNL     1     -43.718 -51.534  16.180  1.00  0.00    -0.302 N 
HETATM   19  C   UNL     1     -43.915 -51.013  17.502  1.00  0.00     0.161 C 
HETATM   20  C   UNL     1     -44.701 -51.613  15.185  1.00  0.00     0.065 A 
HETATM   21  C   UNL     1     -46.033 -51.256  15.220  1.00  0.00     0.032 A 
HETATM   22  C   UNL     1     -44.107 -52.139  14.034  1.00  0.00     0.066 A 
HETATM   23  C   UNL     1     -46.775 -51.446  14.050  1.00  0.00     0.002 A 
HETATM   24  C   UNL     1     -46.178 -51.981  12.890  1.00  0.00     0.002 A 
HETATM   25  C   UNL     1     -44.824 -52.333  12.872  1.00  0.00     0.032 A 
ENDBRANCH  14  15
ENDBRANCH   1  14
TORSDOF 6
ENDMDL
MODEL 9
REMARK VINA RESULT:      -5.7      2.743      6.222
REMARK  6 active torsions:
REMARK  status: ('A' for Active; 'I' for Inactive)
REMARK    1  A    between atoms: O_2  and  C_3 
REMARK    2  A    between atoms: C_6  and  O_7 
REMARK    3  A    between atoms: C_9  and  C_11 
REMARK    4  A    between atoms: C_11  and  O_12 
REMARK    5  A    between atoms: C_11  and  C_13 
REMARK    6  A    between atoms: C_13  and  N_14 
ROOT
HETATM    1  C   UNL     1     -41.829 -50.386  11.967  1.00  0.00     0.172 C 
ENDROOT
BRANCH   1   2
HETATM    2  C   UNL     1     -41.434 -48.976  11.548  1.00  0.00     0.008 A 
HETATM    3  C   UNL     1     -40.162 -48.442  11.833  1.00  0.00     0.077 A 
HETATM    4  C   UNL     1     -39.844 -47.147  11.416  1.00  0.00     0.040 A 
HETATM    5  C   UNL     1     -40.764 -46.384  10.690  1.00  0.00     0.039 A 
HETATM    6  C   UNL     1     -42.016 -46.909  10.374  1.00  0.00     0.069 A 
HETATM    7  C   UNL     1     -42.347 -48.193  10.815  1.00  0.00     0.049 A 
BRANCH   3   8
HETATM    8  O   UNL     1     -39.300 -49.275  12.494  1.00  0.00    -0.355 OA
HETATM    9  C   UNL     1     -38.617 -48.765  13.630  1.00  0.00     0.210 C 
ENDBRANCH   3   8
BRANCH   6  10
HETATM   10  O   UNL     1     -42.986 -46.274   9.648  1.00  0.00    -0.356 OA
HETATM   11  C   UNL     1     -43.918 -47.101   8.959  1.00  0.00     0.210 C 
ENDBRANCH   6  10
ENDBRANCH   1   2
BRANCH   1  12
HETATM   12  O   UNL     1     -40.818 -51.285  11.504  1.00  0.00    -0.389 OA
HETATM   13  H   UNL     1     -40.650 -51.903  12.241  1.00  0.00     0.210 HD
ENDBRANCH   1  12
BRANCH   1  14
HETATM   14  C   UNL     1     -42.066 -50.531  13.490  1.00  0.00     0.170 C 
BRANCH  14  15
HETATM   15  N   UNL     1     -42.754 -51.748  13.859  1.00  0.00    -0.295 N 
HETATM   16  C   UNL     1     -42.111 -52.959  14.211  1.00  0.00     0.329 A 
HETATM   17  O   UNL     1     -40.907 -53.164  14.255  1.00  0.00    -0.246 OA
HETATM   18  N   UNL     1     -43.141 -53.870  14.535  1.00  0.00    -0.302 N 
HETATM   19  C   UNL     1     -42.953 -55.214  14.998  1.00  0.00     0.161 C 
HETATM   20  C   UNL     1     -44.380 -53.237  14.365  1.00  0.00     0.065 A 
HETATM   21  C   UNL     1     -45.658 -53.716  14.564  1.00  0.00     0.032 A 
HETATM   22  C   UNL     1     -44.139 -51.928  13.938  1.00  0.00     0.066 A 
HETATM   23  C   UNL     1     -46.715 -52.835  14.315  1.00  0.00     0.002 A 
HETATM   24  C   UNL     1     -46.474 -51.516  13.881  1.00  0.00     0.002 A 
HETATM   25  C   UNL     1     -45.170 -51.046  13.689  1.00  0.00     0.032 A 
ENDBRANCH  14  15
ENDBRANCH   1  14
TORSDOF 6
ENDMDL
