MODEL 1
REMARK VINA RESULT:      -6.0      0.000      0.000
REMARK  6 active torsions:
REMARK  status: ('A' for Active; 'I' for Inactive)
REMARK    1  A    between atoms: O_2  and  C_3 
REMARK    2  A    between atoms: C_3  and  C_4 
REMARK    3  A    between atoms: C_4  and  N_5 
REMARK    4  A    between atoms: C_8  and  C_13 
REMARK       I    between atoms: C_13  and  N_15 
REMARK    5  A    between atoms: N_15  and  C_16 
REMARK    6  A    between atoms: C_16  and  C_18 
ROOT
HETATM    1  N   UNL     1     -42.268 -47.109  10.034  1.00  0.00    -0.255 N 
HETATM    2  N   UNL     1     -42.446 -48.418  10.481  1.00  0.00    -0.290 N 
ATOM      3  HN  UNL     1     -43.209 -49.001  10.138  1.00  0.00     0.187 HD
HETATM    4  C   UNL     1     -41.592 -48.858  11.357  1.00  0.00     0.116 A 
HETATM    5  C   UNL     1     -40.475 -48.071  11.919  1.00  0.00     0.042 A 
HETATM    6  C   UNL     1     -40.318 -46.829  11.466  1.00  0.00     0.078 A 
HETATM    7  C   UNL     1     -41.247 -46.267  10.469  1.00  0.00     0.262 A 
HETATM    8  O   UNL     1     -41.072 -45.113  10.089  1.00  0.00    -0.267 OA
ENDROOT
BRANCH   4   9
HETATM    9  C   UNL     1     -41.695 -50.290  11.883  1.00  0.00     0.270 C 
HETATM   10  O   UNL     1     -40.749 -51.049  11.717  1.00  0.00    -0.266 OA
HETATM   11  N   UNL     1     -42.858 -50.619  12.536  1.00  0.00    -0.349 N 
HETATM   12  H   UNL     1     -43.622 -49.949  12.546  1.00  0.00     0.163 HD
BRANCH  11  13
HETATM   13  C   UNL     1     -43.060 -51.939  13.133  1.00  0.00     0.109 C 
HETATM   14  C   UNL     1     -42.443 -51.969  14.531  1.00  0.00     0.035 C 
BRANCH  13  15
HETATM   15  C   UNL     1     -44.544 -52.347  13.174  1.00  0.00     0.143 C 
HETATM   16  C   UNL     1     -45.536 -51.189  13.203  1.00  0.00     0.036 C 
HETATM   17  C   UNL     1     -46.657 -51.673  14.101  1.00  0.00     0.029 C 
HETATM   18  C   UNL     1     -46.265 -53.085  14.481  1.00  0.00     0.168 C 
HETATM   19  O   UNL     1     -44.844 -53.141  14.334  1.00  0.00    -0.384 OA
ENDBRANCH  13  15
ENDBRANCH  11  13
ENDBRANCH   4   9
BRANCH   1  20
HETATM   20  C   UNL     1     -43.265 -46.583   9.104  1.00  0.00     0.178 C 
BRANCH  20  21
HETATM   21  C   UNL     1     -43.716 -47.597   8.049  1.00  0.00     0.189 C 
BRANCH  21  22
HETATM   22  O   UNL     1     -45.018 -48.090   8.388  1.00  0.00    -0.394 OA
HETATM   23  C   UNL     1     -45.763 -47.125   9.121  1.00  0.00     0.201 C 
ENDBRANCH  21  22
ENDBRANCH  20  21
ENDBRANCH   1  20
TORSDOF 6
ENDMDL
MODEL 2
REMARK VINA RESULT:      -5.8      2.900      6.684
REMARK  6 active torsions:
REMARK  status: ('A' for Active; 'I' for Inactive)
REMARK    1  A    between atoms: O_2  and  C_3 
REMARK    2  A    between atoms: C_3  and  C_4 
REMARK    3  A    between atoms: C_4  and  N_5 
REMARK    4  A    between atoms: C_8  and  C_13 
REMARK       I    between atoms: C_13  and  N_15 
REMARK    5  A    between atoms: N_15  and  C_16 
REMARK    6  A    between atoms: C_16  and  C_18 
ROOT
HETATM    1  N   UNL     1     -38.643 -51.115  13.318  1.00  0.00    -0.255 N 
HETATM    2  N   UNL     1     -39.594 -50.099  13.406  1.00  0.00    -0.290 N 
ATOM      3  HN  UNL     1     -40.360 -50.139  14.078  1.00  0.00     0.187 HD
HETATM    4  C   UNL     1     -39.456 -49.098  12.589  1.00  0.00     0.116 A 
HETATM    5  C   UNL     1     -38.389 -48.975  11.573  1.00  0.00     0.042 A 
HETATM    6  C   UNL     1     -37.486 -49.952  11.518  1.00  0.00     0.078 A 
HETATM    7  C   UNL     1     -37.580 -51.115  12.419  1.00  0.00     0.262 A 
HETATM    8  O   UNL     1     -36.732 -51.999  12.325  1.00  0.00    -0.267 OA
ENDROOT
BRANCH   4   9
HETATM    9  C   UNL     1     -40.436 -47.925  12.633  1.00  0.00     0.270 C 
HETATM   10  O   UNL     1     -41.000 -47.665  13.687  1.00  0.00    -0.266 OA
HETATM   11  N   UNL     1     -40.598 -47.220  11.464  1.00  0.00    -0.349 N 
HETATM   12  H   UNL     1     -40.155 -47.566  10.617  1.00  0.00     0.163 HD
BRANCH  11  13
HETATM   13  C   UNL     1     -41.466 -46.045  11.386  1.00  0.00     0.109 C 
HETATM   14  C   UNL     1     -40.696 -44.882  10.760  1.00  0.00     0.035 C 
BRANCH  13  15
HETATM   15  C   UNL     1     -42.769 -46.324  10.616  1.00  0.00     0.143 C 
HETATM   16  C   UNL     1     -42.774 -47.605   9.788  1.00  0.00     0.036 C 
HETATM   17  C   UNL     1     -43.574 -47.253   8.550  1.00  0.00     0.029 C 
HETATM   18  C   UNL     1     -44.018 -45.823   8.771  1.00  0.00     0.168 C 
HETATM   19  O   UNL     1     -43.076 -45.266   9.692  1.00  0.00    -0.384 OA
ENDBRANCH  13  15
ENDBRANCH  11  13
ENDBRANCH   4   9
BRANCH   1  20
HETATM   20  C   UNL     1     -38.832 -52.278  14.184  1.00  0.00     0.178 C 
BRANCH  20  21
HETATM   21  C   UNL     1     -39.973 -53.197  13.738  1.00  0.00     0.189 C 
BRANCH  21  22
HETATM   22  O   UNL     1     -40.347 -52.874  12.394  1.00  0.00    -0.394 OA
HETATM   23  C   UNL     1     -41.755 -52.712  12.271  1.00  0.00     0.201 C 
ENDBRANCH  21  22
ENDBRANCH  20  21
ENDBRANCH   1  20
TORSDOF 6
ENDMDL
MODEL 3
REMARK VINA RESULT:      -5.7      1.996      6.255
REMARK  6 active torsions:
REMARK  status: ('A' for Active; 'I' for Inactive)
REMARK    1  A    between atoms: O_2  and  C_3 
REMARK    2  A    between atoms: C_3  and  C_4 
REMARK    3  A    between atoms: C_4  and  N_5 
REMARK    4  A    between atoms: C_8  and  C_13 
REMARK       I    between atoms: C_13  and  N_15 
REMARK    5  A    between atoms: N_15  and  C_16 
REMARK    6  A    between atoms: C_16  and  C_18 
ROOT
HETATM    1  N   UNL     1     -42.738 -53.016  12.896  1.00  0.00    -0.255 N 
HETATM    2  N   UNL     1     -43.161 -51.703  12.695  1.00  0.00    -0.290 N 
ATOM      3  HN  UNL     1     -44.151 -51.459  12.664  1.00  0.00     0.187 HD
HETATM    4  C   UNL     1     -42.233 -50.806  12.548  1.00  0.00     0.116 A 
HETATM    5  C   UNL     1     -40.781 -51.081  12.558  1.00  0.00     0.042 A 
HETATM    6  C   UNL     1     -40.402 -52.340  12.765  1.00  0.00     0.078 A 
HETATM    7  C   UNL     1     -41.403 -53.408  12.944  1.00  0.00     0.262 A 
HETATM    8  O   UNL     1     -41.008 -54.558  13.120  1.00  0.00    -0.267 OA
ENDROOT
BRANCH   4   9
HETATM    9  C   UNL     1     -42.604 -49.336  12.349  1.00  0.00     0.270 C 
HETATM   10  O   UNL     1     -42.944 -48.676  13.322  1.00  0.00    -0.266 OA
HETATM   11  N   UNL     1     -42.505 -48.848  11.068  1.00  0.00    -0.349 N 
HETATM   12  H   UNL     1     -42.300 -49.495  10.312  1.00  0.00     0.163 HD
BRANCH  11  13
HETATM   13  C   UNL     1     -42.780 -47.447  10.753  1.00  0.00     0.109 C 
HETATM   14  C   UNL     1     -41.470 -46.729  10.429  1.00  0.00     0.035 C 
BRANCH  13  15
HETATM   15  C   UNL     1     -43.796 -47.288   9.608  1.00  0.00     0.143 C 
HETATM   16  C   UNL     1     -44.038 -45.855   9.146  1.00  0.00     0.036 C 
HETATM   17  C   UNL     1     -45.514 -45.810   8.806  1.00  0.00     0.029 C 
HETATM   18  C   UNL     1     -46.007 -47.222   9.040  1.00  0.00     0.168 C 
HETATM   19  O   UNL     1     -45.090 -47.800   9.973  1.00  0.00    -0.384 OA
ENDBRANCH  13  15
ENDBRANCH  11  13
ENDBRANCH   4   9
BRANCH   1  20
HETATM   20  C   UNL     1     -43.776 -54.042  12.991  1.00  0.00     0.178 C 
BRANCH  20  21
HETATM   21  C   UNL     1     -45.174 -53.477  13.259  1.00  0.00     0.189 C 
BRANCH  21  22
HETATM   22  O   UNL     1     -45.701 -52.916  12.051  1.00  0.00    -0.394 OA
HETATM   23  C   UNL     1     -46.706 -51.946  12.324  1.00  0.00     0.201 C 
ENDBRANCH  21  22
ENDBRANCH  20  21
ENDBRANCH   1  20
TORSDOF 6
ENDMDL
MODEL 4
REMARK VINA RESULT:      -5.7      2.890      6.833
REMARK  6 active torsions:
REMARK  status: ('A' for Active; 'I' for Inactive)
REMARK    1  A    between atoms: O_2  and  C_3 
REMARK    2  A    between atoms: C_3  and  C_4 
REMARK    3  A    between atoms: C_4  and  N_5 
REMARK    4  A    between atoms: C_8  and  C_13 
REMARK       I    between atoms: C_13  and  N_15 
REMARK    5  A    between atoms: N_15  and  C_16 
REMARK    6  A    between atoms: C_16  and  C_18 
ROOT
HETATM    1  N   UNL     1     -44.741 -53.231  13.149  1.00  0.00    -0.255 N 
HETATM    2  N   UNL     1     -43.807 -52.425  12.500  1.00  0.00    -0.290 N 
ATOM      3  HN  UNL     1     -44.094 -51.654  11.897  1.00  0.00     0.187 HD
HETATM    4  C   UNL     1     -42.554 -52.703  12.701  1.00  0.00     0.116 A 
HETATM    5  C   UNL     1     -42.058 -53.814  13.540  1.00  0.00     0.042 A 
HETATM    6  C   UNL     1     -42.969 -54.562  14.160  1.00  0.00     0.078 A 
HETATM    7  C   UNL     1     -44.408 -54.298  13.980  1.00  0.00     0.262 A 
HETATM    8  O   UNL     1     -45.213 -55.020  14.562  1.00  0.00    -0.267 OA
ENDROOT
BRANCH   4   9
HETATM    9  C   UNL     1     -41.461 -51.855  12.051  1.00  0.00     0.270 C 
HETATM   10  O   UNL     1     -40.411 -52.393  11.723  1.00  0.00    -0.266 OA
HETATM   11  N   UNL     1     -41.752 -50.525  11.858  1.00  0.00    -0.349 N 
HETATM   12  H   UNL     1     -42.614 -50.152  12.244  1.00  0.00     0.163 HD
BRANCH  11  13
HETATM   13  C   UNL     1     -40.813 -49.618  11.199  1.00  0.00     0.109 C 
HETATM   14  C   UNL     1     -41.586 -48.496  10.506  1.00  0.00     0.035 C 
BRANCH  13  15
HETATM   15  C   UNL     1     -39.763 -49.048  12.170  1.00  0.00     0.143 C 
HETATM   16  C   UNL     1     -38.347 -49.582  11.983  1.00  0.00     0.036 C 
HETATM   17  C   UNL     1     -37.788 -49.677  13.388  1.00  0.00     0.029 C 
HETATM   18  C   UNL     1     -38.891 -49.145  14.279  1.00  0.00     0.168 C 
HETATM   19  O   UNL     1     -40.102 -49.326  13.540  1.00  0.00    -0.384 OA
ENDBRANCH  13  15
ENDBRANCH  11  13
ENDBRANCH   4   9
BRANCH   1  20
HETATM   20  C   UNL     1     -46.152 -52.969  12.872  1.00  0.00     0.178 C 
BRANCH  20  21
HETATM   21  C   UNL     1     -46.594 -51.546  13.227  1.00  0.00     0.189 C 
BRANCH  21  22
HETATM   22  O   UNL     1     -45.984 -51.153  14.462  1.00  0.00    -0.394 OA
HETATM   23  C   UNL     1     -46.810 -51.477  15.575  1.00  0.00     0.201 C 
ENDBRANCH  21  22
ENDBRANCH  20  21
ENDBRANCH   1  20
TORSDOF 6
ENDMDL
MODEL 5
REMARK VINA RESULT:      -5.6      1.997      6.727
REMARK  6 active torsions:
REMARK  status: ('A' for Active; 'I' for Inactive)
REMARK    1  A    between atoms: O_2  and  C_3 
REMARK    2  A    between atoms: C_3  and  C_4 
REMARK    3  A    between atoms: C_4  and  N_5 
REMARK    4  A    between atoms: C_8  and  C_13 
REMARK       I    between atoms: C_13  and  N_15 
REMARK    5  A    between atoms: N_15  and  C_16 
REMARK    6  A    between atoms: C_16  and  C_18 
ROOT
HETATM    1  N   UNL     1     -42.767 -53.009  12.750  1.00  0.00    -0.255 N 
HETATM    2  N   UNL     1     -42.495 -51.872  11.991  1.00  0.00    -0.290 N 
ATOM      3  HN  UNL     1     -43.179 -51.486  11.340  1.00  0.00     0.187 HD
HETATM    4  C   UNL     1     -41.326 -51.327  12.153  1.00  0.00     0.116 A 
HETATM    5  C   UNL     1     -40.274 -51.836  13.057  1.00  0.00     0.042 A 
HETATM    6  C   UNL     1     -40.563 -52.916  13.781  1.00  0.00     0.078 A 
HETATM    7  C   UNL     1     -41.872 -53.581  13.650  1.00  0.00     0.262 A 
HETATM    8  O   UNL     1     -42.091 -54.581  14.328  1.00  0.00    -0.267 OA
ENDROOT
BRANCH   4   9
HETATM    9  C   UNL     1     -40.950 -50.061  11.383  1.00  0.00     0.270 C 
HETATM   10  O   UNL     1     -39.777 -49.872  11.092  1.00  0.00    -0.266 OA
HETATM   11  N   UNL     1     -41.985 -49.221  11.046  1.00  0.00    -0.349 N 
HETATM   12  H   UNL     1     -42.913 -49.417  11.409  1.00  0.00     0.163 HD
BRANCH  11  13
HETATM   13  C   UNL     1     -41.767 -48.004  10.264  1.00  0.00     0.109 C 
HETATM   14  C   UNL     1     -43.050 -47.640   9.517  1.00  0.00     0.035 C 
BRANCH  13  15
HETATM   15  C   UNL     1     -41.275 -46.828  11.126  1.00  0.00     0.143 C 
HETATM   16  C   UNL     1     -42.214 -45.628  11.186  1.00  0.00     0.036 C 
HETATM   17  C   UNL     1     -41.291 -44.426  11.221  1.00  0.00     0.029 C 
HETATM   18  C   UNL     1     -39.895 -45.012  11.234  1.00  0.00     0.168 C 
HETATM   19  O   UNL     1     -40.019 -46.313  10.653  1.00  0.00    -0.384 OA
ENDBRANCH  13  15
ENDBRANCH  11  13
ENDBRANCH   4   9
BRANCH   1  20
HETATM   20  C   UNL     1     -44.052 -53.669  12.521  1.00  0.00     0.178 C 
BRANCH  20  21
HETATM   21  C   UNL     1     -45.245 -52.708  12.527  1.00  0.00     0.189 C 
BRANCH  21  22
HETATM   22  O   UNL     1     -44.984 -51.631  13.434  1.00  0.00    -0.394 OA
HETATM   23  C   UNL     1     -45.968 -51.567  14.460  1.00  0.00     0.201 C 
ENDBRANCH  21  22
ENDBRANCH  20  21
ENDBRANCH   1  20
TORSDOF 6
ENDMDL
MODEL 6
REMARK VINA RESULT:      -5.4      4.053      7.363
REMARK  6 active torsions:
REMARK  status: ('A' for Active; 'I' for Inactive)
REMARK    1  A    between atoms: O_2  and  C_3 
REMARK    2  A    between atoms: C_3  and  C_4 
REMARK    3  A    between atoms: C_4  and  N_5 
REMARK    4  A    between atoms: C_8  and  C_13 
REMARK       I    between atoms: C_13  and  N_15 
REMARK    5  A    between atoms: N_15  and  C_16 
REMARK    6  A    between atoms: C_16  and  C_18 
ROOT
HETATM    1  N   UNL     1     -38.381 -50.660  13.653  1.00  0.00    -0.255 N 
HETATM    2  N   UNL     1     -39.213 -49.546  13.759  1.00  0.00    -0.290 N 
ATOM      3  HN  UNL     1     -39.787 -49.384  14.586  1.00  0.00     0.187 HD
HETATM    4  C   UNL     1     -39.221 -48.724  12.752  1.00  0.00     0.116 A 
HETATM    5  C   UNL     1     -38.437 -48.899  11.512  1.00  0.00     0.042 A 
HETATM    6  C   UNL     1     -37.640 -49.963  11.440  1.00  0.00     0.078 A 
HETATM    7  C   UNL     1     -37.579 -50.933  12.548  1.00  0.00     0.262 A 
HETATM    8  O   UNL     1     -36.839 -51.907  12.434  1.00  0.00    -0.267 OA
ENDROOT
BRANCH   4   9
HETATM    9  C   UNL     1     -40.082 -47.462  12.792  1.00  0.00     0.270 C 
HETATM   10  O   UNL     1     -40.387 -46.989  13.879  1.00  0.00    -0.266 OA
HETATM   11  N   UNL     1     -40.441 -46.928  11.577  1.00  0.00    -0.349 N 
HETATM   12  H   UNL     1     -40.216 -47.442  10.730  1.00  0.00     0.163 HD
BRANCH  11  13
HETATM   13  C   UNL     1     -41.219 -45.693  11.477  1.00  0.00     0.109 C 
HETATM   14  C   UNL     1     -40.382 -44.616  10.788  1.00  0.00     0.035 C 
BRANCH  13  15
HETATM   15  C   UNL     1     -42.561 -45.900  10.753  1.00  0.00     0.143 C 
HETATM   16  C   UNL     1     -43.114 -47.321  10.798  1.00  0.00     0.036 C 
HETATM   17  C   UNL     1     -43.767 -47.517   9.445  1.00  0.00     0.029 C 
HETATM   18  C   UNL     1     -43.596 -46.189   8.738  1.00  0.00     0.168 C 
HETATM   19  O   UNL     1     -42.468 -45.566   9.357  1.00  0.00    -0.384 OA
ENDBRANCH  13  15
ENDBRANCH  11  13
ENDBRANCH   4   9
BRANCH   1  20
HETATM   20  C   UNL     1     -38.420 -51.625  14.750  1.00  0.00     0.178 C 
BRANCH  20  21
HETATM   21  C   UNL     1     -37.989 -51.040  16.099  1.00  0.00     0.189 C 
BRANCH  21  22
HETATM   22  O   UNL     1     -37.257 -49.829  15.880  1.00  0.00    -0.394 OA
HETATM   23  C   UNL     1     -35.874 -50.000  16.167  1.00  0.00     0.201 C 
ENDBRANCH  21  22
ENDBRANCH  20  21
ENDBRANCH   1  20
TORSDOF 6
ENDMDL
MODEL 7
REMARK VINA RESULT:      -5.2      3.149      4.936
REMARK  6 active torsions:
REMARK  status: ('A' for Active; 'I' for Inactive)
REMARK    1  A    between atoms: O_2  and  C_3 
REMARK    2  A    between atoms: C_3  and  C_4 
REMARK    3  A    between atoms: C_4  and  N_5 
REMARK    4  A    between atoms: C_8  and  C_13 
REMARK       I    between atoms: C_13  and  N_15 
REMARK    5  A    between atoms: N_15  and  C_16 
REMARK    6  A    between atoms: C_16  and  C_18 
ROOT
HETATM    1  N   UNL     1     -40.986 -51.064  11.957  1.00  0.00    -0.255 N 
HETATM    2  N   UNL     1     -42.356 -51.295  12.073  1.00  0.00    -0.290 N 
ATOM      3  HN  UNL     1     -43.041 -50.696  11.612  1.00  0.00     0.187 HD
HETATM    4  C   UNL     1     -42.718 -52.311  12.798  1.00  0.00     0.116 A 
HETATM    5  C   UNL     1     -41.792 -53.212  13.514  1.00  0.00     0.042 A 
HETATM    6  C   UNL     1     -40.488 -52.979  13.378  1.00  0.00     0.078 A 
HETATM    7  C   UNL     1     -40.008 -51.846  12.566  1.00  0.00     0.262 A 
HETATM    8  O   UNL     1     -38.797 -51.660  12.477  1.00  0.00    -0.267 OA
ENDROOT
BRANCH   4   9
HETATM    9  C   UNL     1     -44.199 -52.656  12.958  1.00  0.00     0.270 C 
HETATM   10  O   UNL     1     -44.756 -53.298  12.077  1.00  0.00    -0.266 OA
HETATM   11  N   UNL     1     -44.804 -52.230  14.117  1.00  0.00    -0.349 N 
HETATM   12  H   UNL     1     -44.284 -51.627  14.748  1.00  0.00     0.163 HD
BRANCH  11  13
HETATM   13  C   UNL     1     -46.201 -52.541  14.417  1.00  0.00     0.109 C 
HETATM   14  C   UNL     1     -46.294 -53.934  15.038  1.00  0.00     0.035 C 
BRANCH  13  15
HETATM   15  C   UNL     1     -46.858 -51.485  15.325  1.00  0.00     0.143 C 
HETATM   16  C   UNL     1     -45.913 -50.781  16.293  1.00  0.00     0.036 C 
HETATM   17  C   UNL     1     -46.739 -50.576  17.547  1.00  0.00     0.029 C 
HETATM   18  C   UNL     1     -48.108 -51.122  17.202  1.00  0.00     0.168 C 
HETATM   19  O   UNL     1     -47.892 -52.060  16.143  1.00  0.00    -0.384 OA
ENDBRANCH  13  15
ENDBRANCH  11  13
ENDBRANCH   4   9
BRANCH   1  20
HETATM   20  C   UNL     1     -40.573 -49.881  11.204  1.00  0.00     0.178 C 
BRANCH  20  21
HETATM   21  C   UNL     1     -40.620 -48.586  12.019  1.00  0.00     0.189 C 
BRANCH  21  22
HETATM   22  O   UNL     1     -39.315 -48.299  12.533  1.00  0.00    -0.394 OA
HETATM   23  C   UNL     1     -39.287 -48.382  13.954  1.00  0.00     0.201 C 
ENDBRANCH  21  22
ENDBRANCH  20  21
ENDBRANCH   1  20
TORSDOF 6
ENDMDL
MODEL 8
REMARK VINA RESULT:      -5.2      4.633      8.225
REMARK  6 active torsions:
REMARK  status: ('A' for Active; 'I' for Inactive)
REMARK    1  A    between atoms: O_2  and  C_3 
REMARK    2  A    between atoms: C_3  and  C_4 
REMARK    3  A    between atoms: C_4  and  N_5 
REMARK    4  A    between atoms: C_8  and  C_13 
REMARK       I    between atoms: C_13  and  N_15 
REMARK    5  A    between atoms: N_15  and  C_16 
REMARK    6  A    between atoms: C_16  and  C_18 
ROOT
HETATM    1  N   UNL     1     -46.240 -52.823  16.545  1.00  0.00    -0.255 N 
HETATM    2  N   UNL     1     -45.260 -53.274  15.662  1.00  0.00    -0.290 N 
ATOM      3  HN  UNL     1     -44.559 -53.959  15.946  1.00  0.00     0.187 HD
HETATM    4  C   UNL     1     -45.283 -52.781  14.460  1.00  0.00     0.116 A 
HETATM    5  C   UNL     1     -46.249 -51.771  13.979  1.00  0.00     0.042 A 
HETATM    6  C   UNL     1     -47.183 -51.366  14.836  1.00  0.00     0.078 A 
HETATM    7  C   UNL     1     -47.218 -51.889  16.214  1.00  0.00     0.262 A 
HETATM    8  O   UNL     1     -48.091 -51.477  16.975  1.00  0.00    -0.267 OA
ENDROOT
BRANCH   4   9
HETATM    9  C   UNL     1     -44.263 -53.238  13.418  1.00  0.00     0.270 C 
HETATM   10  O   UNL     1     -44.634 -53.965  12.506  1.00  0.00    -0.266 OA
HETATM   11  N   UNL     1     -42.979 -52.772  13.573  1.00  0.00    -0.349 N 
HETATM   12  H   UNL     1     -42.746 -52.246  14.410  1.00  0.00     0.163 HD
BRANCH  11  13
HETATM   13  C   UNL     1     -41.921 -53.092  12.615  1.00  0.00     0.109 C 
HETATM   14  C   UNL     1     -41.262 -51.801  12.130  1.00  0.00     0.035 C 
BRANCH  13  15
HETATM   15  C   UNL     1     -40.877 -54.064  13.193  1.00  0.00     0.143 C 
HETATM   16  C   UNL     1     -41.138 -54.524  14.623  1.00  0.00     0.036 C 
HETATM   17  C   UNL     1     -39.760 -54.625  15.246  1.00  0.00     0.029 C 
HETATM   18  C   UNL     1     -38.803 -54.272  14.128  1.00  0.00     0.168 C 
HETATM   19  O   UNL     1     -39.562 -53.481  13.209  1.00  0.00    -0.384 OA
ENDBRANCH  13  15
ENDBRANCH  11  13
ENDBRANCH   4   9
BRANCH   1  20
HETATM   20  C   UNL     1     -46.177 -53.319  17.919  1.00  0.00     0.178 C 
BRANCH  20  21
HETATM   21  C   UNL     1     -44.993 -54.254  18.180  1.00  0.00     0.189 C 
BRANCH  21  22
HETATM   22  O   UNL     1     -45.477 -55.511  18.666  1.00  0.00    -0.394 OA
HETATM   23  C   UNL     1     -46.712 -55.360  19.356  1.00  0.00     0.201 C 
ENDBRANCH  21  22
ENDBRANCH  20  21
ENDBRANCH   1  20
TORSDOF 6
ENDMDL
MODEL 9
REMARK VINA RESULT:      -5.1      2.412      3.509
REMARK  6 active torsions:
REMARK  status: ('A' for Active; 'I' for Inactive)
REMARK    1  A    between atoms: O_2  and  C_3 
REMARK    2  A    between atoms: C_3  and  C_4 
REMARK    3  A    between atoms: C_4  and  N_5 
REMARK    4  A    between atoms: C_8  and  C_13 
REMARK       I    between atoms: C_13  and  N_15 
REMARK    5  A    between atoms: N_15  and  C_16 
REMARK    6  A    between atoms: C_16  and  C_18 
ROOT
HETATM    1  N   UNL     1     -39.448 -48.787  13.083  1.00  0.00    -0.255 N 
HETATM    2  N   UNL     1     -40.364 -49.787  12.761  1.00  0.00    -0.290 N 
ATOM      3  HN  UNL     1     -41.279 -49.568  12.367  1.00  0.00     0.187 HD
HETATM    4  C   UNL     1     -39.997 -51.013  12.988  1.00  0.00     0.116 A 
HETATM    5  C   UNL     1     -38.701 -51.412  13.577  1.00  0.00     0.042 A 
HETATM    6  C   UNL     1     -37.837 -50.440  13.864  1.00  0.00     0.078 A 
HETATM    7  C   UNL     1     -38.188 -49.028  13.626  1.00  0.00     0.262 A 
HETATM    8  O   UNL     1     -37.366 -48.163  13.917  1.00  0.00    -0.267 OA
ENDROOT
BRANCH   4   9
HETATM    9  C   UNL     1     -40.927 -52.175  12.641  1.00  0.00     0.270 C 
HETATM   10  O   UNL     1     -40.493 -53.097  11.963  1.00  0.00    -0.266 OA
HETATM   11  N   UNL     1     -42.203 -52.108  13.146  1.00  0.00    -0.349 N 
HETATM   12  H   UNL     1     -42.498 -51.261  13.623  1.00  0.00     0.163 HD
BRANCH  11  13
HETATM   13  C   UNL     1     -43.175 -53.181  12.931  1.00  0.00     0.109 C 
HETATM   14  C   UNL     1     -42.971 -54.273  13.981  1.00  0.00     0.035 C 
BRANCH  13  15
HETATM   15  C   UNL     1     -44.627 -52.671  12.937  1.00  0.00     0.143 C 
HETATM   16  C   UNL     1     -44.824 -51.275  13.521  1.00  0.00     0.036 C 
HETATM   17  C   UNL     1     -46.155 -51.351  14.243  1.00  0.00     0.029 C 
HETATM   18  C   UNL     1     -46.655 -52.756  13.984  1.00  0.00     0.168 C 
HETATM   19  O   UNL     1     -45.489 -53.533  13.700  1.00  0.00    -0.384 OA
ENDBRANCH  13  15
ENDBRANCH  11  13
ENDBRANCH   4   9
BRANCH   1  20
HETATM   20  C   UNL     1     -39.881 -47.403  12.897  1.00  0.00     0.178 C 
BRANCH  20  21
HETATM   21  C   UNL     1     -40.015 -46.994  11.427  1.00  0.00     0.189 C 
BRANCH  21  22
HETATM   22  O   UNL     1     -41.127 -47.680  10.842  1.00  0.00    -0.394 OA
HETATM   23  C   UNL     1     -42.060 -46.767  10.275  1.00  0.00     0.201 C 
ENDBRANCH  21  22
ENDBRANCH  20  21
ENDBRANCH   1  20
TORSDOF 6
ENDMDL
