MODEL 1
REMARK VINA RESULT:      -6.3      0.000      0.000
REMARK  6 active torsions:
REMARK  status: ('A' for Active; 'I' for Inactive)
REMARK    1  A    between atoms: C_7  and  O_8 
REMARK    2  A    between atoms: O_8  and  C_9 
REMARK    3  A    between atoms: C_9  and  C_10 
REMARK    4  A    between atoms: C_10  and  N_11 
REMARK    5  A    between atoms: C_13  and  C_14 
REMARK    6  A    between atoms: C_14  and  N_15 
ROOT
HETATM    1  N   UNL     1     -42.496 -48.361  11.371  1.00  0.00    -0.306 N 
HETATM    2  C   UNL     1     -43.806 -48.180  10.971  1.00  0.00     0.122 A 
HETATM    3  C   UNL     1     -44.136 -47.310  10.012  1.00  0.00     0.110 A 
HETATM    4  C   UNL     1     -43.069 -46.519   9.373  1.00  0.00     0.270 A 
HETATM    5  O   UNL     1     -43.277 -45.771   8.427  1.00  0.00    -0.266 OA
HETATM    6  N   UNL     1     -41.812 -46.691   9.893  1.00  0.00    -0.274 N 
HETATM    7  C   UNL     1     -41.454 -47.600  10.853  1.00  0.00     0.329 A 
HETATM    8  O   UNL     1     -40.280 -47.722  11.196  1.00  0.00    -0.246 OA
HETATM    9  H   UNL     1     -41.062 -46.165   9.469  1.00  0.00     0.173 HD
ENDROOT
BRANCH   1  10
HETATM   10  C   UNL     1     -42.195 -49.396  12.361  1.00  0.00     0.159 C 
BRANCH  10  11
HETATM   11  C   UNL     1     -43.415 -49.807  13.183  1.00  0.00     0.188 C 
BRANCH  11  12
HETATM   12  O   UNL     1     -43.715 -51.192  12.956  1.00  0.00    -0.384 OA
BRANCH  12  13
HETATM   13  C   UNL     1     -44.557 -51.759  13.973  1.00  0.00     0.125 C 
HETATM   14  C   UNL     1     -45.810 -52.444  13.380  1.00  0.00     0.010 C 
HETATM   15  C   UNL     1     -46.555 -51.546  12.386  1.00  0.00     0.012 C 
HETATM   16  C   UNL     1     -46.730 -52.943  14.500  1.00  0.00     0.007 C 
HETATM   17  C   UNL     1     -47.115 -51.842  15.484  1.00  0.00     0.001 C 
HETATM   18  C   UNL     1     -45.886 -51.135  16.048  1.00  0.00     0.002 C 
HETATM   19  C   UNL     1     -44.943 -50.640  14.951  1.00  0.00     0.032 C 
ENDBRANCH  12  13
ENDBRANCH  11  12
ENDBRANCH  10  11
ENDBRANCH   1  10
BRANCH   3  20
HETATM   20  C   UNL     1     -45.560 -47.234   9.484  1.00  0.00    -0.030 C 
BRANCH  20  21
HETATM   21  N   UNL     1     -46.740 -47.170   9.045  1.00  0.00    -0.365 N 
ATOM     22  HN2 UNL     1     -45.780 -47.205   9.387  1.00  0.00     0.165 HD
ATOM     23  HN1 UNL     1     -47.696 -47.120   8.691  1.00  0.00     0.165 HD
ENDBRANCH  20  21
ENDBRANCH   3  20
TORSDOF 6
ENDMDL
MODEL 2
REMARK VINA RESULT:      -6.0      4.791      6.339
REMARK  6 active torsions:
REMARK  status: ('A' for Active; 'I' for Inactive)
REMARK    1  A    between atoms: C_7  and  O_8 
REMARK    2  A    between atoms: O_8  and  C_9 
REMARK    3  A    between atoms: C_9  and  C_10 
REMARK    4  A    between atoms: C_10  and  N_11 
REMARK    5  A    between atoms: C_13  and  C_14 
REMARK    6  A    between atoms: C_14  and  N_15 
ROOT
HETATM    1  N   UNL     1     -43.619 -54.165  13.536  1.00  0.00    -0.306 N 
HETATM    2  C   UNL     1     -42.327 -54.496  13.896  1.00  0.00     0.122 A 
HETATM    3  C   UNL     1     -41.266 -53.944  13.299  1.00  0.00     0.110 A 
HETATM    4  C   UNL     1     -41.488 -52.963  12.222  1.00  0.00     0.270 A 
HETATM    5  O   UNL     1     -40.574 -52.347  11.690  1.00  0.00    -0.266 OA
HETATM    6  N   UNL     1     -42.796 -52.763  11.864  1.00  0.00    -0.274 N 
HETATM    7  C   UNL     1     -43.894 -53.297  12.485  1.00  0.00     0.329 A 
HETATM    8  O   UNL     1     -45.029 -52.991  12.127  1.00  0.00    -0.246 OA
HETATM    9  H   UNL     1     -42.976 -52.091  11.132  1.00  0.00     0.173 HD
ENDROOT
BRANCH   1  10
HETATM   10  C   UNL     1     -44.733 -54.738  14.293  1.00  0.00     0.159 C 
BRANCH  10  11
HETATM   11  C   UNL     1     -44.798 -54.231  15.732  1.00  0.00     0.188 C 
BRANCH  11  12
HETATM   12  O   UNL     1     -46.162 -53.986  16.106  1.00  0.00    -0.384 OA
BRANCH  12  13
HETATM   13  C   UNL     1     -46.312 -52.860  16.985  1.00  0.00     0.125 C 
HETATM   14  C   UNL     1     -47.258 -51.785  16.402  1.00  0.00     0.010 C 
HETATM   15  C   UNL     1     -46.898 -51.405  14.960  1.00  0.00     0.012 C 
HETATM   16  C   UNL     1     -47.308 -50.558  17.320  1.00  0.00     0.007 C 
HETATM   17  C   UNL     1     -45.927 -49.979  17.610  1.00  0.00     0.001 C 
HETATM   18  C   UNL     1     -44.974 -51.041  18.152  1.00  0.00     0.002 C 
HETATM   19  C   UNL     1     -44.916 -52.282  17.262  1.00  0.00     0.032 C 
ENDBRANCH  12  13
ENDBRANCH  11  12
ENDBRANCH  10  11
ENDBRANCH   1  10
BRANCH   3  20
HETATM   20  C   UNL     1     -39.859 -54.209  13.809  1.00  0.00    -0.030 C 
BRANCH  20  21
HETATM   21  N   UNL     1     -38.691 -54.428  14.232  1.00  0.00    -0.365 N 
ATOM     22  HN2 UNL     1     -39.627 -54.236  13.875  1.00  0.00     0.165 HD
ATOM     23  HN1 UNL     1     -37.747 -54.606  14.574  1.00  0.00     0.165 HD
ENDBRANCH  20  21
ENDBRANCH   3  20
TORSDOF 6
ENDMDL
MODEL 3
REMARK VINA RESULT:      -6.0      2.542      6.320
REMARK  6 active torsions:
REMARK  status: ('A' for Active; 'I' for Inactive)
REMARK    1  A    between atoms: C_7  and  O_8 
REMARK    2  A    between atoms: O_8  and  C_9 
REMARK    3  A    between atoms: C_9  and  C_10 
REMARK    4  A    between atoms: C_10  and  N_11 
REMARK    5  A    between atoms: C_13  and  C_14 
REMARK    6  A    between atoms: C_14  and  N_15 
ROOT
HETATM    1  N   UNL     1     -42.565 -50.792  12.846  1.00  0.00    -0.306 N 
HETATM    2  C   UNL     1     -43.816 -50.648  13.417  1.00  0.00     0.122 A 
HETATM    3  C   UNL     1     -44.723 -51.629  13.380  1.00  0.00     0.110 A 
HETATM    4  C   UNL     1     -44.378 -52.891  12.702  1.00  0.00     0.270 A 
HETATM    5  O   UNL     1     -45.118 -53.866  12.704  1.00  0.00    -0.266 OA
HETATM    6  N   UNL     1     -43.155 -52.915  12.082  1.00  0.00    -0.274 N 
HETATM    7  C   UNL     1     -42.203 -51.932  12.137  1.00  0.00     0.329 A 
HETATM    8  O   UNL     1     -41.107 -52.088  11.604  1.00  0.00    -0.246 OA
HETATM    9  H   UNL     1     -42.892 -53.771  11.616  1.00  0.00     0.173 HD
ENDROOT
BRANCH   1  10
HETATM   10  C   UNL     1     -41.587 -49.714  13.004  1.00  0.00     0.159 C 
BRANCH  10  11
HETATM   11  C   UNL     1     -42.149 -48.343  12.636  1.00  0.00     0.188 C 
BRANCH  11  12
HETATM   12  O   UNL     1     -41.521 -47.860  11.439  1.00  0.00    -0.384 OA
BRANCH  12  13
HETATM   13  C   UNL     1     -42.441 -47.688  10.350  1.00  0.00     0.125 C 
HETATM   14  C   UNL     1     -42.278 -46.315   9.657  1.00  0.00     0.010 C 
HETATM   15  C   UNL     1     -42.270 -45.151  10.654  1.00  0.00     0.012 C 
HETATM   16  C   UNL     1     -43.345 -46.130   8.572  1.00  0.00     0.007 C 
HETATM   17  C   UNL     1     -44.764 -46.317   9.100  1.00  0.00     0.001 C 
HETATM   18  C   UNL     1     -44.927 -47.654   9.818  1.00  0.00     0.002 C 
HETATM   19  C   UNL     1     -43.865 -47.870  10.896  1.00  0.00     0.032 C 
ENDBRANCH  12  13
ENDBRANCH  11  12
ENDBRANCH  10  11
ENDBRANCH   1  10
BRANCH   3  20
HETATM   20  C   UNL     1     -46.034 -51.507  14.140  1.00  0.00    -0.030 C 
BRANCH  20  21
HETATM   21  N   UNL     1     -47.121 -51.407  14.770  1.00  0.00    -0.365 N 
ATOM     22  HN2 UNL     1     -46.252 -51.499  14.244  1.00  0.00     0.165 HD
ATOM     23  HN1 UNL     1     -48.001 -51.325  15.281  1.00  0.00     0.165 HD
ENDBRANCH  20  21
ENDBRANCH   3  20
TORSDOF 6
ENDMDL
MODEL 4
REMARK VINA RESULT:      -5.9      1.635      1.933
REMARK  6 active torsions:
REMARK  status: ('A' for Active; 'I' for Inactive)
REMARK    1  A    between atoms: C_7  and  O_8 
REMARK    2  A    between atoms: O_8  and  C_9 
REMARK    3  A    between atoms: C_9  and  C_10 
REMARK    4  A    between atoms: C_10  and  N_11 
REMARK    5  A    between atoms: C_13  and  C_14 
REMARK    6  A    between atoms: C_14  and  N_15 
ROOT
HETATM    1  N   UNL     1     -41.379 -48.691  11.436  1.00  0.00    -0.306 N 
HETATM    2  C   UNL     1     -42.456 -48.009  10.903  1.00  0.00     0.122 A 
HETATM    3  C   UNL     1     -42.332 -46.775  10.406  1.00  0.00     0.110 A 
HETATM    4  C   UNL     1     -41.009 -46.125  10.439  1.00  0.00     0.270 A 
HETATM    5  O   UNL     1     -40.794 -45.036   9.923  1.00  0.00    -0.266 OA
HETATM    6  N   UNL     1     -40.018 -46.832  11.069  1.00  0.00    -0.274 N 
HETATM    7  C   UNL     1     -40.121 -48.108  11.556  1.00  0.00     0.329 A 
HETATM    8  O   UNL     1     -39.145 -48.678  12.038  1.00  0.00    -0.246 OA
HETATM    9  H   UNL     1     -39.101 -46.412  11.100  1.00  0.00     0.173 HD
ENDROOT
BRANCH   1  10
HETATM   10  C   UNL     1     -41.565 -50.074  11.879  1.00  0.00     0.159 C 
BRANCH  10  11
HETATM   11  C   UNL     1     -42.767 -50.246  12.804  1.00  0.00     0.188 C 
BRANCH  11  12
HETATM   12  O   UNL     1     -42.895 -51.622  13.192  1.00  0.00    -0.384 OA
BRANCH  12  13
HETATM   13  C   UNL     1     -44.034 -51.866  14.033  1.00  0.00     0.125 C 
HETATM   14  C   UNL     1     -44.302 -53.376  14.231  1.00  0.00     0.010 C 
HETATM   15  C   UNL     1     -44.332 -54.145  12.905  1.00  0.00     0.012 C 
HETATM   16  C   UNL     1     -45.583 -53.592  15.045  1.00  0.00     0.007 C 
HETATM   17  C   UNL     1     -46.794 -52.890  14.440  1.00  0.00     0.001 C 
HETATM   18  C   UNL     1     -46.528 -51.406  14.208  1.00  0.00     0.002 C 
HETATM   19  C   UNL     1     -45.247 -51.161  13.409  1.00  0.00     0.032 C 
ENDBRANCH  12  13
ENDBRANCH  11  12
ENDBRANCH  10  11
ENDBRANCH   1  10
BRANCH   3  20
HETATM   20  C   UNL     1     -43.492 -46.102   9.690  1.00  0.00    -0.030 C 
BRANCH  20  21
HETATM   21  N   UNL     1     -44.454 -45.543   9.097  1.00  0.00    -0.365 N 
ATOM     22  HN2 UNL     1     -43.666 -45.976   9.578  1.00  0.00     0.165 HD
ATOM     23  HN1 UNL     1     -45.233 -45.092   8.616  1.00  0.00     0.165 HD
ENDBRANCH  20  21
ENDBRANCH   3  20
TORSDOF 6
ENDMDL
MODEL 5
REMARK VINA RESULT:      -5.9      4.619      7.450
REMARK  6 active torsions:
REMARK  status: ('A' for Active; 'I' for Inactive)
REMARK    1  A    between atoms: C_7  and  O_8 
REMARK    2  A    between atoms: O_8  and  C_9 
REMARK    3  A    between atoms: C_9  and  C_10 
REMARK    4  A    between atoms: C_10  and  N_11 
REMARK    5  A    between atoms: C_13  and  C_14 
REMARK    6  A    between atoms: C_14  and  N_15 
ROOT
HETATM    1  N   UNL     1     -42.876 -53.853  13.291  1.00  0.00    -0.306 N 
HETATM    2  C   UNL     1     -43.830 -53.203  12.532  1.00  0.00     0.122 A 
HETATM    3  C   UNL     1     -45.116 -53.171  12.894  1.00  0.00     0.110 A 
HETATM    4  C   UNL     1     -45.523 -53.858  14.133  1.00  0.00     0.270 A 
HETATM    5  O   UNL     1     -46.660 -53.797  14.580  1.00  0.00    -0.266 OA
HETATM    6  N   UNL     1     -44.533 -54.556  14.775  1.00  0.00    -0.274 N 
HETATM    7  C   UNL     1     -43.206 -54.573  14.434  1.00  0.00     0.329 A 
HETATM    8  O   UNL     1     -42.387 -55.176  15.125  1.00  0.00    -0.246 OA
HETATM    9  H   UNL     1     -44.784 -55.031  15.630  1.00  0.00     0.173 HD
ENDROOT
BRANCH   1  10
HETATM   10  C   UNL     1     -41.472 -53.771  12.885  1.00  0.00     0.159 C 
BRANCH  10  11
HETATM   11  C   UNL     1     -41.096 -52.405  12.315  1.00  0.00     0.188 C 
BRANCH  11  12
HETATM   12  O   UNL     1     -39.689 -52.176  12.476  1.00  0.00    -0.384 OA
BRANCH  12  13
HETATM   13  C   UNL     1     -39.394 -50.995  13.238  1.00  0.00     0.125 C 
HETATM   14  C   UNL     1     -38.657 -49.925  12.398  1.00  0.00     0.010 C 
HETATM   15  C   UNL     1     -37.449 -50.498  11.647  1.00  0.00     0.012 C 
HETATM   16  C   UNL     1     -38.269 -48.728  13.273  1.00  0.00     0.007 C 
HETATM   17  C   UNL     1     -37.452 -49.129  14.496  1.00  0.00     0.001 C 
HETATM   18  C   UNL     1     -38.153 -50.210  15.314  1.00  0.00     0.002 C 
HETATM   19  C   UNL     1     -38.564 -51.411  14.461  1.00  0.00     0.032 C 
ENDBRANCH  12  13
ENDBRANCH  11  12
ENDBRANCH  10  11
ENDBRANCH   1  10
BRANCH   3  20
HETATM   20  C   UNL     1     -46.122 -52.327  12.127  1.00  0.00    -0.030 C 
BRANCH  20  21
HETATM   21  N   UNL     1     -46.956 -51.627  11.491  1.00  0.00    -0.365 N 
ATOM     22  HN2 UNL     1     -46.267 -52.177  12.005  1.00  0.00     0.165 HD
ATOM     23  HN1 UNL     1     -47.631 -51.061  10.977  1.00  0.00     0.165 HD
ENDBRANCH  20  21
ENDBRANCH   3  20
TORSDOF 6
ENDMDL
MODEL 6
REMARK VINA RESULT:      -5.9      3.436      4.969
REMARK  6 active torsions:
REMARK  status: ('A' for Active; 'I' for Inactive)
REMARK    1  A    between atoms: C_7  and  O_8 
REMARK    2  A    between atoms: O_8  and  C_9 
REMARK    3  A    between atoms: C_9  and  C_10 
REMARK    4  A    between atoms: C_10  and  N_11 
REMARK    5  A    between atoms: C_13  and  C_14 
REMARK    6  A    between atoms: C_14  and  N_15 
ROOT
HETATM    1  N   UNL     1     -40.662 -53.095  13.189  1.00  0.00    -0.306 N 
HETATM    2  C   UNL     1     -41.038 -52.035  12.386  1.00  0.00     0.122 A 
HETATM    3  C   UNL     1     -40.256 -50.964  12.222  1.00  0.00     0.110 A 
HETATM    4  C   UNL     1     -38.964 -50.913  12.929  1.00  0.00     0.270 A 
HETATM    5  O   UNL     1     -38.153 -50.012  12.760  1.00  0.00    -0.266 OA
HETATM    6  N   UNL     1     -38.711 -51.960  13.777  1.00  0.00    -0.274 N 
HETATM    7  C   UNL     1     -39.486 -53.078  13.931  1.00  0.00     0.329 A 
HETATM    8  O   UNL     1     -39.128 -53.995  14.668  1.00  0.00    -0.246 OA
HETATM    9  H   UNL     1     -37.829 -51.952  14.268  1.00  0.00     0.173 HD
ENDROOT
BRANCH   1  10
HETATM   10  C   UNL     1     -41.523 -54.277  13.250  1.00  0.00     0.159 C 
BRANCH  10  11
HETATM   11  C   UNL     1     -42.850 -54.011  13.958  1.00  0.00     0.188 C 
BRANCH  11  12
HETATM   12  O   UNL     1     -43.863 -53.681  12.996  1.00  0.00    -0.384 OA
BRANCH  12  13
HETATM   13  C   UNL     1     -45.104 -53.282  13.599  1.00  0.00     0.125 C 
HETATM   14  C   UNL     1     -45.523 -51.853  13.184  1.00  0.00     0.010 C 
HETATM   15  C   UNL     1     -44.390 -50.834  13.360  1.00  0.00     0.012 C 
HETATM   16  C   UNL     1     -46.793 -51.428  13.929  1.00  0.00     0.007 C 
HETATM   17  C   UNL     1     -46.659 -51.546  15.444  1.00  0.00     0.001 C 
HETATM   18  C   UNL     1     -46.211 -52.943  15.862  1.00  0.00     0.002 C 
HETATM   19  C   UNL     1     -44.952 -53.398  15.122  1.00  0.00     0.032 C 
ENDBRANCH  12  13
ENDBRANCH  11  12
ENDBRANCH  10  11
ENDBRANCH   1  10
BRANCH   3  20
HETATM   20  C   UNL     1     -40.618 -49.879  11.220  1.00  0.00    -0.030 C 
BRANCH  20  21
HETATM   21  N   UNL     1     -40.919 -48.979  10.390  1.00  0.00    -0.365 N 
ATOM     22  HN2 UNL     1     -40.666 -49.719  11.046  1.00  0.00     0.165 HD
ATOM     23  HN1 UNL     1     -41.162 -48.251   9.718  1.00  0.00     0.165 HD
ENDBRANCH  20  21
ENDBRANCH   3  20
TORSDOF 6
ENDMDL
MODEL 7
REMARK VINA RESULT:      -5.8      1.441      2.009
REMARK  6 active torsions:
REMARK  status: ('A' for Active; 'I' for Inactive)
REMARK    1  A    between atoms: C_7  and  O_8 
REMARK    2  A    between atoms: O_8  and  C_9 
REMARK    3  A    between atoms: C_9  and  C_10 
REMARK    4  A    between atoms: C_10  and  N_11 
REMARK    5  A    between atoms: C_13  and  C_14 
REMARK    6  A    between atoms: C_14  and  N_15 
ROOT
HETATM    1  N   UNL     1     -42.813 -47.343  11.948  1.00  0.00    -0.306 N 
HETATM    2  C   UNL     1     -43.617 -47.830  10.936  1.00  0.00     0.122 A 
HETATM    3  C   UNL     1     -43.951 -47.082   9.881  1.00  0.00     0.110 A 
HETATM    4  C   UNL     1     -43.455 -45.697   9.806  1.00  0.00     0.270 A 
HETATM    5  O   UNL     1     -43.641 -44.979   8.832  1.00  0.00    -0.266 OA
HETATM    6  N   UNL     1     -42.744 -45.263  10.895  1.00  0.00    -0.274 N 
HETATM    7  C   UNL     1     -42.367 -46.026  11.969  1.00  0.00     0.329 A 
HETATM    8  O   UNL     1     -41.665 -45.553  12.860  1.00  0.00    -0.246 OA
HETATM    9  H   UNL     1     -42.388 -44.319  10.867  1.00  0.00     0.173 HD
ENDROOT
BRANCH   1  10
HETATM   10  C   UNL     1     -42.409 -48.245  13.029  1.00  0.00     0.159 C 
BRANCH  10  11
HETATM   11  C   UNL     1     -42.737 -49.707  12.737  1.00  0.00     0.188 C 
BRANCH  11  12
HETATM   12  O   UNL     1     -42.993 -50.408  13.963  1.00  0.00    -0.384 OA
BRANCH  12  13
HETATM   13  C   UNL     1     -44.388 -50.460  14.302  1.00  0.00     0.125 C 
HETATM   14  C   UNL     1     -44.622 -50.989  15.736  1.00  0.00     0.010 C 
HETATM   15  C   UNL     1     -43.867 -52.295  16.011  1.00  0.00     0.012 C 
HETATM   16  C   UNL     1     -46.123 -51.127  16.019  1.00  0.00     0.007 C 
HETATM   17  C   UNL     1     -46.842 -51.990  14.987  1.00  0.00     0.001 C 
HETATM   18  C   UNL     1     -46.589 -51.498  13.565  1.00  0.00     0.002 C 
HETATM   19  C   UNL     1     -45.099 -51.337  13.261  1.00  0.00     0.032 C 
ENDBRANCH  12  13
ENDBRANCH  11  12
ENDBRANCH  10  11
ENDBRANCH   1  10
BRANCH   3  20
HETATM   20  C   UNL     1     -44.710 -47.683   8.708  1.00  0.00    -0.030 C 
BRANCH  20  21
HETATM   21  N   UNL     1     -45.339 -48.180   7.735  1.00  0.00    -0.365 N 
ATOM     22  HN2 UNL     1     -44.832 -47.797   8.532  1.00  0.00     0.165 HD
ATOM     23  HN1 UNL     1     -45.849 -48.582   6.948  1.00  0.00     0.165 HD
ENDBRANCH  20  21
ENDBRANCH   3  20
TORSDOF 6
ENDMDL
MODEL 8
REMARK VINA RESULT:      -5.8      1.872      2.575
REMARK  6 active torsions:
REMARK  status: ('A' for Active; 'I' for Inactive)
REMARK    1  A    between atoms: C_7  and  O_8 
REMARK    2  A    between atoms: O_8  and  C_9 
REMARK    3  A    between atoms: C_9  and  C_10 
REMARK    4  A    between atoms: C_10  and  N_11 
REMARK    5  A    between atoms: C_13  and  C_14 
REMARK    6  A    between atoms: C_14  and  N_15 
ROOT
HETATM    1  N   UNL     1     -41.810 -48.091  11.151  1.00  0.00    -0.306 N 
HETATM    2  C   UNL     1     -43.145 -48.188  10.810  1.00  0.00     0.122 A 
HETATM    3  C   UNL     1     -43.747 -47.266  10.052  1.00  0.00     0.110 A 
HETATM    4  C   UNL     1     -42.961 -46.112   9.579  1.00  0.00     0.270 A 
HETATM    5  O   UNL     1     -43.413 -45.276   8.808  1.00  0.00    -0.266 OA
HETATM    6  N   UNL     1     -41.672 -46.045  10.040  1.00  0.00    -0.274 N 
HETATM    7  C   UNL     1     -41.033 -46.996  10.791  1.00  0.00     0.329 A 
HETATM    8  O   UNL     1     -39.847 -46.868  11.090  1.00  0.00    -0.246 OA
HETATM    9  H   UNL     1     -41.110 -45.267   9.726  1.00  0.00     0.173 HD
ENDROOT
BRANCH   1  10
HETATM   10  C   UNL     1     -41.191 -49.182  11.906  1.00  0.00     0.159 C 
BRANCH  10  11
HETATM   11  C   UNL     1     -42.213 -50.153  12.494  1.00  0.00     0.188 C 
BRANCH  11  12
HETATM   12  O   UNL     1     -41.542 -51.289  13.060  1.00  0.00    -0.384 OA
BRANCH  12  13
HETATM   13  C   UNL     1     -42.426 -52.166  13.776  1.00  0.00     0.125 C 
HETATM   14  C   UNL     1     -41.747 -53.504  14.149  1.00  0.00     0.010 C 
HETATM   15  C   UNL     1     -41.051 -54.164  12.952  1.00  0.00     0.012 C 
HETATM   16  C   UNL     1     -42.752 -54.449  14.817  1.00  0.00     0.007 C 
HETATM   17  C   UNL     1     -44.000 -54.680  13.970  1.00  0.00     0.001 C 
HETATM   18  C   UNL     1     -44.658 -53.365  13.566  1.00  0.00     0.002 C 
HETATM   19  C   UNL     1     -43.673 -52.397  12.910  1.00  0.00     0.032 C 
ENDBRANCH  12  13
ENDBRANCH  11  12
ENDBRANCH  10  11
ENDBRANCH   1  10
BRANCH   3  20
HETATM   20  C   UNL     1     -45.173 -47.467   9.564  1.00  0.00    -0.030 C 
BRANCH  20  21
HETATM   21  N   UNL     1     -46.355 -47.633   9.159  1.00  0.00    -0.365 N 
ATOM     22  HN2 UNL     1     -45.404 -47.478   9.493  1.00  0.00     0.165 HD
ATOM     23  HN1 UNL     1     -47.312 -47.767   8.831  1.00  0.00     0.165 HD
ENDBRANCH  20  21
ENDBRANCH   3  20
TORSDOF 6
ENDMDL
MODEL 9
REMARK VINA RESULT:      -5.8      1.946      2.807
REMARK  6 active torsions:
REMARK  status: ('A' for Active; 'I' for Inactive)
REMARK    1  A    between atoms: C_7  and  O_8 
REMARK    2  A    between atoms: O_8  and  C_9 
REMARK    3  A    between atoms: C_9  and  C_10 
REMARK    4  A    between atoms: C_10  and  N_11 
REMARK    5  A    between atoms: C_13  and  C_14 
REMARK    6  A    between atoms: C_14  and  N_15 
ROOT
HETATM    1  N   UNL     1     -40.728 -50.404  11.988  1.00  0.00    -0.306 N 
HETATM    2  C   UNL     1     -41.879 -49.667  11.789  1.00  0.00     0.122 A 
HETATM    3  C   UNL     1     -41.838 -48.395  11.381  1.00  0.00     0.110 A 
HETATM    4  C   UNL     1     -40.527 -47.765  11.148  1.00  0.00     0.270 A 
HETATM    5  O   UNL     1     -40.407 -46.637  10.687  1.00  0.00    -0.266 OA
HETATM    6  N   UNL     1     -39.436 -48.535  11.459  1.00  0.00    -0.274 N 
HETATM    7  C   UNL     1     -39.461 -49.848  11.848  1.00  0.00     0.329 A 
HETATM    8  O   UNL     1     -38.415 -50.469  12.032  1.00  0.00    -0.246 OA
HETATM    9  H   UNL     1     -38.525 -48.129  11.303  1.00  0.00     0.173 HD
ENDROOT
BRANCH   1  10
HETATM   10  C   UNL     1     -40.846 -51.819  12.346  1.00  0.00     0.159 C 
BRANCH  10  11
HETATM   11  C   UNL     1     -42.256 -52.369  12.140  1.00  0.00     0.188 C 
BRANCH  11  12
HETATM   12  O   UNL     1     -42.819 -52.760  13.400  1.00  0.00    -0.384 OA
BRANCH  12  13
HETATM   13  C   UNL     1     -44.255 -52.778  13.394  1.00  0.00     0.125 C 
HETATM   14  C   UNL     1     -44.859 -51.367  13.576  1.00  0.00     0.010 C 
HETATM   15  C   UNL     1     -44.252 -50.618  14.769  1.00  0.00     0.012 C 
HETATM   16  C   UNL     1     -46.387 -51.443  13.668  1.00  0.00     0.007 C 
HETATM   17  C   UNL     1     -46.867 -52.394  14.760  1.00  0.00     0.001 C 
HETATM   18  C   UNL     1     -46.249 -53.782  14.611  1.00  0.00     0.002 C 
HETATM   19  C   UNL     1     -44.725 -53.732  14.502  1.00  0.00     0.032 C 
ENDBRANCH  12  13
ENDBRANCH  11  12
ENDBRANCH  10  11
ENDBRANCH   1  10
BRANCH   3  20
HETATM   20  C   UNL     1     -43.114 -47.649  11.025  1.00  0.00    -0.030 C 
BRANCH  20  21
HETATM   21  N   UNL     1     -44.173 -47.031  10.729  1.00  0.00    -0.365 N 
ATOM     22  HN2 UNL     1     -43.318 -47.523  10.989  1.00  0.00     0.165 HD
ATOM     23  HN1 UNL     1     -45.029 -46.530  10.490  1.00  0.00     0.165 HD
ENDBRANCH  20  21
ENDBRANCH   3  20
TORSDOF 6
ENDMDL
