MODEL 1
REMARK VINA RESULT:      -6.1      0.000      0.000
REMARK  3 active torsions:
REMARK  status: ('A' for Active; 'I' for Inactive)
REMARK    1  A    between atoms: O_2  and  C_3 
REMARK    2  A    between atoms: C_9  and  N_10 
REMARK       I    between atoms: N_10  and  C_11 
REMARK       I    between atoms: C_11  and  N_13 
REMARK    3  A    between atoms: N_13  and  C_14 
ROOT
HETATM    1  N   UNL     1     -40.973 -49.860  10.989  1.00  0.00    -0.292 N 
HETATM    2  C   UNL     1     -41.320 -48.576  10.638  1.00  0.00     0.322 C 
HETATM    3  O   UNL     1     -40.726 -47.547  10.942  1.00  0.00    -0.247 OA
HETATM    4  N   UNL     1     -42.453 -48.525   9.857  1.00  0.00    -0.336 N 
HETATM    5  H   UNL     1     -41.662 -50.592  10.950  1.00  0.00     0.172 HD
HETATM    6  H   UNL     1     -43.031 -49.345   9.740  1.00  0.00     0.164 HD
ENDROOT
BRANCH   1   7
HETATM    7  C   UNL     1     -39.747 -50.194  11.600  1.00  0.00     0.143 A 
HETATM    8  C   UNL     1     -39.761 -50.861  12.838  1.00  0.00     0.112 A 
HETATM    9  C   UNL     1     -38.532 -51.212  13.401  1.00  0.00     0.042 A 
HETATM   10  C   UNL     1     -37.348 -50.877  12.751  1.00  0.00     0.020 A 
HETATM   11  C   UNL     1     -37.433 -50.213  11.545  1.00  0.00     0.090 A 
HETATM   12  N   UNL     1     -38.598 -49.882  10.965  1.00  0.00    -0.350 N 
ATOM     13  HN  UNL     1     -38.614 -49.404  10.064  1.00  0.00     0.166 HD
BRANCH   8  14
HETATM   14  O   UNL     1     -40.980 -51.136  13.412  1.00  0.00    -0.352 OA
HETATM   15  C   UNL     1     -41.343 -52.517  13.427  1.00  0.00     0.210 C 
ENDBRANCH   8  14
ENDBRANCH   1   7
BRANCH   4  16
HETATM   16  C   UNL     1     -43.006 -47.240   9.417  1.00  0.00     0.110 C 
HETATM   17  C   UNL     1     -44.301 -46.919  10.174  1.00  0.00     0.029 C 
HETATM   18  C   UNL     1     -45.432 -47.852   9.745  1.00  0.00     0.028 C 
HETATM   19  C   UNL     1     -45.556 -47.916   8.227  1.00  0.00     0.167 C 
HETATM   20  O   UNL     1     -44.307 -48.236   7.613  1.00  0.00    -0.389 OA
HETATM   21  C   UNL     1     -43.298 -47.261   7.912  1.00  0.00     0.192 C 
ENDBRANCH   4  16
TORSDOF 3
ENDMDL
MODEL 2
REMARK VINA RESULT:      -5.6      2.453      5.730
REMARK  3 active torsions:
REMARK  status: ('A' for Active; 'I' for Inactive)
REMARK    1  A    between atoms: O_2  and  C_3 
REMARK    2  A    between atoms: C_9  and  N_10 
REMARK       I    between atoms: N_10  and  C_11 
REMARK       I    between atoms: C_11  and  N_13 
REMARK    3  A    between atoms: N_13  and  C_14 
ROOT
HETATM    1  N   UNL     1     -41.951 -49.346  10.974  1.00  0.00    -0.292 N 
HETATM    2  C   UNL     1     -41.853 -49.994  12.183  1.00  0.00     0.322 C 
HETATM    3  O   UNL     1     -41.279 -49.589  13.188  1.00  0.00    -0.247 OA
HETATM    4  N   UNL     1     -42.502 -51.209  12.191  1.00  0.00    -0.336 N 
HETATM    5  H   UNL     1     -42.175 -49.869  10.144  1.00  0.00     0.172 HD
HETATM    6  H   UNL     1     -42.834 -51.616  11.329  1.00  0.00     0.164 HD
ENDROOT
BRANCH   1   7
HETATM    7  C   UNL     1     -41.559 -48.007  10.777  1.00  0.00     0.143 A 
HETATM    8  C   UNL     1     -42.493 -47.091  10.259  1.00  0.00     0.112 A 
HETATM    9  C   UNL     1     -42.087 -45.763  10.110  1.00  0.00     0.042 A 
HETATM   10  C   UNL     1     -40.789 -45.390  10.445  1.00  0.00     0.020 A 
HETATM   11  C   UNL     1     -39.940 -46.360  10.936  1.00  0.00     0.090 A 
HETATM   12  N   UNL     1     -40.305 -47.640  11.113  1.00  0.00    -0.350 N 
ATOM     13  HN  UNL     1     -39.648 -48.321  11.494  1.00  0.00     0.166 HD
BRANCH   8  14
HETATM   14  O   UNL     1     -43.748 -47.556   9.941  1.00  0.00    -0.352 OA
HETATM   15  C   UNL     1     -44.062 -47.541   8.548  1.00  0.00     0.210 C 
ENDBRANCH   8  14
ENDBRANCH   1   7
BRANCH   4  16
HETATM   16  C   UNL     1     -42.475 -52.069  13.379  1.00  0.00     0.110 C 
HETATM   17  C   UNL     1     -42.656 -53.541  12.986  1.00  0.00     0.029 C 
HETATM   18  C   UNL     1     -44.080 -53.808  12.502  1.00  0.00     0.028 C 
HETATM   19  C   UNL     1     -45.113 -53.254  13.477  1.00  0.00     0.167 C 
HETATM   20  O   UNL     1     -44.873 -51.877  13.769  1.00  0.00    -0.389 OA
HETATM   21  C   UNL     1     -43.583 -51.673  14.361  1.00  0.00     0.192 C 
ENDBRANCH   4  16
TORSDOF 3
ENDMDL
MODEL 3
REMARK VINA RESULT:      -5.4      1.728      2.876
REMARK  3 active torsions:
REMARK  status: ('A' for Active; 'I' for Inactive)
REMARK    1  A    between atoms: O_2  and  C_3 
REMARK    2  A    between atoms: C_9  and  N_10 
REMARK       I    between atoms: N_10  and  C_11 
REMARK       I    between atoms: C_11  and  N_13 
REMARK    3  A    between atoms: N_13  and  C_14 
ROOT
HETATM    1  N   UNL     1     -41.203 -50.554  11.348  1.00  0.00    -0.292 N 
HETATM    2  C   UNL     1     -42.175 -49.660  11.732  1.00  0.00     0.322 C 
HETATM    3  O   UNL     1     -42.918 -49.757  12.704  1.00  0.00    -0.247 OA
HETATM    4  N   UNL     1     -42.253 -48.566  10.899  1.00  0.00    -0.336 N 
HETATM    5  H   UNL     1     -40.859 -50.542  10.402  1.00  0.00     0.172 HD
HETATM    6  H   UNL     1     -41.761 -48.560  10.017  1.00  0.00     0.164 HD
ENDROOT
BRANCH   1   7
HETATM    7  C   UNL     1     -40.784 -51.637  12.147  1.00  0.00     0.143 A 
HETATM    8  C   UNL     1     -39.647 -51.485  12.961  1.00  0.00     0.112 A 
HETATM    9  C   UNL     1     -39.279 -52.563  13.770  1.00  0.00     0.042 A 
HETATM   10  C   UNL     1     -40.013 -53.744  13.733  1.00  0.00     0.020 A 
HETATM   11  C   UNL     1     -41.107 -53.803  12.895  1.00  0.00     0.090 A 
HETATM   12  N   UNL     1     -41.502 -52.779  12.122  1.00  0.00    -0.350 N 
ATOM     13  HN  UNL     1     -42.328 -52.862  11.529  1.00  0.00     0.166 HD
BRANCH   8  14
HETATM   14  O   UNL     1     -38.976 -50.286  12.919  1.00  0.00    -0.352 OA
HETATM   15  C   UNL     1     -37.699 -50.331  12.280  1.00  0.00     0.210 C 
ENDBRANCH   8  14
ENDBRANCH   1   7
BRANCH   4  16
HETATM   16  C   UNL     1     -43.259 -47.522  11.120  1.00  0.00     0.110 C 
HETATM   17  C   UNL     1     -44.467 -47.730  10.199  1.00  0.00     0.029 C 
HETATM   18  C   UNL     1     -44.104 -47.439   8.744  1.00  0.00     0.028 C 
HETATM   19  C   UNL     1     -43.392 -46.098   8.605  1.00  0.00     0.167 C 
HETATM   20  O   UNL     1     -42.274 -46.004   9.487  1.00  0.00    -0.389 OA
HETATM   21  C   UNL     1     -42.665 -46.133  10.861  1.00  0.00     0.192 C 
ENDBRANCH   4  16
TORSDOF 3
ENDMDL
MODEL 4
REMARK VINA RESULT:      -5.3      1.782      2.317
REMARK  3 active torsions:
REMARK  status: ('A' for Active; 'I' for Inactive)
REMARK    1  A    between atoms: O_2  and  C_3 
REMARK    2  A    between atoms: C_9  and  N_10 
REMARK       I    between atoms: N_10  and  C_11 
REMARK       I    between atoms: C_11  and  N_13 
REMARK    3  A    between atoms: N_13  and  C_14 
ROOT
HETATM    1  N   UNL     1     -41.180 -50.374  11.415  1.00  0.00    -0.292 N 
HETATM    2  C   UNL     1     -42.064 -49.399  11.814  1.00  0.00     0.322 C 
HETATM    3  O   UNL     1     -42.512 -49.232  12.943  1.00  0.00    -0.247 OA
HETATM    4  N   UNL     1     -42.426 -48.555  10.787  1.00  0.00    -0.336 N 
HETATM    5  H   UNL     1     -41.105 -50.611  10.440  1.00  0.00     0.172 HD
HETATM    6  H   UNL     1     -42.190 -48.782   9.831  1.00  0.00     0.164 HD
ENDROOT
BRANCH   1   7
HETATM    7  C   UNL     1     -40.501 -51.221  12.313  1.00  0.00     0.143 A 
HETATM    8  C   UNL     1     -41.050 -52.481  12.612  1.00  0.00     0.112 A 
HETATM    9  C   UNL     1     -40.335 -53.313  13.477  1.00  0.00     0.042 A 
HETATM   10  C   UNL     1     -39.136 -52.875  14.031  1.00  0.00     0.020 A 
HETATM   11  C   UNL     1     -38.681 -51.619  13.687  1.00  0.00     0.090 A 
HETATM   12  N   UNL     1     -39.331 -50.804  12.842  1.00  0.00    -0.350 N 
ATOM     13  HN  UNL     1     -38.949 -49.888  12.603  1.00  0.00     0.166 HD
BRANCH   8  14
HETATM   14  O   UNL     1     -42.248 -52.820  12.029  1.00  0.00    -0.352 OA
HETATM   15  C   UNL     1     -43.355 -52.902  12.928  1.00  0.00     0.210 C 
ENDBRANCH   8  14
ENDBRANCH   1   7
BRANCH   4  16
HETATM   16  C   UNL     1     -43.394 -47.475  11.005  1.00  0.00     0.110 C 
HETATM   17  C   UNL     1     -44.607 -47.639  10.081  1.00  0.00     0.029 C 
HETATM   18  C   UNL     1     -44.230 -47.362   8.627  1.00  0.00     0.028 C 
HETATM   19  C   UNL     1     -43.470 -46.047   8.490  1.00  0.00     0.167 C 
HETATM   20  O   UNL     1     -42.351 -45.994   9.376  1.00  0.00    -0.389 OA
HETATM   21  C   UNL     1     -42.750 -46.108  10.749  1.00  0.00     0.192 C 
ENDBRANCH   4  16
TORSDOF 3
ENDMDL
MODEL 5
REMARK VINA RESULT:      -5.3      3.124      5.152
REMARK  3 active torsions:
REMARK  status: ('A' for Active; 'I' for Inactive)
REMARK    1  A    between atoms: O_2  and  C_3 
REMARK    2  A    between atoms: C_9  and  N_10 
REMARK       I    between atoms: N_10  and  C_11 
REMARK       I    between atoms: C_11  and  N_13 
REMARK    3  A    between atoms: N_13  and  C_14 
ROOT
HETATM    1  N   UNL     1     -41.723 -50.615  12.668  1.00  0.00    -0.292 N 
HETATM    2  C   UNL     1     -42.446 -51.781  12.573  1.00  0.00     0.322 C 
HETATM    3  O   UNL     1     -42.022 -52.882  12.237  1.00  0.00    -0.247 OA
HETATM    4  N   UNL     1     -43.770 -51.618  12.918  1.00  0.00    -0.336 N 
HETATM    5  H   UNL     1     -42.201 -49.729  12.659  1.00  0.00     0.172 HD
HETATM    6  H   UNL     1     -44.156 -50.692  13.037  1.00  0.00     0.164 HD
ENDROOT
BRANCH   1   7
HETATM    7  C   UNL     1     -40.318 -50.563  12.576  1.00  0.00     0.143 A 
HETATM    8  C   UNL     1     -39.724 -49.609  11.730  1.00  0.00     0.112 A 
HETATM    9  C   UNL     1     -38.328 -49.556  11.689  1.00  0.00     0.042 A 
HETATM   10  C   UNL     1     -37.576 -50.446  12.449  1.00  0.00     0.020 A 
HETATM   11  C   UNL     1     -38.247 -51.353  13.242  1.00  0.00     0.090 A 
HETATM   12  N   UNL     1     -39.585 -51.415  13.323  1.00  0.00    -0.350 N 
ATOM     13  HN  UNL     1     -40.040 -52.093  13.935  1.00  0.00     0.166 HD
BRANCH   8  14
HETATM   14  O   UNL     1     -40.549 -48.783  11.005  1.00  0.00    -0.352 OA
HETATM   15  C   UNL     1     -40.461 -47.397  11.338  1.00  0.00     0.210 C 
ENDBRANCH   8  14
ENDBRANCH   1   7
BRANCH   4  16
HETATM   16  C   UNL     1     -44.712 -52.739  12.839  1.00  0.00     0.110 C 
HETATM   17  C   UNL     1     -46.132 -52.234  12.558  1.00  0.00     0.029 C 
HETATM   18  C   UNL     1     -46.702 -51.497  13.769  1.00  0.00     0.028 C 
HETATM   19  C   UNL     1     -46.533 -52.313  15.047  1.00  0.00     0.167 C 
HETATM   20  O   UNL     1     -45.178 -52.722  15.231  1.00  0.00    -0.389 OA
HETATM   21  C   UNL     1     -44.714 -53.539  14.146  1.00  0.00     0.192 C 
ENDBRANCH   4  16
TORSDOF 3
ENDMDL
MODEL 6
REMARK VINA RESULT:      -5.2      3.843      6.301
REMARK  3 active torsions:
REMARK  status: ('A' for Active; 'I' for Inactive)
REMARK    1  A    between atoms: O_2  and  C_3 
REMARK    2  A    between atoms: C_9  and  N_10 
REMARK       I    between atoms: N_10  and  C_11 
REMARK       I    between atoms: C_11  and  N_13 
REMARK    3  A    between atoms: N_13  and  C_14 
ROOT
HETATM    1  N   UNL     1     -41.594 -52.975  12.354  1.00  0.00    -0.292 N 
HETATM    2  C   UNL     1     -41.369 -51.629  12.180  1.00  0.00     0.322 C 
HETATM    3  O   UNL     1     -42.207 -50.734  12.218  1.00  0.00    -0.247 OA
HETATM    4  N   UNL     1     -40.042 -51.335  11.957  1.00  0.00    -0.336 N 
HETATM    5  H   UNL     1     -40.919 -53.642  12.018  1.00  0.00     0.172 HD
HETATM    6  H   UNL     1     -39.380 -52.074  11.766  1.00  0.00     0.164 HD
ENDROOT
BRANCH   1   7
HETATM    7  C   UNL     1     -42.820 -53.505  12.803  1.00  0.00     0.143 A 
HETATM    8  C   UNL     1     -42.831 -54.330  13.942  1.00  0.00     0.112 A 
HETATM    9  C   UNL     1     -44.066 -54.810  14.385  1.00  0.00     0.042 A 
HETATM   10  C   UNL     1     -45.227 -54.490  13.689  1.00  0.00     0.020 A 
HETATM   11  C   UNL     1     -45.117 -53.682  12.577  1.00  0.00     0.090 A 
HETATM   12  N   UNL     1     -43.950 -53.185  12.138  1.00  0.00    -0.350 N 
ATOM     13  HN  UNL     1     -43.917 -52.579  11.318  1.00  0.00     0.166 HD
BRANCH   8  14
HETATM   14  O   UNL     1     -41.631 -54.605  14.554  1.00  0.00    -0.352 OA
HETATM   15  C   UNL     1     -41.483 -54.057  15.865  1.00  0.00     0.210 C 
ENDBRANCH   8  14
ENDBRANCH   1   7
BRANCH   4  16
HETATM   16  C   UNL     1     -39.608 -49.956  11.707  1.00  0.00     0.110 C 
HETATM   17  C   UNL     1     -38.110 -49.911  11.381  1.00  0.00     0.029 C 
HETATM   18  C   UNL     1     -37.270 -50.229  12.617  1.00  0.00     0.028 C 
HETATM   19  C   UNL     1     -37.710 -49.397  13.818  1.00  0.00     0.167 C 
HETATM   20  O   UNL     1     -39.114 -49.516  14.052  1.00  0.00    -0.389 OA
HETATM   21  C   UNL     1     -39.883 -49.070  12.926  1.00  0.00     0.192 C 
ENDBRANCH   4  16
TORSDOF 3
ENDMDL
MODEL 7
REMARK VINA RESULT:      -5.2      2.885      4.310
REMARK  3 active torsions:
REMARK  status: ('A' for Active; 'I' for Inactive)
REMARK    1  A    between atoms: O_2  and  C_3 
REMARK    2  A    between atoms: C_9  and  N_10 
REMARK       I    between atoms: N_10  and  C_11 
REMARK       I    between atoms: C_11  and  N_13 
REMARK    3  A    between atoms: N_13  and  C_14 
ROOT
HETATM    1  N   UNL     1     -41.797 -50.686  11.778  1.00  0.00    -0.292 N 
HETATM    2  C   UNL     1     -42.082 -49.511  12.434  1.00  0.00     0.322 C 
HETATM    3  O   UNL     1     -42.819 -49.373  13.405  1.00  0.00    -0.247 OA
HETATM    4  N   UNL     1     -41.427 -48.427  11.894  1.00  0.00    -0.336 N 
HETATM    5  H   UNL     1     -41.433 -50.659  10.840  1.00  0.00     0.172 HD
HETATM    6  H   UNL     1     -40.951 -48.507  11.007  1.00  0.00     0.164 HD
ENDROOT
BRANCH   1   7
HETATM    7  C   UNL     1     -42.170 -51.956  12.263  1.00  0.00     0.143 A 
HETATM    8  C   UNL     1     -41.167 -52.846  12.688  1.00  0.00     0.112 A 
HETATM    9  C   UNL     1     -41.570 -54.083  13.198  1.00  0.00     0.042 A 
HETATM   10  C   UNL     1     -42.922 -54.408  13.249  1.00  0.00     0.020 A 
HETATM   11  C   UNL     1     -43.833 -53.474  12.800  1.00  0.00     0.090 A 
HETATM   12  N   UNL     1     -43.481 -52.269  12.325  1.00  0.00    -0.350 N 
ATOM     13  HN  UNL     1     -44.190 -51.603  12.018  1.00  0.00     0.166 HD
BRANCH   8  14
HETATM   14  O   UNL     1     -39.857 -52.443  12.585  1.00  0.00    -0.352 OA
HETATM   15  C   UNL     1     -39.197 -52.211  13.830  1.00  0.00     0.210 C 
ENDBRANCH   8  14
ENDBRANCH   1   7
BRANCH   4  16
HETATM   16  C   UNL     1     -41.635 -47.077  12.430  1.00  0.00     0.110 C 
HETATM   17  C   UNL     1     -42.586 -46.278  11.531  1.00  0.00     0.029 C 
HETATM   18  C   UNL     1     -41.921 -45.931  10.201  1.00  0.00     0.028 C 
HETATM   19  C   UNL     1     -40.541 -45.317  10.412  1.00  0.00     0.167 C 
HETATM   20  O   UNL     1     -39.724 -46.138  11.246  1.00  0.00    -0.389 OA
HETATM   21  C   UNL     1     -40.304 -46.327  12.544  1.00  0.00     0.192 C 
ENDBRANCH   4  16
TORSDOF 3
ENDMDL
MODEL 8
REMARK VINA RESULT:      -5.1      4.026      5.332
REMARK  3 active torsions:
REMARK  status: ('A' for Active; 'I' for Inactive)
REMARK    1  A    between atoms: O_2  and  C_3 
REMARK    2  A    between atoms: C_9  and  N_10 
REMARK       I    between atoms: N_10  and  C_11 
REMARK       I    between atoms: C_11  and  N_13 
REMARK    3  A    between atoms: N_13  and  C_14 
ROOT
HETATM    1  N   UNL     1     -41.517 -51.640  13.785  1.00  0.00    -0.292 N 
HETATM    2  C   UNL     1     -42.406 -52.305  12.972  1.00  0.00     0.322 C 
HETATM    3  O   UNL     1     -42.313 -52.462  11.759  1.00  0.00    -0.247 OA
HETATM    4  N   UNL     1     -43.475 -52.828  13.665  1.00  0.00    -0.336 N 
HETATM    5  H   UNL     1     -41.816 -51.312  14.688  1.00  0.00     0.172 HD
HETATM    6  H   UNL     1     -43.637 -52.566  14.627  1.00  0.00     0.164 HD
ENDROOT
BRANCH   1   7
HETATM    7  C   UNL     1     -40.248 -51.204  13.356  1.00  0.00     0.143 A 
HETATM    8  C   UNL     1     -39.100 -51.834  13.869  1.00  0.00     0.112 A 
HETATM    9  C   UNL     1     -37.857 -51.405  13.396  1.00  0.00     0.042 A 
HETATM   10  C   UNL     1     -37.785 -50.371  12.468  1.00  0.00     0.020 A 
HETATM   11  C   UNL     1     -38.965 -49.806  12.030  1.00  0.00     0.090 A 
HETATM   12  N   UNL     1     -40.176 -50.210  12.446  1.00  0.00    -0.350 N 
ATOM     13  HN  UNL     1     -41.023 -49.774  12.083  1.00  0.00     0.166 HD
BRANCH   8  14
HETATM   14  O   UNL     1     -39.270 -52.836  14.794  1.00  0.00    -0.352 OA
HETATM   15  C   UNL     1     -39.077 -54.160  14.293  1.00  0.00     0.210 C 
ENDBRANCH   8  14
ENDBRANCH   1   7
BRANCH   4  16
HETATM   16  C   UNL     1     -44.552 -53.537  12.966  1.00  0.00     0.110 C 
HETATM   17  C   UNL     1     -45.680 -52.569  12.587  1.00  0.00     0.029 C 
HETATM   18  C   UNL     1     -46.438 -52.099  13.827  1.00  0.00     0.028 C 
HETATM   19  C   UNL     1     -46.846 -53.274  14.709  1.00  0.00     0.167 C 
HETATM   20  O   UNL     1     -45.729 -54.107  15.022  1.00  0.00    -0.389 OA
HETATM   21  C   UNL     1     -45.125 -54.656  13.842  1.00  0.00     0.192 C 
ENDBRANCH   4  16
TORSDOF 3
ENDMDL
MODEL 9
REMARK VINA RESULT:      -5.0      1.883      6.481
REMARK  3 active torsions:
REMARK  status: ('A' for Active; 'I' for Inactive)
REMARK    1  A    between atoms: O_2  and  C_3 
REMARK    2  A    between atoms: C_9  and  N_10 
REMARK       I    between atoms: N_10  and  C_11 
REMARK       I    between atoms: C_11  and  N_13 
REMARK    3  A    between atoms: N_13  and  C_14 
ROOT
HETATM    1  N   UNL     1     -42.908 -48.592  10.757  1.00  0.00    -0.292 N 
HETATM    2  C   UNL     1     -41.772 -49.118  11.328  1.00  0.00     0.322 C 
HETATM    3  O   UNL     1     -40.691 -48.554  11.465  1.00  0.00    -0.247 OA
HETATM    4  N   UNL     1     -41.950 -50.407  11.778  1.00  0.00    -0.336 N 
HETATM    5  H   UNL     1     -43.632 -49.207  10.426  1.00  0.00     0.172 HD
HETATM    6  H   UNL     1     -42.778 -50.927  11.525  1.00  0.00     0.164 HD
ENDROOT
BRANCH   1   7
HETATM    7  C   UNL     1     -43.047 -47.231  10.417  1.00  0.00     0.143 A 
HETATM    8  C   UNL     1     -43.912 -46.875   9.366  1.00  0.00     0.112 A 
HETATM    9  C   UNL     1     -44.058 -45.517   9.077  1.00  0.00     0.042 A 
HETATM   10  C   UNL     1     -43.340 -44.570   9.800  1.00  0.00     0.020 A 
HETATM   11  C   UNL     1     -42.507 -45.014  10.806  1.00  0.00     0.090 A 
HETATM   12  N   UNL     1     -42.361 -46.310  11.126  1.00  0.00    -0.350 N 
ATOM     13  HN  UNL     1     -41.746 -46.593  11.888  1.00  0.00     0.166 HD
BRANCH   8  14
HETATM   14  O   UNL     1     -44.567 -47.882   8.697  1.00  0.00    -0.352 OA
HETATM   15  C   UNL     1     -45.986 -47.893   8.863  1.00  0.00     0.210 C 
ENDBRANCH   8  14
ENDBRANCH   1   7
BRANCH   4  16
HETATM   16  C   UNL     1     -40.840 -51.155  12.379  1.00  0.00     0.110 C 
HETATM   17  C   UNL     1     -40.981 -52.655  12.095  1.00  0.00     0.029 C 
HETATM   18  C   UNL     1     -42.151 -53.254  12.873  1.00  0.00     0.028 C 
HETATM   19  C   UNL     1     -42.098 -52.864  14.346  1.00  0.00     0.167 C 
HETATM   20  O   UNL     1     -41.984 -51.450  14.510  1.00  0.00    -0.389 OA
HETATM   21  C   UNL     1     -40.796 -50.934  13.895  1.00  0.00     0.192 C 
ENDBRANCH   4  16
TORSDOF 3
ENDMDL
