MODEL 1
REMARK VINA RESULT:      -6.1      0.000      0.000
REMARK  5 active torsions:
REMARK  status: ('A' for Active; 'I' for Inactive)
REMARK    1  A    between atoms: C_9  and  C_10 
REMARK    2  A    between atoms: C_10  and  C_11 
REMARK       I    between atoms: C_11  and  N_13 
REMARK    3  A    between atoms: N_13  and  C_14 
REMARK    4  A    between atoms: C_14  and  C_15 
REMARK    5  A    between atoms: C_15  and  O_16 
ROOT
HETATM    1  C   UNL     1     -43.970 -54.826  14.212  1.00  0.00     0.222 C 
HETATM    2  O   UNL     1     -43.425 -55.509  15.079  1.00  0.00    -0.273 OA
HETATM    3  N   UNL     1     -43.235 -54.111  13.280  1.00  0.00    -0.358 N 
HETATM    4  H   UNL     1     -43.695 -53.663  12.496  1.00  0.00     0.162 HD
ENDROOT
BRANCH   1   5
HETATM    5  C   UNL     1     -45.476 -54.687  14.124  1.00  0.00     0.145 C 
BRANCH   5   6
HETATM    6  C   UNL     1     -46.061 -53.395  14.610  1.00  0.00    -0.002 A 
HETATM    7  C   UNL     1     -46.523 -52.250  13.897  1.00  0.00     0.030 A 
HETATM    8  C   UNL     1     -46.601 -52.002  12.434  1.00  0.00     0.070 C 
HETATM    9  N   UNL     1     -46.949 -51.289  14.725  1.00  0.00    -0.303 N 
HETATM   10  N   UNL     1     -46.798 -51.802  15.950  1.00  0.00    -0.300 N 
ATOM     11  HN  UNL     1     -47.309 -50.368  14.476  1.00  0.00     0.186 HD
HETATM   12  C   UNL     1     -47.185 -51.007  17.092  1.00  0.00     0.177 C 
HETATM   13  C   UNL     1     -46.273 -53.069  15.946  1.00  0.00     0.033 A 
HETATM   14  C   UNL     1     -46.029 -53.861  17.181  1.00  0.00     0.070 C 
ENDBRANCH   5   6
ENDBRANCH   1   5
BRANCH   3  15
HETATM   15  C   UNL     1     -41.782 -54.136  13.359  1.00  0.00     0.161 C 
BRANCH  15  16
HETATM   16  C   UNL     1     -41.032 -53.029  12.585  1.00  0.00     0.083 C 
HETATM   17  C   UNL     1     -39.895 -52.480  13.462  1.00  0.00     0.050 C 
HETATM   18  C   UNL     1     -39.414 -51.149  12.903  1.00  0.00     0.077 C 
HETATM   19  S   UNL     1     -40.815 -50.412  12.030  1.00  0.00    -0.166 SA
HETATM   20  C   UNL     1     -41.930 -51.833  12.254  1.00  0.00     0.113 C 
BRANCH  16  21
HETATM   21  O   UNL     1     -40.496 -53.579  11.374  1.00  0.00    -0.387 OA
HETATM   22  H   UNL     1     -39.878 -54.294  11.608  1.00  0.00     0.210 HD
ENDBRANCH  16  21
ENDBRANCH  15  16
ENDBRANCH   3  15
TORSDOF 5
ENDMDL
MODEL 2
REMARK VINA RESULT:      -5.8      2.462      3.516
REMARK  5 active torsions:
REMARK  status: ('A' for Active; 'I' for Inactive)
REMARK    1  A    between atoms: C_9  and  C_10 
REMARK    2  A    between atoms: C_10  and  C_11 
REMARK       I    between atoms: C_11  and  N_13 
REMARK    3  A    between atoms: N_13  and  C_14 
REMARK    4  A    between atoms: C_14  and  C_15 
REMARK    5  A    between atoms: C_15  and  O_16 
ROOT
HETATM    1  C   UNL     1     -42.403 -52.691  12.347  1.00  0.00     0.222 C 
HETATM    2  O   UNL     1     -41.384 -53.343  12.572  1.00  0.00    -0.273 OA
HETATM    3  N   UNL     1     -42.359 -51.320  12.145  1.00  0.00    -0.358 N 
HETATM    4  H   UNL     1     -43.183 -50.820  11.831  1.00  0.00     0.162 HD
ENDROOT
BRANCH   1   5
HETATM    5  C   UNL     1     -43.777 -53.328  12.313  1.00  0.00     0.145 C 
BRANCH   5   6
HETATM    6  C   UNL     1     -44.569 -53.285  13.585  1.00  0.00    -0.002 A 
HETATM    7  C   UNL     1     -44.397 -53.980  14.819  1.00  0.00     0.030 A 
HETATM    8  C   UNL     1     -43.344 -54.941  15.236  1.00  0.00     0.070 C 
HETATM    9  N   UNL     1     -45.355 -53.669  15.700  1.00  0.00    -0.303 N 
HETATM   10  N   UNL     1     -46.120 -52.771  15.072  1.00  0.00    -0.300 N 
ATOM     11  HN  UNL     1     -45.476 -54.038  16.643  1.00  0.00     0.186 HD
HETATM   12  C   UNL     1     -47.256 -52.215  15.766  1.00  0.00     0.177 C 
HETATM   13  C   UNL     1     -45.695 -52.494  13.797  1.00  0.00     0.033 A 
HETATM   14  C   UNL     1     -46.365 -51.514  12.903  1.00  0.00     0.070 C 
ENDBRANCH   5   6
ENDBRANCH   1   5
BRANCH   3  15
HETATM   15  C   UNL     1     -41.080 -50.633  12.245  1.00  0.00     0.161 C 
BRANCH  15  16
HETATM   16  C   UNL     1     -40.890 -49.398  11.336  1.00  0.00     0.083 C 
HETATM   17  C   UNL     1     -39.854 -48.457  11.972  1.00  0.00     0.050 C 
HETATM   18  C   UNL     1     -39.947 -47.083  11.326  1.00  0.00     0.077 C 
HETATM   19  S   UNL     1     -41.648 -46.893  10.743  1.00  0.00    -0.166 SA
HETATM   20  C   UNL     1     -42.174 -48.578  11.184  1.00  0.00     0.113 C 
BRANCH  16  21
HETATM   21  O   UNL     1     -40.437 -49.827  10.045  1.00  0.00    -0.387 OA
HETATM   22  H   UNL     1     -39.768 -49.195   9.729  1.00  0.00     0.210 HD
ENDBRANCH  16  21
ENDBRANCH  15  16
ENDBRANCH   3  15
TORSDOF 5
ENDMDL
MODEL 3
REMARK VINA RESULT:      -5.6      2.584      4.457
REMARK  5 active torsions:
REMARK  status: ('A' for Active; 'I' for Inactive)
REMARK    1  A    between atoms: C_9  and  C_10 
REMARK    2  A    between atoms: C_10  and  C_11 
REMARK       I    between atoms: C_11  and  N_13 
REMARK    3  A    between atoms: N_13  and  C_14 
REMARK    4  A    between atoms: C_14  and  C_15 
REMARK    5  A    between atoms: C_15  and  O_16 
ROOT
HETATM    1  C   UNL     1     -40.324 -52.934  12.959  1.00  0.00     0.222 C 
HETATM    2  O   UNL     1     -39.201 -52.907  13.463  1.00  0.00    -0.273 OA
HETATM    3  N   UNL     1     -40.915 -51.793  12.440  1.00  0.00    -0.358 N 
HETATM    4  H   UNL     1     -41.778 -51.856  11.912  1.00  0.00     0.162 HD
ENDROOT
BRANCH   1   5
HETATM    5  C   UNL     1     -41.154 -54.199  12.906  1.00  0.00     0.145 C 
BRANCH   5   6
HETATM    6  C   UNL     1     -42.253 -54.326  13.919  1.00  0.00    -0.002 A 
HETATM    7  C   UNL     1     -42.228 -54.755  15.279  1.00  0.00     0.030 A 
HETATM    8  C   UNL     1     -41.084 -55.178  16.127  1.00  0.00     0.070 C 
HETATM    9  N   UNL     1     -43.450 -54.745  15.824  1.00  0.00    -0.303 N 
HETATM   10  N   UNL     1     -44.253 -54.292  14.856  1.00  0.00    -0.300 N 
ATOM     11  HN  UNL     1     -43.712 -55.023  16.770  1.00  0.00     0.186 HD
HETATM   12  C   UNL     1     -45.663 -54.147  15.129  1.00  0.00     0.177 C 
HETATM   13  C   UNL     1     -43.590 -54.017  13.687  1.00  0.00     0.033 A 
HETATM   14  C   UNL     1     -44.258 -53.482  12.471  1.00  0.00     0.070 C 
ENDBRANCH   5   6
ENDBRANCH   1   5
BRANCH   3  15
HETATM   15  C   UNL     1     -40.204 -50.526  12.532  1.00  0.00     0.161 C 
BRANCH  15  16
HETATM   16  C   UNL     1     -40.608 -49.436  11.514  1.00  0.00     0.083 C 
HETATM   17  C   UNL     1     -39.782 -48.167  11.779  1.00  0.00     0.050 C 
HETATM   18  C   UNL     1     -40.427 -46.981  11.078  1.00  0.00     0.077 C 
HETATM   19  S   UNL     1     -42.194 -47.345  10.953  1.00  0.00    -0.166 SA
HETATM   20  C   UNL     1     -42.077 -49.024  11.645  1.00  0.00     0.113 C 
BRANCH  16  21
HETATM   21  O   UNL     1     -40.359 -49.915  10.186  1.00  0.00    -0.387 OA
HETATM   22  H   UNL     1     -39.432 -49.726   9.959  1.00  0.00     0.210 HD
ENDBRANCH  16  21
ENDBRANCH  15  16
ENDBRANCH   3  15
TORSDOF 5
ENDMDL
MODEL 4
REMARK VINA RESULT:      -5.6      1.643      1.872
REMARK  5 active torsions:
REMARK  status: ('A' for Active; 'I' for Inactive)
REMARK    1  A    between atoms: C_9  and  C_10 
REMARK    2  A    between atoms: C_10  and  C_11 
REMARK       I    between atoms: C_11  and  N_13 
REMARK    3  A    between atoms: N_13  and  C_14 
REMARK    4  A    between atoms: C_14  and  C_15 
REMARK    5  A    between atoms: C_15  and  O_16 
ROOT
HETATM    1  C   UNL     1     -43.070 -53.645  12.804  1.00  0.00     0.222 C 
HETATM    2  O   UNL     1     -42.251 -54.193  13.544  1.00  0.00    -0.273 OA
HETATM    3  N   UNL     1     -42.684 -52.699  11.868  1.00  0.00    -0.358 N 
HETATM    4  H   UNL     1     -43.345 -52.357  11.181  1.00  0.00     0.162 HD
ENDROOT
BRANCH   1   5
HETATM    5  C   UNL     1     -44.554 -53.935  12.890  1.00  0.00     0.145 C 
BRANCH   5   6
HETATM    6  C   UNL     1     -45.391 -52.939  13.636  1.00  0.00    -0.002 A 
HETATM    7  C   UNL     1     -46.350 -51.990  13.174  1.00  0.00     0.030 A 
HETATM    8  C   UNL     1     -46.845 -51.723  11.799  1.00  0.00     0.070 C 
HETATM    9  N   UNL     1     -46.854 -51.266  14.180  1.00  0.00    -0.303 N 
HETATM   10  N   UNL     1     -46.263 -51.747  15.278  1.00  0.00    -0.300 N 
ATOM     11  HN  UNL     1     -47.538 -50.512  14.122  1.00  0.00     0.186 HD
HETATM   12  C   UNL     1     -46.604 -51.179  16.560  1.00  0.00     0.177 C 
HETATM   13  C   UNL     1     -45.376 -52.760  15.016  1.00  0.00     0.033 A 
HETATM   14  C   UNL     1     -44.608 -53.472  16.071  1.00  0.00     0.070 C 
ENDBRANCH   5   6
ENDBRANCH   1   5
BRANCH   3  15
HETATM   15  C   UNL     1     -41.282 -52.315  11.790  1.00  0.00     0.161 C 
BRANCH  15  16
HETATM   16  C   UNL     1     -40.980 -50.801  11.858  1.00  0.00     0.083 C 
HETATM   17  C   UNL     1     -39.828 -50.560  12.848  1.00  0.00     0.050 C 
HETATM   18  C   UNL     1     -39.783 -49.089  13.232  1.00  0.00     0.077 C 
HETATM   19  S   UNL     1     -41.467 -48.452  13.061  1.00  0.00    -0.166 SA
HETATM   20  C   UNL     1     -42.167 -49.988  12.379  1.00  0.00     0.113 C 
BRANCH  16  21
HETATM   21  O   UNL     1     -40.612 -50.334  10.554  1.00  0.00    -0.387 OA
HETATM   22  H   UNL     1     -40.601 -49.360  10.567  1.00  0.00     0.210 HD
ENDBRANCH  16  21
ENDBRANCH  15  16
ENDBRANCH   3  15
TORSDOF 5
ENDMDL
MODEL 5
REMARK VINA RESULT:      -5.6      5.044      6.934
REMARK  5 active torsions:
REMARK  status: ('A' for Active; 'I' for Inactive)
REMARK    1  A    between atoms: C_9  and  C_10 
REMARK    2  A    between atoms: C_10  and  C_11 
REMARK       I    between atoms: C_11  and  N_13 
REMARK    3  A    between atoms: N_13  and  C_14 
REMARK    4  A    between atoms: C_14  and  C_15 
REMARK    5  A    between atoms: C_15  and  O_16 
ROOT
HETATM    1  C   UNL     1     -41.849 -49.192  11.660  1.00  0.00     0.222 C 
HETATM    2  O   UNL     1     -42.445 -48.850  12.681  1.00  0.00    -0.273 OA
HETATM    3  N   UNL     1     -41.615 -50.526  11.367  1.00  0.00    -0.358 N 
HETATM    4  H   UNL     1     -41.243 -50.797  10.464  1.00  0.00     0.162 HD
ENDROOT
BRANCH   1   5
HETATM    5  C   UNL     1     -41.296 -48.184  10.673  1.00  0.00     0.145 C 
BRANCH   5   6
HETATM    6  C   UNL     1     -42.036 -46.885  10.554  1.00  0.00    -0.002 A 
HETATM    7  C   UNL     1     -43.217 -46.544   9.831  1.00  0.00     0.030 A 
HETATM    8  C   UNL     1     -44.107 -47.393   8.997  1.00  0.00     0.070 C 
HETATM    9  N   UNL     1     -43.528 -45.250   9.973  1.00  0.00    -0.303 N 
HETATM   10  N   UNL     1     -42.592 -44.761  10.792  1.00  0.00    -0.300 N 
ATOM     11  HN  UNL     1     -44.308 -44.748   9.549  1.00  0.00     0.186 HD
HETATM   12  C   UNL     1     -42.649 -43.367  11.163  1.00  0.00     0.177 C 
HETATM   13  C   UNL     1     -41.669 -45.698  11.180  1.00  0.00     0.033 A 
HETATM   14  C   UNL     1     -40.541 -45.406  12.105  1.00  0.00     0.070 C 
ENDBRANCH   5   6
ENDBRANCH   1   5
BRANCH   3  15
HETATM   15  C   UNL     1     -42.048 -51.542  12.314  1.00  0.00     0.161 C 
BRANCH  15  16
HETATM   16  C   UNL     1     -41.006 -52.618  12.694  1.00  0.00     0.083 C 
HETATM   17  C   UNL     1     -41.643 -53.616  13.673  1.00  0.00     0.050 C 
HETATM   18  C   UNL     1     -40.554 -54.425  14.361  1.00  0.00     0.077 C 
HETATM   19  S   UNL     1     -39.072 -53.390  14.386  1.00  0.00    -0.166 SA
HETATM   20  C   UNL     1     -39.791 -52.029  13.416  1.00  0.00     0.113 C 
BRANCH  16  21
HETATM   21  O   UNL     1     -40.576 -53.299  11.507  1.00  0.00    -0.387 OA
HETATM   22  H   UNL     1     -40.851 -54.231  11.572  1.00  0.00     0.210 HD
ENDBRANCH  16  21
ENDBRANCH  15  16
ENDBRANCH   3  15
TORSDOF 5
ENDMDL
MODEL 6
REMARK VINA RESULT:      -5.6      2.034      2.915
REMARK  5 active torsions:
REMARK  status: ('A' for Active; 'I' for Inactive)
REMARK    1  A    between atoms: C_9  and  C_10 
REMARK    2  A    between atoms: C_10  and  C_11 
REMARK       I    between atoms: C_11  and  N_13 
REMARK    3  A    between atoms: N_13  and  C_14 
REMARK    4  A    between atoms: C_14  and  C_15 
REMARK    5  A    between atoms: C_15  and  O_16 
ROOT
HETATM    1  C   UNL     1     -44.122 -51.026  13.461  1.00  0.00     0.222 C 
HETATM    2  O   UNL     1     -43.570 -49.998  13.856  1.00  0.00    -0.273 OA
HETATM    3  N   UNL     1     -43.471 -51.929  12.635  1.00  0.00    -0.358 N 
HETATM    4  H   UNL     1     -43.888 -52.829  12.427  1.00  0.00     0.162 HD
ENDROOT
BRANCH   1   5
HETATM    5  C   UNL     1     -45.557 -51.358  13.815  1.00  0.00     0.145 C 
BRANCH   5   6
HETATM    6  C   UNL     1     -45.765 -52.306  14.957  1.00  0.00    -0.002 A 
HETATM    7  C   UNL     1     -45.767 -53.732  15.002  1.00  0.00     0.030 A 
HETATM    8  C   UNL     1     -45.522 -54.723  13.923  1.00  0.00     0.070 C 
HETATM    9  N   UNL     1     -46.025 -54.188  16.233  1.00  0.00    -0.303 N 
HETATM   10  N   UNL     1     -46.159 -53.091  16.984  1.00  0.00    -0.300 N 
ATOM     11  HN  UNL     1     -46.102 -55.160  16.533  1.00  0.00     0.186 HD
HETATM   12  C   UNL     1     -46.435 -53.238  18.393  1.00  0.00     0.177 C 
HETATM   13  C   UNL     1     -46.009 -51.927  16.274  1.00  0.00     0.033 A 
HETATM   14  C   UNL     1     -46.092 -50.574  16.886  1.00  0.00     0.070 C 
ENDBRANCH   5   6
ENDBRANCH   1   5
BRANCH   3  15
HETATM   15  C   UNL     1     -42.118 -51.630  12.191  1.00  0.00     0.161 C 
BRANCH  15  16
HETATM   16  C   UNL     1     -41.021 -52.637  12.604  1.00  0.00     0.083 C 
HETATM   17  C   UNL     1     -41.607 -53.635  13.615  1.00  0.00     0.050 C 
HETATM   18  C   UNL     1     -40.478 -54.365  14.328  1.00  0.00     0.077 C 
HETATM   19  S   UNL     1     -39.051 -53.254  14.319  1.00  0.00    -0.166 SA
HETATM   20  C   UNL     1     -39.839 -51.963  13.307  1.00  0.00     0.113 C 
BRANCH  16  21
HETATM   21  O   UNL     1     -40.556 -53.332  11.440  1.00  0.00    -0.387 OA
HETATM   22  H   UNL     1     -40.297 -52.674  10.771  1.00  0.00     0.210 HD
ENDBRANCH  16  21
ENDBRANCH  15  16
ENDBRANCH   3  15
TORSDOF 5
ENDMDL
MODEL 7
REMARK VINA RESULT:      -5.4      3.330      5.220
REMARK  5 active torsions:
REMARK  status: ('A' for Active; 'I' for Inactive)
REMARK    1  A    between atoms: C_9  and  C_10 
REMARK    2  A    between atoms: C_10  and  C_11 
REMARK       I    between atoms: C_11  and  N_13 
REMARK    3  A    between atoms: N_13  and  C_14 
REMARK    4  A    between atoms: C_14  and  C_15 
REMARK    5  A    between atoms: C_15  and  O_16 
ROOT
HETATM    1  C   UNL     1     -40.689 -51.476  12.289  1.00  0.00     0.222 C 
HETATM    2  O   UNL     1     -40.614 -51.061  13.446  1.00  0.00    -0.273 OA
HETATM    3  N   UNL     1     -40.378 -50.670  11.206  1.00  0.00    -0.358 N 
HETATM    4  H   UNL     1     -40.316 -51.062  10.274  1.00  0.00     0.162 HD
ENDROOT
BRANCH   1   5
HETATM    5  C   UNL     1     -41.162 -52.878  11.965  1.00  0.00     0.145 C 
BRANCH   5   6
HETATM    6  C   UNL     1     -41.885 -53.612  13.054  1.00  0.00    -0.002 A 
HETATM    7  C   UNL     1     -43.278 -53.803  13.290  1.00  0.00     0.030 A 
HETATM    8  C   UNL     1     -44.452 -53.358  12.495  1.00  0.00     0.070 C 
HETATM    9  N   UNL     1     -43.500 -54.507  14.406  1.00  0.00    -0.303 N 
HETATM   10  N   UNL     1     -42.283 -54.797  14.876  1.00  0.00    -0.300 N 
ATOM     11  HN  UNL     1     -44.400 -54.765  14.810  1.00  0.00     0.186 HD
HETATM   12  C   UNL     1     -42.169 -55.573  16.087  1.00  0.00     0.177 C 
HETATM   13  C   UNL     1     -41.269 -54.290  14.103  1.00  0.00     0.033 A 
HETATM   14  C   UNL     1     -39.827 -54.493  14.404  1.00  0.00     0.070 C 
ENDBRANCH   5   6
ENDBRANCH   1   5
BRANCH   3  15
HETATM   15  C   UNL     1     -39.994 -49.286  11.445  1.00  0.00     0.161 C 
BRANCH  15  16
HETATM   16  C   UNL     1     -41.027 -48.208  11.046  1.00  0.00     0.083 C 
HETATM   17  C   UNL     1     -40.326 -46.842  10.965  1.00  0.00     0.050 C 
HETATM   18  C   UNL     1     -41.366 -45.732  10.975  1.00  0.00     0.077 C 
HETATM   19  S   UNL     1     -42.806 -46.372  11.863  1.00  0.00    -0.166 SA
HETATM   20  C   UNL     1     -42.144 -48.054  12.081  1.00  0.00     0.113 C 
BRANCH  16  21
HETATM   21  O   UNL     1     -41.593 -48.545   9.772  1.00  0.00    -0.387 OA
HETATM   22  H   UNL     1     -40.952 -48.310   9.079  1.00  0.00     0.210 HD
ENDBRANCH  16  21
ENDBRANCH  15  16
ENDBRANCH   3  15
TORSDOF 5
ENDMDL
MODEL 8
REMARK VINA RESULT:      -5.2      3.645      6.832
REMARK  5 active torsions:
REMARK  status: ('A' for Active; 'I' for Inactive)
REMARK    1  A    between atoms: C_9  and  C_10 
REMARK    2  A    between atoms: C_10  and  C_11 
REMARK       I    between atoms: C_11  and  N_13 
REMARK    3  A    between atoms: N_13  and  C_14 
REMARK    4  A    between atoms: C_14  and  C_15 
REMARK    5  A    between atoms: C_15  and  O_16 
ROOT
HETATM    1  C   UNL     1     -41.430 -51.727  12.125  1.00  0.00     0.222 C 
HETATM    2  O   UNL     1     -40.793 -52.715  12.490  1.00  0.00    -0.273 OA
HETATM    3  N   UNL     1     -42.815 -51.724  12.097  1.00  0.00    -0.358 N 
HETATM    4  H   UNL     1     -43.325 -50.866  11.923  1.00  0.00     0.162 HD
ENDROOT
BRANCH   1   5
HETATM    5  C   UNL     1     -40.750 -50.462  11.644  1.00  0.00     0.145 C 
BRANCH   5   6
HETATM    6  C   UNL     1     -40.091 -49.613  12.691  1.00  0.00    -0.002 A 
HETATM    7  C   UNL     1     -40.637 -48.905  13.802  1.00  0.00     0.030 A 
HETATM    8  C   UNL     1     -42.039 -48.823  14.287  1.00  0.00     0.070 C 
HETATM    9  N   UNL     1     -39.693 -48.240  14.478  1.00  0.00    -0.303 N 
HETATM   10  N   UNL     1     -38.552 -48.528  13.845  1.00  0.00    -0.300 N 
ATOM     11  HN  UNL     1     -39.818 -47.644  15.296  1.00  0.00     0.186 HD
HETATM   12  C   UNL     1     -37.318 -47.967  14.341  1.00  0.00     0.177 C 
HETATM   13  C   UNL     1     -38.725 -49.355  12.764  1.00  0.00     0.033 A 
HETATM   14  C   UNL     1     -37.607 -49.836  11.910  1.00  0.00     0.070 C 
ENDBRANCH   5   6
ENDBRANCH   1   5
BRANCH   3  15
HETATM   15  C   UNL     1     -43.530 -52.936  12.470  1.00  0.00     0.161 C 
BRANCH  15  16
HETATM   16  C   UNL     1     -45.007 -52.762  12.890  1.00  0.00     0.083 C 
HETATM   17  C   UNL     1     -45.170 -51.416  13.614  1.00  0.00     0.050 C 
HETATM   18  C   UNL     1     -46.486 -51.401  14.377  1.00  0.00     0.077 C 
HETATM   19  S   UNL     1     -46.873 -53.119  14.785  1.00  0.00    -0.166 SA
HETATM   20  C   UNL     1     -45.467 -53.836  13.879  1.00  0.00     0.113 C 
BRANCH  16  21
HETATM   21  O   UNL     1     -45.838 -52.795  11.722  1.00  0.00    -0.387 OA
HETATM   22  H   UNL     1     -46.768 -52.815  12.007  1.00  0.00     0.210 HD
ENDBRANCH  16  21
ENDBRANCH  15  16
ENDBRANCH   3  15
TORSDOF 5
ENDMDL
MODEL 9
REMARK VINA RESULT:      -5.2      5.092      7.087
REMARK  5 active torsions:
REMARK  status: ('A' for Active; 'I' for Inactive)
REMARK    1  A    between atoms: C_9  and  C_10 
REMARK    2  A    between atoms: C_10  and  C_11 
REMARK       I    between atoms: C_11  and  N_13 
REMARK    3  A    between atoms: N_13  and  C_14 
REMARK    4  A    between atoms: C_14  and  C_15 
REMARK    5  A    between atoms: C_15  and  O_16 
ROOT
HETATM    1  C   UNL     1     -42.261 -49.349  12.061  1.00  0.00     0.222 C 
HETATM    2  O   UNL     1     -42.744 -48.786  13.044  1.00  0.00    -0.273 OA
HETATM    3  N   UNL     1     -42.096 -50.724  12.019  1.00  0.00    -0.358 N 
HETATM    4  H   UNL     1     -41.823 -51.184  11.158  1.00  0.00     0.162 HD
ENDROOT
BRANCH   1   5
HETATM    5  C   UNL     1     -41.779 -48.581  10.848  1.00  0.00     0.145 C 
BRANCH   5   6
HETATM    6  C   UNL     1     -42.292 -47.181  10.691  1.00  0.00    -0.002 A 
HETATM    7  C   UNL     1     -43.412 -46.669   9.971  1.00  0.00     0.030 A 
HETATM    8  C   UNL     1     -44.446 -47.382   9.178  1.00  0.00     0.070 C 
HETATM    9  N   UNL     1     -43.498 -45.337  10.071  1.00  0.00    -0.303 N 
HETATM   10  N   UNL     1     -42.479 -44.986  10.861  1.00  0.00    -0.300 N 
ATOM     11  HN  UNL     1     -44.190 -44.725   9.639  1.00  0.00     0.186 HD
HETATM   12  C   UNL     1     -42.294 -43.591  11.183  1.00  0.00     0.177 C 
HETATM   13  C   UNL     1     -41.719 -46.052  11.271  1.00  0.00     0.033 A 
HETATM   14  C   UNL     1     -40.543 -45.924  12.171  1.00  0.00     0.070 C 
ENDBRANCH   5   6
ENDBRANCH   1   5
BRANCH   3  15
HETATM   15  C   UNL     1     -42.464 -51.514  13.185  1.00  0.00     0.161 C 
BRANCH  15  16
HETATM   16  C   UNL     1     -43.611 -52.530  12.992  1.00  0.00     0.083 C 
HETATM   17  C   UNL     1     -44.958 -51.813  13.177  1.00  0.00     0.050 C 
HETATM   18  C   UNL     1     -46.060 -52.839  13.392  1.00  0.00     0.077 C 
HETATM   19  S   UNL     1     -45.282 -54.294  14.132  1.00  0.00    -0.166 SA
HETATM   20  C   UNL     1     -43.581 -53.655  14.031  1.00  0.00     0.113 C 
BRANCH  16  21
HETATM   21  O   UNL     1     -43.530 -53.090  11.675  1.00  0.00    -0.387 OA
HETATM   22  H   UNL     1     -43.174 -52.412  11.074  1.00  0.00     0.210 HD
ENDBRANCH  16  21
ENDBRANCH  15  16
ENDBRANCH   3  15
TORSDOF 5
ENDMDL
