MODEL 1
REMARK VINA RESULT:      -6.3      0.000      0.000
REMARK  4 active torsions:
REMARK  status: ('A' for Active; 'I' for Inactive)
REMARK    1  A    between atoms: C_8  and  N_9 
REMARK       I    between atoms: N_9  and  C_10 
REMARK       I    between atoms: C_10  and  N_12 
REMARK    2  A    between atoms: N_12  and  C_13 
REMARK    3  A    between atoms: N_16  and  C_17 
REMARK    4  A    between atoms: C_17  and  C_18 
REMARK       I    between atoms: C_18  and  N_20 
ROOT
HETATM    1  N   UNL     1     -44.435 -51.631  12.859  1.00  0.00    -0.294 N 
HETATM    2  C   UNL     1     -43.088 -51.429  13.056  1.00  0.00     0.322 C 
HETATM    3  O   UNL     1     -42.359 -52.099  13.773  1.00  0.00    -0.247 OA
HETATM    4  N   UNL     1     -42.640 -50.358  12.314  1.00  0.00    -0.338 N 
HETATM    5  H   UNL     1     -44.981 -50.786  12.930  1.00  0.00     0.172 HD
HETATM    6  H   UNL     1     -43.349 -49.815  11.843  1.00  0.00     0.164 HD
ENDROOT
BRANCH   4   7
HETATM    7  C   UNL     1     -41.272 -49.837  12.350  1.00  0.00     0.089 C 
HETATM    8  C   UNL     1     -41.172 -48.681  13.353  1.00  0.00     0.055 C 
HETATM    9  C   UNL     1     -41.930 -47.445  12.851  1.00  0.00     0.275 C 
HETATM   10  N   UNL     1     -41.539 -46.975  11.510  1.00  0.00     0.097 N 
HETATM   11  C   UNL     1     -41.532 -48.087  10.541  1.00  0.00     0.275 C 
HETATM   12  C   UNL     1     -40.762 -49.327  10.997  1.00  0.00     0.055 C 
BRANCH  10  13
HETATM   13  C   UNL     1     -40.246 -46.253  11.508  1.00  0.00     0.374 C 
BRANCH  13  14
HETATM   14  C   UNL     1     -40.229 -45.166  10.431  1.00  0.00     0.243 C 
HETATM   15  O   UNL     1     -41.039 -44.248  10.375  1.00  0.00    -0.272 OA
HETATM   16  N   UNL     1     -39.209 -45.269   9.523  1.00  0.00    -0.369 N 
HETATM   17  H   UNL     1     -38.766 -46.174   9.411  1.00  0.00     0.159 HD
HETATM   18  H   UNL     1     -39.232 -44.643   8.730  1.00  0.00     0.159 HD
ENDBRANCH  13  14
ENDBRANCH  10  13
ENDBRANCH   4   7
BRANCH   1  19
HETATM   19  C   UNL     1     -45.137 -52.702  13.427  1.00  0.00     0.114 A 
HETATM   20  C   UNL     1     -46.250 -52.554  14.261  1.00  0.00    -0.018 A 
HETATM   21  C   UNL     1     -46.787 -51.226  14.711  1.00  0.00     0.052 C 
HETATM   22  C   UNL     1     -46.855 -53.726  14.738  1.00  0.00     0.012 A 
HETATM   23  C   UNL     1     -46.323 -54.968  14.413  1.00  0.00     0.018 A 
HETATM   24  C   UNL     1     -45.184 -55.001  13.633  1.00  0.00     0.089 A 
HETATM   25  N   UNL     1     -44.568 -53.899  13.156  1.00  0.00    -0.352 N 
ATOM     26  HN  UNL     1     -43.707 -53.966  12.613  1.00  0.00     0.166 HD
ENDBRANCH   1  19
TORSDOF 4
ENDMDL
MODEL 2
REMARK VINA RESULT:      -6.1      2.070      8.044
REMARK  4 active torsions:
REMARK  status: ('A' for Active; 'I' for Inactive)
REMARK    1  A    between atoms: C_8  and  N_9 
REMARK       I    between atoms: N_9  and  C_10 
REMARK       I    between atoms: C_10  and  N_12 
REMARK    2  A    between atoms: N_12  and  C_13 
REMARK    3  A    between atoms: N_16  and  C_17 
REMARK    4  A    between atoms: C_17  and  C_18 
REMARK       I    between atoms: C_18  and  N_20 
ROOT
HETATM    1  N   UNL     1     -41.891 -49.234  10.957  1.00  0.00    -0.294 N 
HETATM    2  C   UNL     1     -41.668 -49.876  12.153  1.00  0.00     0.322 C 
HETATM    3  O   UNL     1     -41.199 -49.371  13.163  1.00  0.00    -0.247 OA
HETATM    4  N   UNL     1     -42.063 -51.194  12.082  1.00  0.00    -0.338 N 
HETATM    5  H   UNL     1     -41.558 -49.751  10.157  1.00  0.00     0.172 HD
HETATM    6  H   UNL     1     -42.336 -51.528  11.169  1.00  0.00     0.164 HD
ENDROOT
BRANCH   4   7
HETATM    7  C   UNL     1     -41.899 -52.170  13.161  1.00  0.00     0.089 C 
HETATM    8  C   UNL     1     -42.262 -53.574  12.665  1.00  0.00     0.055 C 
HETATM    9  C   UNL     1     -43.769 -53.697  12.404  1.00  0.00     0.275 C 
HETATM   10  N   UNL     1     -44.632 -53.332  13.542  1.00  0.00     0.097 N 
HETATM   11  C   UNL     1     -44.242 -52.025  14.104  1.00  0.00     0.275 C 
HETATM   12  C   UNL     1     -42.749 -51.877  14.403  1.00  0.00     0.055 C 
BRANCH  10  13
HETATM   13  C   UNL     1     -44.672 -54.377  14.591  1.00  0.00     0.374 C 
BRANCH  13  14
HETATM   14  C   UNL     1     -46.016 -54.366  15.322  1.00  0.00     0.243 C 
HETATM   15  O   UNL     1     -46.132 -54.476  16.537  1.00  0.00    -0.272 OA
HETATM   16  N   UNL     1     -47.110 -54.197  14.516  1.00  0.00    -0.369 N 
HETATM   17  H   UNL     1     -47.011 -54.419  13.532  1.00  0.00     0.159 HD
HETATM   18  H   UNL     1     -48.019 -54.303  14.945  1.00  0.00     0.159 HD
ENDBRANCH  13  14
ENDBRANCH  10  13
ENDBRANCH   4   7
BRANCH   1  19
HETATM   19  C   UNL     1     -41.657 -47.865  10.770  1.00  0.00     0.114 A 
HETATM   20  C   UNL     1     -42.636 -46.952  10.365  1.00  0.00    -0.018 A 
HETATM   21  C   UNL     1     -44.043 -47.335  10.010  1.00  0.00     0.052 C 
HETATM   22  C   UNL     1     -42.247 -45.610  10.239  1.00  0.00     0.012 A 
HETATM   23  C   UNL     1     -40.928 -45.240  10.471  1.00  0.00     0.018 A 
HETATM   24  C   UNL     1     -40.027 -46.231  10.805  1.00  0.00     0.089 A 
HETATM   25  N   UNL     1     -40.356 -47.533  10.934  1.00  0.00    -0.352 N 
ATOM     26  HN  UNL     1     -39.651 -48.239  11.148  1.00  0.00     0.166 HD
ENDBRANCH   1  19
TORSDOF 4
ENDMDL
MODEL 3
REMARK VINA RESULT:      -5.9      1.383      2.258
REMARK  4 active torsions:
REMARK  status: ('A' for Active; 'I' for Inactive)
REMARK    1  A    between atoms: C_8  and  N_9 
REMARK       I    between atoms: N_9  and  C_10 
REMARK       I    between atoms: C_10  and  N_12 
REMARK    2  A    between atoms: N_12  and  C_13 
REMARK    3  A    between atoms: N_16  and  C_17 
REMARK    4  A    between atoms: C_17  and  C_18 
REMARK       I    between atoms: C_18  and  N_20 
ROOT
HETATM    1  N   UNL     1     -43.691 -51.529  12.507  1.00  0.00    -0.294 N 
HETATM    2  C   UNL     1     -43.558 -50.360  13.220  1.00  0.00     0.322 C 
HETATM    3  O   UNL     1     -43.883 -50.190  14.387  1.00  0.00    -0.247 OA
HETATM    4  N   UNL     1     -42.984 -49.377  12.445  1.00  0.00    -0.338 N 
HETATM    5  H   UNL     1     -44.096 -51.396  11.592  1.00  0.00     0.172 HD
HETATM    6  H   UNL     1     -42.856 -49.598  11.468  1.00  0.00     0.164 HD
ENDROOT
BRANCH   4   7
HETATM    7  C   UNL     1     -42.765 -47.997  12.882  1.00  0.00     0.089 C 
HETATM    8  C   UNL     1     -42.850 -47.043  11.685  1.00  0.00     0.055 C 
HETATM    9  C   UNL     1     -41.655 -47.229  10.741  1.00  0.00     0.275 C 
HETATM   10  N   UNL     1     -40.332 -47.111  11.380  1.00  0.00     0.097 N 
HETATM   11  C   UNL     1     -40.252 -47.946  12.593  1.00  0.00     0.275 C 
HETATM   12  C   UNL     1     -41.415 -47.765  13.570  1.00  0.00     0.055 C 
BRANCH  10  13
HETATM   13  C   UNL     1     -39.956 -45.708  11.668  1.00  0.00     0.374 C 
BRANCH  13  14
HETATM   14  C   UNL     1     -39.946 -44.871  10.387  1.00  0.00     0.243 C 
HETATM   15  O   UNL     1     -40.662 -43.893  10.206  1.00  0.00    -0.272 OA
HETATM   16  N   UNL     1     -39.044 -45.276   9.439  1.00  0.00    -0.369 N 
HETATM   17  H   UNL     1     -38.707 -46.231   9.485  1.00  0.00     0.159 HD
HETATM   18  H   UNL     1     -39.089 -44.824   8.536  1.00  0.00     0.159 HD
ENDBRANCH  13  14
ENDBRANCH  10  13
ENDBRANCH   4   7
BRANCH   1  19
HETATM   19  C   UNL     1     -44.172 -52.718  13.072  1.00  0.00     0.114 A 
HETATM   20  C   UNL     1     -43.365 -53.815  13.392  1.00  0.00    -0.018 A 
HETATM   21  C   UNL     1     -41.894 -53.884  13.104  1.00  0.00     0.052 C 
HETATM   22  C   UNL     1     -43.995 -54.928  13.969  1.00  0.00     0.012 A 
HETATM   23  C   UNL     1     -45.372 -54.929  14.161  1.00  0.00     0.018 A 
HETATM   24  C   UNL     1     -46.084 -53.819  13.752  1.00  0.00     0.089 A 
HETATM   25  N   UNL     1     -45.520 -52.729  13.191  1.00  0.00    -0.352 N 
ATOM     26  HN  UNL     1     -46.087 -51.944  12.870  1.00  0.00     0.166 HD
ENDBRANCH   1  19
TORSDOF 4
ENDMDL
MODEL 4
REMARK VINA RESULT:      -5.7      3.432      7.909
REMARK  4 active torsions:
REMARK  status: ('A' for Active; 'I' for Inactive)
REMARK    1  A    between atoms: C_8  and  N_9 
REMARK       I    between atoms: N_9  and  C_10 
REMARK       I    between atoms: C_10  and  N_12 
REMARK    2  A    between atoms: N_12  and  C_13 
REMARK    3  A    between atoms: N_16  and  C_17 
REMARK    4  A    between atoms: C_17  and  C_18 
REMARK       I    between atoms: C_18  and  N_20 
ROOT
HETATM    1  N   UNL     1     -41.607 -49.636  11.256  1.00  0.00    -0.294 N 
HETATM    2  C   UNL     1     -42.354 -50.209  12.261  1.00  0.00     0.322 C 
HETATM    3  O   UNL     1     -43.246 -49.662  12.894  1.00  0.00    -0.247 OA
HETATM    4  N   UNL     1     -41.975 -51.517  12.466  1.00  0.00    -0.338 N 
HETATM    5  H   UNL     1     -40.616 -49.799  11.352  1.00  0.00     0.172 HD
HETATM    6  H   UNL     1     -41.158 -51.829  11.961  1.00  0.00     0.164 HD
ENDROOT
BRANCH   4   7
HETATM    7  C   UNL     1     -42.525 -52.387  13.507  1.00  0.00     0.089 C 
HETATM    8  C   UNL     1     -41.914 -52.034  14.869  1.00  0.00     0.055 C 
HETATM    9  C   UNL     1     -40.432 -52.427  14.930  1.00  0.00     0.275 C 
HETATM   10  N   UNL     1     -40.146 -53.836  14.606  1.00  0.00     0.097 N 
HETATM   11  C   UNL     1     -40.802 -54.233  13.347  1.00  0.00     0.275 C 
HETATM   12  C   UNL     1     -42.289 -53.882  13.262  1.00  0.00     0.055 C 
BRANCH  10  13
HETATM   13  C   UNL     1     -40.494 -54.761  15.709  1.00  0.00     0.374 C 
BRANCH  13  14
HETATM   14  C   UNL     1     -39.348 -55.737  15.985  1.00  0.00     0.243 C 
HETATM   15  O   UNL     1     -39.492 -56.813  16.554  1.00  0.00    -0.272 OA
HETATM   16  N   UNL     1     -38.123 -55.335  15.524  1.00  0.00    -0.369 N 
HETATM   17  H   UNL     1     -37.985 -54.347  15.350  1.00  0.00     0.159 HD
HETATM   18  H   UNL     1     -37.324 -55.894  15.790  1.00  0.00     0.159 HD
ENDBRANCH  13  14
ENDBRANCH  10  13
ENDBRANCH   4   7
BRANCH   1  19
HETATM   19  C   UNL     1     -41.833 -48.336  10.783  1.00  0.00     0.114 A 
HETATM   20  C   UNL     1     -41.001 -47.247  11.061  1.00  0.00    -0.018 A 
HETATM   21  C   UNL     1     -39.801 -47.318  11.959  1.00  0.00     0.052 C 
HETATM   22  C   UNL     1     -41.354 -46.011  10.499  1.00  0.00     0.012 A 
HETATM   23  C   UNL     1     -42.512 -45.895   9.738  1.00  0.00     0.018 A 
HETATM   24  C   UNL     1     -43.297 -47.019   9.578  1.00  0.00     0.089 A 
HETATM   25  N   UNL     1     -42.997 -48.226  10.102  1.00  0.00    -0.352 N 
ATOM     26  HN  UNL     1     -43.623 -49.024   9.989  1.00  0.00     0.166 HD
ENDBRANCH   1  19
TORSDOF 4
ENDMDL
MODEL 5
REMARK VINA RESULT:      -5.7      4.715      7.076
REMARK  4 active torsions:
REMARK  status: ('A' for Active; 'I' for Inactive)
REMARK    1  A    between atoms: C_8  and  N_9 
REMARK       I    between atoms: N_9  and  C_10 
REMARK       I    between atoms: C_10  and  N_12 
REMARK    2  A    between atoms: N_12  and  C_13 
REMARK    3  A    between atoms: N_16  and  C_17 
REMARK    4  A    between atoms: C_17  and  C_18 
REMARK       I    between atoms: C_18  and  N_20 
ROOT
HETATM    1  N   UNL     1     -40.902 -47.913  10.905  1.00  0.00    -0.294 N 
HETATM    2  C   UNL     1     -41.105 -48.876  11.867  1.00  0.00     0.322 C 
HETATM    3  O   UNL     1     -42.190 -49.298  12.243  1.00  0.00    -0.247 OA
HETATM    4  N   UNL     1     -39.904 -49.335  12.361  1.00  0.00    -0.338 N 
HETATM    5  H   UNL     1     -40.240 -47.204  11.182  1.00  0.00     0.172 HD
HETATM    6  H   UNL     1     -39.079 -48.840  12.056  1.00  0.00     0.164 HD
ENDROOT
BRANCH   4   7
HETATM    7  C   UNL     1     -39.771 -50.311  13.444  1.00  0.00     0.089 C 
HETATM    8  C   UNL     1     -39.820 -49.605  14.804  1.00  0.00     0.055 C 
HETATM    9  C   UNL     1     -38.561 -48.758  15.034  1.00  0.00     0.275 C 
HETATM   10  N   UNL     1     -37.286 -49.485  14.896  1.00  0.00     0.097 N 
HETATM   11  C   UNL     1     -37.248 -50.254  13.639  1.00  0.00     0.275 C 
HETATM   12  C   UNL     1     -38.476 -51.131  13.389  1.00  0.00     0.055 C 
BRANCH  10  13
HETATM   13  C   UNL     1     -36.987 -50.347  16.063  1.00  0.00     0.374 C 
BRANCH  13  14
HETATM   14  C   UNL     1     -35.593 -50.049  16.620  1.00  0.00     0.243 C 
HETATM   15  O   UNL     1     -34.926 -49.072  16.301  1.00  0.00    -0.272 OA
HETATM   16  N   UNL     1     -35.134 -50.953  17.541  1.00  0.00    -0.369 N 
HETATM   17  H   UNL     1     -35.553 -51.876  17.546  1.00  0.00     0.159 HD
HETATM   18  H   UNL     1     -34.175 -50.857  17.842  1.00  0.00     0.159 HD
ENDBRANCH  13  14
ENDBRANCH  10  13
ENDBRANCH   4   7
BRANCH   1  19
HETATM   19  C   UNL     1     -41.947 -47.330  10.175  1.00  0.00     0.114 A 
HETATM   20  C   UNL     1     -42.464 -46.056  10.431  1.00  0.00    -0.018 A 
HETATM   21  C   UNL     1     -42.013 -45.182  11.565  1.00  0.00     0.052 C 
HETATM   22  C   UNL     1     -43.500 -45.606   9.600  1.00  0.00     0.012 A 
HETATM   23  C   UNL     1     -44.001 -46.431   8.600  1.00  0.00     0.018 A 
HETATM   24  C   UNL     1     -43.463 -47.696   8.473  1.00  0.00     0.089 A 
HETATM   25  N   UNL     1     -42.468 -48.170   9.252  1.00  0.00    -0.352 N 
ATOM     26  HN  UNL     1     -42.122 -49.124   9.148  1.00  0.00     0.166 HD
ENDBRANCH   1  19
TORSDOF 4
ENDMDL
MODEL 6
REMARK VINA RESULT:      -5.5      3.399      4.305
REMARK  4 active torsions:
REMARK  status: ('A' for Active; 'I' for Inactive)
REMARK    1  A    between atoms: C_8  and  N_9 
REMARK       I    between atoms: N_9  and  C_10 
REMARK       I    between atoms: C_10  and  N_12 
REMARK    2  A    between atoms: N_12  and  C_13 
REMARK    3  A    between atoms: N_16  and  C_17 
REMARK    4  A    between atoms: C_17  and  C_18 
REMARK       I    between atoms: C_18  and  N_20 
ROOT
HETATM    1  N   UNL     1     -41.022 -50.855  11.655  1.00  0.00    -0.294 N 
HETATM    2  C   UNL     1     -42.035 -50.008  12.040  1.00  0.00     0.322 C 
HETATM    3  O   UNL     1     -42.744 -50.138  13.028  1.00  0.00    -0.247 OA
HETATM    4  N   UNL     1     -42.151 -48.954  11.160  1.00  0.00    -0.338 N 
HETATM    5  H   UNL     1     -41.053 -51.098  10.677  1.00  0.00     0.172 HD
HETATM    6  H   UNL     1     -41.587 -49.006  10.325  1.00  0.00     0.164 HD
ENDROOT
BRANCH   4   7
HETATM    7  C   UNL     1     -43.176 -47.911  11.245  1.00  0.00     0.089 C 
HETATM    8  C   UNL     1     -43.139 -47.029   9.991  1.00  0.00     0.055 C 
HETATM    9  C   UNL     1     -41.868 -46.170   9.955  1.00  0.00     0.275 C 
HETATM   10  N   UNL     1     -41.640 -45.343  11.153  1.00  0.00     0.097 N 
HETATM   11  C   UNL     1     -41.766 -46.146  12.384  1.00  0.00     0.275 C 
HETATM   12  C   UNL     1     -43.036 -46.994  12.466  1.00  0.00     0.055 C 
BRANCH  10  13
HETATM   13  C   UNL     1     -42.513 -44.147  11.200  1.00  0.00     0.374 C 
BRANCH  13  14
HETATM   14  C   UNL     1     -41.724 -42.910  11.635  1.00  0.00     0.243 C 
HETATM   15  O   UNL     1     -42.080 -42.156  12.533  1.00  0.00    -0.272 OA
HETATM   16  N   UNL     1     -40.552 -42.706  10.957  1.00  0.00    -0.369 N 
HETATM   17  H   UNL     1     -40.449 -43.144  10.049  1.00  0.00     0.159 HD
HETATM   18  H   UNL     1     -40.063 -41.839  11.132  1.00  0.00     0.159 HD
ENDBRANCH  13  14
ENDBRANCH  10  13
ENDBRANCH   4   7
BRANCH   1  19
HETATM   19  C   UNL     1     -40.629 -51.968  12.411  1.00  0.00     0.114 A 
HETATM   20  C   UNL     1     -39.541 -51.973  13.290  1.00  0.00    -0.018 A 
HETATM   21  C   UNL     1     -38.614 -50.808  13.481  1.00  0.00     0.052 C 
HETATM   22  C   UNL     1     -39.287 -53.163  13.988  1.00  0.00     0.012 A 
HETATM   23  C   UNL     1     -40.072 -54.287  13.762  1.00  0.00     0.018 A 
HETATM   24  C   UNL     1     -41.082 -54.194  12.825  1.00  0.00     0.089 A 
HETATM   25  N   UNL     1     -41.361 -53.071  12.130  1.00  0.00    -0.352 N 
ATOM     26  HN  UNL     1     -42.094 -53.055  11.421  1.00  0.00     0.166 HD
ENDBRANCH   1  19
TORSDOF 4
ENDMDL
MODEL 7
REMARK VINA RESULT:      -5.3      2.669      8.262
REMARK  4 active torsions:
REMARK  status: ('A' for Active; 'I' for Inactive)
REMARK    1  A    between atoms: C_8  and  N_9 
REMARK       I    between atoms: N_9  and  C_10 
REMARK       I    between atoms: C_10  and  N_12 
REMARK    2  A    between atoms: N_12  and  C_13 
REMARK    3  A    between atoms: N_16  and  C_17 
REMARK    4  A    between atoms: C_17  and  C_18 
REMARK       I    between atoms: C_18  and  N_20 
ROOT
HETATM    1  N   UNL     1     -41.385 -47.794  11.605  1.00  0.00    -0.294 N 
HETATM    2  C   UNL     1     -40.501 -48.771  12.003  1.00  0.00     0.322 C 
HETATM    3  O   UNL     1     -39.302 -48.621  12.191  1.00  0.00    -0.247 OA
HETATM    4  N   UNL     1     -41.149 -49.973  12.183  1.00  0.00    -0.338 N 
HETATM    5  H   UNL     1     -41.992 -48.085  10.854  1.00  0.00     0.172 HD
HETATM    6  H   UNL     1     -42.117 -50.004  11.896  1.00  0.00     0.164 HD
ENDROOT
BRANCH   4   7
HETATM    7  C   UNL     1     -40.486 -51.229  12.538  1.00  0.00     0.089 C 
HETATM    8  C   UNL     1     -41.135 -52.400  11.792  1.00  0.00     0.055 C 
HETATM    9  C   UNL     1     -42.551 -52.674  12.316  1.00  0.00     0.275 C 
HETATM   10  N   UNL     1     -42.647 -52.895  13.770  1.00  0.00     0.097 N 
HETATM   11  C   UNL     1     -41.946 -51.832  14.515  1.00  0.00     0.275 C 
HETATM   12  C   UNL     1     -40.520 -51.551  14.037  1.00  0.00     0.055 C 
BRANCH  10  13
HETATM   13  C   UNL     1     -42.176 -54.238  14.180  1.00  0.00     0.374 C 
BRANCH  13  14
HETATM   14  C   UNL     1     -43.292 -55.021  14.875  1.00  0.00     0.243 C 
HETATM   15  O   UNL     1     -43.114 -55.741  15.850  1.00  0.00    -0.272 OA
HETATM   16  N   UNL     1     -44.541 -54.841  14.342  1.00  0.00    -0.369 N 
HETATM   17  H   UNL     1     -44.603 -54.508  13.387  1.00  0.00     0.159 HD
HETATM   18  H   UNL     1     -45.282 -55.430  14.696  1.00  0.00     0.159 HD
ENDBRANCH  13  14
ENDBRANCH  10  13
ENDBRANCH   4   7
BRANCH   1  19
HETATM   19  C   UNL     1     -41.013 -46.455  11.426  1.00  0.00     0.114 A 
HETATM   20  C   UNL     1     -41.552 -45.389  12.154  1.00  0.00    -0.018 A 
HETATM   21  C   UNL     1     -42.648 -45.537  13.168  1.00  0.00     0.052 C 
HETATM   22  C   UNL     1     -41.063 -44.105  11.868  1.00  0.00     0.012 A 
HETATM   23  C   UNL     1     -40.114 -43.926  10.868  1.00  0.00     0.018 A 
HETATM   24  C   UNL     1     -39.695 -45.039  10.166  1.00  0.00     0.089 A 
HETATM   25  N   UNL     1     -40.141 -46.290  10.405  1.00  0.00    -0.352 N 
ATOM     26  HN  UNL     1     -39.831 -47.080   9.839  1.00  0.00     0.166 HD
ENDBRANCH   1  19
TORSDOF 4
ENDMDL
MODEL 8
REMARK VINA RESULT:      -5.3      3.979      8.548
REMARK  4 active torsions:
REMARK  status: ('A' for Active; 'I' for Inactive)
REMARK    1  A    between atoms: C_8  and  N_9 
REMARK       I    between atoms: N_9  and  C_10 
REMARK       I    between atoms: C_10  and  N_12 
REMARK    2  A    between atoms: N_12  and  C_13 
REMARK    3  A    between atoms: N_16  and  C_17 
REMARK    4  A    between atoms: C_17  and  C_18 
REMARK       I    between atoms: C_18  and  N_20 
ROOT
HETATM    1  N   UNL     1     -38.985 -49.998  15.040  1.00  0.00    -0.294 N 
HETATM    2  C   UNL     1     -39.062 -51.081  14.195  1.00  0.00     0.322 C 
HETATM    3  O   UNL     1     -38.116 -51.723  13.762  1.00  0.00    -0.247 OA
HETATM    4  N   UNL     1     -40.374 -51.376  13.897  1.00  0.00    -0.338 N 
HETATM    5  H   UNL     1     -39.557 -49.220  14.746  1.00  0.00     0.172 HD
HETATM    6  H   UNL     1     -41.065 -50.716  14.223  1.00  0.00     0.164 HD
ENDROOT
BRANCH   4   7
HETATM    7  C   UNL     1     -40.799 -52.428  12.971  1.00  0.00     0.089 C 
HETATM    8  C   UNL     1     -42.004 -51.956  12.150  1.00  0.00     0.055 C 
HETATM    9  C   UNL     1     -43.258 -51.832  13.026  1.00  0.00     0.275 C 
HETATM   10  N   UNL     1     -43.614 -53.047  13.781  1.00  0.00     0.097 N 
HETATM   11  C   UNL     1     -42.447 -53.582  14.506  1.00  0.00     0.275 C 
HETATM   12  C   UNL     1     -41.186 -53.744  13.656  1.00  0.00     0.055 C 
BRANCH  10  13
HETATM   13  C   UNL     1     -44.242 -54.087  12.933  1.00  0.00     0.374 C 
BRANCH  13  14
HETATM   14  C   UNL     1     -45.503 -54.645  13.597  1.00  0.00     0.243 C 
HETATM   15  O   UNL     1     -45.613 -55.802  13.986  1.00  0.00    -0.272 OA
HETATM   16  N   UNL     1     -46.520 -53.742  13.756  1.00  0.00    -0.369 N 
HETATM   17  H   UNL     1     -46.517 -52.918  13.166  1.00  0.00     0.159 HD
HETATM   18  H   UNL     1     -47.408 -54.099  14.081  1.00  0.00     0.159 HD
ENDBRANCH  13  14
ENDBRANCH  10  13
ENDBRANCH   4   7
BRANCH   1  19
HETATM   19  C   UNL     1     -37.777 -49.528  15.570  1.00  0.00     0.114 A 
HETATM   20  C   UNL     1     -37.278 -48.238  15.359  1.00  0.00    -0.018 A 
HETATM   21  C   UNL     1     -37.941 -47.218  14.479  1.00  0.00     0.052 C 
HETATM   22  C   UNL     1     -36.060 -47.912  15.973  1.00  0.00     0.012 A 
HETATM   23  C   UNL     1     -35.377 -48.866  16.718  1.00  0.00     0.018 A 
HETATM   24  C   UNL     1     -35.926 -50.130  16.812  1.00  0.00     0.089 A 
HETATM   25  N   UNL     1     -37.093 -50.487  16.236  1.00  0.00    -0.352 N 
ATOM     26  HN  UNL     1     -37.446 -51.442  16.300  1.00  0.00     0.166 HD
ENDBRANCH   1  19
TORSDOF 4
ENDMDL
MODEL 9
REMARK VINA RESULT:      -5.3      4.096      4.854
REMARK  4 active torsions:
REMARK  status: ('A' for Active; 'I' for Inactive)
REMARK    1  A    between atoms: C_8  and  N_9 
REMARK       I    between atoms: N_9  and  C_10 
REMARK       I    between atoms: C_10  and  N_12 
REMARK    2  A    between atoms: N_12  and  C_13 
REMARK    3  A    between atoms: N_16  and  C_17 
REMARK    4  A    between atoms: C_17  and  C_18 
REMARK       I    between atoms: C_18  and  N_20 
ROOT
HETATM    1  N   UNL     1     -42.883 -50.808  13.686  1.00  0.00    -0.294 N 
HETATM    2  C   UNL     1     -41.806 -51.663  13.727  1.00  0.00     0.322 C 
HETATM    3  O   UNL     1     -41.859 -52.881  13.824  1.00  0.00    -0.247 OA
HETATM    4  N   UNL     1     -40.622 -50.965  13.629  1.00  0.00    -0.338 N 
HETATM    5  H   UNL     1     -42.787 -50.014  14.300  1.00  0.00     0.172 HD
HETATM    6  H   UNL     1     -40.696 -49.958  13.661  1.00  0.00     0.164 HD
ENDROOT
BRANCH   4   7
HETATM    7  C   UNL     1     -39.292 -51.570  13.709  1.00  0.00     0.089 C 
HETATM    8  C   UNL     1     -38.921 -51.843  15.171  1.00  0.00     0.055 C 
HETATM    9  C   UNL     1     -38.679 -50.534  15.935  1.00  0.00     0.275 C 
HETATM   10  N   UNL     1     -37.684 -49.632  15.328  1.00  0.00     0.097 N 
HETATM   11  C   UNL     1     -37.959 -49.427  13.894  1.00  0.00     0.275 C 
HETATM   12  C   UNL     1     -38.178 -50.714  13.096  1.00  0.00     0.055 C 
BRANCH  10  13
HETATM   13  C   UNL     1     -36.290 -50.083  15.549  1.00  0.00     0.374 C 
BRANCH  13  14
HETATM   14  C   UNL     1     -35.581 -49.188  16.569  1.00  0.00     0.243 C 
HETATM   15  O   UNL     1     -34.871 -48.238  16.264  1.00  0.00    -0.272 OA
HETATM   16  N   UNL     1     -35.816 -49.509  17.879  1.00  0.00    -0.369 N 
HETATM   17  H   UNL     1     -36.135 -50.448  18.087  1.00  0.00     0.159 HD
HETATM   18  H   UNL     1     -35.275 -49.018  18.578  1.00  0.00     0.159 HD
ENDBRANCH  13  14
ENDBRANCH  10  13
ENDBRANCH   4   7
BRANCH   1  19
HETATM   19  C   UNL     1     -44.211 -51.253  13.686  1.00  0.00     0.114 A 
HETATM   20  C   UNL     1     -45.095 -51.079  14.757  1.00  0.00    -0.018 A 
HETATM   21  C   UNL     1     -44.709 -50.458  16.068  1.00  0.00     0.052 C 
HETATM   22  C   UNL     1     -46.400 -51.567  14.597  1.00  0.00     0.012 A 
HETATM   23  C   UNL     1     -46.759 -52.230  13.429  1.00  0.00     0.018 A 
HETATM   24  C   UNL     1     -45.792 -52.404  12.459  1.00  0.00     0.089 A 
HETATM   25  N   UNL     1     -44.525 -51.954  12.572  1.00  0.00    -0.352 N 
ATOM     26  HN  UNL     1     -43.832 -52.134  11.846  1.00  0.00     0.166 HD
ENDBRANCH   1  19
TORSDOF 4
ENDMDL
