MODEL 1
REMARK VINA RESULT:      -6.4      0.000      0.000
REMARK  6 active torsions:
REMARK  status: ('A' for Active; 'I' for Inactive)
REMARK    1  A    between atoms: N_1  and  C_2 
REMARK    2  A    between atoms: C_5  and  S_6 
REMARK    3  A    between atoms: S_6  and  C_7 
REMARK    4  A    between atoms: C_7  and  C_8 
REMARK    5  A    between atoms: C_8  and  O_9 
REMARK    6  A    between atoms: O_9  and  C_10 
ROOT
HETATM    1  C   UNL     1     -41.589 -48.342  10.586  1.00  0.00     0.102 A 
HETATM    2  N   UNL     1     -41.531 -49.583  11.106  1.00  0.00    -0.326 N 
ATOM      3  HN  UNL     1     -42.096 -50.346  10.733  1.00  0.00     0.169 HD
HETATM    4  C   UNL     1     -40.696 -49.766  12.135  1.00  0.00     0.145 A 
HETATM    5  N   UNL     1     -39.916 -48.812  12.672  1.00  0.00    -0.345 N 
ATOM      6  HN  UNL     1     -39.293 -49.007  13.456  1.00  0.00     0.167 HD
HETATM    7  C   UNL     1     -39.999 -47.590  12.125  1.00  0.00     0.116 A 
HETATM    8  C   UNL     1     -40.825 -47.293  11.069  1.00  0.00     0.098 A 
HETATM    9  C   UNL     1     -40.873 -45.973  10.542  1.00  0.00     0.104 C 
HETATM   10  N   UNL     1     -40.926 -44.882  10.148  1.00  0.00    -0.191 NA
ENDROOT
BRANCH   1  11
HETATM   11  N   UNL     1     -42.422 -48.196   9.475  1.00  0.00    -0.287 NA
HETATM   12  H   UNL     1     -42.853 -47.275   9.502  1.00  0.00     0.125 HD
HETATM   13  H   UNL     1     -41.972 -48.385   8.585  1.00  0.00     0.125 HD
ENDBRANCH   1  11
BRANCH   4  14
HETATM   14  S   UNL     1     -40.544 -51.342  12.922  1.00  0.00    -0.092 SA
BRANCH  14  15
HETATM   15  C   UNL     1     -41.595 -52.449  11.909  1.00  0.00     0.108 C 
BRANCH  15  16
HETATM   16  C   UNL     1     -42.818 -52.729  12.786  1.00  0.00     0.178 C 
BRANCH  16  17
HETATM   17  O   UNL     1     -43.958 -53.212  12.061  1.00  0.00    -0.385 OA
BRANCH  17  18
HETATM   18  C   UNL     1     -45.176 -53.096  12.841  1.00  0.00     0.121 C 
HETATM   19  C   UNL     1     -45.292 -51.703  13.488  1.00  0.00     0.032 C 
HETATM   20  C   UNL     1     -46.709 -51.398  13.956  1.00  0.00     0.002 C 
HETATM   21  C   UNL     1     -46.982 -51.785  15.399  1.00  0.00     0.000 C 
HETATM   22  C   UNL     1     -46.377 -53.106  15.868  1.00  0.00     0.000 C 
HETATM   23  C   UNL     1     -46.390 -54.234  14.838  1.00  0.00     0.002 C 
HETATM   24  C   UNL     1     -45.183 -54.221  13.889  1.00  0.00     0.032 C 
ENDBRANCH  17  18
ENDBRANCH  16  17
ENDBRANCH  15  16
ENDBRANCH  14  15
ENDBRANCH   4  14
TORSDOF 6
ENDMDL
MODEL 2
REMARK VINA RESULT:      -6.3      1.632      2.206
REMARK  6 active torsions:
REMARK  status: ('A' for Active; 'I' for Inactive)
REMARK    1  A    between atoms: N_1  and  C_2 
REMARK    2  A    between atoms: C_5  and  S_6 
REMARK    3  A    between atoms: S_6  and  C_7 
REMARK    4  A    between atoms: C_7  and  C_8 
REMARK    5  A    between atoms: C_8  and  O_9 
REMARK    6  A    between atoms: O_9  and  C_10 
ROOT
HETATM    1  C   UNL     1     -41.327 -46.680  10.262  1.00  0.00     0.102 A 
HETATM    2  N   UNL     1     -40.640 -47.724  10.764  1.00  0.00    -0.326 N 
ATOM      3  HN  UNL     1     -39.625 -47.701  10.856  1.00  0.00     0.169 HD
HETATM    4  C   UNL     1     -41.355 -48.792  11.137  1.00  0.00     0.145 A 
HETATM    5  N   UNL     1     -42.693 -48.889  11.054  1.00  0.00    -0.345 N 
ATOM      6  HN  UNL     1     -43.190 -49.727  11.356  1.00  0.00     0.167 HD
HETATM    7  C   UNL     1     -43.342 -47.827  10.552  1.00  0.00     0.116 A 
HETATM    8  C   UNL     1     -42.706 -46.684  10.137  1.00  0.00     0.098 A 
HETATM    9  C   UNL     1     -43.454 -45.598   9.603  1.00  0.00     0.104 C 
HETATM   10  N   UNL     1     -44.077 -44.735   9.138  1.00  0.00    -0.191 NA
ENDROOT
BRANCH   1  11
HETATM   11  N   UNL     1     -40.562 -45.558   9.939  1.00  0.00    -0.287 NA
HETATM   12  H   UNL     1     -41.126 -44.918   9.385  1.00  0.00     0.125 HD
HETATM   13  H   UNL     1     -40.131 -45.100  10.736  1.00  0.00     0.125 HD
ENDBRANCH   1  11
BRANCH   4  14
HETATM   14  S   UNL     1     -40.571 -50.236  11.791  1.00  0.00    -0.092 SA
BRANCH  14  15
HETATM   15  C   UNL     1     -41.001 -50.208  13.571  1.00  0.00     0.108 C 
BRANCH  15  16
HETATM   16  C   UNL     1     -42.032 -51.328  13.737  1.00  0.00     0.178 C 
BRANCH  16  17
HETATM   17  O   UNL     1     -42.611 -51.778  12.503  1.00  0.00    -0.385 OA
BRANCH  17  18
HETATM   18  C   UNL     1     -43.958 -52.280  12.697  1.00  0.00     0.121 C 
HETATM   19  C   UNL     1     -44.793 -51.316  13.560  1.00  0.00     0.032 C 
HETATM   20  C   UNL     1     -46.288 -51.583  13.445  1.00  0.00     0.002 C 
HETATM   21  C   UNL     1     -46.829 -52.544  14.489  1.00  0.00     0.000 C 
HETATM   22  C   UNL     1     -45.945 -53.742  14.824  1.00  0.00     0.000 C 
HETATM   23  C   UNL     1     -45.203 -54.359  13.639  1.00  0.00     0.002 C 
HETATM   24  C   UNL     1     -43.862 -53.680  13.326  1.00  0.00     0.032 C 
ENDBRANCH  17  18
ENDBRANCH  16  17
ENDBRANCH  15  16
ENDBRANCH  14  15
ENDBRANCH   4  14
TORSDOF 6
ENDMDL
MODEL 3
REMARK VINA RESULT:      -6.2      2.260      3.393
REMARK  6 active torsions:
REMARK  status: ('A' for Active; 'I' for Inactive)
REMARK    1  A    between atoms: N_1  and  C_2 
REMARK    2  A    between atoms: C_5  and  S_6 
REMARK    3  A    between atoms: S_6  and  C_7 
REMARK    4  A    between atoms: C_7  and  C_8 
REMARK    5  A    between atoms: C_8  and  O_9 
REMARK    6  A    between atoms: O_9  and  C_10 
ROOT
HETATM    1  C   UNL     1     -43.195 -47.789   8.882  1.00  0.00     0.102 A 
HETATM    2  N   UNL     1     -41.996 -48.136   9.388  1.00  0.00    -0.326 N 
ATOM      3  HN  UNL     1     -41.198 -48.334   8.784  1.00  0.00     0.169 HD
HETATM    4  C   UNL     1     -41.903 -48.209  10.721  1.00  0.00     0.145 A 
HETATM    5  N   UNL     1     -42.907 -47.955  11.577  1.00  0.00    -0.345 N 
ATOM      6  HN  UNL     1     -42.781 -48.022  12.587  1.00  0.00     0.167 HD
HETATM    7  C   UNL     1     -44.085 -47.608  11.035  1.00  0.00     0.116 A 
HETATM    8  C   UNL     1     -44.290 -47.506   9.682  1.00  0.00     0.098 A 
HETATM    9  C   UNL     1     -45.567 -47.144   9.172  1.00  0.00     0.104 C 
HETATM   10  N   UNL     1     -46.626 -46.882   8.774  1.00  0.00    -0.191 NA
ENDROOT
BRANCH   1  11
HETATM   11  N   UNL     1     -43.245 -47.661   7.493  1.00  0.00    -0.287 NA
HETATM   12  H   UNL     1     -42.309 -47.480   7.141  1.00  0.00     0.125 HD
HETATM   13  H   UNL     1     -43.692 -48.438   7.016  1.00  0.00     0.125 HD
ENDBRANCH   1  11
BRANCH   4  14
HETATM   14  S   UNL     1     -40.391 -48.677  11.509  1.00  0.00    -0.092 SA
BRANCH  14  15
HETATM   15  C   UNL     1     -40.572 -50.479  11.785  1.00  0.00     0.108 C 
BRANCH  15  16
HETATM   16  C   UNL     1     -41.192 -50.596  13.180  1.00  0.00     0.178 C 
BRANCH  16  17
HETATM   17  O   UNL     1     -41.368 -51.947  13.630  1.00  0.00    -0.385 OA
BRANCH  17  18
HETATM   18  C   UNL     1     -42.771 -52.271  13.812  1.00  0.00     0.121 C 
HETATM   19  C   UNL     1     -43.365 -52.907  12.542  1.00  0.00     0.032 C 
HETATM   20  C   UNL     1     -44.679 -53.627  12.815  1.00  0.00     0.002 C 
HETATM   21  C   UNL     1     -45.913 -52.761  12.623  1.00  0.00     0.000 C 
HETATM   22  C   UNL     1     -45.807 -51.320  13.115  1.00  0.00     0.000 C 
HETATM   23  C   UNL     1     -45.027 -51.129  14.415  1.00  0.00     0.002 C 
HETATM   24  C   UNL     1     -43.512 -50.985  14.213  1.00  0.00     0.032 C 
ENDBRANCH  17  18
ENDBRANCH  16  17
ENDBRANCH  15  16
ENDBRANCH  14  15
ENDBRANCH   4  14
TORSDOF 6
ENDMDL
MODEL 4
REMARK VINA RESULT:      -6.2      1.366      2.045
REMARK  6 active torsions:
REMARK  status: ('A' for Active; 'I' for Inactive)
REMARK    1  A    between atoms: N_1  and  C_2 
REMARK    2  A    between atoms: C_5  and  S_6 
REMARK    3  A    between atoms: S_6  and  C_7 
REMARK    4  A    between atoms: C_7  and  C_8 
REMARK    5  A    between atoms: C_8  and  O_9 
REMARK    6  A    between atoms: O_9  and  C_10 
ROOT
HETATM    1  C   UNL     1     -42.503 -47.947  10.685  1.00  0.00     0.102 A 
HETATM    2  N   UNL     1     -41.846 -49.080  11.002  1.00  0.00    -0.326 N 
ATOM      3  HN  UNL     1     -42.321 -49.982  11.031  1.00  0.00     0.169 HD
HETATM    4  C   UNL     1     -40.542 -48.963  11.275  1.00  0.00     0.145 A 
HETATM    5  N   UNL     1     -39.850 -47.811  11.248  1.00  0.00    -0.345 N 
ATOM      6  HN  UNL     1     -38.853 -47.778  11.462  1.00  0.00     0.167 HD
HETATM    7  C   UNL     1     -40.538 -46.705  10.924  1.00  0.00     0.116 A 
HETATM    8  C   UNL     1     -41.878 -46.712  10.629  1.00  0.00     0.098 A 
HETATM    9  C   UNL     1     -42.551 -45.502  10.304  1.00  0.00     0.104 C 
HETATM   10  N   UNL     1     -43.090 -44.499  10.075  1.00  0.00    -0.191 NA
ENDROOT
BRANCH   1  11
HETATM   11  N   UNL     1     -43.847 -48.109  10.345  1.00  0.00    -0.287 NA
HETATM   12  H   UNL     1     -44.426 -47.695  11.072  1.00  0.00     0.125 HD
HETATM   13  H   UNL     1     -44.090 -47.770   9.419  1.00  0.00     0.125 HD
ENDBRANCH   1  11
BRANCH   4  14
HETATM   14  S   UNL     1     -39.571 -50.370  11.727  1.00  0.00    -0.092 SA
BRANCH  14  15
HETATM   15  C   UNL     1     -40.399 -51.018  13.227  1.00  0.00     0.108 C 
BRANCH  15  16
HETATM   16  C   UNL     1     -41.167 -52.250  12.742  1.00  0.00     0.178 C 
BRANCH  16  17
HETATM   17  O   UNL     1     -42.476 -51.959  12.230  1.00  0.00    -0.385 OA
BRANCH  17  18
HETATM   18  C   UNL     1     -43.508 -52.236  13.211  1.00  0.00     0.121 C 
HETATM   19  C   UNL     1     -44.591 -53.166  12.633  1.00  0.00     0.032 C 
HETATM   20  C   UNL     1     -45.445 -53.805  13.720  1.00  0.00     0.002 C 
HETATM   21  C   UNL     1     -46.699 -53.019  14.065  1.00  0.00     0.000 C 
HETATM   22  C   UNL     1     -46.549 -51.501  14.117  1.00  0.00     0.000 C 
HETATM   23  C   UNL     1     -45.234 -50.994  14.707  1.00  0.00     0.002 C 
HETATM   24  C   UNL     1     -44.093 -50.895  13.684  1.00  0.00     0.032 C 
ENDBRANCH  17  18
ENDBRANCH  16  17
ENDBRANCH  15  16
ENDBRANCH  14  15
ENDBRANCH   4  14
TORSDOF 6
ENDMDL
MODEL 5
REMARK VINA RESULT:      -6.2      4.212      5.989
REMARK  6 active torsions:
REMARK  status: ('A' for Active; 'I' for Inactive)
REMARK    1  A    between atoms: N_1  and  C_2 
REMARK    2  A    between atoms: C_5  and  S_6 
REMARK    3  A    between atoms: S_6  and  C_7 
REMARK    4  A    between atoms: C_7  and  C_8 
REMARK    5  A    between atoms: C_8  and  O_9 
REMARK    6  A    between atoms: O_9  and  C_10 
ROOT
HETATM    1  C   UNL     1     -43.512 -47.522   8.169  1.00  0.00     0.102 A 
HETATM    2  N   UNL     1     -42.593 -46.849   8.887  1.00  0.00    -0.326 N 
ATOM      3  HN  UNL     1     -41.662 -46.658   8.519  1.00  0.00     0.169 HD
HETATM    4  C   UNL     1     -42.963 -46.442  10.107  1.00  0.00     0.145 A 
HETATM    5  N   UNL     1     -44.174 -46.650  10.653  1.00  0.00    -0.345 N 
ATOM      6  HN  UNL     1     -44.405 -46.315  11.589  1.00  0.00     0.167 HD
HETATM    7  C   UNL     1     -45.063 -47.322   9.906  1.00  0.00     0.116 A 
HETATM    8  C   UNL     1     -44.786 -47.786   8.644  1.00  0.00     0.098 A 
HETATM    9  C   UNL     1     -45.771 -48.501   7.908  1.00  0.00     0.104 C 
HETATM   10  N   UNL     1     -46.575 -49.113   7.336  1.00  0.00    -0.191 NA
ENDROOT
BRANCH   1  11
HETATM   11  N   UNL     1     -43.119 -47.880   6.878  1.00  0.00    -0.287 NA
HETATM   12  H   UNL     1     -42.757 -48.831   6.892  1.00  0.00     0.125 HD
HETATM   13  H   UNL     1     -43.834 -47.750   6.170  1.00  0.00     0.125 HD
ENDBRANCH   1  11
BRANCH   4  14
HETATM   14  S   UNL     1     -41.843 -45.568  11.160  1.00  0.00    -0.092 SA
BRANCH  14  15
HETATM   15  C   UNL     1     -40.223 -46.362  10.843  1.00  0.00     0.108 C 
BRANCH  15  16
HETATM   16  C   UNL     1     -40.272 -47.670  11.637  1.00  0.00     0.178 C 
BRANCH  16  17
HETATM   17  O   UNL     1     -40.818 -48.778  10.905  1.00  0.00    -0.385 OA
BRANCH  17  18
HETATM   18  C   UNL     1     -40.244 -50.038  11.337  1.00  0.00     0.121 C 
HETATM   19  C   UNL     1     -41.263 -50.867  12.142  1.00  0.00     0.032 C 
HETATM   20  C   UNL     1     -40.859 -52.331  12.253  1.00  0.00     0.002 C 
HETATM   21  C   UNL     1     -40.037 -52.656  13.490  1.00  0.00     0.000 C 
HETATM   22  C   UNL     1     -38.985 -51.624  13.889  1.00  0.00     0.000 C 
HETATM   23  C   UNL     1     -38.249 -50.958  12.727  1.00  0.00     0.002 C 
HETATM   24  C   UNL     1     -38.976 -49.734  12.153  1.00  0.00     0.032 C 
ENDBRANCH  17  18
ENDBRANCH  16  17
ENDBRANCH  15  16
ENDBRANCH  14  15
ENDBRANCH   4  14
TORSDOF 6
ENDMDL
MODEL 6
REMARK VINA RESULT:      -5.8      3.137      7.524
REMARK  6 active torsions:
REMARK  status: ('A' for Active; 'I' for Inactive)
REMARK    1  A    between atoms: N_1  and  C_2 
REMARK    2  A    between atoms: C_5  and  S_6 
REMARK    3  A    between atoms: S_6  and  C_7 
REMARK    4  A    between atoms: C_7  and  C_8 
REMARK    5  A    between atoms: C_8  and  O_9 
REMARK    6  A    between atoms: O_9  and  C_10 
ROOT
HETATM    1  C   UNL     1     -44.243 -53.066  12.522  1.00  0.00     0.102 A 
HETATM    2  N   UNL     1     -43.221 -52.260  12.177  1.00  0.00    -0.326 N 
ATOM      3  HN  UNL     1     -43.347 -51.486  11.525  1.00  0.00     0.169 HD
HETATM    4  C   UNL     1     -42.032 -52.525  12.730  1.00  0.00     0.145 A 
HETATM    5  N   UNL     1     -41.794 -53.521  13.601  1.00  0.00    -0.345 N 
ATOM      6  HN  UNL     1     -40.867 -53.677  13.997  1.00  0.00     0.167 HD
HETATM    7  C   UNL     1     -42.838 -54.300  13.924  1.00  0.00     0.116 A 
HETATM    8  C   UNL     1     -44.099 -54.117  13.411  1.00  0.00     0.098 A 
HETATM    9  C   UNL     1     -45.160 -54.986  13.786  1.00  0.00     0.104 C 
HETATM   10  N   UNL     1     -46.007 -55.726  14.076  1.00  0.00    -0.191 NA
ENDROOT
BRANCH   1  11
HETATM   11  N   UNL     1     -45.483 -52.728  11.977  1.00  0.00    -0.287 NA
HETATM   12  H   UNL     1     -45.685 -53.350  11.198  1.00  0.00     0.125 HD
HETATM   13  H   UNL     1     -46.243 -52.694  12.649  1.00  0.00     0.125 HD
ENDBRANCH   1  11
BRANCH   4  14
HETATM   14  S   UNL     1     -40.604 -51.556  12.343  1.00  0.00    -0.092 SA
BRANCH  14  15
HETATM   15  C   UNL     1     -40.744 -50.099  13.443  1.00  0.00     0.108 C 
BRANCH  15  16
HETATM   16  C   UNL     1     -41.647 -49.125  12.682  1.00  0.00     0.178 C 
BRANCH  16  17
HETATM   17  O   UNL     1     -41.495 -49.180  11.256  1.00  0.00    -0.385 OA
BRANCH  17  18
HETATM   18  C   UNL     1     -41.377 -47.854  10.679  1.00  0.00     0.121 C 
HETATM   19  C   UNL     1     -40.337 -47.008  11.438  1.00  0.00     0.032 C 
HETATM   20  C   UNL     1     -39.886 -45.793  10.638  1.00  0.00     0.002 C 
HETATM   21  C   UNL     1     -40.695 -44.536  10.909  1.00  0.00     0.000 C 
HETATM   22  C   UNL     1     -42.201 -44.727  11.071  1.00  0.00     0.000 C 
HETATM   23  C   UNL     1     -42.831 -45.766  10.145  1.00  0.00     0.002 C 
HETATM   24  C   UNL     1     -42.769 -47.200  10.689  1.00  0.00     0.032 C 
ENDBRANCH  17  18
ENDBRANCH  16  17
ENDBRANCH  15  16
ENDBRANCH  14  15
ENDBRANCH   4  14
TORSDOF 6
ENDMDL
MODEL 7
REMARK VINA RESULT:      -5.8      1.767      2.125
REMARK  6 active torsions:
REMARK  status: ('A' for Active; 'I' for Inactive)
REMARK    1  A    between atoms: N_1  and  C_2 
REMARK    2  A    between atoms: C_5  and  S_6 
REMARK    3  A    between atoms: S_6  and  C_7 
REMARK    4  A    between atoms: C_7  and  C_8 
REMARK    5  A    between atoms: C_8  and  O_9 
REMARK    6  A    between atoms: O_9  and  C_10 
ROOT
HETATM    1  C   UNL     1     -40.114 -50.085  11.599  1.00  0.00     0.102 A 
HETATM    2  N   UNL     1     -40.075 -51.348  12.064  1.00  0.00    -0.326 N 
ATOM      3  HN  UNL     1     -40.336 -52.142  11.478  1.00  0.00     0.169 HD
HETATM    4  C   UNL     1     -39.678 -51.512  13.331  1.00  0.00     0.145 A 
HETATM    5  N   UNL     1     -39.312 -50.517  14.157  1.00  0.00    -0.345 N 
ATOM      6  HN  UNL     1     -39.014 -50.698  15.116  1.00  0.00     0.167 HD
HETATM    7  C   UNL     1     -39.360 -49.273  13.657  1.00  0.00     0.116 A 
HETATM    8  C   UNL     1     -39.755 -48.993  12.372  1.00  0.00     0.098 A 
HETATM    9  C   UNL     1     -39.794 -47.650  11.908  1.00  0.00     0.104 C 
HETATM   10  N   UNL     1     -39.853 -46.544  11.557  1.00  0.00    -0.191 NA
ENDROOT
BRANCH   1  11
HETATM   11  N   UNL     1     -40.472 -49.950  10.257  1.00  0.00    -0.287 NA
HETATM   12  H   UNL     1     -39.915 -50.591   9.698  1.00  0.00     0.125 HD
HETATM   13  H   UNL     1     -41.467 -50.047  10.076  1.00  0.00     0.125 HD
ENDBRANCH   1  11
BRANCH   4  14
HETATM   14  S   UNL     1     -39.606 -53.118  14.068  1.00  0.00    -0.092 SA
BRANCH  14  15
HETATM   15  C   UNL     1     -40.684 -54.146  13.002  1.00  0.00     0.108 C 
BRANCH  15  16
HETATM   16  C   UNL     1     -42.022 -54.201  13.743  1.00  0.00     0.178 C 
BRANCH  16  17
HETATM   17  O   UNL     1     -43.166 -54.004  12.899  1.00  0.00    -0.385 OA
BRANCH  17  18
HETATM   18  C   UNL     1     -44.328 -53.589  13.663  1.00  0.00     0.121 C 
HETATM   19  C   UNL     1     -45.171 -52.564  12.882  1.00  0.00     0.032 C 
HETATM   20  C   UNL     1     -46.578 -52.420  13.447  1.00  0.00     0.002 C 
HETATM   21  C   UNL     1     -46.719 -51.325  14.491  1.00  0.00     0.000 C 
HETATM   22  C   UNL     1     -45.567 -51.189  15.483  1.00  0.00     0.000 C 
HETATM   23  C   UNL     1     -44.942 -52.505  15.944  1.00  0.00     0.002 C 
HETATM   24  C   UNL     1     -43.842 -53.030  15.010  1.00  0.00     0.032 C 
ENDBRANCH  17  18
ENDBRANCH  16  17
ENDBRANCH  15  16
ENDBRANCH  14  15
ENDBRANCH   4  14
TORSDOF 6
ENDMDL
MODEL 8
REMARK VINA RESULT:      -5.8      2.854      4.094
REMARK  6 active torsions:
REMARK  status: ('A' for Active; 'I' for Inactive)
REMARK    1  A    between atoms: N_1  and  C_2 
REMARK    2  A    between atoms: C_5  and  S_6 
REMARK    3  A    between atoms: S_6  and  C_7 
REMARK    4  A    between atoms: C_7  and  C_8 
REMARK    5  A    between atoms: C_8  and  O_9 
REMARK    6  A    between atoms: O_9  and  C_10 
ROOT
HETATM    1  C   UNL     1     -40.731 -51.067  11.771  1.00  0.00     0.102 A 
HETATM    2  N   UNL     1     -41.984 -51.548  11.668  1.00  0.00    -0.326 N 
ATOM      3  HN  UNL     1     -42.627 -51.217  10.949  1.00  0.00     0.169 HD
HETATM    4  C   UNL     1     -42.345 -52.483  12.555  1.00  0.00     0.145 A 
HETATM    5  N   UNL     1     -41.550 -52.973  13.522  1.00  0.00    -0.345 N 
ATOM      6  HN  UNL     1     -41.875 -53.689  14.172  1.00  0.00     0.167 HD
HETATM    7  C   UNL     1     -40.307 -52.471  13.590  1.00  0.00     0.116 A 
HETATM    8  C   UNL     1     -39.837 -51.508  12.732  1.00  0.00     0.098 A 
HETATM    9  C   UNL     1     -38.511 -51.011  12.865  1.00  0.00     0.104 C 
HETATM   10  N   UNL     1     -37.438 -50.592  13.010  1.00  0.00    -0.191 NA
ENDROOT
BRANCH   1  11
HETATM   11  N   UNL     1     -40.364 -50.139  10.795  1.00  0.00    -0.287 NA
HETATM   12  H   UNL     1     -40.916 -49.294  10.914  1.00  0.00     0.125 HD
HETATM   13  H   UNL     1     -39.368 -49.945  10.753  1.00  0.00     0.125 HD
ENDBRANCH   1  11
BRANCH   4  14
HETATM   14  S   UNL     1     -43.970 -53.180  12.543  1.00  0.00    -0.092 SA
BRANCH  14  15
HETATM   15  C   UNL     1     -43.884 -54.529  13.778  1.00  0.00     0.108 C 
BRANCH  15  16
HETATM   16  C   UNL     1     -45.330 -54.717  14.247  1.00  0.00     0.178 C 
BRANCH  16  17
HETATM   17  O   UNL     1     -45.488 -54.707  15.673  1.00  0.00    -0.385 OA
BRANCH  17  18
HETATM   18  C   UNL     1     -45.709 -53.364  16.176  1.00  0.00     0.121 C 
HETATM   19  C   UNL     1     -46.172 -53.389  17.645  1.00  0.00     0.032 C 
HETATM   20  C   UNL     1     -46.016 -52.035  18.324  1.00  0.00     0.002 C 
HETATM   21  C   UNL     1     -47.250 -51.153  18.241  1.00  0.00     0.000 C 
HETATM   22  C   UNL     1     -48.001 -51.170  16.912  1.00  0.00     0.000 C 
HETATM   23  C   UNL     1     -47.120 -51.242  15.665  1.00  0.00     0.002 C 
HETATM   24  C   UNL     1     -46.733 -52.671  15.262  1.00  0.00     0.032 C 
ENDBRANCH  17  18
ENDBRANCH  16  17
ENDBRANCH  15  16
ENDBRANCH  14  15
ENDBRANCH   4  14
TORSDOF 6
ENDMDL
MODEL 9
REMARK VINA RESULT:      -5.7      3.157      5.040
REMARK  6 active torsions:
REMARK  status: ('A' for Active; 'I' for Inactive)
REMARK    1  A    between atoms: N_1  and  C_2 
REMARK    2  A    between atoms: C_5  and  S_6 
REMARK    3  A    between atoms: S_6  and  C_7 
REMARK    4  A    between atoms: C_7  and  C_8 
REMARK    5  A    between atoms: C_8  and  O_9 
REMARK    6  A    between atoms: O_9  and  C_10 
ROOT
HETATM    1  C   UNL     1     -41.622 -52.493  11.908  1.00  0.00     0.102 A 
HETATM    2  N   UNL     1     -42.781 -53.128  12.165  1.00  0.00    -0.326 N 
ATOM      3  HN  UNL     1     -42.903 -54.120  11.962  1.00  0.00     0.169 HD
HETATM    4  C   UNL     1     -43.764 -52.394  12.700  1.00  0.00     0.145 A 
HETATM    5  N   UNL     1     -43.671 -51.088  13.002  1.00  0.00    -0.345 N 
ATOM      6  HN  UNL     1     -44.452 -50.576  13.413  1.00  0.00     0.167 HD
HETATM    7  C   UNL     1     -42.499 -50.491  12.735  1.00  0.00     0.116 A 
HETATM    8  C   UNL     1     -41.428 -51.149  12.184  1.00  0.00     0.098 A 
HETATM    9  C   UNL     1     -40.217 -50.454  11.915  1.00  0.00     0.104 C 
HETATM   10  N   UNL     1     -39.248 -49.863  11.670  1.00  0.00    -0.191 NA
ENDROOT
BRANCH   1  11
HETATM   11  N   UNL     1     -40.596 -53.297  11.408  1.00  0.00    -0.287 NA
HETATM   12  H   UNL     1     -40.760 -54.260  11.690  1.00  0.00     0.125 HD
HETATM   13  H   UNL     1     -40.444 -53.210  10.407  1.00  0.00     0.125 HD
ENDBRANCH   1  11
BRANCH   4  14
HETATM   14  S   UNL     1     -45.342 -53.104  13.065  1.00  0.00    -0.092 SA
BRANCH  14  15
HETATM   15  C   UNL     1     -44.939 -54.738  13.786  1.00  0.00     0.108 C 
BRANCH  15  16
HETATM   16  C   UNL     1     -43.998 -54.425  14.952  1.00  0.00     0.178 C 
BRANCH  16  17
HETATM   17  O   UNL     1     -42.726 -55.084  14.870  1.00  0.00    -0.385 OA
BRANCH  17  18
HETATM   18  C   UNL     1     -41.689 -54.331  15.549  1.00  0.00     0.121 C 
HETATM   19  C   UNL     1     -42.105 -52.861  15.743  1.00  0.00     0.032 C 
HETATM   20  C   UNL     1     -41.256 -52.152  16.790  1.00  0.00     0.002 C 
HETATM   21  C   UNL     1     -40.038 -51.442  16.225  1.00  0.00     0.000 C 
HETATM   22  C   UNL     1     -39.286 -52.175  15.117  1.00  0.00     0.000 C 
HETATM   23  C   UNL     1     -39.183 -53.690  15.288  1.00  0.00     0.002 C 
HETATM   24  C   UNL     1     -40.391 -54.460  14.735  1.00  0.00     0.032 C 
ENDBRANCH  17  18
ENDBRANCH  16  17
ENDBRANCH  15  16
ENDBRANCH  14  15
ENDBRANCH   4  14
TORSDOF 6
ENDMDL
