MODEL 1
REMARK VINA RESULT:      -5.7      0.000      0.000
REMARK  6 active torsions:
REMARK  status: ('A' for Active; 'I' for Inactive)
REMARK    1  A    between atoms: C_2  and  C_3 
REMARK    2  A    between atoms: C_3  and  C_4 
REMARK       I    between atoms: C_4  and  N_6 
REMARK    3  A    between atoms: C_9  and  C_12 
REMARK       I    between atoms: C_12  and  N_14 
REMARK    4  A    between atoms: N_14  and  C_15 
REMARK    5  A    between atoms: C_15  and  C_16 
REMARK    6  A    between atoms: C_16  and  N_17 
ROOT
HETATM    1  C   UNL     1     -40.380 -52.802  13.995  1.00  0.00     0.222 C 
HETATM    2  O   UNL     1     -40.066 -53.221  12.884  1.00  0.00    -0.273 OA
HETATM    3  N   UNL     1     -39.663 -51.810  14.621  1.00  0.00    -0.359 N 
HETATM    4  H   UNL     1     -40.091 -51.316  15.395  1.00  0.00     0.162 HD
ENDROOT
BRANCH   1   5
HETATM    5  C   UNL     1     -41.599 -53.309  14.763  1.00  0.00     0.081 C 
HETATM    6  C   UNL     1     -42.422 -54.325  13.953  1.00  0.00     0.034 C 
HETATM    7  C   UNL     1     -43.193 -53.669  12.802  1.00  0.00     0.126 C 
HETATM    8  N   UNL     1     -43.972 -52.539  13.291  1.00  0.00    -0.352 N 
HETATM    9  C   UNL     1     -45.304 -52.406  12.918  1.00  0.00     0.219 C 
HETATM   10  C   UNL     1     -43.208 -51.514  13.999  1.00  0.00     0.126 C 
HETATM   11  O   UNL     1     -45.837 -53.133  12.081  1.00  0.00    -0.273 OA
HETATM   12  C   UNL     1     -42.487 -52.132  15.195  1.00  0.00     0.034 C 
BRANCH   9  13
HETATM   13  C   UNL     1     -46.078 -51.312  13.634  1.00  0.00     0.103 C 
BRANCH  13  14
HETATM   14  C   UNL     1     -46.864 -51.815  14.837  1.00  0.00     0.005 C 
HETATM   15  C   UNL     1     -46.341 -51.161  16.108  1.00  0.00     0.005 C 
ENDBRANCH  13  14
ENDBRANCH   9  13
ENDBRANCH   1   5
BRANCH   3  16
HETATM   16  C   UNL     1     -38.517 -51.237  13.940  1.00  0.00     0.143 C 
BRANCH  16  17
HETATM   17  C   UNL     1     -38.702 -49.773  13.575  1.00  0.00     0.148 C 
BRANCH  17  18
HETATM   18  N   UNL     1     -39.603 -49.614  12.455  1.00  0.00    -0.350 N 
HETATM   19  C   UNL     1     -40.735 -48.850  12.433  1.00  0.00     0.108 A 
HETATM   20  C   UNL     1     -41.244 -49.014  11.166  1.00  0.00     0.106 A 
HETATM   21  N   UNL     1     -40.451 -49.854  10.428  1.00  0.00    -0.361 N 
HETATM   22  C   UNL     1     -39.469 -50.199  11.229  1.00  0.00     0.182 A 
ATOM     23  HN  UNL     1     -40.594 -50.148   9.462  1.00  0.00     0.166 HD
ENDBRANCH  17  18
ENDBRANCH  16  17
ENDBRANCH   3  16
TORSDOF 6
ENDMDL
MODEL 2
REMARK VINA RESULT:      -5.4      1.059      1.474
REMARK  6 active torsions:
REMARK  status: ('A' for Active; 'I' for Inactive)
REMARK    1  A    between atoms: C_2  and  C_3 
REMARK    2  A    between atoms: C_3  and  C_4 
REMARK       I    between atoms: C_4  and  N_6 
REMARK    3  A    between atoms: C_9  and  C_12 
REMARK       I    between atoms: C_12  and  N_14 
REMARK    4  A    between atoms: N_14  and  C_15 
REMARK    5  A    between atoms: C_15  and  C_16 
REMARK    6  A    between atoms: C_16  and  N_17 
ROOT
HETATM    1  C   UNL     1     -40.847 -53.218  14.497  1.00  0.00     0.222 C 
HETATM    2  O   UNL     1     -40.376 -53.378  13.374  1.00  0.00    -0.273 OA
HETATM    3  N   UNL     1     -40.243 -52.400  15.422  1.00  0.00    -0.359 N 
HETATM    4  H   UNL     1     -40.783 -52.089  16.221  1.00  0.00     0.162 HD
ENDROOT
BRANCH   1   5
HETATM    5  C   UNL     1     -42.146 -53.875  14.957  1.00  0.00     0.081 C 
HETATM    6  C   UNL     1     -42.896 -54.563  13.803  1.00  0.00     0.034 C 
HETATM    7  C   UNL     1     -43.532 -53.558  12.836  1.00  0.00     0.126 C 
HETATM    8  N   UNL     1     -44.341 -52.591  13.568  1.00  0.00    -0.352 N 
HETATM    9  C   UNL     1     -45.625 -52.291  13.127  1.00  0.00     0.219 C 
HETATM   10  C   UNL     1     -43.639 -51.861  14.621  1.00  0.00     0.126 C 
HETATM   11  O   UNL     1     -46.078 -52.709  12.063  1.00  0.00    -0.273 OA
HETATM   12  C   UNL     1     -43.056 -52.841  15.637  1.00  0.00     0.034 C 
BRANCH   9  13
HETATM   13  C   UNL     1     -46.451 -51.426  14.064  1.00  0.00     0.103 C 
BRANCH  13  14
HETATM   14  C   UNL     1     -47.190 -52.224  15.129  1.00  0.00     0.005 C 
HETATM   15  C   UNL     1     -47.163 -51.470  16.451  1.00  0.00     0.005 C 
ENDBRANCH  13  14
ENDBRANCH   9  13
ENDBRANCH   1   5
BRANCH   3  16
HETATM   16  C   UNL     1     -39.029 -51.698  15.051  1.00  0.00     0.143 C 
BRANCH  16  17
HETATM   17  C   UNL     1     -39.284 -50.317  14.470  1.00  0.00     0.148 C 
BRANCH  17  18
HETATM   18  N   UNL     1     -38.752 -50.196  13.131  1.00  0.00    -0.350 N 
HETATM   19  C   UNL     1     -37.482 -50.509  12.737  1.00  0.00     0.108 A 
HETATM   20  C   UNL     1     -37.455 -50.232  11.390  1.00  0.00     0.106 A 
HETATM   21  N   UNL     1     -38.671 -49.761  10.966  1.00  0.00    -0.361 N 
HETATM   22  C   UNL     1     -39.433 -49.752  12.035  1.00  0.00     0.182 A 
ATOM     23  HN  UNL     1     -38.928 -49.479  10.020  1.00  0.00     0.166 HD
ENDBRANCH  17  18
ENDBRANCH  16  17
ENDBRANCH   3  16
TORSDOF 6
ENDMDL
MODEL 3
REMARK VINA RESULT:      -5.3      1.759      2.323
REMARK  6 active torsions:
REMARK  status: ('A' for Active; 'I' for Inactive)
REMARK    1  A    between atoms: C_2  and  C_3 
REMARK    2  A    between atoms: C_3  and  C_4 
REMARK       I    between atoms: C_4  and  N_6 
REMARK    3  A    between atoms: C_9  and  C_12 
REMARK       I    between atoms: C_12  and  N_14 
REMARK    4  A    between atoms: N_14  and  C_15 
REMARK    5  A    between atoms: C_15  and  C_16 
REMARK    6  A    between atoms: C_16  and  N_17 
ROOT
HETATM    1  C   UNL     1     -40.481 -51.196  13.143  1.00  0.00     0.222 C 
HETATM    2  O   UNL     1     -39.708 -51.906  12.505  1.00  0.00    -0.273 OA
HETATM    3  N   UNL     1     -40.638 -49.861  12.854  1.00  0.00    -0.359 N 
HETATM    4  H   UNL     1     -41.455 -49.380  13.212  1.00  0.00     0.162 HD
ENDROOT
BRANCH   1   5
HETATM    5  C   UNL     1     -41.354 -51.724  14.278  1.00  0.00     0.081 C 
HETATM    6  C   UNL     1     -41.671 -53.223  14.127  1.00  0.00     0.034 C 
HETATM    7  C   UNL     1     -42.661 -53.499  12.991  1.00  0.00     0.126 C 
HETATM    8  N   UNL     1     -43.845 -52.661  13.134  1.00  0.00    -0.352 N 
HETATM    9  C   UNL     1     -45.109 -53.226  13.016  1.00  0.00     0.219 C 
HETATM   10  C   UNL     1     -43.587 -51.224  13.202  1.00  0.00     0.126 C 
HETATM   11  O   UNL     1     -45.288 -54.391  12.666  1.00  0.00    -0.273 OA
HETATM   12  C   UNL     1     -42.656 -50.915  14.373  1.00  0.00     0.034 C 
BRANCH   9  13
HETATM   13  C   UNL     1     -46.269 -52.313  13.375  1.00  0.00     0.103 C 
BRANCH  13  14
HETATM   14  C   UNL     1     -46.812 -52.547  14.777  1.00  0.00     0.005 C 
HETATM   15  C   UNL     1     -46.590 -51.307  15.632  1.00  0.00     0.005 C 
ENDBRANCH  13  14
ENDBRANCH   9  13
ENDBRANCH   1   5
BRANCH   3  16
HETATM   16  C   UNL     1     -39.882 -49.287  11.757  1.00  0.00     0.143 C 
BRANCH  16  17
HETATM   17  C   UNL     1     -40.131 -47.800  11.565  1.00  0.00     0.148 C 
BRANCH  17  18
HETATM   18  N   UNL     1     -41.505 -47.532  11.205  1.00  0.00    -0.350 N 
HETATM   19  C   UNL     1     -42.151 -47.992  10.092  1.00  0.00     0.108 A 
HETATM   20  C   UNL     1     -43.423 -47.481  10.189  1.00  0.00     0.106 A 
HETATM   21  N   UNL     1     -43.560 -46.728  11.327  1.00  0.00    -0.361 N 
HETATM   22  C   UNL     1     -42.389 -46.779  11.921  1.00  0.00     0.182 A 
ATOM     23  HN  UNL     1     -44.394 -46.235  11.645  1.00  0.00     0.166 HD
ENDBRANCH  17  18
ENDBRANCH  16  17
ENDBRANCH   3  16
TORSDOF 6
ENDMDL
MODEL 4
REMARK VINA RESULT:      -5.1      2.734      3.781
REMARK  6 active torsions:
REMARK  status: ('A' for Active; 'I' for Inactive)
REMARK    1  A    between atoms: C_2  and  C_3 
REMARK    2  A    between atoms: C_3  and  C_4 
REMARK       I    between atoms: C_4  and  N_6 
REMARK    3  A    between atoms: C_9  and  C_12 
REMARK       I    between atoms: C_12  and  N_14 
REMARK    4  A    between atoms: N_14  and  C_15 
REMARK    5  A    between atoms: C_15  and  C_16 
REMARK    6  A    between atoms: C_16  and  N_17 
ROOT
HETATM    1  C   UNL     1     -41.986 -50.018  13.151  1.00  0.00     0.222 C 
HETATM    2  O   UNL     1     -40.797 -50.287  13.306  1.00  0.00    -0.273 OA
HETATM    3  N   UNL     1     -42.441 -49.393  12.014  1.00  0.00    -0.359 N 
HETATM    4  H   UNL     1     -43.432 -49.425  11.806  1.00  0.00     0.162 HD
ENDROOT
BRANCH   1   5
HETATM    5  C   UNL     1     -43.062 -50.376  14.174  1.00  0.00     0.081 C 
HETATM    6  C   UNL     1     -42.542 -51.333  15.261  1.00  0.00     0.034 C 
HETATM    7  C   UNL     1     -42.314 -52.752  14.732  1.00  0.00     0.126 C 
HETATM    8  N   UNL     1     -43.505 -53.236  14.045  1.00  0.00    -0.352 N 
HETATM    9  C   UNL     1     -43.995 -54.507  14.325  1.00  0.00     0.219 C 
HETATM   10  C   UNL     1     -43.982 -52.391  12.953  1.00  0.00     0.126 C 
HETATM   11  O   UNL     1     -43.396 -55.309  15.040  1.00  0.00    -0.273 OA
HETATM   12  C   UNL     1     -44.284 -50.987  13.472  1.00  0.00     0.034 C 
BRANCH   9  13
HETATM   13  C   UNL     1     -45.343 -54.838  13.707  1.00  0.00     0.103 C 
BRANCH  13  14
HETATM   14  C   UNL     1     -46.503 -54.711  14.684  1.00  0.00     0.005 C 
HETATM   15  C   UNL     1     -46.997 -53.272  14.716  1.00  0.00     0.005 C 
ENDBRANCH  13  14
ENDBRANCH   9  13
ENDBRANCH   1   5
BRANCH   3  16
HETATM   16  C   UNL     1     -41.492 -49.060  10.969  1.00  0.00     0.143 C 
BRANCH  16  17
HETATM   17  C   UNL     1     -41.288 -47.564  10.794  1.00  0.00     0.148 C 
BRANCH  17  18
HETATM   18  N   UNL     1     -42.386 -46.958  10.076  1.00  0.00    -0.350 N 
HETATM   19  C   UNL     1     -43.145 -47.555   9.109  1.00  0.00     0.108 A 
HETATM   20  C   UNL     1     -44.053 -46.594   8.732  1.00  0.00     0.106 A 
HETATM   21  N   UNL     1     -43.861 -45.438   9.444  1.00  0.00    -0.361 N 
HETATM   22  C   UNL     1     -42.852 -45.686  10.247  1.00  0.00     0.182 A 
ATOM     23  HN  UNL     1     -44.391 -44.569   9.366  1.00  0.00     0.166 HD
ENDBRANCH  17  18
ENDBRANCH  16  17
ENDBRANCH   3  16
TORSDOF 6
ENDMDL
MODEL 5
REMARK VINA RESULT:      -5.1      1.284      1.492
REMARK  6 active torsions:
REMARK  status: ('A' for Active; 'I' for Inactive)
REMARK    1  A    between atoms: C_2  and  C_3 
REMARK    2  A    between atoms: C_3  and  C_4 
REMARK       I    between atoms: C_4  and  N_6 
REMARK    3  A    between atoms: C_9  and  C_12 
REMARK       I    between atoms: C_12  and  N_14 
REMARK    4  A    between atoms: N_14  and  C_15 
REMARK    5  A    between atoms: C_15  and  C_16 
REMARK    6  A    between atoms: C_16  and  N_17 
ROOT
HETATM    1  C   UNL     1     -40.018 -52.158  13.954  1.00  0.00     0.222 C 
HETATM    2  O   UNL     1     -39.723 -52.308  12.771  1.00  0.00    -0.273 OA
HETATM    3  N   UNL     1     -39.845 -50.954  14.594  1.00  0.00    -0.359 N 
HETATM    4  H   UNL     1     -40.333 -50.794  15.467  1.00  0.00     0.162 HD
ENDROOT
BRANCH   1   5
HETATM    5  C   UNL     1     -40.629 -53.268  14.807  1.00  0.00     0.081 C 
HETATM    6  C   UNL     1     -41.137 -54.448  13.959  1.00  0.00     0.034 C 
HETATM    7  C   UNL     1     -42.407 -54.101  13.175  1.00  0.00     0.126 C 
HETATM    8  N   UNL     1     -43.416 -53.540  14.064  1.00  0.00    -0.352 N 
HETATM    9  C   UNL     1     -44.723 -54.009  14.007  1.00  0.00     0.219 C 
HETATM   10  C   UNL     1     -42.992 -52.369  14.828  1.00  0.00     0.126 C 
HETATM   11  O   UNL     1     -45.112 -54.795  13.145  1.00  0.00    -0.273 OA
HETATM   12  C   UNL     1     -41.768 -52.711  15.674  1.00  0.00     0.034 C 
BRANCH   9  13
HETATM   13  C   UNL     1     -45.647 -53.503  15.102  1.00  0.00     0.103 C 
BRANCH  13  14
HETATM   14  C   UNL     1     -46.910 -52.841  14.571  1.00  0.00     0.005 C 
HETATM   15  C   UNL     1     -46.667 -51.352  14.367  1.00  0.00     0.005 C 
ENDBRANCH  13  14
ENDBRANCH   9  13
ENDBRANCH   1   5
BRANCH   3  16
HETATM   16  C   UNL     1     -39.315 -49.831  13.844  1.00  0.00     0.143 C 
BRANCH  16  17
HETATM   17  C   UNL     1     -40.294 -48.675  13.717  1.00  0.00     0.148 C 
BRANCH  17  18
HETATM   18  N   UNL     1     -40.893 -48.626  12.403  1.00  0.00    -0.350 N 
HETATM   19  C   UNL     1     -41.994 -47.900  12.045  1.00  0.00     0.108 A 
HETATM   20  C   UNL     1     -42.174 -48.172  10.709  1.00  0.00     0.106 A 
HETATM   21  N   UNL     1     -41.214 -49.039  10.255  1.00  0.00    -0.361 N 
HETATM   22  C   UNL     1     -40.455 -49.294  11.296  1.00  0.00     0.182 A 
ATOM     23  HN  UNL     1     -41.112 -49.408   9.310  1.00  0.00     0.166 HD
ENDBRANCH  17  18
ENDBRANCH  16  17
ENDBRANCH   3  16
TORSDOF 6
ENDMDL
MODEL 6
REMARK VINA RESULT:      -5.1      2.537      6.738
REMARK  6 active torsions:
REMARK  status: ('A' for Active; 'I' for Inactive)
REMARK    1  A    between atoms: C_2  and  C_3 
REMARK    2  A    between atoms: C_3  and  C_4 
REMARK       I    between atoms: C_4  and  N_6 
REMARK    3  A    between atoms: C_9  and  C_12 
REMARK       I    between atoms: C_12  and  N_14 
REMARK    4  A    between atoms: N_14  and  C_15 
REMARK    5  A    between atoms: C_15  and  C_16 
REMARK    6  A    between atoms: C_16  and  N_17 
ROOT
HETATM    1  C   UNL     1     -40.411 -51.194  11.916  1.00  0.00     0.222 C 
HETATM    2  O   UNL     1     -39.706 -51.987  12.533  1.00  0.00    -0.273 OA
HETATM    3  N   UNL     1     -41.756 -51.416  11.732  1.00  0.00    -0.359 N 
HETATM    4  H   UNL     1     -42.343 -50.637  11.459  1.00  0.00     0.162 HD
ENDROOT
BRANCH   1   5
HETATM    5  C   UNL     1     -39.880 -49.888  11.329  1.00  0.00     0.081 C 
HETATM    6  C   UNL     1     -38.367 -49.718  11.550  1.00  0.00     0.034 C 
HETATM    7  C   UNL     1     -38.019 -49.416  13.011  1.00  0.00     0.126 C 
HETATM    8  N   UNL     1     -38.813 -48.296  13.502  1.00  0.00    -0.352 N 
HETATM    9  C   UNL     1     -38.195 -47.264  14.197  1.00  0.00     0.219 C 
HETATM   10  C   UNL     1     -40.261 -48.457  13.379  1.00  0.00     0.126 C 
HETATM   11  O   UNL     1     -37.014 -47.304  14.539  1.00  0.00    -0.273 OA
HETATM   12  C   UNL     1     -40.639 -48.689  11.918  1.00  0.00     0.034 C 
BRANCH   9  13
HETATM   13  C   UNL     1     -39.071 -46.057  14.491  1.00  0.00     0.103 C 
BRANCH  13  14
HETATM   14  C   UNL     1     -38.830 -44.890  13.545  1.00  0.00     0.005 C 
HETATM   15  C   UNL     1     -39.789 -44.974  12.366  1.00  0.00     0.005 C 
ENDBRANCH  13  14
ENDBRANCH   9  13
ENDBRANCH   1   5
BRANCH   3  16
HETATM   16  C   UNL     1     -42.352 -52.610  12.299  1.00  0.00     0.143 C 
BRANCH  16  17
HETATM   17  C   UNL     1     -43.052 -52.363  13.626  1.00  0.00     0.148 C 
BRANCH  17  18
HETATM   18  N   UNL     1     -44.486 -52.285  13.465  1.00  0.00    -0.350 N 
HETATM   19  C   UNL     1     -45.258 -51.171  13.636  1.00  0.00     0.108 A 
HETATM   20  C   UNL     1     -46.541 -51.588  13.372  1.00  0.00     0.106 A 
HETATM   21  N   UNL     1     -46.562 -52.920  13.047  1.00  0.00    -0.361 N 
HETATM   22  C   UNL     1     -45.310 -53.313  13.109  1.00  0.00     0.182 A 
ATOM     23  HN  UNL     1     -47.377 -53.485  12.807  1.00  0.00     0.166 HD
ENDBRANCH  17  18
ENDBRANCH  16  17
ENDBRANCH   3  16
TORSDOF 6
ENDMDL
MODEL 7
REMARK VINA RESULT:      -5.0      1.500      2.046
REMARK  6 active torsions:
REMARK  status: ('A' for Active; 'I' for Inactive)
REMARK    1  A    between atoms: C_2  and  C_3 
REMARK    2  A    between atoms: C_3  and  C_4 
REMARK       I    between atoms: C_4  and  N_6 
REMARK    3  A    between atoms: C_9  and  C_12 
REMARK       I    between atoms: C_12  and  N_14 
REMARK    4  A    between atoms: N_14  and  C_15 
REMARK    5  A    between atoms: C_15  and  C_16 
REMARK    6  A    between atoms: C_16  and  N_17 
ROOT
HETATM    1  C   UNL     1     -39.453 -52.581  14.300  1.00  0.00     0.222 C 
HETATM    2  O   UNL     1     -38.951 -53.312  13.451  1.00  0.00    -0.273 OA
HETATM    3  N   UNL     1     -38.933 -51.340  14.583  1.00  0.00    -0.359 N 
HETATM    4  H   UNL     1     -39.510 -50.673  15.081  1.00  0.00     0.162 HD
ENDROOT
BRANCH   1   5
HETATM    5  C   UNL     1     -40.706 -52.957  15.089  1.00  0.00     0.081 C 
HETATM    6  C   UNL     1     -41.475 -54.124  14.446  1.00  0.00     0.034 C 
HETATM    7  C   UNL     1     -42.190 -53.713  13.154  1.00  0.00     0.126 C 
HETATM    8  N   UNL     1     -43.005 -52.526  13.380  1.00  0.00    -0.352 N 
HETATM    9  C   UNL     1     -44.317 -52.493  12.922  1.00  0.00     0.219 C 
HETATM   10  C   UNL     1     -42.290 -51.371  13.918  1.00  0.00     0.126 C 
HETATM   11  O   UNL     1     -44.798 -53.375  12.213  1.00  0.00    -0.273 OA
HETATM   12  C   UNL     1     -41.627 -51.737  15.244  1.00  0.00     0.034 C 
BRANCH   9  13
HETATM   13  C   UNL     1     -45.138 -51.298  13.378  1.00  0.00     0.103 C 
BRANCH  13  14
HETATM   14  C   UNL     1     -46.605 -51.627  13.614  1.00  0.00     0.005 C 
HETATM   15  C   UNL     1     -46.948 -51.438  15.085  1.00  0.00     0.005 C 
ENDBRANCH  13  14
ENDBRANCH   9  13
ENDBRANCH   1   5
BRANCH   3  16
HETATM   16  C   UNL     1     -37.771 -50.883  13.844  1.00  0.00     0.143 C 
BRANCH  16  17
HETATM   17  C   UNL     1     -38.110 -49.904  12.732  1.00  0.00     0.148 C 
BRANCH  17  18
HETATM   18  N   UNL     1     -38.382 -48.582  13.251  1.00  0.00    -0.350 N 
HETATM   19  C   UNL     1     -37.663 -47.929  14.211  1.00  0.00     0.108 A 
HETATM   20  C   UNL     1     -38.299 -46.719  14.364  1.00  0.00     0.106 A 
HETATM   21  N   UNL     1     -39.379 -46.628  13.524  1.00  0.00    -0.361 N 
HETATM   22  C   UNL     1     -39.404 -47.764  12.864  1.00  0.00     0.182 A 
ATOM     23  HN  UNL     1     -40.025 -45.844  13.431  1.00  0.00     0.166 HD
ENDBRANCH  17  18
ENDBRANCH  16  17
ENDBRANCH   3  16
TORSDOF 6
ENDMDL
MODEL 8
REMARK VINA RESULT:      -4.9      2.643      4.123
REMARK  6 active torsions:
REMARK  status: ('A' for Active; 'I' for Inactive)
REMARK    1  A    between atoms: C_2  and  C_3 
REMARK    2  A    between atoms: C_3  and  C_4 
REMARK       I    between atoms: C_4  and  N_6 
REMARK    3  A    between atoms: C_9  and  C_12 
REMARK       I    between atoms: C_12  and  N_14 
REMARK    4  A    between atoms: N_14  and  C_15 
REMARK    5  A    between atoms: C_15  and  C_16 
REMARK    6  A    between atoms: C_16  and  N_17 
ROOT
HETATM    1  C   UNL     1     -40.471 -52.159  12.651  1.00  0.00     0.222 C 
HETATM    2  O   UNL     1     -39.797 -51.580  13.499  1.00  0.00    -0.273 OA
HETATM    3  N   UNL     1     -40.896 -51.521  11.510  1.00  0.00    -0.359 N 
HETATM    4  H   UNL     1     -41.214 -52.083  10.729  1.00  0.00     0.162 HD
ENDROOT
BRANCH   1   5
HETATM    5  C   UNL     1     -40.870 -53.629  12.764  1.00  0.00     0.081 C 
HETATM    6  C   UNL     1     -42.395 -53.820  12.833  1.00  0.00     0.034 C 
HETATM    7  C   UNL     1     -42.981 -53.369  14.175  1.00  0.00     0.126 C 
HETATM    8  N   UNL     1     -42.261 -53.991  15.279  1.00  0.00    -0.352 N 
HETATM    9  C   UNL     1     -42.969 -54.583  16.318  1.00  0.00     0.219 C 
HETATM   10  C   UNL     1     -40.817 -53.765  15.288  1.00  0.00     0.126 C 
HETATM   11  O   UNL     1     -44.191 -54.498  16.425  1.00  0.00    -0.273 OA
HETATM   12  C   UNL     1     -40.199 -54.272  13.987  1.00  0.00     0.034 C 
BRANCH   9  13
HETATM   13  C   UNL     1     -42.133 -55.371  17.313  1.00  0.00     0.103 C 
BRANCH  13  14
HETATM   14  C   UNL     1     -41.800 -56.779  16.841  1.00  0.00     0.005 C 
HETATM   15  C   UNL     1     -40.323 -57.066  17.069  1.00  0.00     0.005 C 
ENDBRANCH  13  14
ENDBRANCH   9  13
ENDBRANCH   1   5
BRANCH   3  16
HETATM   16  C   UNL     1     -40.521 -50.136  11.300  1.00  0.00     0.143 C 
BRANCH  16  17
HETATM   17  C   UNL     1     -41.648 -49.156  11.585  1.00  0.00     0.148 C 
BRANCH  17  18
HETATM   18  N   UNL     1     -41.348 -47.837  11.075  1.00  0.00    -0.350 N 
HETATM   19  C   UNL     1     -40.251 -47.083  11.385  1.00  0.00     0.108 A 
HETATM   20  C   UNL     1     -40.406 -45.924  10.660  1.00  0.00     0.106 A 
HETATM   21  N   UNL     1     -41.563 -45.961   9.925  1.00  0.00    -0.361 N 
HETATM   22  C   UNL     1     -42.108 -47.126  10.193  1.00  0.00     0.182 A 
ATOM     23  HN  UNL     1     -41.923 -45.238   9.302  1.00  0.00     0.166 HD
ENDBRANCH  17  18
ENDBRANCH  16  17
ENDBRANCH   3  16
TORSDOF 6
ENDMDL
MODEL 9
REMARK VINA RESULT:      -4.7      3.116      5.992
REMARK  6 active torsions:
REMARK  status: ('A' for Active; 'I' for Inactive)
REMARK    1  A    between atoms: C_2  and  C_3 
REMARK    2  A    between atoms: C_3  and  C_4 
REMARK       I    between atoms: C_4  and  N_6 
REMARK    3  A    between atoms: C_9  and  C_12 
REMARK       I    between atoms: C_12  and  N_14 
REMARK    4  A    between atoms: N_14  and  C_15 
REMARK    5  A    between atoms: C_15  and  C_16 
REMARK    6  A    between atoms: C_16  and  N_17 
ROOT
HETATM    1  C   UNL     1     -38.271 -50.474  14.486  1.00  0.00     0.222 C 
HETATM    2  O   UNL     1     -38.689 -50.243  15.618  1.00  0.00    -0.273 OA
HETATM    3  N   UNL     1     -38.456 -51.696  13.884  1.00  0.00    -0.359 N 
HETATM    4  H   UNL     1     -38.337 -51.765  12.880  1.00  0.00     0.162 HD
ENDROOT
BRANCH   1   5
HETATM    5  C   UNL     1     -37.545 -49.432  13.638  1.00  0.00     0.081 C 
HETATM    6  C   UNL     1     -37.580 -48.031  14.273  1.00  0.00     0.034 C 
HETATM    7  C   UNL     1     -38.969 -47.389  14.201  1.00  0.00     0.126 C 
HETATM    8  N   UNL     1     -39.476 -47.427  12.834  1.00  0.00    -0.352 N 
HETATM    9  C   UNL     1     -40.029 -46.282  12.272  1.00  0.00     0.219 C 
HETATM   10  C   UNL     1     -39.531 -48.754  12.226  1.00  0.00     0.126 C 
HETATM   11  O   UNL     1     -40.234 -45.255  12.916  1.00  0.00    -0.273 OA
HETATM   12  C   UNL     1     -38.141 -49.386  12.222  1.00  0.00     0.034 C 
BRANCH   9  13
HETATM   13  C   UNL     1     -40.345 -46.371  10.788  1.00  0.00     0.103 C 
BRANCH  13  14
HETATM   14  C   UNL     1     -41.810 -46.116  10.465  1.00  0.00     0.005 C 
HETATM   15  C   UNL     1     -42.604 -47.406  10.614  1.00  0.00     0.005 C 
ENDBRANCH  13  14
ENDBRANCH   9  13
ENDBRANCH   1   5
BRANCH   3  16
HETATM   16  C   UNL     1     -39.178 -52.729  14.602  1.00  0.00     0.143 C 
BRANCH  16  17
HETATM   17  C   UNL     1     -39.771 -53.793  13.693  1.00  0.00     0.148 C 
BRANCH  17  18
HETATM   18  N   UNL     1     -40.981 -53.331  13.051  1.00  0.00    -0.350 N 
HETATM   19  C   UNL     1     -42.253 -53.474  13.529  1.00  0.00     0.108 A 
HETATM   20  C   UNL     1     -43.052 -52.880  12.581  1.00  0.00     0.106 A 
HETATM   21  N   UNL     1     -42.298 -52.384  11.549  1.00  0.00    -0.361 N 
HETATM   22  C   UNL     1     -41.054 -52.668  11.860  1.00  0.00     0.182 A 
ATOM     23  HN  UNL     1     -42.632 -51.897  10.718  1.00  0.00     0.166 HD
ENDBRANCH  17  18
ENDBRANCH  16  17
ENDBRANCH   3  16
TORSDOF 6
ENDMDL
