MODEL 1
REMARK VINA RESULT:      -6.1      0.000      0.000
REMARK  5 active torsions:
REMARK  status: ('A' for Active; 'I' for Inactive)
REMARK    1  A    between atoms: C_2  and  O_3 
REMARK    2  A    between atoms: O_3  and  C_4 
REMARK    3  A    between atoms: C_4  and  C_5 
REMARK    4  A    between atoms: C_5  and  N_6 
REMARK    5  A    between atoms: C_7  and  N_19 
ROOT
HETATM    1  N   UNL     1     -41.466 -51.852  14.118  1.00  0.00    -0.170 N 
HETATM    2  C   UNL     1     -42.479 -50.896  14.125  1.00  0.00     0.708 C 
HETATM    3  N   UNL     1     -41.959 -49.669  14.038  1.00  0.00    -0.172 N 
ATOM      4  HN  UNL     1     -42.455 -48.780  14.103  1.00  0.00     0.186 HD
HETATM    5  C   UNL     1     -40.615 -49.861  13.843  1.00  0.00     0.160 A 
HETATM    6  N   UNL     1     -39.636 -48.898  13.650  1.00  0.00    -0.287 N 
HETATM    7  C   UNL     1     -39.920 -47.487  13.559  1.00  0.00     0.163 C 
HETATM    8  C   UNL     1     -38.306 -49.296  13.523  1.00  0.00     0.330 A 
HETATM    9  O   UNL     1     -37.363 -48.519  13.356  1.00  0.00    -0.246 OA
HETATM   10  N   UNL     1     -38.038 -50.649  13.579  1.00  0.00    -0.273 N 
HETATM   11  C   UNL     1     -38.961 -51.660  13.664  1.00  0.00     0.280 A 
HETATM   12  O   UNL     1     -38.628 -52.837  13.576  1.00  0.00    -0.265 OA
HETATM   13  C   UNL     1     -40.292 -51.187  13.851  1.00  0.00     0.164 A 
HETATM   14  H   UNL     1     -37.076 -50.916  13.463  1.00  0.00     0.173 HD
ENDROOT
BRANCH   2  15
HETATM   15  N   UNL     1     -43.865 -51.178  14.166  1.00  0.00    -0.090 N 
HETATM   16  N   UNL     1     -44.513 -51.313  12.976  1.00  0.00    -0.284 N 
HETATM   17  C   UNL     1     -45.804 -51.454  13.280  1.00  0.00     0.031 A 
ATOM     18  HN  UNL     1     -44.096 -51.308  12.044  1.00  0.00     0.188 HD
HETATM   19  C   UNL     1     -46.814 -51.656  12.208  1.00  0.00     0.070 C 
HETATM   20  C   UNL     1     -46.031 -51.407  14.672  1.00  0.00    -0.013 A 
HETATM   21  C   UNL     1     -47.335 -51.525  15.378  1.00  0.00     0.052 C 
HETATM   22  C   UNL     1     -44.764 -51.268  15.225  1.00  0.00     0.056 A 
HETATM   23  C   UNL     1     -44.376 -51.290  16.657  1.00  0.00     0.072 C 
ENDBRANCH   2  15
BRANCH   1  24
HETATM   24  C   UNL     1     -41.531 -53.260  14.487  1.00  0.00     0.174 C 
BRANCH  24  25
HETATM   25  C   UNL     1     -41.912 -54.182  13.325  1.00  0.00     0.188 C 
BRANCH  25  26
HETATM   26  O   UNL     1     -43.330 -54.174  13.153  1.00  0.00    -0.390 OA
BRANCH  26  27
HETATM   27  C   UNL     1     -43.999 -54.787  14.252  1.00  0.00     0.163 C 
HETATM   28  C   UNL     1     -45.414 -55.107  13.821  1.00  0.00     0.033 C 
ENDBRANCH  26  27
ENDBRANCH  25  26
ENDBRANCH  24  25
ENDBRANCH   1  24
TORSDOF 5
ENDMDL
MODEL 2
REMARK VINA RESULT:      -6.0      3.397      5.678
REMARK  5 active torsions:
REMARK  status: ('A' for Active; 'I' for Inactive)
REMARK    1  A    between atoms: C_2  and  O_3 
REMARK    2  A    between atoms: O_3  and  C_4 
REMARK    3  A    between atoms: C_4  and  C_5 
REMARK    4  A    between atoms: C_5  and  N_6 
REMARK    5  A    between atoms: C_7  and  N_19 
ROOT
HETATM    1  N   UNL     1     -41.234 -48.425  12.226  1.00  0.00    -0.170 N 
HETATM    2  C   UNL     1     -42.233 -49.388  12.346  1.00  0.00     0.708 C 
HETATM    3  N   UNL     1     -43.305 -49.038  11.632  1.00  0.00    -0.172 N 
ATOM      4  HN  UNL     1     -44.209 -49.509  11.599  1.00  0.00     0.186 HD
HETATM    5  C   UNL     1     -42.928 -47.908  10.951  1.00  0.00     0.160 A 
HETATM    6  N   UNL     1     -43.673 -47.176  10.038  1.00  0.00    -0.287 N 
HETATM    7  C   UNL     1     -44.995 -47.557   9.606  1.00  0.00     0.163 C 
HETATM    8  C   UNL     1     -43.126 -46.016   9.490  1.00  0.00     0.330 A 
HETATM    9  O   UNL     1     -43.709 -45.293   8.678  1.00  0.00    -0.246 OA
HETATM   10  N   UNL     1     -41.850 -45.667   9.881  1.00  0.00    -0.273 N 
HETATM   11  C   UNL     1     -41.019 -46.393  10.695  1.00  0.00     0.280 A 
HETATM   12  O   UNL     1     -39.853 -46.060  10.878  1.00  0.00    -0.265 OA
HETATM   13  C   UNL     1     -41.655 -47.532  11.268  1.00  0.00     0.164 A 
HETATM   14  H   UNL     1     -41.466 -44.840   9.457  1.00  0.00     0.173 HD
ENDROOT
BRANCH   2  15
HETATM   15  N   UNL     1     -42.118 -50.594  13.079  1.00  0.00    -0.090 N 
HETATM   16  N   UNL     1     -41.367 -51.590  12.531  1.00  0.00    -0.284 N 
HETATM   17  C   UNL     1     -41.512 -52.640  13.341  1.00  0.00     0.031 A 
ATOM     18  HN  UNL     1     -40.809 -51.543  11.678  1.00  0.00     0.188 HD
HETATM   19  C   UNL     1     -40.799 -53.914  13.061  1.00  0.00     0.070 C 
HETATM   20  C   UNL     1     -42.363 -52.358  14.431  1.00  0.00    -0.013 A 
HETATM   21  C   UNL     1     -42.757 -53.280  15.530  1.00  0.00     0.052 C 
HETATM   22  C   UNL     1     -42.711 -51.023  14.262  1.00  0.00     0.056 A 
HETATM   23  C   UNL     1     -43.489 -50.151  15.177  1.00  0.00     0.072 C 
ENDBRANCH   2  15
BRANCH   1  24
HETATM   24  C   UNL     1     -40.042 -48.233  13.041  1.00  0.00     0.174 C 
BRANCH  24  25
HETATM   25  C   UNL     1     -38.779 -48.852  12.436  1.00  0.00     0.188 C 
BRANCH  25  26
HETATM   26  O   UNL     1     -38.627 -50.191  12.912  1.00  0.00    -0.390 OA
BRANCH  26  27
HETATM   27  C   UNL     1     -37.511 -50.842  12.311  1.00  0.00     0.163 C 
HETATM   28  C   UNL     1     -37.204 -50.139  11.006  1.00  0.00     0.033 C 
ENDBRANCH  26  27
ENDBRANCH  25  26
ENDBRANCH  24  25
ENDBRANCH   1  24
TORSDOF 5
ENDMDL
MODEL 3
REMARK VINA RESULT:      -5.9      2.084      2.527
REMARK  5 active torsions:
REMARK  status: ('A' for Active; 'I' for Inactive)
REMARK    1  A    between atoms: C_2  and  O_3 
REMARK    2  A    between atoms: O_3  and  C_4 
REMARK    3  A    between atoms: C_4  and  C_5 
REMARK    4  A    between atoms: C_5  and  N_6 
REMARK    5  A    between atoms: C_7  and  N_19 
ROOT
HETATM    1  N   UNL     1     -41.675 -50.035  12.758  1.00  0.00    -0.170 N 
HETATM    2  C   UNL     1     -42.945 -49.551  13.065  1.00  0.00     0.708 C 
HETATM    3  N   UNL     1     -43.019 -48.244  12.805  1.00  0.00    -0.172 N 
ATOM      4  HN  UNL     1     -43.796 -47.615  13.009  1.00  0.00     0.186 HD
HETATM    5  C   UNL     1     -41.826 -47.928  12.206  1.00  0.00     0.160 A 
HETATM    6  N   UNL     1     -41.423 -46.699  11.706  1.00  0.00    -0.287 N 
HETATM    7  C   UNL     1     -42.272 -45.533  11.688  1.00  0.00     0.163 C 
HETATM    8  C   UNL     1     -40.139 -46.568  11.178  1.00  0.00     0.330 A 
HETATM    9  O   UNL     1     -39.684 -45.518  10.717  1.00  0.00    -0.246 OA
HETATM   10  N   UNL     1     -39.337 -47.691  11.167  1.00  0.00    -0.273 N 
HETATM   11  C   UNL     1     -39.702 -48.957  11.547  1.00  0.00     0.280 A 
HETATM   12  O   UNL     1     -38.955 -49.915  11.376  1.00  0.00    -0.265 OA
HETATM   13  C   UNL     1     -41.000 -49.012  12.131  1.00  0.00     0.164 A 
HETATM   14  H   UNL     1     -38.424 -47.581  10.762  1.00  0.00     0.173 HD
ENDROOT
BRANCH   2  15
HETATM   15  N   UNL     1     -44.023 -50.336  13.538  1.00  0.00    -0.090 N 
HETATM   16  N   UNL     1     -44.798 -50.961  12.608  1.00  0.00    -0.284 N 
HETATM   17  C   UNL     1     -45.796 -51.527  13.290  1.00  0.00     0.031 A 
ATOM     18  HN  UNL     1     -44.647 -50.989  11.600  1.00  0.00     0.188 HD
HETATM   19  C   UNL     1     -46.832 -52.328  12.586  1.00  0.00     0.070 C 
HETATM   20  C   UNL     1     -45.700 -51.281  14.676  1.00  0.00    -0.013 A 
HETATM   21  C   UNL     1     -46.627 -51.748  15.741  1.00  0.00     0.052 C 
HETATM   22  C   UNL     1     -44.530 -50.546  14.817  1.00  0.00     0.056 A 
HETATM   23  C   UNL     1     -43.858 -50.113  16.068  1.00  0.00     0.072 C 
ENDBRANCH   2  15
BRANCH   1  24
HETATM   24  C   UNL     1     -41.053 -51.292  13.148  1.00  0.00     0.174 C 
BRANCH  24  25
HETATM   25  C   UNL     1     -41.322 -52.439  12.169  1.00  0.00     0.188 C 
BRANCH  25  26
HETATM   26  O   UNL     1     -42.499 -53.144  12.570  1.00  0.00    -0.390 OA
BRANCH  26  27
HETATM   27  C   UNL     1     -42.428 -53.560  13.931  1.00  0.00     0.163 C 
HETATM   28  C   UNL     1     -43.639 -54.420  14.222  1.00  0.00     0.033 C 
ENDBRANCH  26  27
ENDBRANCH  25  26
ENDBRANCH  24  25
ENDBRANCH   1  24
TORSDOF 5
ENDMDL
MODEL 4
REMARK VINA RESULT:      -5.9      2.503      5.824
REMARK  5 active torsions:
REMARK  status: ('A' for Active; 'I' for Inactive)
REMARK    1  A    between atoms: C_2  and  O_3 
REMARK    2  A    between atoms: O_3  and  C_4 
REMARK    3  A    between atoms: C_4  and  C_5 
REMARK    4  A    between atoms: C_5  and  N_6 
REMARK    5  A    between atoms: C_7  and  N_19 
ROOT
HETATM    1  N   UNL     1     -42.267 -51.188  12.546  1.00  0.00    -0.170 N 
HETATM    2  C   UNL     1     -43.293 -50.255  12.672  1.00  0.00     0.708 C 
HETATM    3  N   UNL     1     -44.414 -50.851  13.086  1.00  0.00    -0.172 N 
ATOM      4  HN  UNL     1     -45.338 -50.431  13.186  1.00  0.00     0.186 HD
HETATM    5  C   UNL     1     -44.055 -52.149  13.349  1.00  0.00     0.160 A 
HETATM    6  N   UNL     1     -44.852 -53.169  13.846  1.00  0.00    -0.287 N 
HETATM    7  C   UNL     1     -46.228 -52.982  14.236  1.00  0.00     0.163 C 
HETATM    8  C   UNL     1     -44.309 -54.445  13.993  1.00  0.00     0.330 A 
HETATM    9  O   UNL     1     -44.936 -55.419  14.418  1.00  0.00    -0.246 OA
HETATM   10  N   UNL     1     -42.984 -54.617  13.648  1.00  0.00    -0.273 N 
HETATM   11  C   UNL     1     -42.111 -53.638  13.250  1.00  0.00     0.280 A 
HETATM   12  O   UNL     1     -40.918 -53.872  13.091  1.00  0.00    -0.265 OA
HETATM   13  C   UNL     1     -42.740 -52.373  13.062  1.00  0.00     0.164 A 
HETATM   14  H   UNL     1     -42.606 -55.539  13.783  1.00  0.00     0.173 HD
ENDROOT
BRANCH   2  15
HETATM   15  N   UNL     1     -43.163 -48.864  12.445  1.00  0.00    -0.090 N 
HETATM   16  N   UNL     1     -43.291 -48.425  11.162  1.00  0.00    -0.284 N 
HETATM   17  C   UNL     1     -43.013 -47.121  11.196  1.00  0.00     0.031 A 
ATOM     18  HN  UNL     1     -43.546 -48.979  10.343  1.00  0.00     0.188 HD
HETATM   19  C   UNL     1     -43.083 -46.301   9.959  1.00  0.00     0.070 C 
HETATM   20  C   UNL     1     -42.692 -46.679  12.498  1.00  0.00    -0.013 A 
HETATM   21  C   UNL     1     -42.328 -45.300  12.918  1.00  0.00     0.052 C 
HETATM   22  C   UNL     1     -42.833 -47.811  13.292  1.00  0.00     0.056 A 
HETATM   23  C   UNL     1     -42.744 -47.917  14.769  1.00  0.00     0.072 C 
ENDBRANCH   2  15
BRANCH   1  24
HETATM   24  C   UNL     1     -40.991 -51.061  11.856  1.00  0.00     0.174 C 
BRANCH  24  25
HETATM   25  C   UNL     1     -39.845 -50.604  12.764  1.00  0.00     0.188 C 
BRANCH  25  26
HETATM   26  O   UNL     1     -38.721 -51.469  12.588  1.00  0.00    -0.390 OA
BRANCH  26  27
HETATM   27  C   UNL     1     -37.495 -50.743  12.566  1.00  0.00     0.163 C 
HETATM   28  C   UNL     1     -37.432 -49.968  11.268  1.00  0.00     0.033 C 
ENDBRANCH  26  27
ENDBRANCH  25  26
ENDBRANCH  24  25
ENDBRANCH   1  24
TORSDOF 5
ENDMDL
MODEL 5
REMARK VINA RESULT:      -5.6      2.610      5.776
REMARK  5 active torsions:
REMARK  status: ('A' for Active; 'I' for Inactive)
REMARK    1  A    between atoms: C_2  and  O_3 
REMARK    2  A    between atoms: O_3  and  C_4 
REMARK    3  A    between atoms: C_4  and  C_5 
REMARK    4  A    between atoms: C_5  and  N_6 
REMARK    5  A    between atoms: C_7  and  N_19 
ROOT
HETATM    1  N   UNL     1     -41.657 -50.604  12.188  1.00  0.00    -0.170 N 
HETATM    2  C   UNL     1     -42.794 -49.810  12.310  1.00  0.00     0.708 C 
HETATM    3  N   UNL     1     -43.806 -50.523  12.810  1.00  0.00    -0.172 N 
ATOM      4  HN  UNL     1     -44.774 -50.225  12.931  1.00  0.00     0.186 HD
HETATM    5  C   UNL     1     -43.263 -51.743  13.128  1.00  0.00     0.160 A 
HETATM    6  N   UNL     1     -43.894 -52.827  13.719  1.00  0.00    -0.287 N 
HETATM    7  C   UNL     1     -45.265 -52.802  14.164  1.00  0.00     0.163 C 
HETATM    8  C   UNL     1     -43.177 -54.008  13.912  1.00  0.00     0.330 A 
HETATM    9  O   UNL     1     -43.648 -55.028  14.420  1.00  0.00    -0.246 OA
HETATM   10  N   UNL     1     -41.856 -54.023  13.514  1.00  0.00    -0.273 N 
HETATM   11  C   UNL     1     -41.141 -52.962  13.021  1.00  0.00     0.280 A 
HETATM   12  O   UNL     1     -39.934 -53.044  12.818  1.00  0.00    -0.265 OA
HETATM   13  C   UNL     1     -41.943 -51.807  12.791  1.00  0.00     0.164 A 
HETATM   14  H   UNL     1     -41.351 -54.876  13.683  1.00  0.00     0.173 HD
ENDROOT
BRANCH   2  15
HETATM   15  N   UNL     1     -42.863 -48.431  11.999  1.00  0.00    -0.090 N 
HETATM   16  N   UNL     1     -43.231 -48.093  10.731  1.00  0.00    -0.284 N 
HETATM   17  C   UNL     1     -43.106 -46.767  10.660  1.00  0.00     0.031 A 
ATOM     18  HN  UNL     1     -43.538 -48.724   9.990  1.00  0.00     0.188 HD
HETATM   19  C   UNL     1     -43.455 -46.042   9.410  1.00  0.00     0.070 C 
HETATM   20  C   UNL     1     -42.650 -46.209  11.873  1.00  0.00    -0.013 A 
HETATM   21  C   UNL     1     -42.393 -44.774  12.166  1.00  0.00     0.052 C 
HETATM   22  C   UNL     1     -42.538 -47.295  12.733  1.00  0.00     0.056 A 
HETATM   23  C   UNL     1     -42.219 -47.294  14.182  1.00  0.00     0.072 C 
ENDBRANCH   2  15
BRANCH   1  24
HETATM   24  C   UNL     1     -40.438 -50.350  11.431  1.00  0.00     0.174 C 
BRANCH  24  25
HETATM   25  C   UNL     1     -39.443 -49.441  12.158  1.00  0.00     0.188 C 
BRANCH  25  26
HETATM   26  O   UNL     1     -38.179 -49.487  11.493  1.00  0.00    -0.390 OA
BRANCH  26  27
HETATM   27  C   UNL     1     -37.431 -50.644  11.857  1.00  0.00     0.163 C 
HETATM   28  C   UNL     1     -37.350 -50.694  13.368  1.00  0.00     0.033 C 
ENDBRANCH  26  27
ENDBRANCH  25  26
ENDBRANCH  24  25
ENDBRANCH   1  24
TORSDOF 5
ENDMDL
MODEL 6
REMARK VINA RESULT:      -5.3      2.343      6.244
REMARK  5 active torsions:
REMARK  status: ('A' for Active; 'I' for Inactive)
REMARK    1  A    between atoms: C_2  and  O_3 
REMARK    2  A    between atoms: O_3  and  C_4 
REMARK    3  A    between atoms: C_4  and  C_5 
REMARK    4  A    between atoms: C_5  and  N_6 
REMARK    5  A    between atoms: C_7  and  N_19 
ROOT
HETATM    1  N   UNL     1     -42.059 -50.748  12.553  1.00  0.00    -0.170 N 
HETATM    2  C   UNL     1     -43.042 -49.767  12.665  1.00  0.00     0.708 C 
HETATM    3  N   UNL     1     -44.248 -50.328  12.773  1.00  0.00    -0.172 N 
ATOM      4  HN  UNL     1     -45.152 -49.856  12.787  1.00  0.00     0.186 HD
HETATM    5  C   UNL     1     -44.011 -51.676  12.861  1.00  0.00     0.160 A 
HETATM    6  N   UNL     1     -44.937 -52.695  13.029  1.00  0.00    -0.287 N 
HETATM    7  C   UNL     1     -46.348 -52.462  13.208  1.00  0.00     0.163 C 
HETATM    8  C   UNL     1     -44.496 -54.018  13.040  1.00  0.00     0.330 A 
HETATM    9  O   UNL     1     -45.239 -54.994  13.176  1.00  0.00    -0.246 OA
HETATM   10  N   UNL     1     -43.142 -54.240  12.900  1.00  0.00    -0.273 N 
HETATM   11  C   UNL     1     -42.161 -53.284  12.833  1.00  0.00     0.280 A 
HETATM   12  O   UNL     1     -40.973 -53.586  12.840  1.00  0.00    -0.265 OA
HETATM   13  C   UNL     1     -42.679 -51.958  12.766  1.00  0.00     0.164 A 
HETATM   14  H   UNL     1     -42.843 -55.200  12.934  1.00  0.00     0.173 HD
ENDROOT
BRANCH   2  15
HETATM   15  N   UNL     1     -42.800 -48.373  12.710  1.00  0.00    -0.090 N 
HETATM   16  N   UNL     1     -42.965 -47.747  13.908  1.00  0.00    -0.284 N 
HETATM   17  C   UNL     1     -42.796 -46.446  13.664  1.00  0.00     0.031 A 
ATOM     18  HN  UNL     1     -43.174 -48.183  14.807  1.00  0.00     0.188 HD
HETATM   19  C   UNL     1     -42.880 -45.454  14.767  1.00  0.00     0.070 C 
HETATM   20  C   UNL     1     -42.524 -46.192  12.303  1.00  0.00    -0.013 A 
HETATM   21  C   UNL     1     -42.283 -44.871  11.663  1.00  0.00     0.052 C 
HETATM   22  C   UNL     1     -42.492 -47.450  11.715  1.00  0.00     0.056 A 
HETATM   23  C   UNL     1     -42.125 -47.808  10.322  1.00  0.00     0.072 C 
ENDBRANCH   2  15
BRANCH   1  24
HETATM   24  C   UNL     1     -40.675 -50.615  12.122  1.00  0.00     0.174 C 
BRANCH  24  25
HETATM   25  C   UNL     1     -39.737 -50.104  13.219  1.00  0.00     0.188 C 
BRANCH  25  26
HETATM   26  O   UNL     1     -39.315 -48.775  12.908  1.00  0.00    -0.390 OA
BRANCH  26  27
HETATM   27  C   UNL     1     -39.255 -47.953  14.071  1.00  0.00     0.163 C 
HETATM   28  C   UNL     1     -39.097 -46.517  13.623  1.00  0.00     0.033 C 
ENDBRANCH  26  27
ENDBRANCH  25  26
ENDBRANCH  24  25
ENDBRANCH   1  24
TORSDOF 5
ENDMDL
MODEL 7
REMARK VINA RESULT:      -5.2      1.853      6.357
REMARK  5 active torsions:
REMARK  status: ('A' for Active; 'I' for Inactive)
REMARK    1  A    between atoms: C_2  and  O_3 
REMARK    2  A    between atoms: O_3  and  C_4 
REMARK    3  A    between atoms: C_4  and  C_5 
REMARK    4  A    between atoms: C_5  and  N_6 
REMARK    5  A    between atoms: C_7  and  N_19 
ROOT
HETATM    1  N   UNL     1     -40.488 -50.780  12.914  1.00  0.00    -0.170 N 
HETATM    2  C   UNL     1     -41.131 -49.594  13.259  1.00  0.00     0.708 C 
HETATM    3  N   UNL     1     -42.455 -49.765  13.250  1.00  0.00    -0.172 N 
ATOM      4  HN  UNL     1     -43.173 -49.052  13.382  1.00  0.00     0.186 HD
HETATM    5  C   UNL     1     -42.643 -51.105  13.026  1.00  0.00     0.160 A 
HETATM    6  N   UNL     1     -43.843 -51.799  12.969  1.00  0.00    -0.287 N 
HETATM    7  C   UNL     1     -45.125 -51.187  13.213  1.00  0.00     0.163 C 
HETATM    8  C   UNL     1     -43.826 -53.162  12.674  1.00  0.00     0.330 A 
HETATM    9  O   UNL     1     -44.836 -53.865  12.592  1.00  0.00    -0.246 OA
HETATM   10  N   UNL     1     -42.596 -53.754  12.470  1.00  0.00    -0.273 N 
HETATM   11  C   UNL     1     -41.370 -53.157  12.612  1.00  0.00     0.280 A 
HETATM   12  O   UNL     1     -40.331 -53.805  12.535  1.00  0.00    -0.265 OA
HETATM   13  C   UNL     1     -41.456 -51.756  12.854  1.00  0.00     0.164 A 
HETATM   14  H   UNL     1     -42.605 -54.742  12.281  1.00  0.00     0.173 HD
ENDROOT
BRANCH   2  15
HETATM   15  N   UNL     1     -40.481 -48.389  13.617  1.00  0.00    -0.090 N 
HETATM   16  N   UNL     1     -40.175 -48.209  14.932  1.00  0.00    -0.284 N 
HETATM   17  C   UNL     1     -39.687 -46.971  15.025  1.00  0.00     0.031 A 
ATOM     18  HN  UNL     1     -40.295 -48.882  15.690  1.00  0.00     0.188 HD
HETATM   19  C   UNL     1     -39.218 -46.440  16.331  1.00  0.00     0.070 C 
HETATM   20  C   UNL     1     -39.668 -46.312  13.777  1.00  0.00    -0.013 A 
HETATM   21  C   UNL     1     -39.197 -44.930  13.494  1.00  0.00     0.052 C 
HETATM   22  C   UNL     1     -40.148 -47.258  12.879  1.00  0.00     0.056 A 
HETATM   23  C   UNL     1     -40.231 -47.165  11.400  1.00  0.00     0.072 C 
ENDBRANCH   2  15
BRANCH   1  24
HETATM   24  C   UNL     1     -39.105 -50.990  12.509  1.00  0.00     0.174 C 
BRANCH  24  25
HETATM   25  C   UNL     1     -38.135 -51.132  13.685  1.00  0.00     0.188 C 
BRANCH  25  26
HETATM   26  O   UNL     1     -37.516 -49.872  13.951  1.00  0.00    -0.390 OA
BRANCH  26  27
HETATM   27  C   UNL     1     -36.998 -49.807  15.277  1.00  0.00     0.163 C 
HETATM   28  C   UNL     1     -37.825 -50.727  16.150  1.00  0.00     0.033 C 
ENDBRANCH  26  27
ENDBRANCH  25  26
ENDBRANCH  24  25
ENDBRANCH   1  24
TORSDOF 5
ENDMDL
MODEL 8
REMARK VINA RESULT:      -5.1      5.363      7.705
REMARK  5 active torsions:
REMARK  status: ('A' for Active; 'I' for Inactive)
REMARK    1  A    between atoms: C_2  and  O_3 
REMARK    2  A    between atoms: O_3  and  C_4 
REMARK    3  A    between atoms: C_4  and  C_5 
REMARK    4  A    between atoms: C_5  and  N_6 
REMARK    5  A    between atoms: C_7  and  N_19 
ROOT
HETATM    1  N   UNL     1     -41.244 -46.268  12.194  1.00  0.00    -0.170 N 
HETATM    2  C   UNL     1     -41.956 -45.081  12.346  1.00  0.00     0.708 C 
HETATM    3  N   UNL     1     -42.791 -44.905  11.319  1.00  0.00    -0.172 N 
ATOM      4  HN  UNL     1     -43.372 -44.089  11.127  1.00  0.00     0.186 HD
HETATM    5  C   UNL     1     -42.699 -46.057  10.580  1.00  0.00     0.160 A 
HETATM    6  N   UNL     1     -43.401 -46.390   9.432  1.00  0.00    -0.287 N 
HETATM    7  C   UNL     1     -44.427 -45.554   8.859  1.00  0.00     0.163 C 
HETATM    8  C   UNL     1     -43.123 -47.597   8.791  1.00  0.00     0.330 A 
HETATM    9  O   UNL     1     -43.685 -47.980   7.762  1.00  0.00    -0.246 OA
HETATM   10  N   UNL     1     -42.163 -48.411   9.356  1.00  0.00    -0.273 N 
HETATM   11  C   UNL     1     -41.505 -48.196  10.540  1.00  0.00     0.280 A 
HETATM   12  O   UNL     1     -40.763 -49.046  11.022  1.00  0.00    -0.265 OA
HETATM   13  C   UNL     1     -41.788 -46.923  11.112  1.00  0.00     0.164 A 
HETATM   14  H   UNL     1     -41.993 -49.287   8.891  1.00  0.00     0.173 HD
ENDROOT
BRANCH   2  15
HETATM   15  N   UNL     1     -41.851 -44.205  13.453  1.00  0.00    -0.090 N 
HETATM   16  N   UNL     1     -42.833 -44.267  14.395  1.00  0.00    -0.284 N 
HETATM   17  C   UNL     1     -42.573 -43.280  15.255  1.00  0.00     0.031 A 
ATOM     18  HN  UNL     1     -43.607 -44.930  14.436  1.00  0.00     0.188 HD
HETATM   19  C   UNL     1     -43.438 -43.066  16.444  1.00  0.00     0.070 C 
HETATM   20  C   UNL     1     -41.422 -42.548  14.892  1.00  0.00    -0.013 A 
HETATM   21  C   UNL     1     -40.831 -41.384  15.605  1.00  0.00     0.052 C 
HETATM   22  C   UNL     1     -40.952 -43.186  13.751  1.00  0.00     0.056 A 
HETATM   23  C   UNL     1     -39.697 -42.928  13.001  1.00  0.00     0.072 C 
ENDBRANCH   2  15
BRANCH   1  24
HETATM   24  C   UNL     1     -40.042 -46.713  12.885  1.00  0.00     0.174 C 
BRANCH  24  25
HETATM   25  C   UNL     1     -40.327 -47.483  14.178  1.00  0.00     0.188 C 
BRANCH  25  26
HETATM   26  O   UNL     1     -39.484 -48.635  14.245  1.00  0.00    -0.390 OA
BRANCH  26  27
HETATM   27  C   UNL     1     -38.278 -48.451  13.509  1.00  0.00     0.163 C 
HETATM   28  C   UNL     1     -37.857 -49.794  12.954  1.00  0.00     0.033 C 
ENDBRANCH  26  27
ENDBRANCH  25  26
ENDBRANCH  24  25
ENDBRANCH   1  24
TORSDOF 5
ENDMDL
MODEL 9
REMARK VINA RESULT:      -5.1      2.228      3.223
REMARK  5 active torsions:
REMARK  status: ('A' for Active; 'I' for Inactive)
REMARK    1  A    between atoms: C_2  and  O_3 
REMARK    2  A    between atoms: O_3  and  C_4 
REMARK    3  A    between atoms: C_4  and  C_5 
REMARK    4  A    between atoms: C_5  and  N_6 
REMARK    5  A    between atoms: C_7  and  N_19 
ROOT
HETATM    1  N   UNL     1     -41.836 -49.881  13.609  1.00  0.00    -0.170 N 
HETATM    2  C   UNL     1     -43.061 -50.088  12.980  1.00  0.00     0.708 C 
HETATM    3  N   UNL     1     -43.236 -49.198  12.000  1.00  0.00    -0.172 N 
ATOM      4  HN  UNL     1     -44.070 -49.062  11.429  1.00  0.00     0.186 HD
HETATM    5  C   UNL     1     -42.053 -48.508  11.926  1.00  0.00     0.160 A 
HETATM    6  N   UNL     1     -41.708 -47.501  11.037  1.00  0.00    -0.287 N 
HETATM    7  C   UNL     1     -42.569 -47.059   9.967  1.00  0.00     0.163 C 
HETATM    8  C   UNL     1     -40.465 -46.881  11.160  1.00  0.00     0.330 A 
HETATM    9  O   UNL     1     -40.069 -45.973  10.426  1.00  0.00    -0.246 OA
HETATM   10  N   UNL     1     -39.629 -47.325  12.164  1.00  0.00    -0.273 N 
HETATM   11  C   UNL     1     -39.859 -48.379  13.010  1.00  0.00     0.280 A 
HETATM   12  O   UNL     1     -38.995 -48.777  13.785  1.00  0.00    -0.265 OA
HETATM   13  C   UNL     1     -41.166 -48.929  12.874  1.00  0.00     0.164 A 
HETATM   14  H   UNL     1     -38.729 -46.880  12.222  1.00  0.00     0.173 HD
ENDROOT
BRANCH   2  15
HETATM   15  N   UNL     1     -43.974 -51.123  13.295  1.00  0.00    -0.090 N 
HETATM   16  N   UNL     1     -45.058 -50.793  14.051  1.00  0.00    -0.284 N 
HETATM   17  C   UNL     1     -45.686 -51.942  14.304  1.00  0.00     0.031 A 
ATOM     18  HN  UNL     1     -45.332 -49.860  14.361  1.00  0.00     0.188 HD
HETATM   19  C   UNL     1     -46.945 -51.957  15.093  1.00  0.00     0.070 C 
HETATM   20  C   UNL     1     -45.027 -53.048  13.725  1.00  0.00    -0.013 A 
HETATM   21  C   UNL     1     -45.430 -54.477  13.796  1.00  0.00     0.052 C 
HETATM   22  C   UNL     1     -43.949 -52.492  13.048  1.00  0.00     0.056 A 
HETATM   23  C   UNL     1     -42.976 -53.166  12.151  1.00  0.00     0.072 C 
ENDBRANCH   2  15
BRANCH   1  24
HETATM   24  C   UNL     1     -41.362 -50.394  14.887  1.00  0.00     0.174 C 
BRANCH  24  25
HETATM   25  C   UNL     1     -40.690 -51.765  14.786  1.00  0.00     0.188 C 
BRANCH  25  26
HETATM   26  O   UNL     1     -41.466 -52.733  15.495  1.00  0.00    -0.390 OA
BRANCH  26  27
HETATM   27  C   UNL     1     -41.061 -54.064  15.188  1.00  0.00     0.163 C 
HETATM   28  C   UNL     1     -42.190 -54.998  15.567  1.00  0.00     0.033 C 
ENDBRANCH  26  27
ENDBRANCH  25  26
ENDBRANCH  24  25
ENDBRANCH   1  24
TORSDOF 5
ENDMDL
