MODEL 1
REMARK VINA RESULT:      -7.0      0.000      0.000
REMARK  7 active torsions:
REMARK  status: ('A' for Active; 'I' for Inactive)
REMARK    1  A    between atoms: N_5  and  C_6 
REMARK    2  A    between atoms: C_6  and  C_7 
REMARK    3  A    between atoms: C_7  and  O_8 
REMARK    4  A    between atoms: C_7  and  C_9 
REMARK    5  A    between atoms: C_14  and  C_15 
REMARK    6  A    between atoms: C_21  and  C_22 
REMARK    7  A    between atoms: C_22  and  N_23 
ROOT
HETATM    1  C   UNL     1     -43.069 -47.574  11.691  1.00  0.00     0.070 C 
HETATM    2  C   UNL     1     -42.217 -48.814  11.850  1.00  0.00     0.029 A 
HETATM    3  N   UNL     1     -42.816 -49.915  12.178  1.00  0.00    -0.300 N 
ATOM      4  HN  UNL     1     -43.825 -49.939  12.326  1.00  0.00     0.187 HD
HETATM    5  N   UNL     1     -42.056 -51.049  12.321  1.00  0.00    -0.253 N 
HETATM    6  C   UNL     1     -40.691 -51.115  12.087  1.00  0.00     0.282 A 
HETATM    7  O   UNL     1     -40.037 -52.154  12.156  1.00  0.00    -0.265 OA
HETATM    8  C   UNL     1     -40.055 -49.836  11.753  1.00  0.00     0.103 A 
HETATM    9  C   UNL     1     -40.751 -48.692  11.626  1.00  0.00    -0.013 A 
HETATM   10  C   UNL     1     -40.171 -47.344  11.302  1.00  0.00     0.052 C 
ENDROOT
BRANCH   5  11
HETATM   11  C   UNL     1     -42.761 -52.286  12.627  1.00  0.00     0.189 C 
BRANCH  11  12
HETATM   12  C   UNL     1     -43.078 -52.419  14.135  1.00  0.00     0.172 C 
BRANCH  12  13
HETATM   13  O   UNL     1     -42.454 -51.408  14.930  1.00  0.00    -0.389 OA
HETATM   14  H   UNL     1     -43.130 -51.030  15.525  1.00  0.00     0.210 HD
ENDBRANCH  12  13
BRANCH  12  15
HETATM   15  C   UNL     1     -44.549 -52.363  14.509  1.00  0.00    -0.013 A 
HETATM   16  C   UNL     1     -45.072 -51.192  15.103  1.00  0.00     0.011 A 
HETATM   17  C   UNL     1     -46.397 -51.109  15.524  1.00  0.00     0.001 A 
HETATM   18  C   UNL     1     -47.238 -52.199  15.372  1.00  0.00     0.001 A 
HETATM   19  C   UNL     1     -46.745 -53.373  14.807  1.00  0.00     0.017 A 
HETATM   20  C   UNL     1     -45.400 -53.487  14.381  1.00  0.00     0.056 A 
BRANCH  20  21
HETATM   21  C   UNL     1     -44.996 -54.845  13.834  1.00  0.00     0.418 C 
HETATM   22  F   UNL     1     -43.973 -55.481  14.459  1.00  0.00    -0.166 F 
HETATM   23  F   UNL     1     -46.034 -55.731  13.838  1.00  0.00    -0.166 F 
HETATM   24  F   UNL     1     -44.609 -54.754  12.526  1.00  0.00    -0.166 F 
ENDBRANCH  20  21
ENDBRANCH  12  15
ENDBRANCH  11  12
ENDBRANCH   5  11
BRANCH   8  25
HETATM   25  C   UNL     1     -38.546 -49.797  11.569  1.00  0.00    -0.031 C 
BRANCH  25  26
HETATM   26  N   UNL     1     -37.295 -49.764  11.416  1.00  0.00    -0.365 N 
ATOM     27  HN2 UNL     1     -38.311 -49.785  11.511  1.00  0.00     0.165 HD
ATOM     28  HN1 UNL     1     -36.283 -49.739  11.293  1.00  0.00     0.165 HD
ENDBRANCH  25  26
ENDBRANCH   8  25
TORSDOF 7
ENDMDL
MODEL 2
REMARK VINA RESULT:      -6.9      2.667      5.383
REMARK  7 active torsions:
REMARK  status: ('A' for Active; 'I' for Inactive)
REMARK    1  A    between atoms: N_5  and  C_6 
REMARK    2  A    between atoms: C_6  and  C_7 
REMARK    3  A    between atoms: C_7  and  O_8 
REMARK    4  A    between atoms: C_7  and  C_9 
REMARK    5  A    between atoms: C_14  and  C_15 
REMARK    6  A    between atoms: C_21  and  C_22 
REMARK    7  A    between atoms: C_22  and  N_23 
ROOT
HETATM    1  C   UNL     1     -46.807 -51.990  12.393  1.00  0.00     0.070 C 
HETATM    2  C   UNL     1     -45.567 -51.667  13.198  1.00  0.00     0.029 A 
HETATM    3  N   UNL     1     -44.420 -51.796  12.609  1.00  0.00    -0.300 N 
ATOM      4  HN  UNL     1     -44.360 -52.108  11.640  1.00  0.00     0.187 HD
HETATM    5  N   UNL     1     -43.287 -51.502  13.326  1.00  0.00    -0.253 N 
HETATM    6  C   UNL     1     -43.282 -51.022  14.627  1.00  0.00     0.282 A 
HETATM    7  O   UNL     1     -42.260 -50.701  15.231  1.00  0.00    -0.265 OA
HETATM    8  C   UNL     1     -44.603 -50.927  15.259  1.00  0.00     0.103 A 
HETATM    9  C   UNL     1     -45.740 -51.228  14.608  1.00  0.00    -0.013 A 
HETATM   10  C   UNL     1     -47.125 -51.169  15.190  1.00  0.00     0.052 C 
ENDROOT
BRANCH   5  11
HETATM   11  C   UNL     1     -42.015 -51.594  12.623  1.00  0.00     0.189 C 
BRANCH  11  12
HETATM   12  C   UNL     1     -41.510 -53.052  12.519  1.00  0.00     0.172 C 
BRANCH  12  13
HETATM   13  O   UNL     1     -40.530 -53.233  11.494  1.00  0.00    -0.389 OA
HETATM   14  H   UNL     1     -40.183 -54.144  11.564  1.00  0.00     0.210 HD
ENDBRANCH  12  13
BRANCH  12  15
HETATM   15  C   UNL     1     -40.879 -53.625  13.775  1.00  0.00    -0.013 A 
HETATM   16  C   UNL     1     -39.496 -53.439  14.006  1.00  0.00     0.011 A 
HETATM   17  C   UNL     1     -38.854 -53.997  15.110  1.00  0.00     0.001 A 
HETATM   18  C   UNL     1     -39.572 -54.767  16.010  1.00  0.00     0.001 A 
HETATM   19  C   UNL     1     -40.932 -54.983  15.797  1.00  0.00     0.017 A 
HETATM   20  C   UNL     1     -41.606 -54.437  14.679  1.00  0.00     0.056 A 
BRANCH  20  21
HETATM   21  C   UNL     1     -43.075 -54.803  14.554  1.00  0.00     0.418 C 
HETATM   22  F   UNL     1     -43.629 -54.712  13.318  1.00  0.00    -0.166 F 
HETATM   23  F   UNL     1     -43.325 -56.076  14.974  1.00  0.00    -0.166 F 
HETATM   24  F   UNL     1     -43.851 -54.006  15.348  1.00  0.00    -0.166 F 
ENDBRANCH  20  21
ENDBRANCH  12  15
ENDBRANCH  11  12
ENDBRANCH   5  11
BRANCH   8  25
HETATM   25  C   UNL     1     -44.685 -50.496  16.715  1.00  0.00    -0.031 C 
BRANCH  25  26
HETATM   26  N   UNL     1     -44.754 -50.140  17.922  1.00  0.00    -0.365 N 
ATOM     27  HN2 UNL     1     -44.718 -50.407  16.938  1.00  0.00     0.165 HD
ATOM     28  HN1 UNL     1     -44.808 -49.852  18.899  1.00  0.00     0.165 HD
ENDBRANCH  25  26
ENDBRANCH   8  25
TORSDOF 7
ENDMDL
MODEL 3
REMARK VINA RESULT:      -6.8      3.636      5.247
REMARK  7 active torsions:
REMARK  status: ('A' for Active; 'I' for Inactive)
REMARK    1  A    between atoms: N_5  and  C_6 
REMARK    2  A    between atoms: C_6  and  C_7 
REMARK    3  A    between atoms: C_7  and  O_8 
REMARK    4  A    between atoms: C_7  and  C_9 
REMARK    5  A    between atoms: C_14  and  C_15 
REMARK    6  A    between atoms: C_21  and  C_22 
REMARK    7  A    between atoms: C_22  and  N_23 
ROOT
HETATM    1  C   UNL     1     -40.636 -52.807  12.130  1.00  0.00     0.070 C 
HETATM    2  C   UNL     1     -41.785 -53.381  12.931  1.00  0.00     0.029 A 
HETATM    3  N   UNL     1     -42.987 -53.075  12.558  1.00  0.00    -0.300 N 
ATOM      4  HN  UNL     1     -43.148 -52.465  11.756  1.00  0.00     0.187 HD
HETATM    5  N   UNL     1     -44.039 -53.592  13.273  1.00  0.00    -0.253 N 
HETATM    6  C   UNL     1     -43.909 -54.468  14.340  1.00  0.00     0.282 A 
HETATM    7  O   UNL     1     -44.865 -54.974  14.926  1.00  0.00    -0.265 OA
HETATM    8  C   UNL     1     -42.528 -54.756  14.743  1.00  0.00     0.103 A 
HETATM    9  C   UNL     1     -41.464 -54.253  14.092  1.00  0.00    -0.013 A 
HETATM   10  C   UNL     1     -40.024 -54.489  14.454  1.00  0.00     0.052 C 
ENDROOT
BRANCH   5  11
HETATM   11  C   UNL     1     -45.380 -53.284  12.796  1.00  0.00     0.189 C 
BRANCH  11  12
HETATM   12  C   UNL     1     -45.778 -51.817  13.081  1.00  0.00     0.172 C 
BRANCH  12  13
HETATM   13  O   UNL     1     -46.988 -51.429  12.425  1.00  0.00    -0.389 OA
HETATM   14  H   UNL     1     -47.030 -51.895  11.567  1.00  0.00     0.210 HD
ENDBRANCH  12  13
BRANCH  12  15
HETATM   15  C   UNL     1     -45.988 -51.461  14.541  1.00  0.00    -0.013 A 
HETATM   16  C   UNL     1     -47.214 -51.784  15.167  1.00  0.00     0.011 A 
HETATM   17  C   UNL     1     -47.484 -51.424  16.486  1.00  0.00     0.001 A 
HETATM   18  C   UNL     1     -46.540 -50.719  17.215  1.00  0.00     0.001 A 
HETATM   19  C   UNL     1     -45.331 -50.370  16.618  1.00  0.00     0.017 A 
HETATM   20  C   UNL     1     -45.036 -50.714  15.277  1.00  0.00     0.056 A 
BRANCH  20  21
HETATM   21  C   UNL     1     -43.701 -50.218  14.750  1.00  0.00     0.418 C 
HETATM   22  F   UNL     1     -43.602 -50.025  13.410  1.00  0.00    -0.166 F 
HETATM   23  F   UNL     1     -43.330 -49.035  15.318  1.00  0.00    -0.166 F 
HETATM   24  F   UNL     1     -42.695 -51.093  15.055  1.00  0.00    -0.166 F 
ENDBRANCH  20  21
ENDBRANCH  12  15
ENDBRANCH  11  12
ENDBRANCH   5  11
BRANCH   8  25
HETATM   25  C   UNL     1     -42.292 -55.635  15.961  1.00  0.00    -0.031 C 
BRANCH  25  26
HETATM   26  N   UNL     1     -42.097 -56.364  16.971  1.00  0.00    -0.365 N 
ATOM     27  HN2 UNL     1     -42.278 -55.761  16.168  1.00  0.00     0.165 HD
ATOM     28  HN1 UNL     1     -41.939 -56.954  17.788  1.00  0.00     0.165 HD
ENDBRANCH  25  26
ENDBRANCH   8  25
TORSDOF 7
ENDMDL
MODEL 4
REMARK VINA RESULT:      -6.6      3.797      6.863
REMARK  7 active torsions:
REMARK  status: ('A' for Active; 'I' for Inactive)
REMARK    1  A    between atoms: N_5  and  C_6 
REMARK    2  A    between atoms: C_6  and  C_7 
REMARK    3  A    between atoms: C_7  and  O_8 
REMARK    4  A    between atoms: C_7  and  C_9 
REMARK    5  A    between atoms: C_14  and  C_15 
REMARK    6  A    between atoms: C_21  and  C_22 
REMARK    7  A    between atoms: C_22  and  N_23 
ROOT
HETATM    1  C   UNL     1     -44.444 -52.715  12.885  1.00  0.00     0.070 C 
HETATM    2  C   UNL     1     -42.954 -52.479  12.770  1.00  0.00     0.029 A 
HETATM    3  N   UNL     1     -42.562 -51.428  12.122  1.00  0.00    -0.300 N 
ATOM      4  HN  UNL     1     -43.237 -50.788  11.703  1.00  0.00     0.187 HD
HETATM    5  N   UNL     1     -41.212 -51.200  12.015  1.00  0.00    -0.253 N 
HETATM    6  C   UNL     1     -40.233 -51.988  12.599  1.00  0.00     0.282 A 
HETATM    7  O   UNL     1     -39.031 -51.731  12.548  1.00  0.00    -0.265 OA
HETATM    8  C   UNL     1     -40.727 -53.183  13.291  1.00  0.00     0.103 A 
HETATM    9  C   UNL     1     -42.037 -53.465  13.402  1.00  0.00    -0.013 A 
HETATM   10  C   UNL     1     -42.619 -54.673  14.081  1.00  0.00     0.052 C 
ENDROOT
BRANCH   5  11
HETATM   11  C   UNL     1     -40.799 -49.979  11.336  1.00  0.00     0.189 C 
BRANCH  11  12
HETATM   12  C   UNL     1     -41.790 -48.816  11.572  1.00  0.00     0.172 C 
BRANCH  12  13
HETATM   13  O   UNL     1     -42.276 -48.758  12.916  1.00  0.00    -0.389 OA
HETATM   14  H   UNL     1     -41.513 -48.605  13.507  1.00  0.00     0.210 HD
ENDBRANCH  12  13
BRANCH  12  15
HETATM   15  C   UNL     1     -41.257 -47.424  11.285  1.00  0.00    -0.013 A 
HETATM   16  C   UNL     1     -40.192 -46.912  12.062  1.00  0.00     0.011 A 
HETATM   17  C   UNL     1     -39.707 -45.618  11.883  1.00  0.00     0.001 A 
HETATM   18  C   UNL     1     -40.279 -44.793  10.929  1.00  0.00     0.001 A 
HETATM   19  C   UNL     1     -41.342 -45.264  10.161  1.00  0.00     0.017 A 
HETATM   20  C   UNL     1     -41.860 -46.570  10.330  1.00  0.00     0.056 A 
BRANCH  20  21
HETATM   21  C   UNL     1     -43.054 -46.921   9.459  1.00  0.00     0.418 C 
HETATM   22  F   UNL     1     -42.928 -48.004   8.650  1.00  0.00    -0.166 F 
HETATM   23  F   UNL     1     -44.181 -47.142  10.194  1.00  0.00    -0.166 F 
HETATM   24  F   UNL     1     -43.372 -45.889   8.619  1.00  0.00    -0.166 F 
ENDBRANCH  20  21
ENDBRANCH  12  15
ENDBRANCH  11  12
ENDBRANCH   5  11
BRANCH   8  25
HETATM   25  C   UNL     1     -39.718 -54.153  13.883  1.00  0.00    -0.031 C 
BRANCH  25  26
HETATM   26  N   UNL     1     -38.880 -54.958  14.374  1.00  0.00    -0.365 N 
ATOM     27  HN2 UNL     1     -39.571 -54.304  14.004  1.00  0.00     0.165 HD
ATOM     28  HN1 UNL     1     -38.202 -55.608  14.770  1.00  0.00     0.165 HD
ENDBRANCH  25  26
ENDBRANCH   8  25
TORSDOF 7
ENDMDL
MODEL 5
REMARK VINA RESULT:      -6.6      2.564      4.015
REMARK  7 active torsions:
REMARK  status: ('A' for Active; 'I' for Inactive)
REMARK    1  A    between atoms: N_5  and  C_6 
REMARK    2  A    between atoms: C_6  and  C_7 
REMARK    3  A    between atoms: C_7  and  O_8 
REMARK    4  A    between atoms: C_7  and  C_9 
REMARK    5  A    between atoms: C_14  and  C_15 
REMARK    6  A    between atoms: C_21  and  C_22 
REMARK    7  A    between atoms: C_22  and  N_23 
ROOT
HETATM    1  C   UNL     1     -37.542 -49.945  11.383  1.00  0.00     0.070 C 
HETATM    2  C   UNL     1     -38.735 -50.063  12.306  1.00  0.00     0.029 A 
HETATM    3  N   UNL     1     -39.765 -50.719  11.873  1.00  0.00    -0.300 N 
ATOM      4  HN  UNL     1     -39.767 -51.136  10.942  1.00  0.00     0.187 HD
HETATM    5  N   UNL     1     -40.853 -50.837  12.701  1.00  0.00    -0.253 N 
HETATM    6  C   UNL     1     -40.911 -50.348  13.997  1.00  0.00     0.282 A 
HETATM    7  O   UNL     1     -41.870 -50.522  14.748  1.00  0.00    -0.265 OA
HETATM    8  C   UNL     1     -39.735 -49.584  14.427  1.00  0.00     0.103 A 
HETATM    9  C   UNL     1     -38.655 -49.417  13.644  1.00  0.00    -0.013 A 
HETATM   10  C   UNL     1     -37.422 -48.638  14.006  1.00  0.00     0.052 C 
ENDROOT
BRANCH   5  11
HETATM   11  C   UNL     1     -41.972 -51.633  12.216  1.00  0.00     0.189 C 
BRANCH  11  12
HETATM   12  C   UNL     1     -41.638 -53.143  12.171  1.00  0.00     0.172 C 
BRANCH  12  13
HETATM   13  O   UNL     1     -40.412 -53.424  11.492  1.00  0.00    -0.389 OA
HETATM   14  H   UNL     1     -39.860 -53.975  12.081  1.00  0.00     0.210 HD
ENDBRANCH  12  13
BRANCH  12  15
HETATM   15  C   UNL     1     -41.513 -53.833  13.517  1.00  0.00    -0.013 A 
HETATM   16  C   UNL     1     -40.230 -54.053  14.070  1.00  0.00     0.011 A 
HETATM   17  C   UNL     1     -40.054 -54.737  15.270  1.00  0.00     0.001 A 
HETATM   18  C   UNL     1     -41.155 -55.232  15.950  1.00  0.00     0.001 A 
HETATM   19  C   UNL     1     -42.430 -55.048  15.419  1.00  0.00     0.017 A 
HETATM   20  C   UNL     1     -42.635 -54.366  14.196  1.00  0.00     0.056 A 
BRANCH  20  21
HETATM   21  C   UNL     1     -44.075 -54.290  13.720  1.00  0.00     0.418 C 
HETATM   22  F   UNL     1     -44.290 -54.417  12.385  1.00  0.00    -0.166 F 
HETATM   23  F   UNL     1     -44.863 -55.236  14.308  1.00  0.00    -0.166 F 
HETATM   24  F   UNL     1     -44.644 -53.092  14.055  1.00  0.00    -0.166 F 
ENDBRANCH  20  21
ENDBRANCH  12  15
ENDBRANCH  11  12
ENDBRANCH   5  11
BRANCH   8  25
HETATM   25  C   UNL     1     -39.750 -48.934  15.801  1.00  0.00    -0.031 C 
BRANCH  25  26
HETATM   26  N   UNL     1     -39.763 -48.395  16.940  1.00  0.00    -0.365 N 
ATOM     27  HN2 UNL     1     -39.745 -48.857  16.031  1.00  0.00     0.165 HD
ATOM     28  HN1 UNL     1     -39.774 -47.958  17.862  1.00  0.00     0.165 HD
ENDBRANCH  25  26
ENDBRANCH   8  25
TORSDOF 7
ENDMDL
MODEL 6
REMARK VINA RESULT:      -6.6      2.389      3.740
REMARK  7 active torsions:
REMARK  status: ('A' for Active; 'I' for Inactive)
REMARK    1  A    between atoms: N_5  and  C_6 
REMARK    2  A    between atoms: C_6  and  C_7 
REMARK    3  A    between atoms: C_7  and  O_8 
REMARK    4  A    between atoms: C_7  and  C_9 
REMARK    5  A    between atoms: C_14  and  C_15 
REMARK    6  A    between atoms: C_21  and  C_22 
REMARK    7  A    between atoms: C_22  and  N_23 
ROOT
HETATM    1  C   UNL     1     -42.674 -47.835   9.553  1.00  0.00     0.070 C 
HETATM    2  C   UNL     1     -41.632 -48.052  10.627  1.00  0.00     0.029 A 
HETATM    3  N   UNL     1     -41.337 -49.275  10.938  1.00  0.00    -0.300 N 
ATOM      4  HN  UNL     1     -41.798 -50.059  10.475  1.00  0.00     0.187 HD
HETATM    5  N   UNL     1     -40.390 -49.487  11.909  1.00  0.00    -0.253 N 
HETATM    6  C   UNL     1     -39.680 -48.481  12.547  1.00  0.00     0.282 A 
HETATM    7  O   UNL     1     -38.788 -48.693  13.367  1.00  0.00    -0.265 OA
HETATM    8  C   UNL     1     -40.075 -47.116  12.185  1.00  0.00     0.103 A 
HETATM    9  C   UNL     1     -41.015 -46.855  11.260  1.00  0.00    -0.013 A 
HETATM   10  C   UNL     1     -41.483 -45.488  10.847  1.00  0.00     0.052 C 
ENDROOT
BRANCH   5  11
HETATM   11  C   UNL     1     -40.032 -50.869  12.195  1.00  0.00     0.189 C 
BRANCH  11  12
HETATM   12  C   UNL     1     -41.250 -51.818  12.108  1.00  0.00     0.172 C 
BRANCH  12  13
HETATM   13  O   UNL     1     -41.274 -52.589  10.904  1.00  0.00    -0.389 OA
HETATM   14  H   UNL     1     -41.903 -53.326  11.029  1.00  0.00     0.210 HD
ENDBRANCH  12  13
BRANCH  12  15
HETATM   15  C   UNL     1     -41.380 -52.832  13.229  1.00  0.00    -0.013 A 
HETATM   16  C   UNL     1     -40.214 -53.397  13.796  1.00  0.00     0.011 A 
HETATM   17  C   UNL     1     -40.277 -54.378  14.783  1.00  0.00     0.001 A 
HETATM   18  C   UNL     1     -41.508 -54.833  15.226  1.00  0.00     0.001 A 
HETATM   19  C   UNL     1     -42.674 -54.308  14.672  1.00  0.00     0.017 A 
HETATM   20  C   UNL     1     -42.638 -53.319  13.661  1.00  0.00     0.056 A 
BRANCH  20  21
HETATM   21  C   UNL     1     -43.988 -52.884  13.118  1.00  0.00     0.418 C 
HETATM   22  F   UNL     1     -44.242 -51.551  13.092  1.00  0.00    -0.166 F 
HETATM   23  F   UNL     1     -44.195 -53.320  11.843  1.00  0.00    -0.166 F 
HETATM   24  F   UNL     1     -45.010 -53.423  13.850  1.00  0.00    -0.166 F 
ENDBRANCH  20  21
ENDBRANCH  12  15
ENDBRANCH  11  12
ENDBRANCH   5  11
BRANCH   8  25
HETATM   25  C   UNL     1     -39.413 -45.951  12.903  1.00  0.00    -0.031 C 
BRANCH  25  26
HETATM   26  N   UNL     1     -38.863 -44.985  13.498  1.00  0.00    -0.365 N 
ATOM     27  HN2 UNL     1     -39.287 -45.785  13.028  1.00  0.00     0.165 HD
ATOM     28  HN1 UNL     1     -38.419 -44.203  13.979  1.00  0.00     0.165 HD
ENDBRANCH  25  26
ENDBRANCH   8  25
TORSDOF 7
ENDMDL
MODEL 7
REMARK VINA RESULT:      -6.4      2.354      2.889
REMARK  7 active torsions:
REMARK  status: ('A' for Active; 'I' for Inactive)
REMARK    1  A    between atoms: N_5  and  C_6 
REMARK    2  A    between atoms: C_6  and  C_7 
REMARK    3  A    between atoms: C_7  and  O_8 
REMARK    4  A    between atoms: C_7  and  C_9 
REMARK    5  A    between atoms: C_14  and  C_15 
REMARK    6  A    between atoms: C_21  and  C_22 
REMARK    7  A    between atoms: C_22  and  N_23 
ROOT
HETATM    1  C   UNL     1     -43.111 -48.723  15.770  1.00  0.00     0.070 C 
HETATM    2  C   UNL     1     -42.652 -49.828  14.843  1.00  0.00     0.029 A 
HETATM    3  N   UNL     1     -42.857 -51.050  15.220  1.00  0.00    -0.300 N 
ATOM      4  HN  UNL     1     -43.309 -51.255  16.112  1.00  0.00     0.187 HD
HETATM    5  N   UNL     1     -42.450 -52.062  14.387  1.00  0.00    -0.253 N 
HETATM    6  C   UNL     1     -41.879 -51.871  13.138  1.00  0.00     0.282 A 
HETATM    7  O   UNL     1     -41.581 -52.790  12.377  1.00  0.00    -0.265 OA
HETATM    8  C   UNL     1     -41.636 -50.471  12.774  1.00  0.00     0.103 A 
HETATM    9  C   UNL     1     -41.993 -49.444  13.566  1.00  0.00    -0.013 A 
HETATM   10  C   UNL     1     -41.765 -47.989  13.270  1.00  0.00     0.052 C 
ENDROOT
BRANCH   5  11
HETATM   11  C   UNL     1     -42.750 -53.425  14.804  1.00  0.00     0.189 C 
BRANCH  11  12
HETATM   12  C   UNL     1     -44.209 -53.825  14.486  1.00  0.00     0.172 C 
BRANCH  12  13
HETATM   13  O   UNL     1     -44.502 -55.185  14.818  1.00  0.00    -0.389 OA
HETATM   14  H   UNL     1     -43.884 -55.464  15.522  1.00  0.00     0.210 HD
ENDBRANCH  12  13
BRANCH  12  15
HETATM   15  C   UNL     1     -45.285 -53.009  15.180  1.00  0.00    -0.013 A 
HETATM   16  C   UNL     1     -45.593 -53.272  16.534  1.00  0.00     0.011 A 
HETATM   17  C   UNL     1     -46.614 -52.597  17.201  1.00  0.00     0.001 A 
HETATM   18  C   UNL     1     -47.365 -51.646  16.529  1.00  0.00     0.001 A 
HETATM   19  C   UNL     1     -47.096 -51.380  15.188  1.00  0.00     0.017 A 
HETATM   20  C   UNL     1     -46.072 -52.059  14.486  1.00  0.00     0.056 A 
BRANCH  20  21
HETATM   21  C   UNL     1     -45.934 -51.699  13.016  1.00  0.00     0.418 C 
HETATM   22  F   UNL     1     -44.988 -50.781  12.693  1.00  0.00    -0.166 F 
HETATM   23  F   UNL     1     -45.665 -52.790  12.243  1.00  0.00    -0.166 F 
HETATM   24  F   UNL     1     -47.103 -51.190  12.522  1.00  0.00    -0.166 F 
ENDBRANCH  20  21
ENDBRANCH  12  15
ENDBRANCH  11  12
ENDBRANCH   5  11
BRANCH   8  25
HETATM   25  C   UNL     1     -40.931 -50.171  11.461  1.00  0.00    -0.031 C 
BRANCH  25  26
HETATM   26  N   UNL     1     -40.345 -49.922  10.373  1.00  0.00    -0.365 N 
ATOM     27  HN2 UNL     1     -40.807 -50.098  11.265  1.00  0.00     0.165 HD
ATOM     28  HN1 UNL     1     -39.871 -49.721   9.492  1.00  0.00     0.165 HD
ENDBRANCH  25  26
ENDBRANCH   8  25
TORSDOF 7
ENDMDL
MODEL 8
REMARK VINA RESULT:      -6.4      1.751      2.255
REMARK  7 active torsions:
REMARK  status: ('A' for Active; 'I' for Inactive)
REMARK    1  A    between atoms: N_5  and  C_6 
REMARK    2  A    between atoms: C_6  and  C_7 
REMARK    3  A    between atoms: C_7  and  O_8 
REMARK    4  A    between atoms: C_7  and  C_9 
REMARK    5  A    between atoms: C_14  and  C_15 
REMARK    6  A    between atoms: C_21  and  C_22 
REMARK    7  A    between atoms: C_22  and  N_23 
ROOT
HETATM    1  C   UNL     1     -39.442 -48.924  16.364  1.00  0.00     0.070 C 
HETATM    2  C   UNL     1     -39.837 -49.389  14.979  1.00  0.00     0.029 A 
HETATM    3  N   UNL     1     -41.072 -49.735  14.793  1.00  0.00    -0.300 N 
ATOM      4  HN  UNL     1     -41.748 -49.697  15.556  1.00  0.00     0.187 HD
HETATM    5  N   UNL     1     -41.446 -50.155  13.541  1.00  0.00    -0.253 N 
HETATM    6  C   UNL     1     -40.605 -50.184  12.438  1.00  0.00     0.282 A 
HETATM    7  O   UNL     1     -40.974 -50.500  11.308  1.00  0.00    -0.265 OA
HETATM    8  C   UNL     1     -39.211 -49.817  12.710  1.00  0.00     0.103 A 
HETATM    9  C   UNL     1     -38.789 -49.424  13.924  1.00  0.00    -0.013 A 
HETATM   10  C   UNL     1     -37.379 -49.047  14.283  1.00  0.00     0.052 C 
ENDROOT
BRANCH   5  11
HETATM   11  C   UNL     1     -42.852 -50.477  13.341  1.00  0.00     0.189 C 
BRANCH  11  12
HETATM   12  C   UNL     1     -43.199 -51.902  13.832  1.00  0.00     0.172 C 
BRANCH  12  13
HETATM   13  O   UNL     1     -42.352 -52.350  14.894  1.00  0.00    -0.389 OA
HETATM   14  H   UNL     1     -41.434 -52.371  14.560  1.00  0.00     0.210 HD
ENDBRANCH  12  13
BRANCH  12  15
HETATM   15  C   UNL     1     -44.614 -52.098  14.346  1.00  0.00    -0.013 A 
HETATM   16  C   UNL     1     -45.249 -51.052  15.054  1.00  0.00     0.011 A 
HETATM   17  C   UNL     1     -46.521 -51.201  15.602  1.00  0.00     0.001 A 
HETATM   18  C   UNL     1     -47.193 -52.405  15.467  1.00  0.00     0.001 A 
HETATM   19  C   UNL     1     -46.585 -53.460  14.790  1.00  0.00     0.017 A 
HETATM   20  C   UNL     1     -45.289 -53.338  14.234  1.00  0.00     0.056 A 
BRANCH  20  21
HETATM   21  C   UNL     1     -44.737 -54.589  13.573  1.00  0.00     0.418 C 
HETATM   22  F   UNL     1     -44.248 -54.457  12.314  1.00  0.00    -0.166 F 
HETATM   23  F   UNL     1     -43.729 -55.153  14.300  1.00  0.00    -0.166 F 
HETATM   24  F   UNL     1     -45.695 -55.560  13.479  1.00  0.00    -0.166 F 
ENDBRANCH  20  21
ENDBRANCH  12  15
ENDBRANCH  11  12
ENDBRANCH   5  11
BRANCH   8  25
HETATM   25  C   UNL     1     -38.199 -49.909  11.579  1.00  0.00    -0.031 C 
BRANCH  25  26
HETATM   26  N   UNL     1     -37.359 -49.986  10.641  1.00  0.00    -0.365 N 
ATOM     27  HN2 UNL     1     -38.047 -49.952  11.395  1.00  0.00     0.165 HD
ATOM     28  HN1 UNL     1     -36.680 -50.048   9.884  1.00  0.00     0.165 HD
ENDBRANCH  25  26
ENDBRANCH   8  25
TORSDOF 7
ENDMDL
MODEL 9
REMARK VINA RESULT:      -6.3      2.394      3.582
REMARK  7 active torsions:
REMARK  status: ('A' for Active; 'I' for Inactive)
REMARK    1  A    between atoms: N_5  and  C_6 
REMARK    2  A    between atoms: C_6  and  C_7 
REMARK    3  A    between atoms: C_7  and  O_8 
REMARK    4  A    between atoms: C_7  and  C_9 
REMARK    5  A    between atoms: C_14  and  C_15 
REMARK    6  A    between atoms: C_21  and  C_22 
REMARK    7  A    between atoms: C_22  and  N_23 
ROOT
HETATM    1  C   UNL     1     -43.127 -48.646  15.415  1.00  0.00     0.070 C 
HETATM    2  C   UNL     1     -42.332 -48.917  14.157  1.00  0.00     0.029 A 
HETATM    3  N   UNL     1     -41.664 -50.026  14.097  1.00  0.00    -0.300 N 
ATOM      4  HN  UNL     1     -41.674 -50.686  14.875  1.00  0.00     0.187 HD
HETATM    5  N   UNL     1     -40.941 -50.286  12.960  1.00  0.00    -0.253 N 
HETATM    6  C   UNL     1     -40.917 -49.469  11.840  1.00  0.00     0.282 A 
HETATM    7  O   UNL     1     -40.316 -49.751  10.804  1.00  0.00    -0.265 OA
HETATM    8  C   UNL     1     -41.660 -48.211  11.971  1.00  0.00     0.103 A 
HETATM    9  C   UNL     1     -42.362 -47.898  13.074  1.00  0.00    -0.013 A 
HETATM   10  C   UNL     1     -43.135 -46.627  13.289  1.00  0.00     0.052 C 
ENDROOT
BRANCH   5  11
HETATM   11  C   UNL     1     -40.251 -51.567  12.892  1.00  0.00     0.189 C 
BRANCH  11  12
HETATM   12  C   UNL     1     -41.199 -52.720  12.487  1.00  0.00     0.172 C 
BRANCH  12  13
HETATM   13  O   UNL     1     -40.602 -53.638  11.568  1.00  0.00    -0.389 OA
HETATM   14  H   UNL     1     -40.323 -54.429  12.068  1.00  0.00     0.210 HD
ENDBRANCH  12  13
BRANCH  12  15
HETATM   15  C   UNL     1     -41.717 -53.580  13.625  1.00  0.00    -0.013 A 
HETATM   16  C   UNL     1     -40.800 -54.291  14.434  1.00  0.00     0.011 A 
HETATM   17  C   UNL     1     -41.224 -55.144  15.450  1.00  0.00     0.001 A 
HETATM   18  C   UNL     1     -42.578 -55.322  15.682  1.00  0.00     0.001 A 
HETATM   19  C   UNL     1     -43.505 -54.649  14.889  1.00  0.00     0.017 A 
HETATM   20  C   UNL     1     -43.101 -53.785  13.843  1.00  0.00     0.056 A 
BRANCH  20  21
HETATM   21  C   UNL     1     -44.225 -53.166  13.031  1.00  0.00     0.418 C 
HETATM   22  F   UNL     1     -45.492 -53.532  13.353  1.00  0.00    -0.166 F 
HETATM   23  F   UNL     1     -44.213 -51.803  13.090  1.00  0.00    -0.166 F 
HETATM   24  F   UNL     1     -44.098 -53.467  11.703  1.00  0.00    -0.166 F 
ENDBRANCH  20  21
ENDBRANCH  12  15
ENDBRANCH  11  12
ENDBRANCH   5  11
BRANCH   8  25
HETATM   25  C   UNL     1     -41.613 -47.213  10.826  1.00  0.00    -0.031 C 
BRANCH  25  26
HETATM   26  N   UNL     1     -41.574 -46.386   9.875  1.00  0.00    -0.365 N 
ATOM     27  HN2 UNL     1     -41.627 -47.071  10.630  1.00  0.00     0.165 HD
ATOM     28  HN1 UNL     1     -41.542 -45.717   9.106  1.00  0.00     0.165 HD
ENDBRANCH  25  26
ENDBRANCH   8  25
TORSDOF 7
ENDMDL
