MODEL 1
REMARK VINA RESULT:      -6.1      0.000      0.000
REMARK  3 active torsions:
REMARK  status: ('A' for Active; 'I' for Inactive)
REMARK    1  A    between atoms: C_4  and  N_5 
REMARK       I    between atoms: N_5  and  C_6 
REMARK       I    between atoms: C_6  and  N_8 
REMARK    2  A    between atoms: N_8  and  C_9 
REMARK    3  A    between atoms: C_9  and  C_10 
ROOT
HETATM    1  N   UNL     1     -40.838 -49.443  10.349  1.00  0.00    -0.293 N 
HETATM    2  C   UNL     1     -41.735 -48.355  10.546  1.00  0.00     0.321 C 
HETATM    3  O   UNL     1     -41.937 -47.851  11.637  1.00  0.00    -0.247 OA
HETATM    4  N   UNL     1     -42.329 -47.988   9.381  1.00  0.00    -0.340 N 
HETATM    5  H   UNL     1     -40.745 -49.824   9.423  1.00  0.00     0.172 HD
HETATM    6  H   UNL     1     -41.997 -48.299   8.480  1.00  0.00     0.164 HD
ENDROOT
BRANCH   1   7
HETATM    7  C   UNL     1     -40.120 -50.028  11.394  1.00  0.00     0.127 A 
HETATM    8  C   UNL     1     -38.903 -49.630  11.905  1.00  0.00     0.076 A 
HETATM    9  C   UNL     1     -38.606 -50.526  12.952  1.00  0.00     0.025 A 
HETATM   10  C   UNL     1     -37.410 -50.524  13.829  1.00  0.00     0.070 C 
HETATM   11  N   UNL     1     -39.568 -51.441  13.098  1.00  0.00    -0.302 N 
HETATM   12  N   UNL     1     -40.470 -51.126  12.146  1.00  0.00    -0.281 N 
ATOM     13  HN  UNL     1     -39.610 -52.203  13.774  1.00  0.00     0.186 HD
HETATM   14  C   UNL     1     -41.652 -51.948  12.049  1.00  0.00     0.179 C 
ENDBRANCH   1   7
BRANCH   4  15
HETATM   15  C   UNL     1     -43.225 -46.839   9.377  1.00  0.00     0.156 C 
BRANCH  15  16
HETATM   16  C   UNL     1     -44.529 -47.104   8.632  1.00  0.00     0.139 C 
HETATM   17  C   UNL     1     -45.722 -47.436   9.516  1.00  0.00     0.035 C 
HETATM   18  C   UNL     1     -46.526 -48.429   8.699  1.00  0.00     0.029 C 
HETATM   19  C   UNL     1     -45.724 -48.625   7.427  1.00  0.00     0.168 C 
HETATM   20  O   UNL     1     -44.385 -48.238   7.761  1.00  0.00    -0.384 OA
ENDBRANCH  15  16
ENDBRANCH   4  15
TORSDOF 3
ENDMDL
MODEL 2
REMARK VINA RESULT:      -6.0      2.083      6.645
REMARK  3 active torsions:
REMARK  status: ('A' for Active; 'I' for Inactive)
REMARK    1  A    between atoms: C_4  and  N_5 
REMARK       I    between atoms: N_5  and  C_6 
REMARK       I    between atoms: C_6  and  N_8 
REMARK    2  A    between atoms: N_8  and  C_9 
REMARK    3  A    between atoms: C_9  and  C_10 
ROOT
HETATM    1  N   UNL     1     -41.739 -48.443   9.754  1.00  0.00    -0.293 N 
HETATM    2  C   UNL     1     -41.511 -49.109  10.991  1.00  0.00     0.321 C 
HETATM    3  O   UNL     1     -42.164 -48.888  11.995  1.00  0.00    -0.247 OA
HETATM    4  N   UNL     1     -40.477 -49.986  10.896  1.00  0.00    -0.340 N 
HETATM    5  H   UNL     1     -41.141 -48.660   8.976  1.00  0.00     0.172 HD
HETATM    6  H   UNL     1     -40.090 -50.276  10.010  1.00  0.00     0.164 HD
ENDROOT
BRANCH   1   7
HETATM    7  C   UNL     1     -42.730 -47.472   9.592  1.00  0.00     0.127 A 
HETATM    8  C   UNL     1     -44.000 -47.642   9.085  1.00  0.00     0.076 A 
HETATM    9  C   UNL     1     -44.616 -46.375   9.140  1.00  0.00     0.025 A 
HETATM   10  C   UNL     1     -45.994 -46.023   8.719  1.00  0.00     0.070 C 
HETATM   11  N   UNL     1     -43.791 -45.453   9.644  1.00  0.00    -0.302 N 
HETATM   12  N   UNL     1     -42.657 -46.134   9.906  1.00  0.00    -0.281 N 
ATOM     13  HN  UNL     1     -43.977 -44.462   9.794  1.00  0.00     0.186 HD
HETATM   14  C   UNL     1     -41.553 -45.398  10.473  1.00  0.00     0.179 C 
ENDBRANCH   1   7
BRANCH   4  15
HETATM   15  C   UNL     1     -40.145 -50.814  12.047  1.00  0.00     0.156 C 
BRANCH  15  16
HETATM   16  C   UNL     1     -40.771 -52.203  11.982  1.00  0.00     0.139 C 
HETATM   17  C   UNL     1     -42.189 -52.299  12.527  1.00  0.00     0.035 C 
HETATM   18  C   UNL     1     -42.256 -53.679  13.150  1.00  0.00     0.029 C 
HETATM   19  C   UNL     1     -40.870 -54.261  12.955  1.00  0.00     0.168 C 
HETATM   20  O   UNL     1     -40.008 -53.132  12.769  1.00  0.00    -0.384 OA
ENDBRANCH  15  16
ENDBRANCH   4  15
TORSDOF 3
ENDMDL
MODEL 3
REMARK VINA RESULT:      -5.7      2.831      4.867
REMARK  3 active torsions:
REMARK  status: ('A' for Active; 'I' for Inactive)
REMARK    1  A    between atoms: C_4  and  N_5 
REMARK       I    between atoms: N_5  and  C_6 
REMARK       I    between atoms: C_6  and  N_8 
REMARK    2  A    between atoms: N_8  and  C_9 
REMARK    3  A    between atoms: C_9  and  C_10 
ROOT
HETATM    1  N   UNL     1     -42.078 -52.397  11.694  1.00  0.00    -0.293 N 
HETATM    2  C   UNL     1     -41.519 -51.164  12.134  1.00  0.00     0.321 C 
HETATM    3  O   UNL     1     -41.626 -50.756  13.276  1.00  0.00    -0.247 OA
HETATM    4  N   UNL     1     -40.885 -50.520  11.119  1.00  0.00    -0.340 N 
HETATM    5  H   UNL     1     -41.970 -52.654  10.728  1.00  0.00     0.172 HD
HETATM    6  H   UNL     1     -40.656 -50.973  10.246  1.00  0.00     0.164 HD
ENDROOT
BRANCH   1   7
HETATM    7  C   UNL     1     -42.805 -53.239  12.539  1.00  0.00     0.127 A 
HETATM    8  C   UNL     1     -44.163 -53.473  12.529  1.00  0.00     0.076 A 
HETATM    9  C   UNL     1     -44.407 -54.405  13.558  1.00  0.00     0.025 A 
HETATM   10  C   UNL     1     -45.711 -54.990  13.954  1.00  0.00     0.070 C 
HETATM   11  N   UNL     1     -43.279 -54.741  14.190  1.00  0.00    -0.302 N 
HETATM   12  N   UNL     1     -42.324 -54.024  13.562  1.00  0.00    -0.281 N 
ATOM     13  HN  UNL     1     -43.166 -55.390  14.968  1.00  0.00     0.186 HD
HETATM   14  C   UNL     1     -40.966 -54.174  14.025  1.00  0.00     0.179 C 
ENDBRANCH   1   7
BRANCH   4  15
HETATM   15  C   UNL     1     -40.187 -49.273  11.400  1.00  0.00     0.156 C 
BRANCH  15  16
HETATM   16  C   UNL     1     -40.999 -48.038  11.026  1.00  0.00     0.139 C 
HETATM   17  C   UNL     1     -41.874 -47.479  12.140  1.00  0.00     0.035 C 
HETATM   18  C   UNL     1     -43.099 -46.949  11.420  1.00  0.00     0.029 C 
HETATM   19  C   UNL     1     -42.861 -47.272   9.958  1.00  0.00     0.168 C 
HETATM   20  O   UNL     1     -41.910 -48.344   9.958  1.00  0.00    -0.384 OA
ENDBRANCH  15  16
ENDBRANCH   4  15
TORSDOF 3
ENDMDL
MODEL 4
REMARK VINA RESULT:      -5.7      1.287      2.298
REMARK  3 active torsions:
REMARK  status: ('A' for Active; 'I' for Inactive)
REMARK    1  A    between atoms: C_4  and  N_5 
REMARK       I    between atoms: N_5  and  C_6 
REMARK       I    between atoms: C_6  and  N_8 
REMARK    2  A    between atoms: N_8  and  C_9 
REMARK    3  A    between atoms: C_9  and  C_10 
ROOT
HETATM    1  N   UNL     1     -40.621 -50.069  10.829  1.00  0.00    -0.293 N 
HETATM    2  C   UNL     1     -41.523 -48.986  11.024  1.00  0.00     0.321 C 
HETATM    3  O   UNL     1     -42.157 -48.826  12.052  1.00  0.00    -0.247 OA
HETATM    4  N   UNL     1     -41.589 -48.194   9.921  1.00  0.00    -0.340 N 
HETATM    5  H   UNL     1     -40.155 -50.150   9.942  1.00  0.00     0.172 HD
HETATM    6  H   UNL     1     -40.916 -48.250   9.171  1.00  0.00     0.164 HD
ENDROOT
BRANCH   1   7
HETATM    7  C   UNL     1     -40.392 -51.045  11.802  1.00  0.00     0.127 A 
HETATM    8  C   UNL     1     -41.105 -52.204  12.016  1.00  0.00     0.076 A 
HETATM    9  C   UNL     1     -40.477 -52.856  13.097  1.00  0.00     0.025 A 
HETATM   10  C   UNL     1     -40.857 -54.151  13.713  1.00  0.00     0.070 C 
HETATM   11  N   UNL     1     -39.434 -52.156  13.549  1.00  0.00    -0.302 N 
HETATM   12  N   UNL     1     -39.401 -51.064  12.757  1.00  0.00    -0.281 N 
ATOM     13  HN  UNL     1     -38.806 -52.393  14.317  1.00  0.00     0.186 HD
HETATM   14  C   UNL     1     -38.360 -50.096  13.000  1.00  0.00     0.179 C 
ENDBRANCH   1   7
BRANCH   4  15
HETATM   15  C   UNL     1     -42.409 -46.991   9.964  1.00  0.00     0.156 C 
BRANCH  15  16
HETATM   16  C   UNL     1     -43.705 -47.125   9.173  1.00  0.00     0.139 C 
HETATM   17  C   UNL     1     -44.387 -45.810   8.823  1.00  0.00     0.035 C 
HETATM   18  C   UNL     1     -45.868 -46.132   8.878  1.00  0.00     0.029 C 
HETATM   19  C   UNL     1     -45.934 -47.590   9.290  1.00  0.00     0.168 C 
HETATM   20  O   UNL     1     -44.681 -47.858   9.932  1.00  0.00    -0.384 OA
ENDBRANCH  15  16
ENDBRANCH   4  15
TORSDOF 3
ENDMDL
MODEL 5
REMARK VINA RESULT:      -5.6      3.505      5.913
REMARK  3 active torsions:
REMARK  status: ('A' for Active; 'I' for Inactive)
REMARK    1  A    between atoms: C_4  and  N_5 
REMARK       I    between atoms: N_5  and  C_6 
REMARK       I    between atoms: C_6  and  N_8 
REMARK    2  A    between atoms: N_8  and  C_9 
REMARK    3  A    between atoms: C_9  and  C_10 
ROOT
HETATM    1  N   UNL     1     -40.837 -51.022  11.151  1.00  0.00    -0.293 N 
HETATM    2  C   UNL     1     -41.073 -51.777  12.335  1.00  0.00     0.321 C 
HETATM    3  O   UNL     1     -41.053 -51.288  13.450  1.00  0.00    -0.247 OA
HETATM    4  N   UNL     1     -41.296 -53.087  12.049  1.00  0.00    -0.340 N 
HETATM    5  H   UNL     1     -40.844 -51.503  10.268  1.00  0.00     0.172 HD
HETATM    6  H   UNL     1     -41.492 -53.413  11.113  1.00  0.00     0.164 HD
ENDROOT
BRANCH   1   7
HETATM    7  C   UNL     1     -40.555 -49.655  11.173  1.00  0.00     0.127 A 
HETATM    8  C   UNL     1     -41.421 -48.613  10.919  1.00  0.00     0.076 A 
HETATM    9  C   UNL     1     -40.669 -47.431  11.079  1.00  0.00     0.025 A 
HETATM   10  C   UNL     1     -41.141 -46.034  10.925  1.00  0.00     0.070 C 
HETATM   11  N   UNL     1     -39.403 -47.700  11.409  1.00  0.00    -0.302 N 
HETATM   12  N   UNL     1     -39.353 -49.047  11.456  1.00  0.00    -0.281 N 
ATOM     13  HN  UNL     1     -38.647 -47.038  11.584  1.00  0.00     0.186 HD
HETATM   14  C   UNL     1     -38.090 -49.657  11.796  1.00  0.00     0.179 C 
ENDBRANCH   1   7
BRANCH   4  15
HETATM   15  C   UNL     1     -41.630 -54.000  13.133  1.00  0.00     0.156 C 
BRANCH  15  16
HETATM   16  C   UNL     1     -43.060 -53.832  13.634  1.00  0.00     0.139 C 
HETATM   17  C   UNL     1     -43.585 -54.980  14.486  1.00  0.00     0.035 C 
HETATM   18  C   UNL     1     -45.058 -55.059  14.136  1.00  0.00     0.029 C 
HETATM   19  C   UNL     1     -45.267 -53.984  13.088  1.00  0.00     0.168 C 
HETATM   20  O   UNL     1     -43.971 -53.746  12.526  1.00  0.00    -0.384 OA
ENDBRANCH  15  16
ENDBRANCH   4  15
TORSDOF 3
ENDMDL
MODEL 6
REMARK VINA RESULT:      -5.6      4.494      7.219
REMARK  3 active torsions:
REMARK  status: ('A' for Active; 'I' for Inactive)
REMARK    1  A    between atoms: C_4  and  N_5 
REMARK       I    between atoms: N_5  and  C_6 
REMARK       I    between atoms: C_6  and  N_8 
REMARK    2  A    between atoms: N_8  and  C_9 
REMARK    3  A    between atoms: C_9  and  C_10 
ROOT
HETATM    1  N   UNL     1     -44.441 -52.243  12.696  1.00  0.00    -0.293 N 
HETATM    2  C   UNL     1     -43.050 -52.444  12.923  1.00  0.00     0.321 C 
HETATM    3  O   UNL     1     -42.593 -52.754  14.009  1.00  0.00    -0.247 OA
HETATM    4  N   UNL     1     -42.328 -52.225  11.793  1.00  0.00    -0.340 N 
HETATM    5  H   UNL     1     -44.739 -51.961  11.778  1.00  0.00     0.172 HD
HETATM    6  H   UNL     1     -42.754 -52.157  10.880  1.00  0.00     0.164 HD
ENDROOT
BRANCH   1   7
HETATM    7  C   UNL     1     -45.398 -52.379  13.703  1.00  0.00     0.127 A 
HETATM    8  C   UNL     1     -46.024 -51.375  14.410  1.00  0.00     0.076 A 
HETATM    9  C   UNL     1     -46.910 -52.017  15.300  1.00  0.00     0.025 A 
HETATM   10  C   UNL     1     -47.826 -51.379  16.277  1.00  0.00     0.070 C 
HETATM   11  N   UNL     1     -46.850 -53.345  15.174  1.00  0.00    -0.302 N 
HETATM   12  N   UNL     1     -45.928 -53.544  14.209  1.00  0.00    -0.281 N 
ATOM     13  HN  UNL     1     -47.379 -54.048  15.690  1.00  0.00     0.186 HD
HETATM   14  C   UNL     1     -45.635 -54.907  13.837  1.00  0.00     0.179 C 
ENDBRANCH   1   7
BRANCH   4  15
HETATM   15  C   UNL     1     -40.890 -52.456  11.818  1.00  0.00     0.156 C 
BRANCH  15  16
HETATM   16  C   UNL     1     -40.104 -51.262  12.349  1.00  0.00     0.139 C 
HETATM   17  C   UNL     1     -40.086 -50.044  11.436  1.00  0.00     0.035 C 
HETATM   18  C   UNL     1     -38.713 -49.437  11.654  1.00  0.00     0.029 C 
HETATM   19  C   UNL     1     -38.030 -50.363  12.641  1.00  0.00     0.168 C 
HETATM   20  O   UNL     1     -38.722 -51.613  12.528  1.00  0.00    -0.384 OA
ENDBRANCH  15  16
ENDBRANCH   4  15
TORSDOF 3
ENDMDL
MODEL 7
REMARK VINA RESULT:      -5.6      3.861      6.522
REMARK  3 active torsions:
REMARK  status: ('A' for Active; 'I' for Inactive)
REMARK    1  A    between atoms: C_4  and  N_5 
REMARK       I    between atoms: N_5  and  C_6 
REMARK       I    between atoms: C_6  and  N_8 
REMARK    2  A    between atoms: N_8  and  C_9 
REMARK    3  A    between atoms: C_9  and  C_10 
ROOT
HETATM    1  N   UNL     1     -41.866 -52.722  11.933  1.00  0.00    -0.293 N 
HETATM    2  C   UNL     1     -41.605 -51.340  12.153  1.00  0.00     0.321 C 
HETATM    3  O   UNL     1     -42.085 -50.712  13.080  1.00  0.00    -0.247 OA
HETATM    4  N   UNL     1     -40.785 -50.835  11.194  1.00  0.00    -0.340 N 
HETATM    5  H   UNL     1     -41.455 -53.165  11.130  1.00  0.00     0.172 HD
HETATM    6  H   UNL     1     -40.262 -51.422  10.561  1.00  0.00     0.164 HD
ENDROOT
BRANCH   1   7
HETATM    7  C   UNL     1     -42.703 -53.472  12.763  1.00  0.00     0.127 A 
HETATM    8  C   UNL     1     -44.049 -53.719  12.599  1.00  0.00     0.076 A 
HETATM    9  C   UNL     1     -44.432 -54.533  13.685  1.00  0.00     0.025 A 
HETATM   10  C   UNL     1     -45.780 -55.083  13.967  1.00  0.00     0.070 C 
HETATM   11  N   UNL     1     -43.399 -54.786  14.493  1.00  0.00    -0.302 N 
HETATM   12  N   UNL     1     -42.366 -54.134  13.922  1.00  0.00    -0.281 N 
ATOM     13  HN  UNL     1     -43.394 -55.344  15.346  1.00  0.00     0.186 HD
HETATM   14  C   UNL     1     -41.082 -54.219  14.573  1.00  0.00     0.179 C 
ENDBRANCH   1   7
BRANCH   4  15
HETATM   15  C   UNL     1     -40.348 -49.449  11.298  1.00  0.00     0.156 C 
BRANCH  15  16
HETATM   16  C   UNL     1     -39.003 -49.299  11.999  1.00  0.00     0.139 C 
HETATM   17  C   UNL     1     -38.087 -50.512  11.906  1.00  0.00     0.035 C 
HETATM   18  C   UNL     1     -37.351 -50.524  13.232  1.00  0.00     0.029 C 
HETATM   19  C   UNL     1     -37.918 -49.348  14.003  1.00  0.00     0.168 C 
HETATM   20  O   UNL     1     -39.195 -49.086  13.407  1.00  0.00    -0.384 OA
ENDBRANCH  15  16
ENDBRANCH   4  15
TORSDOF 3
ENDMDL
MODEL 8
REMARK VINA RESULT:      -5.5      2.832      6.464
REMARK  3 active torsions:
REMARK  status: ('A' for Active; 'I' for Inactive)
REMARK    1  A    between atoms: C_4  and  N_5 
REMARK       I    between atoms: N_5  and  C_6 
REMARK       I    between atoms: C_6  and  N_8 
REMARK    2  A    between atoms: N_8  and  C_9 
REMARK    3  A    between atoms: C_9  and  C_10 
ROOT
HETATM    1  N   UNL     1     -40.619 -49.545  10.884  1.00  0.00    -0.293 N 
HETATM    2  C   UNL     1     -41.368 -50.392  11.749  1.00  0.00     0.321 C 
HETATM    3  O   UNL     1     -42.104 -49.967  12.622  1.00  0.00    -0.247 OA
HETATM    4  N   UNL     1     -41.132 -51.704  11.482  1.00  0.00    -0.340 N 
HETATM    5  H   UNL     1     -40.012 -49.971  10.206  1.00  0.00     0.172 HD
HETATM    6  H   UNL     1     -40.670 -52.012  10.638  1.00  0.00     0.164 HD
ENDROOT
BRANCH   1   7
HETATM    7  C   UNL     1     -40.662 -48.152  10.970  1.00  0.00     0.127 A 
HETATM    8  C   UNL     1     -39.778 -47.321  11.624  1.00  0.00     0.076 A 
HETATM    9  C   UNL     1     -40.242 -46.008  11.407  1.00  0.00     0.025 A 
HETATM   10  C   UNL     1     -39.636 -44.745  11.896  1.00  0.00     0.070 C 
HETATM   11  N   UNL     1     -41.353 -45.999  10.666  1.00  0.00    -0.302 N 
HETATM   12  N   UNL     1     -41.593 -47.303  10.416  1.00  0.00    -0.281 N 
ATOM     13  HN  UNL     1     -41.896 -45.192  10.361  1.00  0.00     0.186 HD
HETATM   14  C   UNL     1     -42.751 -47.627   9.619  1.00  0.00     0.179 C 
ENDBRANCH   1   7
BRANCH   4  15
HETATM   15  C   UNL     1     -41.870 -52.719  12.221  1.00  0.00     0.156 C 
BRANCH  15  16
HETATM   16  C   UNL     1     -40.964 -53.752  12.880  1.00  0.00     0.139 C 
HETATM   17  C   UNL     1     -41.452 -54.276  14.224  1.00  0.00     0.035 C 
HETATM   18  C   UNL     1     -40.180 -54.512  15.015  1.00  0.00     0.029 C 
HETATM   19  C   UNL     1     -39.060 -54.075  14.091  1.00  0.00     0.168 C 
HETATM   20  O   UNL     1     -39.672 -53.184  13.150  1.00  0.00    -0.384 OA
ENDBRANCH  15  16
ENDBRANCH   4  15
TORSDOF 3
ENDMDL
MODEL 9
REMARK VINA RESULT:      -5.4      2.572      5.847
REMARK  3 active torsions:
REMARK  status: ('A' for Active; 'I' for Inactive)
REMARK    1  A    between atoms: C_4  and  N_5 
REMARK       I    between atoms: N_5  and  C_6 
REMARK       I    between atoms: C_6  and  N_8 
REMARK    2  A    between atoms: N_8  and  C_9 
REMARK    3  A    between atoms: C_9  and  C_10 
ROOT
HETATM    1  N   UNL     1     -41.245 -49.014  10.513  1.00  0.00    -0.293 N 
HETATM    2  C   UNL     1     -40.997 -49.830  11.652  1.00  0.00     0.321 C 
HETATM    3  O   UNL     1     -40.905 -49.384  12.782  1.00  0.00    -0.247 OA
HETATM    4  N   UNL     1     -40.860 -51.136  11.303  1.00  0.00    -0.340 N 
HETATM    5  H   UNL     1     -41.280 -49.452   9.609  1.00  0.00     0.172 HD
HETATM    6  H   UNL     1     -41.128 -51.487  10.395  1.00  0.00     0.164 HD
ENDROOT
BRANCH   1   7
HETATM    7  C   UNL     1     -41.398 -47.628  10.597  1.00  0.00     0.127 A 
HETATM    8  C   UNL     1     -40.421 -46.687  10.844  1.00  0.00     0.076 A 
HETATM    9  C   UNL     1     -41.069 -45.435  10.816  1.00  0.00     0.025 A 
HETATM   10  C   UNL     1     -40.457 -44.099  11.016  1.00  0.00     0.070 C 
HETATM   11  N   UNL     1     -42.375 -45.567  10.573  1.00  0.00    -0.302 N 
HETATM   12  N   UNL     1     -42.555 -46.898  10.448  1.00  0.00    -0.281 N 
ATOM     13  HN  UNL     1     -43.076 -44.830  10.500  1.00  0.00     0.186 HD
HETATM   14  C   UNL     1     -43.891 -47.368  10.175  1.00  0.00     0.179 C 
ENDBRANCH   1   7
BRANCH   4  15
HETATM   15  C   UNL     1     -40.674 -52.132  12.350  1.00  0.00     0.156 C 
BRANCH  15  16
HETATM   16  C   UNL     1     -41.975 -52.512  13.048  1.00  0.00     0.139 C 
HETATM   17  C   UNL     1     -41.928 -53.813  13.837  1.00  0.00     0.035 C 
HETATM   18  C   UNL     1     -43.318 -54.397  13.676  1.00  0.00     0.029 C 
HETATM   19  C   UNL     1     -44.050 -53.416  12.781  1.00  0.00     0.168 C 
HETATM   20  O   UNL     1     -43.022 -52.702  12.083  1.00  0.00    -0.384 OA
ENDBRANCH  15  16
ENDBRANCH   4  15
TORSDOF 3
ENDMDL
