MODEL 1
REMARK VINA RESULT:      -4.6      0.000      0.000
REMARK  2 active torsions:
REMARK  status: ('A' for Active; 'I' for Inactive)
REMARK    1  A    between atoms: N_3  and  C_4 
REMARK    2  A    between atoms: C_10  and  N_11 
ROOT
HETATM    1  C   UNL     2     -44.142 -51.582  14.180  1.00  0.00     0.070 A 
HETATM    2  C   UNL     2     -45.472 -51.209  14.426  1.00  0.00     0.034 A 
HETATM    3  C   UNL     2     -46.489 -51.594  13.564  1.00  0.00     0.019 A 
HETATM    4  C   UNL     2     -46.174 -52.350  12.439  1.00  0.00     0.090 A 
HETATM    5  N   UNL     2     -44.887 -52.723  12.208  1.00  0.00    -0.351 N 
ATOM      6  HN  UNL     2     -44.683 -53.276  11.375  1.00  0.00     0.166 HD
HETATM    7  C   UNL     2     -43.855 -52.394  13.039  1.00  0.00     0.130 A 
ENDROOT
BRANCH   7   8
HETATM    8  N   UNL     2     -42.536 -52.874  12.717  1.00  0.00    -0.361 N 
HETATM    9  C   UNL     2     -42.025 -54.123  13.266  1.00  0.00     0.150 C 
HETATM   10  C   UNL     2     -40.688 -53.861  13.978  1.00  0.00     0.187 C 
HETATM   11  O   UNL     2     -39.776 -53.220  13.102  1.00  0.00    -0.388 OA
HETATM   12  C   UNL     2     -40.287 -51.951  12.738  1.00  0.00     0.187 C 
HETATM   13  C   UNL     2     -41.578 -52.109  11.928  1.00  0.00     0.150 C 
ENDBRANCH   7   8
BRANCH   1  14
HETATM   14  N   UNL     2     -43.145 -51.061  15.051  1.00  0.00    -0.396 N 
HETATM   15  H   UNL     2     -42.640 -51.684  15.697  1.00  0.00     0.156 HD
HETATM   16  H   UNL     2     -42.993 -50.054  15.186  1.00  0.00     0.156 HD
ENDBRANCH   1  14
TORSDOF 2
ENDMDL
MODEL 2
REMARK VINA RESULT:      -4.5      2.366      3.812
REMARK  2 active torsions:
REMARK  status: ('A' for Active; 'I' for Inactive)
REMARK    1  A    between atoms: N_3  and  C_4 
REMARK    2  A    between atoms: C_10  and  N_11 
ROOT
HETATM    1  C   UNL     2     -41.874 -51.645  12.137  1.00  0.00     0.070 A 
HETATM    2  C   UNL     2     -41.624 -50.268  12.036  1.00  0.00     0.034 A 
HETATM    3  C   UNL     2     -42.340 -49.358  12.801  1.00  0.00     0.019 A 
HETATM    4  C   UNL     2     -43.324 -49.825  13.666  1.00  0.00     0.090 A 
HETATM    5  N   UNL     2     -43.557 -51.161  13.774  1.00  0.00    -0.351 N 
ATOM      6  HN  UNL     2     -44.286 -51.477  14.415  1.00  0.00     0.166 HD
HETATM    7  C   UNL     2     -42.862 -52.098  13.066  1.00  0.00     0.130 A 
ENDROOT
BRANCH   7   8
HETATM    8  N   UNL     2     -43.168 -53.488  13.287  1.00  0.00    -0.361 N 
HETATM    9  C   UNL     2     -44.394 -54.088  12.779  1.00  0.00     0.150 C 
HETATM   10  C   UNL     2     -45.160 -54.749  13.937  1.00  0.00     0.187 C 
HETATM   11  O   UNL     2     -44.327 -55.671  14.621  1.00  0.00    -0.388 OA
HETATM   12  C   UNL     2     -43.242 -54.976  15.208  1.00  0.00     0.187 C 
HETATM   13  C   UNL     2     -42.353 -54.362  14.121  1.00  0.00     0.150 C 
ENDBRANCH   7   8
BRANCH   1  14
HETATM   14  N   UNL     2     -41.173 -52.504  11.247  1.00  0.00    -0.396 N 
HETATM   15  H   UNL     2     -41.475 -52.597  10.267  1.00  0.00     0.156 HD
HETATM   16  H   UNL     2     -40.455 -53.167  11.562  1.00  0.00     0.156 HD
ENDBRANCH   1  14
TORSDOF 2
ENDMDL
MODEL 3
REMARK VINA RESULT:      -4.4      1.070      2.492
REMARK  2 active torsions:
REMARK  status: ('A' for Active; 'I' for Inactive)
REMARK    1  A    between atoms: N_3  and  C_4 
REMARK    2  A    between atoms: C_10  and  N_11 
ROOT
HETATM    1  C   UNL     2     -45.063 -52.165  13.336  1.00  0.00     0.070 A 
HETATM    2  C   UNL     2     -46.371 -51.828  13.715  1.00  0.00     0.034 A 
HETATM    3  C   UNL     2     -46.637 -51.322  14.980  1.00  0.00     0.019 A 
HETATM    4  C   UNL     2     -45.587 -51.160  15.879  1.00  0.00     0.090 A 
HETATM    5  N   UNL     2     -44.317 -51.472  15.506  1.00  0.00    -0.351 N 
ATOM      6  HN  UNL     2     -43.566 -51.345  16.185  1.00  0.00     0.166 HD
HETATM    7  C   UNL     2     -44.000 -51.948  14.267  1.00  0.00     0.130 A 
ENDROOT
BRANCH   7   8
HETATM    8  N   UNL     2     -42.616 -52.211  13.968  1.00  0.00    -0.361 N 
HETATM    9  C   UNL     2     -41.819 -51.287  13.173  1.00  0.00     0.150 C 
HETATM   10  C   UNL     2     -41.201 -52.036  11.981  1.00  0.00     0.187 C 
HETATM   11  O   UNL     2     -40.468 -53.164  12.428  1.00  0.00    -0.388 OA
HETATM   12  C   UNL     2     -41.350 -54.076  13.058  1.00  0.00     0.187 C 
HETATM   13  C   UNL     2     -41.945 -53.454  14.325  1.00  0.00     0.150 C 
ENDBRANCH   7   8
BRANCH   1  14
HETATM   14  N   UNL     2     -44.888 -52.775  12.063  1.00  0.00    -0.396 N 
HETATM   15  H   UNL     2     -44.796 -52.196  11.216  1.00  0.00     0.156 HD
HETATM   16  H   UNL     2     -44.995 -53.784  11.909  1.00  0.00     0.156 HD
ENDBRANCH   1  14
TORSDOF 2
ENDMDL
MODEL 4
REMARK VINA RESULT:      -4.2      7.103      7.746
REMARK  2 active torsions:
REMARK  status: ('A' for Active; 'I' for Inactive)
REMARK    1  A    between atoms: N_3  and  C_4 
REMARK    2  A    between atoms: C_10  and  N_11 
ROOT
HETATM    1  C   UNL     2     -42.466 -47.416   9.703  1.00  0.00     0.070 A 
HETATM    2  C   UNL     2     -43.524 -47.752   8.846  1.00  0.00     0.034 A 
HETATM    3  C   UNL     2     -44.522 -46.833   8.554  1.00  0.00     0.019 A 
HETATM    4  C   UNL     2     -44.469 -45.568   9.133  1.00  0.00     0.090 A 
HETATM    5  N   UNL     2     -43.435 -45.238   9.952  1.00  0.00    -0.351 N 
ATOM      6  HN  UNL     2     -43.421 -44.304  10.364  1.00  0.00     0.166 HD
HETATM    7  C   UNL     2     -42.415 -46.095  10.248  1.00  0.00     0.130 A 
ENDROOT
BRANCH   7   8
HETATM    8  N   UNL     2     -41.352 -45.627  11.099  1.00  0.00    -0.361 N 
HETATM    9  C   UNL     2     -41.400 -45.801  12.544  1.00  0.00     0.150 C 
HETATM   10  C   UNL     2     -41.227 -44.437  13.232  1.00  0.00     0.187 C 
HETATM   11  O   UNL     2     -40.041 -43.802  12.784  1.00  0.00    -0.388 OA
HETATM   12  C   UNL     2     -40.146 -43.537  11.397  1.00  0.00     0.187 C 
HETATM   13  C   UNL     2     -40.221 -44.849  10.609  1.00  0.00     0.150 C 
ENDBRANCH   7   8
BRANCH   1  14
HETATM   14  N   UNL     2     -41.541 -48.444  10.034  1.00  0.00    -0.396 N 
HETATM   15  H   UNL     2     -41.402 -48.723  11.016  1.00  0.00     0.156 HD
HETATM   16  H   UNL     2     -40.878 -48.838   9.356  1.00  0.00     0.156 HD
ENDBRANCH   1  14
TORSDOF 2
ENDMDL
MODEL 5
REMARK VINA RESULT:      -4.2      2.694      5.259
REMARK  2 active torsions:
REMARK  status: ('A' for Active; 'I' for Inactive)
REMARK    1  A    between atoms: N_3  and  C_4 
REMARK    2  A    between atoms: C_10  and  N_11 
ROOT
HETATM    1  C   UNL     2     -39.663 -50.050  11.611  1.00  0.00     0.070 A 
HETATM    2  C   UNL     2     -38.569 -49.193  11.805  1.00  0.00     0.034 A 
HETATM    3  C   UNL     2     -37.896 -49.162  13.018  1.00  0.00     0.019 A 
HETATM    4  C   UNL     2     -38.327 -49.987  14.053  1.00  0.00     0.090 A 
HETATM    5  N   UNL     2     -39.378 -50.828  13.861  1.00  0.00    -0.351 N 
ATOM      6  HN  UNL     2     -39.674 -51.421  14.637  1.00  0.00     0.166 HD
HETATM    7  C   UNL     2     -40.056 -50.916  12.679  1.00  0.00     0.130 A 
ENDROOT
BRANCH   7   8
HETATM    8  N   UNL     2     -41.131 -51.868  12.576  1.00  0.00    -0.361 N 
HETATM    9  C   UNL     2     -42.514 -51.484  12.821  1.00  0.00     0.150 C 
HETATM   10  C   UNL     2     -43.117 -52.399  13.900  1.00  0.00     0.187 C 
HETATM   11  O   UNL     2     -42.972 -53.761  13.535  1.00  0.00    -0.388 OA
HETATM   12  C   UNL     2     -41.594 -54.083  13.466  1.00  0.00     0.187 C 
HETATM   13  C   UNL     2     -40.918 -53.291  12.342  1.00  0.00     0.150 C 
ENDBRANCH   7   8
BRANCH   1  14
HETATM   14  N   UNL     2     -40.363 -49.948  10.378  1.00  0.00    -0.396 N 
HETATM   15  H   UNL     2     -41.350 -50.237  10.313  1.00  0.00     0.156 HD
HETATM   16  H   UNL     2     -39.897 -49.736   9.488  1.00  0.00     0.156 HD
ENDBRANCH   1  14
TORSDOF 2
ENDMDL
MODEL 6
REMARK VINA RESULT:      -4.2      5.009      5.641
REMARK  2 active torsions:
REMARK  status: ('A' for Active; 'I' for Inactive)
REMARK    1  A    between atoms: N_3  and  C_4 
REMARK    2  A    between atoms: C_10  and  N_11 
ROOT
HETATM    1  C   UNL     2     -42.891 -46.377  10.702  1.00  0.00     0.070 A 
HETATM    2  C   UNL     2     -43.582 -45.732   9.666  1.00  0.00     0.034 A 
HETATM    3  C   UNL     2     -43.748 -46.345   8.432  1.00  0.00     0.019 A 
HETATM    4  C   UNL     2     -43.207 -47.611   8.226  1.00  0.00     0.090 A 
HETATM    5  N   UNL     2     -42.548 -48.242   9.235  1.00  0.00    -0.351 N 
ATOM      6  HN  UNL     2     -42.160 -49.169   9.057  1.00  0.00     0.166 HD
HETATM    7  C   UNL     2     -42.383 -47.694  10.474  1.00  0.00     0.130 A 
ENDROOT
BRANCH   7   8
HETATM    8  N   UNL     2     -41.700 -48.468  11.479  1.00  0.00    -0.361 N 
HETATM    9  C   UNL     2     -40.249 -48.439  11.607  1.00  0.00     0.150 C 
HETATM   10  C   UNL     2     -39.699 -49.873  11.531  1.00  0.00     0.187 C 
HETATM   11  O   UNL     2     -40.330 -50.699  12.496  1.00  0.00    -0.388 OA
HETATM   12  C   UNL     2     -41.713 -50.788  12.205  1.00  0.00     0.187 C 
HETATM   13  C   UNL     2     -42.378 -49.416  12.354  1.00  0.00     0.150 C 
ENDBRANCH   7   8
BRANCH   1  14
HETATM   14  N   UNL     2     -42.674 -45.642  11.900  1.00  0.00    -0.396 N 
HETATM   15  H   UNL     2     -41.818 -45.789  12.454  1.00  0.00     0.156 HD
HETATM   16  H   UNL     2     -43.400 -45.064  12.339  1.00  0.00     0.156 HD
ENDBRANCH   1  14
TORSDOF 2
ENDMDL
MODEL 7
REMARK VINA RESULT:      -4.2      2.686      4.872
REMARK  2 active torsions:
REMARK  status: ('A' for Active; 'I' for Inactive)
REMARK    1  A    between atoms: N_3  and  C_4 
REMARK    2  A    between atoms: C_10  and  N_11 
ROOT
HETATM    1  C   UNL     2     -42.446 -54.170  13.921  1.00  0.00     0.070 A 
HETATM    2  C   UNL     2     -41.072 -53.974  13.715  1.00  0.00     0.034 A 
HETATM    3  C   UNL     2     -40.616 -53.175  12.677  1.00  0.00     0.019 A 
HETATM    4  C   UNL     2     -41.540 -52.575  11.827  1.00  0.00     0.090 A 
HETATM    5  N   UNL     2     -42.872 -52.754  12.035  1.00  0.00    -0.351 N 
ATOM      6  HN  UNL     2     -43.529 -52.303  11.397  1.00  0.00     0.166 HD
HETATM    7  C   UNL     2     -43.372 -53.507  13.058  1.00  0.00     0.130 A 
ENDROOT
BRANCH   7   8
HETATM    8  N   UNL     2     -44.802 -53.598  13.206  1.00  0.00    -0.361 N 
HETATM    9  C   UNL     2     -45.663 -52.440  13.005  1.00  0.00     0.150 C 
HETATM   10  C   UNL     2     -46.533 -52.224  14.255  1.00  0.00     0.187 C 
HETATM   11  O   UNL     2     -47.249 -53.406  14.572  1.00  0.00    -0.388 OA
HETATM   12  C   UNL     2     -46.333 -54.436  14.898  1.00  0.00     0.187 C 
HETATM   13  C   UNL     2     -45.481 -54.798  13.677  1.00  0.00     0.150 C 
ENDBRANCH   7   8
BRANCH   1  14
HETATM   14  N   UNL     2     -42.830 -55.085  14.940  1.00  0.00    -0.396 N 
HETATM   15  H   UNL     2     -43.809 -55.396  15.020  1.00  0.00     0.156 HD
HETATM   16  H   UNL     2     -42.209 -55.351  15.714  1.00  0.00     0.156 HD
ENDBRANCH   1  14
TORSDOF 2
ENDMDL
MODEL 8
REMARK VINA RESULT:      -4.1      5.654      7.430
REMARK  2 active torsions:
REMARK  status: ('A' for Active; 'I' for Inactive)
REMARK    1  A    between atoms: N_3  and  C_4 
REMARK    2  A    between atoms: C_10  and  N_11 
ROOT
HETATM    1  C   UNL     2     -39.943 -49.335  11.542  1.00  0.00     0.070 A 
HETATM    2  C   UNL     2     -39.392 -50.228  12.474  1.00  0.00     0.034 A 
HETATM    3  C   UNL     2     -38.829 -49.765  13.655  1.00  0.00     0.019 A 
HETATM    4  C   UNL     2     -38.805 -48.396  13.903  1.00  0.00     0.090 A 
HETATM    5  N   UNL     2     -39.351 -47.532  13.007  1.00  0.00    -0.351 N 
ATOM      6  HN  UNL     2     -39.319 -46.533  13.213  1.00  0.00     0.166 HD
HETATM    7  C   UNL     2     -39.941 -47.937  11.844  1.00  0.00     0.130 A 
ENDROOT
BRANCH   7   8
HETATM    8  N   UNL     2     -40.520 -46.938  10.985  1.00  0.00    -0.361 N 
HETATM    9  C   UNL     2     -39.759 -45.775  10.549  1.00  0.00     0.150 C 
HETATM   10  C   UNL     2     -40.524 -44.493  10.917  1.00  0.00     0.187 C 
HETATM   11  O   UNL     2     -41.839 -44.530  10.390  1.00  0.00    -0.388 OA
HETATM   12  C   UNL     2     -42.552 -45.602  10.982  1.00  0.00     0.187 C 
HETATM   13  C   UNL     2     -41.922 -46.942  10.587  1.00  0.00     0.150 C 
ENDBRANCH   7   8
BRANCH   1  14
HETATM   14  N   UNL     2     -40.406 -49.877  10.312  1.00  0.00    -0.396 N 
HETATM   15  H   UNL     2     -40.421 -49.298   9.460  1.00  0.00     0.156 HD
HETATM   16  H   UNL     2     -40.875 -50.788  10.245  1.00  0.00     0.156 HD
ENDBRANCH   1  14
TORSDOF 2
ENDMDL
MODEL 9
REMARK VINA RESULT:      -4.1      4.845      6.170
REMARK  2 active torsions:
REMARK  status: ('A' for Active; 'I' for Inactive)
REMARK    1  A    between atoms: N_3  and  C_4 
REMARK    2  A    between atoms: C_10  and  N_11 
ROOT
HETATM    1  C   UNL     2     -39.409 -47.034  13.051  1.00  0.00     0.070 A 
HETATM    2  C   UNL     2     -39.764 -45.677  13.069  1.00  0.00     0.034 A 
HETATM    3  C   UNL     2     -40.193 -45.039  11.913  1.00  0.00     0.019 A 
HETATM    4  C   UNL     2     -40.257 -45.761  10.725  1.00  0.00     0.090 A 
HETATM    5  N   UNL     2     -39.926 -47.080  10.710  1.00  0.00    -0.351 N 
ATOM      6  HN  UNL     2     -39.981 -47.585   9.825  1.00  0.00     0.166 HD
HETATM    7  C   UNL     2     -39.525 -47.760  11.824  1.00  0.00     0.130 A 
ENDROOT
BRANCH   7   8
HETATM    8  N   UNL     2     -39.235 -49.165  11.701  1.00  0.00    -0.361 N 
HETATM    9  C   UNL     2     -40.276 -50.174  11.847  1.00  0.00     0.150 C 
HETATM   10  C   UNL     2     -39.862 -51.185  12.929  1.00  0.00     0.187 C 
HETATM   11  O   UNL     2     -38.588 -51.734  12.634  1.00  0.00    -0.388 OA
HETATM   12  C   UNL     2     -37.616 -50.704  12.660  1.00  0.00     0.187 C 
HETATM   13  C   UNL     2     -37.885 -49.690  11.543  1.00  0.00     0.150 C 
ENDBRANCH   7   8
BRANCH   1  14
HETATM   14  N   UNL     2     -38.881 -47.588  14.249  1.00  0.00    -0.396 N 
HETATM   15  H   UNL     2     -38.301 -47.013  14.877  1.00  0.00     0.156 HD
HETATM   16  H   UNL     2     -38.919 -48.591  14.464  1.00  0.00     0.156 HD
ENDBRANCH   1  14
TORSDOF 2
ENDMDL
