MODEL 1
REMARK VINA RESULT:      -6.8      0.000      0.000
REMARK  8 active torsions:
REMARK  status: ('A' for Active; 'I' for Inactive)
REMARK    1  A    between atoms: N_2  and  C_15 
REMARK    2  A    between atoms: C_4  and  N_8 
REMARK    3  A    between atoms: N_8  and  C_11 
REMARK    4  A    between atoms: N_14  and  C_24 
REMARK    5  A    between atoms: C_15  and  C_18 
REMARK    6  A    between atoms: C_18  and  C_23 
REMARK    7  A    between atoms: C_18  and  C_26 
REMARK    8  A    between atoms: C_26  and  O_28 
ROOT
HETATM    1  C   UNL     1     -40.371 -47.650  11.508  1.00  0.00     0.122 A 
HETATM    2  N   UNL     1     -40.822 -49.746  11.952  1.00  0.00    -0.327 N 
HETATM    3  C   UNL     1     -41.295 -48.653  11.268  1.00  0.00     0.140 A 
HETATM    4  C   UNL     1     -40.566 -46.420  10.829  1.00  0.00     0.135 A 
HETATM    5  N   UNL     1     -39.396 -48.095  12.388  1.00  0.00    -0.346 N 
ATOM      6  HN  UNL     1     -38.611 -47.563  12.763  1.00  0.00     0.167 HD
HETATM    7  C   UNL     1     -39.701 -49.350  12.634  1.00  0.00     0.185 A 
HETATM    8  N   UNL     1     -41.688 -46.322  10.054  1.00  0.00    -0.337 N 
ATOM      9  HN  UNL     1     -41.904 -45.450   9.572  1.00  0.00     0.168 HD
HETATM   10  N   UNL     1     -42.383 -48.603  10.486  1.00  0.00    -0.336 N 
ATOM     11  HN  UNL     1     -43.025 -49.381  10.333  1.00  0.00     0.168 HD
HETATM   12  C   UNL     1     -42.508 -47.386   9.930  1.00  0.00     0.183 A 
ENDROOT
BRANCH   4  13
HETATM   13  N   UNL     1     -39.687 -45.325  10.932  1.00  0.00    -0.365 N 
HETATM   14  C   UNL     1     -39.195 -44.867   9.633  1.00  0.00     0.151 C 
BRANCH  13  15
HETATM   15  C   UNL     1     -40.037 -44.329  11.973  1.00  0.00     0.089 C 
HETATM   16  C   UNL     1     -40.853 -44.906  13.143  1.00  0.00     0.060 C 
HETATM   17  C   UNL     1     -42.364 -44.728  12.973  1.00  0.00     0.221 C 
HETATM   18  N   UNL     1     -42.741 -43.327  12.710  1.00  0.00     0.092 N 
HETATM   19  C   UNL     1     -43.143 -45.419  14.095  1.00  0.00     0.043 C 
HETATM   20  C   UNL     1     -42.160 -42.951  11.404  1.00  0.00     0.275 C 
HETATM   21  C   UNL     1     -40.635 -43.058  11.341  1.00  0.00     0.055 C 
BRANCH  18  22
HETATM   22  C   UNL     1     -42.401 -42.315  13.727  1.00  0.00     0.268 C 
HETATM   23  C   UNL     1     -43.567 -41.555  14.344  1.00  0.00     0.037 C 
ENDBRANCH  18  22
ENDBRANCH  13  15
ENDBRANCH   4  13
BRANCH   2  24
HETATM   24  C   UNL     1     -41.228 -51.113  11.722  1.00  0.00     0.138 C 
BRANCH  24  25
HETATM   25  C   UNL     1     -41.564 -51.966  12.963  1.00  0.00     0.034 C 
BRANCH  25  26
HETATM   26  C   UNL     1     -43.091 -52.089  13.214  1.00  0.00     0.019 C 
HETATM   27  C   UNL     1     -43.445 -52.453  14.660  1.00  0.00     0.172 C 
HETATM   28  O   UNL     1     -43.980 -53.780  14.621  1.00  0.00    -0.391 OA
HETATM   29  C   UNL     1     -44.659 -53.904  13.371  1.00  0.00     0.168 C 
HETATM   30  C   UNL     1     -43.792 -53.160  12.381  1.00  0.00     0.033 C 
ENDBRANCH  25  26
BRANCH  25  31
HETATM   31  C   UNL     1     -40.860 -53.331  12.813  1.00  0.00     0.170 C 
BRANCH  31  32
HETATM   32  O   UNL     1     -40.456 -53.511  11.459  1.00  0.00    -0.400 OA
HETATM   33  H   UNL     1     -40.091 -54.409  11.367  1.00  0.00     0.209 HD
ENDBRANCH  31  32
ENDBRANCH  25  31
ENDBRANCH  24  25
ENDBRANCH   2  24
TORSDOF 8
ENDMDL
MODEL 2
REMARK VINA RESULT:      -6.7      3.225      7.915
REMARK  8 active torsions:
REMARK  status: ('A' for Active; 'I' for Inactive)
REMARK    1  A    between atoms: N_2  and  C_15 
REMARK    2  A    between atoms: C_4  and  N_8 
REMARK    3  A    between atoms: N_8  and  C_11 
REMARK    4  A    between atoms: N_14  and  C_24 
REMARK    5  A    between atoms: C_15  and  C_18 
REMARK    6  A    between atoms: C_18  and  C_23 
REMARK    7  A    between atoms: C_18  and  C_26 
REMARK    8  A    between atoms: C_26  and  O_28 
ROOT
HETATM    1  C   UNL     1     -41.483 -49.756  12.513  1.00  0.00     0.122 A 
HETATM    2  N   UNL     1     -40.838 -47.824  11.712  1.00  0.00    -0.327 N 
HETATM    3  C   UNL     1     -40.554 -48.745  12.691  1.00  0.00     0.140 A 
HETATM    4  C   UNL     1     -41.354 -50.900  13.343  1.00  0.00     0.135 A 
HETATM    5  N   UNL     1     -42.369 -49.424  11.500  1.00  0.00    -0.346 N 
ATOM      6  HN  UNL     1     -43.170 -49.965  11.175  1.00  0.00     0.167 HD
HETATM    7  C   UNL     1     -41.954 -48.261  11.047  1.00  0.00     0.185 A 
HETATM    8  N   UNL     1     -40.364 -50.862  14.285  1.00  0.00    -0.337 N 
ATOM      9  HN  UNL     1     -40.246 -51.637  14.936  1.00  0.00     0.168 HD
HETATM   10  N   UNL     1     -39.550 -48.692  13.577  1.00  0.00    -0.336 N 
ATOM     11  HN  UNL     1     -38.883 -47.925  13.655  1.00  0.00     0.168 HD
HETATM   12  C   UNL     1     -39.543 -49.793  14.347  1.00  0.00     0.183 A 
ENDROOT
BRANCH   4  13
HETATM   13  N   UNL     1     -42.190 -52.029  13.249  1.00  0.00    -0.365 N 
HETATM   14  C   UNL     1     -41.495 -53.209  12.737  1.00  0.00     0.151 C 
BRANCH  13  15
HETATM   15  C   UNL     1     -43.175 -52.180  14.346  1.00  0.00     0.089 C 
HETATM   16  C   UNL     1     -43.752 -53.600  14.481  1.00  0.00     0.060 C 
HETATM   17  C   UNL     1     -45.081 -53.785  13.743  1.00  0.00     0.221 C 
HETATM   18  N   UNL     1     -46.083 -52.773  14.124  1.00  0.00     0.092 N 
HETATM   19  C   UNL     1     -45.561 -55.237  13.800  1.00  0.00     0.043 C 
HETATM   20  C   UNL     1     -45.576 -51.458  13.676  1.00  0.00     0.275 C 
HETATM   21  C   UNL     1     -44.232 -51.061  14.293  1.00  0.00     0.055 C 
BRANCH  18  22
HETATM   22  C   UNL     1     -46.496 -52.702  15.537  1.00  0.00     0.268 C 
HETATM   23  C   UNL     1     -47.399 -51.539  15.922  1.00  0.00     0.037 C 
ENDBRANCH  18  22
ENDBRANCH  13  15
ENDBRANCH   4  13
BRANCH   2  24
HETATM   24  C   UNL     1     -39.940 -46.788  11.256  1.00  0.00     0.138 C 
BRANCH  24  25
HETATM   25  C   UNL     1     -40.461 -45.336  11.299  1.00  0.00     0.034 C 
BRANCH  25  26
HETATM   26  C   UNL     1     -40.333 -44.692  12.705  1.00  0.00     0.019 C 
HETATM   27  C   UNL     1     -39.029 -45.050  13.425  1.00  0.00     0.172 C 
HETATM   28  O   UNL     1     -39.394 -45.883  14.530  1.00  0.00    -0.391 OA
HETATM   29  C   UNL     1     -40.677 -45.433  14.966  1.00  0.00     0.168 C 
HETATM   30  C   UNL     1     -41.424 -45.095  13.696  1.00  0.00     0.033 C 
ENDBRANCH  25  26
BRANCH  25  31
HETATM   31  C   UNL     1     -39.740 -44.535  10.194  1.00  0.00     0.170 C 
BRANCH  31  32
HETATM   32  O   UNL     1     -40.275 -43.216  10.137  1.00  0.00    -0.400 OA
HETATM   33  H   UNL     1     -41.233 -43.268  10.299  1.00  0.00     0.209 HD
ENDBRANCH  31  32
ENDBRANCH  25  31
ENDBRANCH  24  25
ENDBRANCH   2  24
TORSDOF 8
ENDMDL
MODEL 3
REMARK VINA RESULT:      -6.7      1.838      3.026
REMARK  8 active torsions:
REMARK  status: ('A' for Active; 'I' for Inactive)
REMARK    1  A    between atoms: N_2  and  C_15 
REMARK    2  A    between atoms: C_4  and  N_8 
REMARK    3  A    between atoms: N_8  and  C_11 
REMARK    4  A    between atoms: N_14  and  C_24 
REMARK    5  A    between atoms: C_15  and  C_18 
REMARK    6  A    between atoms: C_18  and  C_23 
REMARK    7  A    between atoms: C_18  and  C_26 
REMARK    8  A    between atoms: C_26  and  O_28 
ROOT
HETATM    1  C   UNL     1     -41.362 -49.116  12.927  1.00  0.00     0.122 A 
HETATM    2  N   UNL     1     -42.372 -51.001  12.462  1.00  0.00    -0.327 N 
HETATM    3  C   UNL     1     -41.203 -50.312  12.249  1.00  0.00     0.140 A 
HETATM    4  C   UNL     1     -40.247 -48.239  12.956  1.00  0.00     0.135 A 
HETATM    5  N   UNL     1     -42.633 -49.039  13.477  1.00  0.00    -0.346 N 
ATOM      6  HN  UNL     1     -43.035 -48.263  14.002  1.00  0.00     0.167 HD
HETATM    7  C   UNL     1     -43.208 -50.183  13.175  1.00  0.00     0.185 A 
HETATM    8  N   UNL     1     -39.144 -48.633  12.250  1.00  0.00    -0.337 N 
ATOM      9  HN  UNL     1     -38.325 -48.028  12.200  1.00  0.00     0.168 HD
HETATM   10  N   UNL     1     -40.125 -50.745  11.581  1.00  0.00    -0.336 N 
ATOM     11  HN  UNL     1     -40.057 -51.646  11.108  1.00  0.00     0.168 HD
HETATM   12  C   UNL     1     -39.145 -49.827  11.622  1.00  0.00     0.183 A 
ENDROOT
BRANCH   4  13
HETATM   13  N   UNL     1     -40.237 -47.011  13.644  1.00  0.00    -0.365 N 
HETATM   14  C   UNL     1     -38.956 -46.733  14.292  1.00  0.00     0.151 C 
BRANCH  13  15
HETATM   15  C   UNL     1     -40.977 -45.910  12.984  1.00  0.00     0.089 C 
HETATM   16  C   UNL     1     -40.693 -45.779  11.477  1.00  0.00     0.060 C 
HETATM   17  C   UNL     1     -39.599 -44.758  11.154  1.00  0.00     0.221 C 
HETATM   18  N   UNL     1     -39.863 -43.438  11.755  1.00  0.00     0.092 N 
HETATM   19  C   UNL     1     -39.262 -44.744   9.661  1.00  0.00     0.043 C 
HETATM   20  C   UNL     1     -39.814 -43.603  13.224  1.00  0.00     0.275 C 
HETATM   21  C   UNL     1     -40.836 -44.598  13.778  1.00  0.00     0.055 C 
BRANCH  18  22
HETATM   22  C   UNL     1     -41.099 -42.734  11.365  1.00  0.00     0.268 C 
HETATM   23  C   UNL     1     -41.218 -41.281  11.803  1.00  0.00     0.037 C 
ENDBRANCH  18  22
ENDBRANCH  13  15
ENDBRANCH   4  13
BRANCH   2  24
HETATM   24  C   UNL     1     -42.547 -52.423  12.273  1.00  0.00     0.138 C 
BRANCH  24  25
HETATM   25  C   UNL     1     -42.062 -53.349  13.407  1.00  0.00     0.034 C 
BRANCH  25  26
HETATM   26  C   UNL     1     -43.185 -54.270  13.955  1.00  0.00     0.019 C 
HETATM   27  C   UNL     1     -44.468 -54.235  13.116  1.00  0.00     0.172 C 
HETATM   28  O   UNL     1     -45.461 -53.596  13.925  1.00  0.00    -0.391 OA
HETATM   29  C   UNL     1     -45.167 -53.953  15.276  1.00  0.00     0.168 C 
HETATM   30  C   UNL     1     -43.659 -53.933  15.367  1.00  0.00     0.033 C 
ENDBRANCH  25  26
BRANCH  25  31
HETATM   31  C   UNL     1     -40.831 -54.127  12.898  1.00  0.00     0.170 C 
BRANCH  31  32
HETATM   32  O   UNL     1     -40.510 -53.700  11.578  1.00  0.00    -0.400 OA
HETATM   33  H   UNL     1     -39.900 -52.944  11.642  1.00  0.00     0.209 HD
ENDBRANCH  31  32
ENDBRANCH  25  31
ENDBRANCH  24  25
ENDBRANCH   2  24
TORSDOF 8
ENDMDL
MODEL 4
REMARK VINA RESULT:      -6.7      2.200      4.445
REMARK  8 active torsions:
REMARK  status: ('A' for Active; 'I' for Inactive)
REMARK    1  A    between atoms: N_2  and  C_15 
REMARK    2  A    between atoms: C_4  and  N_8 
REMARK    3  A    between atoms: N_8  and  C_11 
REMARK    4  A    between atoms: N_14  and  C_24 
REMARK    5  A    between atoms: C_15  and  C_18 
REMARK    6  A    between atoms: C_18  and  C_23 
REMARK    7  A    between atoms: C_18  and  C_26 
REMARK    8  A    between atoms: C_26  and  O_28 
ROOT
HETATM    1  C   UNL     1     -41.984 -50.386  13.432  1.00  0.00     0.122 A 
HETATM    2  N   UNL     1     -43.329 -51.589  14.671  1.00  0.00    -0.327 N 
HETATM    3  C   UNL     1     -42.544 -51.647  13.545  1.00  0.00     0.140 A 
HETATM    4  C   UNL     1     -41.037 -50.194  12.392  1.00  0.00     0.135 A 
HETATM    5  N   UNL     1     -42.478 -49.549  14.420  1.00  0.00    -0.346 N 
ATOM      6  HN  UNL     1     -42.265 -48.562  14.560  1.00  0.00     0.167 HD
HETATM    7  C   UNL     1     -43.282 -50.303  15.139  1.00  0.00     0.185 A 
HETATM    8  N   UNL     1     -40.821 -51.257  11.560  1.00  0.00    -0.337 N 
ATOM      9  HN  UNL     1     -40.182 -51.168  10.771  1.00  0.00     0.168 HD
HETATM   10  N   UNL     1     -42.327 -52.720  12.771  1.00  0.00    -0.336 N 
ATOM     11  HN  UNL     1     -42.758 -53.634  12.909  1.00  0.00     0.168 HD
HETATM   12  C   UNL     1     -41.459 -52.424  11.789  1.00  0.00     0.183 A 
ENDROOT
BRANCH   4  13
HETATM   13  N   UNL     1     -40.347 -48.986  12.180  1.00  0.00    -0.365 N 
HETATM   14  C   UNL     1     -38.913 -49.097  12.445  1.00  0.00     0.151 C 
BRANCH  13  15
HETATM   15  C   UNL     1     -40.817 -48.183  11.027  1.00  0.00     0.089 C 
HETATM   16  C   UNL     1     -40.318 -46.727  11.031  1.00  0.00     0.060 C 
HETATM   17  C   UNL     1     -41.312 -45.748  11.661  1.00  0.00     0.221 C 
HETATM   18  N   UNL     1     -42.655 -45.841  11.058  1.00  0.00     0.092 N 
HETATM   19  C   UNL     1     -40.731 -44.335  11.754  1.00  0.00     0.043 C 
HETATM   20  C   UNL     1     -43.188 -47.184  11.371  1.00  0.00     0.275 C 
HETATM   21  C   UNL     1     -42.337 -48.338  10.832  1.00  0.00     0.055 C 
BRANCH  18  22
HETATM   22  C   UNL     1     -42.787 -45.566   9.616  1.00  0.00     0.268 C 
HETATM   23  C   UNL     1     -44.170 -45.766   9.012  1.00  0.00     0.037 C 
ENDBRANCH  18  22
ENDBRANCH  13  15
ENDBRANCH   4  13
BRANCH   2  24
HETATM   24  C   UNL     1     -43.822 -52.733  15.403  1.00  0.00     0.138 C 
BRANCH  24  25
HETATM   25  C   UNL     1     -45.312 -52.725  15.801  1.00  0.00     0.034 C 
BRANCH  25  26
HETATM   26  C   UNL     1     -46.258 -52.982  14.598  1.00  0.00     0.019 C 
HETATM   27  C   UNL     1     -45.695 -53.980  13.580  1.00  0.00     0.172 C 
HETATM   28  O   UNL     1     -45.414 -53.230  12.393  1.00  0.00    -0.391 OA
HETATM   29  C   UNL     1     -46.397 -52.196  12.331  1.00  0.00     0.168 C 
HETATM   30  C   UNL     1     -46.581 -51.745  13.762  1.00  0.00     0.033 C 
ENDBRANCH  25  26
BRANCH  25  31
HETATM   31  C   UNL     1     -45.507 -53.733  16.954  1.00  0.00     0.170 C 
BRANCH  31  32
HETATM   32  O   UNL     1     -44.450 -54.687  16.935  1.00  0.00    -0.400 OA
HETATM   33  H   UNL     1     -44.166 -54.847  17.853  1.00  0.00     0.209 HD
ENDBRANCH  31  32
ENDBRANCH  25  31
ENDBRANCH  24  25
ENDBRANCH   2  24
TORSDOF 8
ENDMDL
MODEL 5
REMARK VINA RESULT:      -6.7      4.278      7.688
REMARK  8 active torsions:
REMARK  status: ('A' for Active; 'I' for Inactive)
REMARK    1  A    between atoms: N_2  and  C_15 
REMARK    2  A    between atoms: C_4  and  N_8 
REMARK    3  A    between atoms: N_8  and  C_11 
REMARK    4  A    between atoms: N_14  and  C_24 
REMARK    5  A    between atoms: C_15  and  C_18 
REMARK    6  A    between atoms: C_18  and  C_23 
REMARK    7  A    between atoms: C_18  and  C_26 
REMARK    8  A    between atoms: C_26  and  O_28 
ROOT
HETATM    1  C   UNL     1     -42.494 -51.317  12.520  1.00  0.00     0.122 A 
HETATM    2  N   UNL     1     -40.872 -50.049  11.779  1.00  0.00    -0.327 N 
HETATM    3  C   UNL     1     -41.160 -51.339  12.150  1.00  0.00     0.140 A 
HETATM    4  C   UNL     1     -43.088 -52.561  12.860  1.00  0.00     0.135 A 
HETATM    5  N   UNL     1     -42.991 -50.024  12.456  1.00  0.00    -0.346 N 
ATOM      6  HN  UNL     1     -43.929 -49.708  12.700  1.00  0.00     0.167 HD
HETATM    7  C   UNL     1     -41.991 -49.294  12.012  1.00  0.00     0.185 A 
HETATM    8  N   UNL     1     -42.264 -53.652  12.854  1.00  0.00    -0.337 N 
ATOM      9  HN  UNL     1     -42.623 -54.566  13.128  1.00  0.00     0.168 HD
HETATM   10  N   UNL     1     -40.336 -52.395  12.096  1.00  0.00    -0.336 N 
ATOM     11  HN  UNL     1     -39.360 -52.356  11.801  1.00  0.00     0.168 HD
HETATM   12  C   UNL     1     -40.974 -53.511  12.485  1.00  0.00     0.183 A 
ENDROOT
BRANCH   4  13
HETATM   13  N   UNL     1     -44.444 -52.708  13.209  1.00  0.00    -0.365 N 
HETATM   14  C   UNL     1     -44.890 -54.100  13.181  1.00  0.00     0.151 C 
BRANCH  13  15
HETATM   15  C   UNL     1     -44.920 -51.809  14.287  1.00  0.00     0.089 C 
HETATM   16  C   UNL     1     -44.381 -52.163  15.684  1.00  0.00     0.060 C 
HETATM   17  C   UNL     1     -45.331 -53.050  16.493  1.00  0.00     0.221 C 
HETATM   18  N   UNL     1     -46.691 -52.484  16.583  1.00  0.00     0.092 N 
HETATM   19  C   UNL     1     -44.709 -53.478  17.823  1.00  0.00     0.043 C 
HETATM   20  C   UNL     1     -47.253 -52.465  15.215  1.00  0.00     0.275 C 
HETATM   21  C   UNL     1     -46.449 -51.628  14.218  1.00  0.00     0.055 C 
BRANCH  18  22
HETATM   22  C   UNL     1     -46.851 -51.163  17.215  1.00  0.00     0.268 C 
HETATM   23  C   UNL     1     -48.186 -50.895  17.895  1.00  0.00     0.037 C 
ENDBRANCH  18  22
ENDBRANCH  13  15
ENDBRANCH   4  13
BRANCH   2  24
HETATM   24  C   UNL     1     -39.736 -49.644  10.983  1.00  0.00     0.138 C 
BRANCH  24  25
HETATM   25  C   UNL     1     -38.454 -49.241  11.741  1.00  0.00     0.034 C 
BRANCH  25  26
HETATM   26  C   UNL     1     -38.633 -49.263  13.282  1.00  0.00     0.019 C 
HETATM   27  C   UNL     1     -38.301 -47.926  13.955  1.00  0.00     0.172 C 
HETATM   28  O   UNL     1     -37.111 -48.144  14.719  1.00  0.00    -0.391 OA
HETATM   29  C   UNL     1     -37.168 -49.497  15.173  1.00  0.00     0.168 C 
HETATM   30  C   UNL     1     -37.752 -50.273  14.015  1.00  0.00     0.033 C 
ENDBRANCH  25  26
BRANCH  25  31
HETATM   31  C   UNL     1     -37.302 -50.144  11.249  1.00  0.00     0.170 C 
BRANCH  31  32
HETATM   32  O   UNL     1     -37.248 -50.114   9.826  1.00  0.00    -0.400 OA
HETATM   33  H   UNL     1     -38.160 -50.097   9.486  1.00  0.00     0.209 HD
ENDBRANCH  31  32
ENDBRANCH  25  31
ENDBRANCH  24  25
ENDBRANCH   2  24
TORSDOF 8
ENDMDL
MODEL 6
REMARK VINA RESULT:      -6.6      3.865      6.033
REMARK  8 active torsions:
REMARK  status: ('A' for Active; 'I' for Inactive)
REMARK    1  A    between atoms: N_2  and  C_15 
REMARK    2  A    between atoms: C_4  and  N_8 
REMARK    3  A    between atoms: N_8  and  C_11 
REMARK    4  A    between atoms: N_14  and  C_24 
REMARK    5  A    between atoms: C_15  and  C_18 
REMARK    6  A    between atoms: C_18  and  C_23 
REMARK    7  A    between atoms: C_18  and  C_26 
REMARK    8  A    between atoms: C_26  and  O_28 
ROOT
HETATM    1  C   UNL     1     -39.858 -49.437  13.698  1.00  0.00     0.122 A 
HETATM    2  N   UNL     1     -41.535 -50.677  13.034  1.00  0.00    -0.327 N 
HETATM    3  C   UNL     1     -40.281 -50.254  12.664  1.00  0.00     0.140 A 
HETATM    4  C   UNL     1     -38.533 -48.934  13.620  1.00  0.00     0.135 A 
HETATM    5  N   UNL     1     -40.863 -49.295  14.642  1.00  0.00    -0.346 N 
ATOM      6  HN  UNL     1     -40.842 -48.729  15.490  1.00  0.00     0.167 HD
HETATM    7  C   UNL     1     -41.851 -50.049  14.209  1.00  0.00     0.185 A 
HETATM    8  N   UNL     1     -37.826 -49.253  12.495  1.00  0.00    -0.337 N 
ATOM      9  HN  UNL     1     -36.882 -48.889  12.362  1.00  0.00     0.168 HD
HETATM   10  N   UNL     1     -39.601 -50.617  11.567  1.00  0.00    -0.336 N 
ATOM     11  HN  UNL     1     -39.958 -51.237  10.840  1.00  0.00     0.168 HD
HETATM   12  C   UNL     1     -38.382 -50.051  11.560  1.00  0.00     0.183 A 
ENDROOT
BRANCH   4  13
HETATM   13  N   UNL     1     -37.944 -48.132  14.615  1.00  0.00    -0.365 N 
HETATM   14  C   UNL     1     -38.371 -46.736  14.547  1.00  0.00     0.151 C 
BRANCH  13  15
HETATM   15  C   UNL     1     -37.781 -48.783  15.937  1.00  0.00     0.089 C 
HETATM   16  C   UNL     1     -37.305 -47.832  17.050  1.00  0.00     0.060 C 
HETATM   17  C   UNL     1     -35.787 -47.850  17.253  1.00  0.00     0.221 C 
HETATM   18  N   UNL     1     -35.263 -49.212  17.466  1.00  0.00     0.092 N 
HETATM   19  C   UNL     1     -35.343 -46.808  18.281  1.00  0.00     0.043 C 
HETATM   20  C   UNL     1     -35.493 -49.974  16.220  1.00  0.00     0.275 C 
HETATM   21  C   UNL     1     -36.965 -50.083  15.814  1.00  0.00     0.055 C 
BRANCH  18  22
HETATM   22  C   UNL     1     -35.762 -49.974  18.625  1.00  0.00     0.268 C 
HETATM   23  C   UNL     1     -35.105 -51.323  18.883  1.00  0.00     0.037 C 
ENDBRANCH  18  22
ENDBRANCH  13  15
ENDBRANCH   4  13
BRANCH   2  24
HETATM   24  C   UNL     1     -42.229 -51.815  12.475  1.00  0.00     0.138 C 
BRANCH  24  25
HETATM   25  C   UNL     1     -42.138 -53.145  13.252  1.00  0.00     0.034 C 
BRANCH  25  26
HETATM   26  C   UNL     1     -43.396 -54.036  13.069  1.00  0.00     0.019 C 
HETATM   27  C   UNL     1     -44.602 -53.281  12.498  1.00  0.00     0.172 C 
HETATM   28  O   UNL     1     -45.571 -53.218  13.550  1.00  0.00    -0.391 OA
HETATM   29  C   UNL     1     -45.419 -54.417  14.309  1.00  0.00     0.168 C 
HETATM   30  C   UNL     1     -43.928 -54.664  14.356  1.00  0.00     0.033 C 
ENDBRANCH  25  26
BRANCH  25  31
HETATM   31  C   UNL     1     -40.828 -53.850  12.844  1.00  0.00     0.170 C 
BRANCH  31  32
HETATM   32  O   UNL     1     -40.545 -53.576  11.475  1.00  0.00    -0.400 OA
HETATM   33  H   UNL     1     -41.353 -53.226  11.061  1.00  0.00     0.209 HD
ENDBRANCH  31  32
ENDBRANCH  25  31
ENDBRANCH  24  25
ENDBRANCH   2  24
TORSDOF 8
ENDMDL
MODEL 7
REMARK VINA RESULT:      -6.4      1.644      2.747
REMARK  8 active torsions:
REMARK  status: ('A' for Active; 'I' for Inactive)
REMARK    1  A    between atoms: N_2  and  C_15 
REMARK    2  A    between atoms: C_4  and  N_8 
REMARK    3  A    between atoms: N_8  and  C_11 
REMARK    4  A    between atoms: N_14  and  C_24 
REMARK    5  A    between atoms: C_15  and  C_18 
REMARK    6  A    between atoms: C_18  and  C_23 
REMARK    7  A    between atoms: C_18  and  C_26 
REMARK    8  A    between atoms: C_26  and  O_28 
ROOT
HETATM    1  C   UNL     1     -41.964 -49.252  12.443  1.00  0.00     0.122 A 
HETATM    2  N   UNL     1     -41.911 -51.038  13.708  1.00  0.00    -0.327 N 
HETATM    3  C   UNL     1     -41.334 -50.475  12.595  1.00  0.00     0.140 A 
HETATM    4  C   UNL     1     -41.485 -48.406  11.410  1.00  0.00     0.135 A 
HETATM    5  N   UNL     1     -42.963 -49.104  13.393  1.00  0.00    -0.346 N 
ATOM      6  HN  UNL     1     -43.606 -48.319  13.499  1.00  0.00     0.167 HD
HETATM    7  C   UNL     1     -42.903 -50.192  14.129  1.00  0.00     0.185 A 
HETATM    8  N   UNL     1     -40.489 -48.911  10.621  1.00  0.00    -0.337 N 
ATOM      9  HN  UNL     1     -40.130 -48.367   9.837  1.00  0.00     0.168 HD
HETATM   10  N   UNL     1     -40.332 -50.985  11.865  1.00  0.00    -0.336 N 
ATOM     11  HN  UNL     1     -39.893 -51.890  12.031  1.00  0.00     0.168 HD
HETATM   12  C   UNL     1     -39.985 -50.135  10.884  1.00  0.00     0.183 A 
ENDROOT
BRANCH   4  13
HETATM   13  N   UNL     1     -41.989 -47.115  11.162  1.00  0.00    -0.365 N 
HETATM   14  C   UNL     1     -43.392 -47.123  10.751  1.00  0.00     0.151 C 
BRANCH  13  15
HETATM   15  C   UNL     1     -41.502 -46.059  12.082  1.00  0.00     0.089 C 
HETATM   16  C   UNL     1     -42.452 -44.856  12.213  1.00  0.00     0.060 C 
HETATM   17  C   UNL     1     -42.098 -43.700  11.273  1.00  0.00     0.221 C 
HETATM   18  N   UNL     1     -40.691 -43.277  11.404  1.00  0.00     0.092 N 
HETATM   19  C   UNL     1     -43.132 -42.575  11.347  1.00  0.00     0.043 C 
HETATM   20  C   UNL     1     -39.846 -44.406  10.961  1.00  0.00     0.275 C 
HETATM   21  C   UNL     1     -40.040 -45.690  11.771  1.00  0.00     0.055 C 
BRANCH  18  22
HETATM   22  C   UNL     1     -40.235 -42.787  12.718  1.00  0.00     0.268 C 
HETATM   23  C   UNL     1     -39.914 -41.302  12.813  1.00  0.00     0.037 C 
ENDBRANCH  18  22
ENDBRANCH  13  15
ENDBRANCH   4  13
BRANCH   2  24
HETATM   24  C   UNL     1     -41.353 -52.127  14.476  1.00  0.00     0.138 C 
BRANCH  24  25
HETATM   25  C   UNL     1     -41.998 -53.517  14.297  1.00  0.00     0.034 C 
BRANCH  25  26
HETATM   26  C   UNL     1     -43.548 -53.463  14.268  1.00  0.00     0.019 C 
HETATM   27  C   UNL     1     -44.207 -54.200  15.439  1.00  0.00     0.172 C 
HETATM   28  O   UNL     1     -44.862 -55.342  14.879  1.00  0.00    -0.391 OA
HETATM   29  C   UNL     1     -45.301 -54.954  13.577  1.00  0.00     0.168 C 
HETATM   30  C   UNL     1     -44.188 -54.089  13.031  1.00  0.00     0.033 C 
ENDBRANCH  25  26
BRANCH  25  31
HETATM   31  C   UNL     1     -41.388 -54.170  13.038  1.00  0.00     0.170 C 
BRANCH  31  32
HETATM   32  O   UNL     1     -40.016 -53.803  12.928  1.00  0.00    -0.400 OA
HETATM   33  H   UNL     1     -39.558 -54.088  13.738  1.00  0.00     0.209 HD
ENDBRANCH  31  32
ENDBRANCH  25  31
ENDBRANCH  24  25
ENDBRANCH   2  24
TORSDOF 8
ENDMDL
MODEL 8
REMARK VINA RESULT:      -6.4      1.593      2.269
REMARK  8 active torsions:
REMARK  status: ('A' for Active; 'I' for Inactive)
REMARK    1  A    between atoms: N_2  and  C_15 
REMARK    2  A    between atoms: C_4  and  N_8 
REMARK    3  A    between atoms: N_8  and  C_11 
REMARK    4  A    between atoms: N_14  and  C_24 
REMARK    5  A    between atoms: C_15  and  C_18 
REMARK    6  A    between atoms: C_18  and  C_23 
REMARK    7  A    between atoms: C_18  and  C_26 
REMARK    8  A    between atoms: C_26  and  O_28 
ROOT
HETATM    1  C   UNL     1     -40.919 -49.104  11.576  1.00  0.00     0.122 A 
HETATM    2  N   UNL     1     -40.458 -51.169  12.134  1.00  0.00    -0.327 N 
HETATM    3  C   UNL     1     -41.467 -50.237  12.152  1.00  0.00     0.140 A 
HETATM    4  C   UNL     1     -41.788 -48.000  11.375  1.00  0.00     0.135 A 
HETATM    5  N   UNL     1     -39.579 -49.310  11.286  1.00  0.00    -0.346 N 
ATOM      6  HN  UNL     1     -38.921 -48.640  10.887  1.00  0.00     0.167 HD
HETATM    7  C   UNL     1     -39.339 -50.554  11.637  1.00  0.00     0.185 A 
HETATM    8  N   UNL     1     -43.068 -48.141  11.835  1.00  0.00    -0.337 N 
ATOM      9  HN  UNL     1     -43.729 -47.369  11.755  1.00  0.00     0.168 HD
HETATM   10  N   UNL     1     -42.724 -50.422  12.577  1.00  0.00    -0.336 N 
ATOM     11  HN  UNL     1     -43.080 -51.288  12.983  1.00  0.00     0.168 HD
HETATM   12  C   UNL     1     -43.452 -49.308  12.393  1.00  0.00     0.183 A 
ENDROOT
BRANCH   4  13
HETATM   13  N   UNL     1     -41.393 -46.798  10.758  1.00  0.00    -0.365 N 
HETATM   14  C   UNL     1     -42.433 -46.230   9.902  1.00  0.00     0.151 C 
BRANCH  13  15
HETATM   15  C   UNL     1     -40.565 -45.899  11.598  1.00  0.00     0.089 C 
HETATM   16  C   UNL     1     -41.287 -45.367  12.848  1.00  0.00     0.060 C 
HETATM   17  C   UNL     1     -41.929 -43.993  12.638  1.00  0.00     0.221 C 
HETATM   18  N   UNL     1     -40.972 -42.997  12.121  1.00  0.00     0.092 N 
HETATM   19  C   UNL     1     -42.736 -43.554  13.862  1.00  0.00     0.043 C 
HETATM   20  C   UNL     1     -40.560 -43.439  10.771  1.00  0.00     0.275 C 
HETATM   21  C   UNL     1     -39.888 -44.814  10.739  1.00  0.00     0.055 C 
BRANCH  18  22
HETATM   22  C   UNL     1     -39.785 -42.687  12.937  1.00  0.00     0.268 C 
HETATM   23  C   UNL     1     -39.565 -41.222  13.286  1.00  0.00     0.037 C 
ENDBRANCH  18  22
ENDBRANCH  13  15
ENDBRANCH   4  13
BRANCH   2  24
HETATM   24  C   UNL     1     -40.637 -52.595  12.284  1.00  0.00     0.138 C 
BRANCH  24  25
HETATM   25  C   UNL     1     -40.858 -53.129  13.715  1.00  0.00     0.034 C 
BRANCH  25  26
HETATM   26  C   UNL     1     -41.929 -54.250  13.781  1.00  0.00     0.019 C 
HETATM   27  C   UNL     1     -43.238 -53.887  13.071  1.00  0.00     0.172 C 
HETATM   28  O   UNL     1     -44.227 -53.747  14.096  1.00  0.00    -0.391 OA
HETATM   29  C   UNL     1     -43.878 -54.679  15.120  1.00  0.00     0.168 C 
HETATM   30  C   UNL     1     -42.369 -54.633  15.192  1.00  0.00     0.033 C 
ENDBRANCH  25  26
BRANCH  25  31
HETATM   31  C   UNL     1     -39.489 -53.561  14.282  1.00  0.00     0.170 C 
BRANCH  31  32
HETATM   32  O   UNL     1     -38.781 -54.309  13.299  1.00  0.00    -0.400 OA
HETATM   33  H   UNL     1     -39.431 -54.758  12.731  1.00  0.00     0.209 HD
ENDBRANCH  31  32
ENDBRANCH  25  31
ENDBRANCH  24  25
ENDBRANCH   2  24
TORSDOF 8
ENDMDL
MODEL 9
REMARK VINA RESULT:      -6.3      2.101      4.301
REMARK  8 active torsions:
REMARK  status: ('A' for Active; 'I' for Inactive)
REMARK    1  A    between atoms: N_2  and  C_15 
REMARK    2  A    between atoms: C_4  and  N_8 
REMARK    3  A    between atoms: N_8  and  C_11 
REMARK    4  A    between atoms: N_14  and  C_24 
REMARK    5  A    between atoms: C_15  and  C_18 
REMARK    6  A    between atoms: C_18  and  C_23 
REMARK    7  A    between atoms: C_18  and  C_26 
REMARK    8  A    between atoms: C_26  and  O_28 
ROOT
HETATM    1  C   UNL     1     -40.379 -51.349  12.882  1.00  0.00     0.122 A 
HETATM    2  N   UNL     1     -41.534 -53.196  13.096  1.00  0.00    -0.327 N 
HETATM    3  C   UNL     1     -40.502 -52.487  13.661  1.00  0.00     0.140 A 
HETATM    4  C   UNL     1     -39.436 -50.378  13.307  1.00  0.00     0.135 A 
HETATM    5  N   UNL     1     -41.262 -51.399  11.814  1.00  0.00    -0.346 N 
ATOM      6  HN  UNL     1     -41.369 -50.714  11.066  1.00  0.00     0.167 HD
HETATM    7  C   UNL     1     -41.933 -52.519  11.974  1.00  0.00     0.185 A 
HETATM    8  N   UNL     1     -38.691 -50.693  14.409  1.00  0.00    -0.337 N 
ATOM      9  HN  UNL     1     -37.970 -50.053  14.740  1.00  0.00     0.168 HD
HETATM   10  N   UNL     1     -39.816 -52.809  14.767  1.00  0.00    -0.336 N 
ATOM     11  HN  UNL     1     -39.958 -53.659  15.312  1.00  0.00     0.168 HD
HETATM   12  C   UNL     1     -38.916 -51.855  15.056  1.00  0.00     0.183 A 
ENDROOT
BRANCH   4  13
HETATM   13  N   UNL     1     -39.231 -49.150  12.650  1.00  0.00    -0.365 N 
HETATM   14  C   UNL     1     -38.303 -49.255  11.525  1.00  0.00     0.151 C 
BRANCH  13  15
HETATM   15  C   UNL     1     -40.433 -48.290  12.528  1.00  0.00     0.089 C 
HETATM   16  C   UNL     1     -40.414 -47.356  11.305  1.00  0.00     0.060 C 
HETATM   17  C   UNL     1     -39.884 -45.955  11.622  1.00  0.00     0.221 C 
HETATM   18  N   UNL     1     -40.591 -45.326  12.753  1.00  0.00     0.092 N 
HETATM   19  C   UNL     1     -39.768 -45.097  10.361  1.00  0.00     0.043 C 
HETATM   20  C   UNL     1     -40.299 -46.130  13.959  1.00  0.00     0.275 C 
HETATM   21  C   UNL     1     -40.747 -47.590  13.864  1.00  0.00     0.055 C 
BRANCH  18  22
HETATM   22  C   UNL     1     -42.044 -45.110  12.628  1.00  0.00     0.268 C 
HETATM   23  C   UNL     1     -42.711 -44.326  13.749  1.00  0.00     0.037 C 
ENDBRANCH  18  22
ENDBRANCH  13  15
ENDBRANCH   4  13
BRANCH   2  24
HETATM   24  C   UNL     1     -42.273 -54.254  13.747  1.00  0.00     0.138 C 
BRANCH  24  25
HETATM   25  C   UNL     1     -43.167 -53.856  14.939  1.00  0.00     0.034 C 
BRANCH  25  26
HETATM   26  C   UNL     1     -44.674 -53.800  14.570  1.00  0.00     0.019 C 
HETATM   27  C   UNL     1     -44.997 -54.453  13.221  1.00  0.00     0.172 C 
HETATM   28  O   UNL     1     -45.386 -53.391  12.343  1.00  0.00    -0.391 OA
HETATM   29  C   UNL     1     -46.039 -52.417  13.157  1.00  0.00     0.168 C 
HETATM   30  C   UNL     1     -45.250 -52.391  14.446  1.00  0.00     0.033 C 
ENDBRANCH  25  26
BRANCH  25  31
HETATM   31  C   UNL     1     -42.863 -54.817  16.109  1.00  0.00     0.170 C 
BRANCH  31  32
HETATM   32  O   UNL     1     -43.101 -56.159  15.697  1.00  0.00    -0.400 OA
HETATM   33  H   UNL     1     -42.408 -56.724  16.081  1.00  0.00     0.209 HD
ENDBRANCH  31  32
ENDBRANCH  25  31
ENDBRANCH  24  25
ENDBRANCH   2  24
TORSDOF 8
ENDMDL
