MODEL 1
REMARK VINA RESULT:      -5.7      0.000      0.000
REMARK  5 active torsions:
REMARK  status: ('A' for Active; 'I' for Inactive)
REMARK    1  A    between atoms: C_2  and  N_3 
REMARK    2  A    between atoms: C_2  and  C_13 
REMARK    3  A    between atoms: N_3  and  C_4 
REMARK    4  A    between atoms: C_4  and  C_5 
REMARK       I    between atoms: C_5  and  N_7 
REMARK    5  A    between atoms: C_13  and  N_15 
ROOT
HETATM    1  N   UNL     1     -39.728 -47.489  11.343  1.00  0.00     0.098 N 
HETATM    2  H   UNL     1     -39.999 -47.895  10.444  1.00  0.00     0.317 HD
ENDROOT
BRANCH   1   3
HETATM    3  C   UNL     1     -39.448 -48.542  12.345  1.00  0.00     0.241 C 
HETATM    4  C   UNL     1     -38.409 -48.039  13.360  1.00  0.00     0.045 C 
BRANCH   3   5
HETATM    5  C   UNL     1     -39.069 -49.937  11.733  1.00  0.00     0.136 C 
HETATM    6  C   UNL     1     -37.625 -50.351  12.036  1.00  0.00     0.036 C 
BRANCH   5   7
HETATM    7  N   UNL     1     -39.967 -51.028  12.127  1.00  0.00    -0.297 N 
HETATM    8  C   UNL     1     -39.810 -51.939  13.139  1.00  0.00     0.112 A 
HETATM    9  C   UNL     1     -40.877 -52.802  13.053  1.00  0.00     0.037 A 
HETATM   10  C   UNL     1     -41.614 -52.350  11.946  1.00  0.00     0.108 A 
HETATM   11  N   UNL     1     -41.065 -51.276  11.373  1.00  0.00    -0.310 N 
ATOM     12  HN  UNL     1     -41.396 -50.762  10.556  1.00  0.00     0.186 HD
ENDBRANCH   5   7
ENDBRANCH   3   5
ENDBRANCH   1   3
BRANCH   1  13
HETATM   13  C   UNL     1     -40.777 -46.544  11.765  1.00  0.00     0.372 C 
BRANCH  13  14
HETATM   14  C   UNL     1     -41.468 -45.897  10.561  1.00  0.00     0.256 C 
HETATM   15  O   UNL     1     -40.929 -45.036   9.861  1.00  0.00    -0.271 OA
HETATM   16  N   UNL     1     -42.717 -46.421  10.256  1.00  0.00    -0.267 N 
HETATM   17  C   UNL     1     -43.554 -45.833   9.231  1.00  0.00     0.156 A 
HETATM   18  C   UNL     1     -43.208 -47.686  10.613  1.00  0.00     0.325 A 
HETATM   19  C   UNL     1     -44.612 -46.884   8.935  1.00  0.00     0.145 A 
HETATM   20  N   UNL     1     -44.357 -47.926   9.885  1.00  0.00    -0.341 N 
HETATM   21  H   UNL     1     -44.817 -48.826   9.937  1.00  0.00     0.164 HD
HETATM   22  O   UNL     1     -42.745 -48.485  11.409  1.00  0.00    -0.247 OA
ENDBRANCH  13  14
ENDBRANCH   1  13
TORSDOF 5
ENDMDL
MODEL 2
REMARK VINA RESULT:      -5.6      3.178      5.121
REMARK  5 active torsions:
REMARK  status: ('A' for Active; 'I' for Inactive)
REMARK    1  A    between atoms: C_2  and  N_3 
REMARK    2  A    between atoms: C_2  and  C_13 
REMARK    3  A    between atoms: N_3  and  C_4 
REMARK    4  A    between atoms: C_4  and  C_5 
REMARK       I    between atoms: C_5  and  N_7 
REMARK    5  A    between atoms: C_13  and  N_15 
ROOT
HETATM    1  N   UNL     1     -42.269 -52.287  11.918  1.00  0.00     0.098 N 
HETATM    2  H   UNL     1     -43.138 -52.073  11.423  1.00  0.00     0.317 HD
ENDROOT
BRANCH   1   3
HETATM    3  C   UNL     1     -42.507 -53.219  13.044  1.00  0.00     0.241 C 
HETATM    4  C   UNL     1     -41.400 -54.285  13.087  1.00  0.00     0.045 C 
BRANCH   3   5
HETATM    5  C   UNL     1     -43.947 -53.840  13.079  1.00  0.00     0.136 C 
HETATM    6  C   UNL     1     -44.110 -54.912  14.163  1.00  0.00     0.036 C 
BRANCH   5   7
HETATM    7  N   UNL     1     -45.023 -52.854  13.223  1.00  0.00    -0.297 N 
HETATM    8  C   UNL     1     -45.589 -52.371  14.374  1.00  0.00     0.112 A 
HETATM    9  C   UNL     1     -46.605 -51.530  13.983  1.00  0.00     0.037 A 
HETATM   10  C   UNL     1     -46.595 -51.587  12.580  1.00  0.00     0.108 A 
HETATM   11  N   UNL     1     -45.642 -52.393  12.110  1.00  0.00    -0.310 N 
ATOM     12  HN  UNL     1     -45.428 -52.611  11.136  1.00  0.00     0.186 HD
ENDBRANCH   5   7
ENDBRANCH   3   5
ENDBRANCH   1   3
BRANCH   1  13
HETATM   13  C   UNL     1     -41.640 -51.019  12.330  1.00  0.00     0.372 C 
BRANCH  13  14
HETATM   14  C   UNL     1     -42.624 -49.850  12.241  1.00  0.00     0.256 C 
HETATM   15  O   UNL     1     -43.666 -49.799  12.900  1.00  0.00    -0.271 OA
HETATM   16  N   UNL     1     -42.211 -48.801  11.431  1.00  0.00    -0.267 N 
HETATM   17  C   UNL     1     -43.082 -47.682  11.138  1.00  0.00     0.156 A 
HETATM   18  C   UNL     1     -40.893 -48.497  11.056  1.00  0.00     0.325 A 
HETATM   19  C   UNL     1     -42.167 -46.606  10.577  1.00  0.00     0.145 A 
HETATM   20  N   UNL     1     -40.883 -47.235  10.494  1.00  0.00    -0.341 N 
HETATM   21  H   UNL     1     -40.007 -46.798  10.237  1.00  0.00     0.164 HD
HETATM   22  O   UNL     1     -39.890 -49.177  11.185  1.00  0.00    -0.247 OA
ENDBRANCH  13  14
ENDBRANCH   1  13
TORSDOF 5
ENDMDL
MODEL 3
REMARK VINA RESULT:      -5.4      3.997      6.747
REMARK  5 active torsions:
REMARK  status: ('A' for Active; 'I' for Inactive)
REMARK    1  A    between atoms: C_2  and  N_3 
REMARK    2  A    between atoms: C_2  and  C_13 
REMARK    3  A    between atoms: N_3  and  C_4 
REMARK    4  A    between atoms: C_4  and  C_5 
REMARK       I    between atoms: C_5  and  N_7 
REMARK    5  A    between atoms: C_13  and  N_15 
ROOT
HETATM    1  N   UNL     1     -42.751 -53.296  12.397  1.00  0.00     0.098 N 
HETATM    2  H   UNL     1     -43.384 -53.382  11.598  1.00  0.00     0.317 HD
ENDROOT
BRANCH   1   3
HETATM    3  C   UNL     1     -43.461 -53.541  13.673  1.00  0.00     0.241 C 
HETATM    4  C   UNL     1     -42.745 -54.642  14.471  1.00  0.00     0.045 C 
BRANCH   3   5
HETATM    5  C   UNL     1     -45.000 -53.810  13.519  1.00  0.00     0.136 C 
HETATM    6  C   UNL     1     -45.379 -55.275  13.765  1.00  0.00     0.036 C 
BRANCH   5   7
HETATM    7  N   UNL     1     -45.845 -52.955  14.358  1.00  0.00    -0.297 N 
HETATM    8  C   UNL     1     -46.334 -51.704  14.082  1.00  0.00     0.112 A 
HETATM    9  C   UNL     1     -47.004 -51.291  15.210  1.00  0.00     0.037 A 
HETATM   10  C   UNL     1     -46.847 -52.347  16.124  1.00  0.00     0.108 A 
HETATM   11  N   UNL     1     -46.139 -53.358  15.617  1.00  0.00    -0.310 N 
ATOM     12  HN  UNL     1     -45.880 -54.234  16.073  1.00  0.00     0.186 HD
ENDBRANCH   5   7
ENDBRANCH   3   5
ENDBRANCH   1   3
BRANCH   1  13
HETATM   13  C   UNL     1     -42.094 -51.979  12.336  1.00  0.00     0.372 C 
BRANCH  13  14
HETATM   14  C   UNL     1     -40.575 -52.102  12.480  1.00  0.00     0.256 C 
HETATM   15  O   UNL     1     -40.003 -53.180  12.655  1.00  0.00    -0.271 OA
HETATM   16  N   UNL     1     -39.876 -50.914  12.307  1.00  0.00    -0.267 N 
HETATM   17  C   UNL     1     -38.449 -50.836  12.540  1.00  0.00     0.156 A 
HETATM   18  C   UNL     1     -40.317 -49.771  11.622  1.00  0.00     0.325 A 
HETATM   19  C   UNL     1     -38.014 -49.535  11.885  1.00  0.00     0.145 A 
HETATM   20  N   UNL     1     -39.233 -48.935  11.435  1.00  0.00    -0.341 N 
HETATM   21  H   UNL     1     -39.329 -48.092  10.882  1.00  0.00     0.164 HD
HETATM   22  O   UNL     1     -41.439 -49.509  11.225  1.00  0.00    -0.247 OA
ENDBRANCH  13  14
ENDBRANCH   1  13
TORSDOF 5
ENDMDL
MODEL 4
REMARK VINA RESULT:      -5.4      3.661      6.222
REMARK  5 active torsions:
REMARK  status: ('A' for Active; 'I' for Inactive)
REMARK    1  A    between atoms: C_2  and  N_3 
REMARK    2  A    between atoms: C_2  and  C_13 
REMARK    3  A    between atoms: N_3  and  C_4 
REMARK    4  A    between atoms: C_4  and  C_5 
REMARK       I    between atoms: C_5  and  N_7 
REMARK    5  A    between atoms: C_13  and  N_15 
ROOT
HETATM    1  N   UNL     1     -42.714 -51.477  12.393  1.00  0.00     0.098 N 
HETATM    2  H   UNL     1     -42.585 -51.869  11.457  1.00  0.00     0.317 HD
ENDROOT
BRANCH   1   3
HETATM    3  C   UNL     1     -41.922 -50.239  12.570  1.00  0.00     0.241 C 
HETATM    4  C   UNL     1     -42.853 -49.061  12.900  1.00  0.00     0.045 C 
BRANCH   3   5
HETATM    5  C   UNL     1     -40.940 -49.921  11.388  1.00  0.00     0.136 C 
HETATM    6  C   UNL     1     -41.081 -48.488  10.863  1.00  0.00     0.036 C 
BRANCH   5   7
HETATM    7  N   UNL     1     -39.529 -50.177  11.694  1.00  0.00    -0.297 N 
HETATM    8  C   UNL     1     -38.987 -50.722  12.829  1.00  0.00     0.112 A 
HETATM    9  C   UNL     1     -37.623 -50.681  12.667  1.00  0.00     0.037 A 
HETATM   10  C   UNL     1     -37.431 -50.071  11.416  1.00  0.00     0.108 A 
HETATM   11  N   UNL     1     -38.583 -49.756  10.821  1.00  0.00    -0.310 N 
ATOM     12  HN  UNL     1     -38.719 -49.304   9.916  1.00  0.00     0.186 HD
ENDBRANCH   5   7
ENDBRANCH   3   5
ENDBRANCH   1   3
BRANCH   1  13
HETATM   13  C   UNL     1     -42.401 -52.520  13.385  1.00  0.00     0.372 C 
BRANCH  13  14
HETATM   14  C   UNL     1     -43.366 -52.473  14.573  1.00  0.00     0.256 C 
HETATM   15  O   UNL     1     -43.311 -51.607  15.449  1.00  0.00    -0.271 OA
HETATM   16  N   UNL     1     -44.373 -53.429  14.543  1.00  0.00    -0.267 N 
HETATM   17  C   UNL     1     -45.285 -53.603  15.653  1.00  0.00     0.156 A 
HETATM   18  C   UNL     1     -44.855 -54.108  13.412  1.00  0.00     0.325 A 
HETATM   19  C   UNL     1     -46.433 -54.429  15.096  1.00  0.00     0.145 A 
HETATM   20  N   UNL     1     -46.029 -54.748  13.760  1.00  0.00    -0.341 N 
HETATM   21  H   UNL     1     -46.578 -55.224  13.055  1.00  0.00     0.164 HD
HETATM   22  O   UNL     1     -44.376 -54.154  12.292  1.00  0.00    -0.247 OA
ENDBRANCH  13  14
ENDBRANCH   1  13
TORSDOF 5
ENDMDL
MODEL 5
REMARK VINA RESULT:      -5.4      3.408      6.365
REMARK  5 active torsions:
REMARK  status: ('A' for Active; 'I' for Inactive)
REMARK    1  A    between atoms: C_2  and  N_3 
REMARK    2  A    between atoms: C_2  and  C_13 
REMARK    3  A    between atoms: N_3  and  C_4 
REMARK    4  A    between atoms: C_4  and  C_5 
REMARK       I    between atoms: C_5  and  N_7 
REMARK    5  A    between atoms: C_13  and  N_15 
ROOT
HETATM    1  N   UNL     1     -42.391 -51.398  12.151  1.00  0.00     0.098 N 
HETATM    2  H   UNL     1     -42.963 -51.535  11.314  1.00  0.00     0.317 HD
ENDROOT
BRANCH   1   3
HETATM    3  C   UNL     1     -41.102 -50.751  11.820  1.00  0.00     0.241 C 
HETATM    4  C   UNL     1     -39.954 -51.455  12.563  1.00  0.00     0.045 C 
BRANCH   3   5
HETATM    5  C   UNL     1     -41.086 -49.194  12.019  1.00  0.00     0.136 C 
HETATM    6  C   UNL     1     -39.695 -48.580  11.821  1.00  0.00     0.036 C 
BRANCH   5   7
HETATM    7  N   UNL     1     -42.046 -48.472  11.179  1.00  0.00    -0.297 N 
HETATM    8  C   UNL     1     -43.278 -47.978  11.522  1.00  0.00     0.112 A 
HETATM    9  C   UNL     1     -43.821 -47.456  10.372  1.00  0.00     0.037 A 
HETATM   10  C   UNL     1     -42.858 -47.702   9.379  1.00  0.00     0.108 A 
HETATM   11  N   UNL     1     -41.779 -48.324   9.859  1.00  0.00    -0.310 N 
ATOM     12  HN  UNL     1     -40.946 -48.619   9.349  1.00  0.00     0.186 HD
ENDBRANCH   5   7
ENDBRANCH   3   5
ENDBRANCH   1   3
BRANCH   1  13
HETATM   13  C   UNL     1     -42.238 -52.696  12.831  1.00  0.00     0.372 C 
BRANCH  13  14
HETATM   14  C   UNL     1     -42.891 -52.685  14.216  1.00  0.00     0.256 C 
HETATM   15  O   UNL     1     -42.467 -52.004  15.152  1.00  0.00    -0.271 OA
HETATM   16  N   UNL     1     -44.058 -53.432  14.315  1.00  0.00    -0.267 N 
HETATM   17  C   UNL     1     -44.723 -53.630  15.585  1.00  0.00     0.156 A 
HETATM   18  C   UNL     1     -44.905 -53.812  13.262  1.00  0.00     0.325 A 
HETATM   19  C   UNL     1     -46.112 -54.136  15.228  1.00  0.00     0.145 A 
HETATM   20  N   UNL     1     -46.083 -54.288  13.805  1.00  0.00    -0.341 N 
HETATM   21  H   UNL     1     -46.859 -54.533  13.203  1.00  0.00     0.164 HD
HETATM   22  O   UNL     1     -44.701 -53.750  12.062  1.00  0.00    -0.247 OA
ENDBRANCH  13  14
ENDBRANCH   1  13
TORSDOF 5
ENDMDL
MODEL 6
REMARK VINA RESULT:      -5.3      2.559      5.839
REMARK  5 active torsions:
REMARK  status: ('A' for Active; 'I' for Inactive)
REMARK    1  A    between atoms: C_2  and  N_3 
REMARK    2  A    between atoms: C_2  and  C_13 
REMARK    3  A    between atoms: N_3  and  C_4 
REMARK    4  A    between atoms: C_4  and  C_5 
REMARK       I    between atoms: C_5  and  N_7 
REMARK    5  A    between atoms: C_13  and  N_15 
ROOT
HETATM    1  N   UNL     1     -42.019 -49.850  11.415  1.00  0.00     0.098 N 
HETATM    2  H   UNL     1     -42.127 -50.460  10.601  1.00  0.00     0.317 HD
ENDROOT
BRANCH   1   3
HETATM    3  C   UNL     1     -41.168 -48.681  11.101  1.00  0.00     0.241 C 
HETATM    4  C   UNL     1     -40.075 -48.523  12.170  1.00  0.00     0.045 C 
BRANCH   3   5
HETATM    5  C   UNL     1     -41.960 -47.350  10.844  1.00  0.00     0.136 C 
HETATM    6  C   UNL     1     -41.048 -46.166  10.506  1.00  0.00     0.036 C 
BRANCH   5   7
HETATM    7  N   UNL     1     -42.997 -47.459   9.813  1.00  0.00    -0.297 N 
HETATM    8  C   UNL     1     -44.351 -47.292   9.944  1.00  0.00     0.112 A 
HETATM    9  C   UNL     1     -44.898 -47.574   8.714  1.00  0.00     0.037 A 
HETATM   10  C   UNL     1     -43.802 -47.926   7.909  1.00  0.00     0.108 A 
HETATM   11  N   UNL     1     -42.644 -47.864   8.570  1.00  0.00    -0.310 N 
ATOM     12  HN  UNL     1     -41.709 -48.074   8.219  1.00  0.00     0.186 HD
ENDBRANCH   5   7
ENDBRANCH   3   5
ENDBRANCH   1   3
BRANCH   1  13
HETATM   13  C   UNL     1     -41.515 -50.656  12.540  1.00  0.00     0.372 C 
BRANCH  13  14
HETATM   14  C   UNL     1     -41.961 -52.117  12.429  1.00  0.00     0.256 C 
HETATM   15  O   UNL     1     -41.178 -53.041  12.195  1.00  0.00    -0.271 OA
HETATM   16  N   UNL     1     -43.304 -52.338  12.704  1.00  0.00    -0.267 N 
HETATM   17  C   UNL     1     -43.910 -53.640  12.516  1.00  0.00     0.156 A 
HETATM   18  C   UNL     1     -44.155 -51.514  13.455  1.00  0.00     0.325 A 
HETATM   19  C   UNL     1     -45.227 -53.575  13.272  1.00  0.00     0.145 A 
HETATM   20  N   UNL     1     -45.310 -52.220  13.729  1.00  0.00    -0.341 N 
HETATM   21  H   UNL     1     -46.018 -51.826  14.337  1.00  0.00     0.164 HD
HETATM   22  O   UNL     1     -43.964 -50.373  13.840  1.00  0.00    -0.247 OA
ENDBRANCH  13  14
ENDBRANCH   1  13
TORSDOF 5
ENDMDL
MODEL 7
REMARK VINA RESULT:      -5.3      2.504      6.228
REMARK  5 active torsions:
REMARK  status: ('A' for Active; 'I' for Inactive)
REMARK    1  A    between atoms: C_2  and  N_3 
REMARK    2  A    between atoms: C_2  and  C_13 
REMARK    3  A    between atoms: N_3  and  C_4 
REMARK    4  A    between atoms: C_4  and  C_5 
REMARK       I    between atoms: C_5  and  N_7 
REMARK    5  A    between atoms: C_13  and  N_15 
ROOT
HETATM    1  N   UNL     1     -41.873 -49.920  11.604  1.00  0.00     0.098 N 
HETATM    2  H   UNL     1     -41.730 -50.793  11.090  1.00  0.00     0.317 HD
ENDROOT
BRANCH   1   3
HETATM    3  C   UNL     1     -41.152 -48.796  10.966  1.00  0.00     0.241 C 
HETATM    4  C   UNL     1     -39.807 -48.564  11.673  1.00  0.00     0.045 C 
BRANCH   3   5
HETATM    5  C   UNL     1     -41.996 -47.480  10.825  1.00  0.00     0.136 C 
HETATM    6  C   UNL     1     -41.131 -46.238  10.579  1.00  0.00     0.036 C 
BRANCH   5   7
HETATM    7  N   UNL     1     -43.038 -47.542   9.795  1.00  0.00    -0.297 N 
HETATM    8  C   UNL     1     -44.389 -47.364   9.937  1.00  0.00     0.112 A 
HETATM    9  C   UNL     1     -44.944 -47.600   8.701  1.00  0.00     0.037 A 
HETATM   10  C   UNL     1     -43.855 -47.937   7.880  1.00  0.00     0.108 A 
HETATM   11  N   UNL     1     -42.694 -47.911   8.538  1.00  0.00    -0.310 N 
ATOM     12  HN  UNL     1     -41.763 -48.120   8.177  1.00  0.00     0.186 HD
ENDBRANCH   5   7
ENDBRANCH   3   5
ENDBRANCH   1   3
BRANCH   1  13
HETATM   13  C   UNL     1     -41.491 -50.138  13.010  1.00  0.00     0.372 C 
BRANCH  13  14
HETATM   14  C   UNL     1     -42.521 -51.000  13.745  1.00  0.00     0.256 C 
HETATM   15  O   UNL     1     -43.641 -50.588  14.058  1.00  0.00    -0.271 OA
HETATM   16  N   UNL     1     -42.135 -52.318  13.953  1.00  0.00    -0.267 N 
HETATM   17  C   UNL     1     -42.938 -53.225  14.746  1.00  0.00     0.156 A 
HETATM   18  C   UNL     1     -41.167 -53.034  13.232  1.00  0.00     0.325 A 
HETATM   19  C   UNL     1     -42.408 -54.611  14.417  1.00  0.00     0.145 A 
HETATM   20  N   UNL     1     -41.287 -54.371  13.558  1.00  0.00    -0.341 N 
HETATM   21  H   UNL     1     -40.731 -55.066  13.075  1.00  0.00     0.164 HD
HETATM   22  O   UNL     1     -40.345 -52.613  12.437  1.00  0.00    -0.247 OA
ENDBRANCH  13  14
ENDBRANCH   1  13
TORSDOF 5
ENDMDL
MODEL 8
REMARK VINA RESULT:      -5.2      4.709      6.285
REMARK  5 active torsions:
REMARK  status: ('A' for Active; 'I' for Inactive)
REMARK    1  A    between atoms: C_2  and  N_3 
REMARK    2  A    between atoms: C_2  and  C_13 
REMARK    3  A    between atoms: N_3  and  C_4 
REMARK    4  A    between atoms: C_4  and  C_5 
REMARK       I    between atoms: C_5  and  N_7 
REMARK    5  A    between atoms: C_13  and  N_15 
ROOT
HETATM    1  N   UNL     1     -43.084 -52.943  11.912  1.00  0.00     0.098 N 
HETATM    2  H   UNL     1     -42.544 -53.592  11.335  1.00  0.00     0.317 HD
ENDROOT
BRANCH   1   3
HETATM    3  C   UNL     1     -42.209 -52.196  12.844  1.00  0.00     0.241 C 
HETATM    4  C   UNL     1     -42.382 -50.683  12.629  1.00  0.00     0.045 C 
BRANCH   3   5
HETATM    5  C   UNL     1     -40.705 -52.642  12.821  1.00  0.00     0.136 C 
HETATM    6  C   UNL     1     -39.730 -51.459  12.799  1.00  0.00     0.036 C 
BRANCH   5   7
HETATM    7  N   UNL     1     -40.330 -53.543  13.915  1.00  0.00    -0.297 N 
HETATM    8  C   UNL     1     -39.196 -54.302  14.046  1.00  0.00     0.112 A 
HETATM    9  C   UNL     1     -39.347 -55.032  15.201  1.00  0.00     0.037 A 
HETATM   10  C   UNL     1     -40.614 -54.669  15.689  1.00  0.00     0.108 A 
HETATM   11  N   UNL     1     -41.220 -53.770  14.911  1.00  0.00    -0.310 N 
ATOM     12  HN  UNL     1     -42.141 -53.350  15.038  1.00  0.00     0.186 HD
ENDBRANCH   5   7
ENDBRANCH   3   5
ENDBRANCH   1   3
BRANCH   1  13
HETATM   13  C   UNL     1     -44.152 -53.698  12.591  1.00  0.00     0.372 C 
BRANCH  13  14
HETATM   14  C   UNL     1     -45.423 -52.858  12.745  1.00  0.00     0.256 C 
HETATM   15  O   UNL     1     -46.237 -52.699  11.831  1.00  0.00    -0.271 OA
HETATM   16  N   UNL     1     -45.641 -52.360  14.022  1.00  0.00    -0.267 N 
HETATM   17  C   UNL     1     -46.725 -51.441  14.302  1.00  0.00     0.156 A 
HETATM   18  C   UNL     1     -45.113 -52.863  15.222  1.00  0.00     0.325 A 
HETATM   19  C   UNL     1     -46.866 -51.447  15.816  1.00  0.00     0.145 A 
HETATM   20  N   UNL     1     -45.790 -52.274  16.273  1.00  0.00    -0.341 N 
HETATM   21  H   UNL     1     -45.613 -52.571  17.224  1.00  0.00     0.164 HD
HETATM   22  O   UNL     1     -44.225 -53.682  15.377  1.00  0.00    -0.247 OA
ENDBRANCH  13  14
ENDBRANCH   1  13
TORSDOF 5
ENDMDL
MODEL 9
REMARK VINA RESULT:      -5.2      3.832      5.974
REMARK  5 active torsions:
REMARK  status: ('A' for Active; 'I' for Inactive)
REMARK    1  A    between atoms: C_2  and  N_3 
REMARK    2  A    between atoms: C_2  and  C_13 
REMARK    3  A    between atoms: N_3  and  C_4 
REMARK    4  A    between atoms: C_4  and  C_5 
REMARK       I    between atoms: C_5  and  N_7 
REMARK    5  A    between atoms: C_13  and  N_15 
ROOT
HETATM    1  N   UNL     1     -43.178 -46.335  11.714  1.00  0.00     0.098 N 
HETATM    2  H   UNL     1     -43.059 -46.836  12.597  1.00  0.00     0.317 HD
ENDROOT
BRANCH   1   3
HETATM    3  C   UNL     1     -43.343 -47.274  10.581  1.00  0.00     0.241 C 
HETATM    4  C   UNL     1     -41.993 -47.925  10.237  1.00  0.00     0.045 C 
BRANCH   3   5
HETATM    5  C   UNL     1     -44.055 -46.659   9.325  1.00  0.00     0.136 C 
HETATM    6  C   UNL     1     -43.131 -46.550   8.107  1.00  0.00     0.036 C 
BRANCH   5   7
HETATM    7  N   UNL     1     -45.282 -47.357   8.929  1.00  0.00    -0.297 N 
HETATM    8  C   UNL     1     -46.552 -47.197   9.419  1.00  0.00     0.112 A 
HETATM    9  C   UNL     1     -47.334 -48.132   8.783  1.00  0.00     0.037 A 
HETATM   10  C   UNL     1     -46.448 -48.829   7.945  1.00  0.00     0.108 A 
HETATM   11  N   UNL     1     -45.198 -48.369   8.032  1.00  0.00    -0.310 N 
ATOM     12  HN  UNL     1     -44.371 -48.703   7.537  1.00  0.00     0.186 HD
ENDBRANCH   5   7
ENDBRANCH   3   5
ENDBRANCH   1   3
BRANCH   1  13
HETATM   13  C   UNL     1     -42.046 -45.407  11.545  1.00  0.00     0.372 C 
BRANCH  13  14
HETATM   14  C   UNL     1     -42.015 -44.352  12.655  1.00  0.00     0.256 C 
HETATM   15  O   UNL     1     -41.281 -44.440  13.643  1.00  0.00    -0.271 OA
HETATM   16  N   UNL     1     -42.808 -43.237  12.422  1.00  0.00    -0.267 N 
HETATM   17  C   UNL     1     -42.990 -42.214  13.430  1.00  0.00     0.156 A 
HETATM   18  C   UNL     1     -43.265 -42.775  11.178  1.00  0.00     0.325 A 
HETATM   19  C   UNL     1     -43.571 -41.024  12.683  1.00  0.00     0.145 A 
HETATM   20  N   UNL     1     -43.772 -41.502  11.348  1.00  0.00    -0.341 N 
HETATM   21  H   UNL     1     -44.074 -40.961  10.548  1.00  0.00     0.164 HD
HETATM   22  O   UNL     1     -43.236 -43.343  10.099  1.00  0.00    -0.247 OA
ENDBRANCH  13  14
ENDBRANCH   1  13
TORSDOF 5
ENDMDL
