MODEL 1
REMARK VINA RESULT:      -5.5      0.000      0.000
REMARK  7 active torsions:
REMARK  status: ('A' for Active; 'I' for Inactive)
REMARK    1  A    between atoms: C_2  and  N_3 
REMARK       I    between atoms: N_3  and  C_4 
REMARK    2  A    between atoms: C_4  and  C_6 
REMARK    3  A    between atoms: C_6  and  C_7 
REMARK    4  A    between atoms: C_7  and  N_8 
REMARK    5  A    between atoms: N_8  and  C_9 
REMARK    6  A    between atoms: C_9  and  C_11 
REMARK    7  A    between atoms: C_11  and  N_12 
ROOT
HETATM    1  N   UNL     1     -40.059 -49.353  10.801  1.00  0.00     0.089 N 
HETATM    2  H   UNL     1     -40.112 -50.373  10.743  1.00  0.00     0.316 HD
ENDROOT
BRANCH   1   3
HETATM    3  C   UNL     1     -39.042 -49.013  11.811  1.00  0.00     0.279 C 
BRANCH   3   4
HETATM    4  C   UNL     1     -37.707 -49.720  11.568  1.00  0.00     0.132 C 
BRANCH   4   5
HETATM    5  C   UNL     1     -37.639 -50.961  12.439  1.00  0.00     0.219 C 
HETATM    6  N   UNL     1     -38.603 -51.008  13.423  1.00  0.00    -0.361 N 
HETATM    7  H   UNL     1     -39.340 -50.317  13.434  1.00  0.00     0.162 HD
HETATM    8  O   UNL     1     -36.795 -51.844  12.298  1.00  0.00    -0.274 OA
BRANCH   6   9
HETATM    9  C   UNL     1     -38.686 -52.134  14.333  1.00  0.00     0.118 C 
HETATM   10  C   UNL     1     -39.727 -53.146  13.888  1.00  0.00     0.026 C 
ENDBRANCH   6   9
ENDBRANCH   4   5
ENDBRANCH   3   4
ENDBRANCH   1   3
BRANCH   1  11
HETATM   11  C   UNL     1     -41.405 -48.862  11.207  1.00  0.00     0.236 C 
HETATM   12  C   UNL     1     -41.493 -48.638  12.724  1.00  0.00     0.044 C 
BRANCH  11  13
HETATM   13  C   UNL     1     -41.764 -47.529  10.511  1.00  0.00     0.183 C 
BRANCH  13  14
HETATM   14  N   UNL     1     -42.975 -47.580   9.716  1.00  0.00    -0.301 N 
HETATM   15  C   UNL     1     -44.250 -47.374  10.159  1.00  0.00     0.118 A 
HETATM   16  C   UNL     1     -45.076 -47.543   9.067  1.00  0.00    -0.028 A 
HETATM   17  C   UNL     1     -46.548 -47.424   9.001  1.00  0.00     0.051 C 
HETATM   18  C   UNL     1     -44.188 -47.863   8.016  1.00  0.00     0.115 A 
HETATM   19  N   UNL     1     -42.913 -47.893   8.408  1.00  0.00    -0.310 N 
ATOM     20  HN  UNL     1     -42.086 -48.103   7.849  1.00  0.00     0.186 HD
ENDBRANCH  13  14
ENDBRANCH  11  13
ENDBRANCH   1  11
TORSDOF 7
ENDMDL
MODEL 2
REMARK VINA RESULT:      -5.3      3.098      6.576
REMARK  7 active torsions:
REMARK  status: ('A' for Active; 'I' for Inactive)
REMARK    1  A    between atoms: C_2  and  N_3 
REMARK       I    between atoms: N_3  and  C_4 
REMARK    2  A    between atoms: C_4  and  C_6 
REMARK    3  A    between atoms: C_6  and  C_7 
REMARK    4  A    between atoms: C_7  and  N_8 
REMARK    5  A    between atoms: N_8  and  C_9 
REMARK    6  A    between atoms: C_9  and  C_11 
REMARK    7  A    between atoms: C_11  and  N_12 
ROOT
HETATM    1  N   UNL     1     -41.257 -47.390  10.308  1.00  0.00     0.089 N 
HETATM    2  H   UNL     1     -40.471 -47.168   9.691  1.00  0.00     0.316 HD
ENDROOT
BRANCH   1   3
HETATM    3  C   UNL     1     -41.530 -46.201  11.134  1.00  0.00     0.279 C 
BRANCH   3   4
HETATM    4  C   UNL     1     -42.605 -45.296  10.531  1.00  0.00     0.132 C 
BRANCH   4   5
HETATM    5  C   UNL     1     -43.369 -46.070   9.473  1.00  0.00     0.219 C 
HETATM    6  N   UNL     1     -44.446 -46.775   9.965  1.00  0.00    -0.361 N 
HETATM    7  H   UNL     1     -44.730 -46.648  10.927  1.00  0.00     0.162 HD
HETATM    8  O   UNL     1     -43.056 -46.086   8.285  1.00  0.00    -0.274 OA
BRANCH   6   9
HETATM    9  C   UNL     1     -45.291 -47.557   9.084  1.00  0.00     0.118 C 
HETATM   10  C   UNL     1     -46.739 -47.102   9.136  1.00  0.00     0.026 C 
ENDBRANCH   6   9
ENDBRANCH   4   5
ENDBRANCH   3   4
ENDBRANCH   1   3
BRANCH   1  11
HETATM   11  C   UNL     1     -40.845 -48.547  11.150  1.00  0.00     0.236 C 
HETATM   12  C   UNL     1     -39.838 -48.131  12.233  1.00  0.00     0.044 C 
BRANCH  11  13
HETATM   13  C   UNL     1     -42.054 -49.203  11.857  1.00  0.00     0.183 C 
BRANCH  13  14
HETATM   14  N   UNL     1     -41.907 -50.626  12.091  1.00  0.00    -0.301 N 
HETATM   15  C   UNL     1     -42.531 -51.362  13.057  1.00  0.00     0.118 A 
HETATM   16  C   UNL     1     -42.076 -52.656  12.918  1.00  0.00    -0.028 A 
HETATM   17  C   UNL     1     -42.444 -53.849  13.709  1.00  0.00     0.051 C 
HETATM   18  C   UNL     1     -41.167 -52.583  11.839  1.00  0.00     0.115 A 
HETATM   19  N   UNL     1     -41.057 -51.350  11.339  1.00  0.00    -0.310 N 
ATOM     20  HN  UNL     1     -40.467 -51.032  10.570  1.00  0.00     0.186 HD
ENDBRANCH  13  14
ENDBRANCH  11  13
ENDBRANCH   1  11
TORSDOF 7
ENDMDL
MODEL 3
REMARK VINA RESULT:      -5.3      3.231      3.916
REMARK  7 active torsions:
REMARK  status: ('A' for Active; 'I' for Inactive)
REMARK    1  A    between atoms: C_2  and  N_3 
REMARK       I    between atoms: N_3  and  C_4 
REMARK    2  A    between atoms: C_4  and  C_6 
REMARK    3  A    between atoms: C_6  and  C_7 
REMARK    4  A    between atoms: C_7  and  N_8 
REMARK    5  A    between atoms: N_8  and  C_9 
REMARK    6  A    between atoms: C_9  and  C_11 
REMARK    7  A    between atoms: C_11  and  N_12 
ROOT
HETATM    1  N   UNL     1     -41.987 -50.189  11.729  1.00  0.00     0.089 N 
HETATM    2  H   UNL     1     -42.965 -50.435  11.907  1.00  0.00     0.316 HD
ENDROOT
BRANCH   1   3
HETATM    3  C   UNL     1     -41.158 -50.900  12.719  1.00  0.00     0.279 C 
BRANCH   3   4
HETATM    4  C   UNL     1     -41.991 -51.587  13.802  1.00  0.00     0.132 C 
BRANCH   4   5
HETATM    5  C   UNL     1     -43.334 -51.984  13.218  1.00  0.00     0.219 C 
HETATM    6  N   UNL     1     -44.404 -51.312  13.769  1.00  0.00    -0.361 N 
HETATM    7  H   UNL     1     -44.238 -50.546  14.407  1.00  0.00     0.162 HD
HETATM    8  O   UNL     1     -43.469 -52.835  12.342  1.00  0.00    -0.274 OA
BRANCH   6   9
HETATM    9  C   UNL     1     -45.757 -51.562  13.313  1.00  0.00     0.118 C 
HETATM   10  C   UNL     1     -46.770 -51.414  14.434  1.00  0.00     0.026 C 
ENDBRANCH   6   9
ENDBRANCH   4   5
ENDBRANCH   3   4
ENDBRANCH   1   3
BRANCH   1  11
HETATM   11  C   UNL     1     -41.867 -48.713  11.889  1.00  0.00     0.236 C 
HETATM   12  C   UNL     1     -40.699 -48.334  12.812  1.00  0.00     0.044 C 
BRANCH  11  13
HETATM   13  C   UNL     1     -41.645 -48.005  10.532  1.00  0.00     0.183 C 
BRANCH  13  14
HETATM   14  N   UNL     1     -42.854 -47.807   9.758  1.00  0.00    -0.301 N 
HETATM   15  C   UNL     1     -44.091 -47.493  10.244  1.00  0.00     0.118 A 
HETATM   16  C   UNL     1     -44.934 -47.427   9.155  1.00  0.00    -0.028 A 
HETATM   17  C   UNL     1     -46.378 -47.114   9.129  1.00  0.00     0.051 C 
HETATM   18  C   UNL     1     -44.097 -47.732   8.058  1.00  0.00     0.115 A 
HETATM   19  N   UNL     1     -42.835 -47.971   8.422  1.00  0.00    -0.310 N 
ATOM     20  HN  UNL     1     -42.044 -48.218   7.828  1.00  0.00     0.186 HD
ENDBRANCH  13  14
ENDBRANCH  11  13
ENDBRANCH   1  11
TORSDOF 7
ENDMDL
MODEL 4
REMARK VINA RESULT:      -5.2      4.275      6.147
REMARK  7 active torsions:
REMARK  status: ('A' for Active; 'I' for Inactive)
REMARK    1  A    between atoms: C_2  and  N_3 
REMARK       I    between atoms: N_3  and  C_4 
REMARK    2  A    between atoms: C_4  and  C_6 
REMARK    3  A    between atoms: C_6  and  C_7 
REMARK    4  A    between atoms: C_7  and  N_8 
REMARK    5  A    between atoms: N_8  and  C_9 
REMARK    6  A    between atoms: C_9  and  C_11 
REMARK    7  A    between atoms: C_11  and  N_12 
ROOT
HETATM    1  N   UNL     1     -42.642 -51.030  12.169  1.00  0.00     0.089 N 
HETATM    2  H   UNL     1     -42.891 -50.799  11.203  1.00  0.00     0.316 HD
ENDROOT
BRANCH   1   3
HETATM    3  C   UNL     1     -41.527 -50.154  12.567  1.00  0.00     0.279 C 
BRANCH   3   4
HETATM    4  C   UNL     1     -41.029 -49.272  11.421  1.00  0.00     0.132 C 
BRANCH   4   5
HETATM    5  C   UNL     1     -42.189 -48.453  10.887  1.00  0.00     0.219 C 
HETATM    6  N   UNL     1     -42.074 -48.121   9.554  1.00  0.00    -0.361 N 
HETATM    7  H   UNL     1     -41.329 -48.522   9.002  1.00  0.00     0.162 HD
HETATM    8  O   UNL     1     -43.144 -48.099  11.575  1.00  0.00    -0.274 OA
BRANCH   6   9
HETATM    9  C   UNL     1     -43.105 -47.352   8.885  1.00  0.00     0.118 C 
HETATM   10  C   UNL     1     -43.498 -47.969   7.554  1.00  0.00     0.026 C 
ENDBRANCH   6   9
ENDBRANCH   4   5
ENDBRANCH   3   4
ENDBRANCH   1   3
BRANCH   1  11
HETATM   11  C   UNL     1     -42.235 -52.463  12.189  1.00  0.00     0.236 C 
HETATM   12  C   UNL     1     -41.174 -52.737  13.266  1.00  0.00     0.044 C 
BRANCH  11  13
HETATM   13  C   UNL     1     -43.436 -53.398  12.461  1.00  0.00     0.183 C 
BRANCH  13  14
HETATM   14  N   UNL     1     -44.628 -52.716  12.923  1.00  0.00    -0.301 N 
HETATM   15  C   UNL     1     -44.965 -52.451  14.219  1.00  0.00     0.118 A 
HETATM   16  C   UNL     1     -46.186 -51.810  14.183  1.00  0.00    -0.028 A 
HETATM   17  C   UNL     1     -46.990 -51.301  15.314  1.00  0.00     0.051 C 
HETATM   18  C   UNL     1     -46.500 -51.753  12.807  1.00  0.00     0.115 A 
HETATM   19  N   UNL     1     -45.560 -52.309  12.040  1.00  0.00    -0.310 N 
ATOM     20  HN  UNL     1     -45.549 -52.403  11.024  1.00  0.00     0.186 HD
ENDBRANCH  13  14
ENDBRANCH  11  13
ENDBRANCH   1  11
TORSDOF 7
ENDMDL
MODEL 5
REMARK VINA RESULT:      -5.2      4.155      6.528
REMARK  7 active torsions:
REMARK  status: ('A' for Active; 'I' for Inactive)
REMARK    1  A    between atoms: C_2  and  N_3 
REMARK       I    between atoms: N_3  and  C_4 
REMARK    2  A    between atoms: C_4  and  C_6 
REMARK    3  A    between atoms: C_6  and  C_7 
REMARK    4  A    between atoms: C_7  and  N_8 
REMARK    5  A    between atoms: N_8  and  C_9 
REMARK    6  A    between atoms: C_9  and  C_11 
REMARK    7  A    between atoms: C_11  and  N_12 
ROOT
HETATM    1  N   UNL     1     -41.791 -49.478  11.254  1.00  0.00     0.089 N 
HETATM    2  H   UNL     1     -40.826 -49.189  11.433  1.00  0.00     0.316 HD
ENDROOT
BRANCH   1   3
HETATM    3  C   UNL     1     -42.653 -48.295  11.426  1.00  0.00     0.279 C 
BRANCH   3   4
HETATM    4  C   UNL     1     -42.231 -47.123  10.538  1.00  0.00     0.132 C 
BRANCH   4   5
HETATM    5  C   UNL     1     -43.282 -46.911   9.464  1.00  0.00     0.219 C 
HETATM    6  N   UNL     1     -44.313 -47.824   9.503  1.00  0.00    -0.361 N 
HETATM    7  H   UNL     1     -44.378 -48.472  10.276  1.00  0.00     0.162 HD
HETATM    8  O   UNL     1     -43.222 -46.017   8.623  1.00  0.00    -0.274 OA
BRANCH   6   9
HETATM    9  C   UNL     1     -45.408 -47.753   8.555  1.00  0.00     0.118 C 
HETATM   10  C   UNL     1     -46.630 -47.076   9.150  1.00  0.00     0.026 C 
ENDBRANCH   6   9
ENDBRANCH   4   5
ENDBRANCH   3   4
ENDBRANCH   1   3
BRANCH   1  11
HETATM   11  C   UNL     1     -42.127 -50.535  12.248  1.00  0.00     0.236 C 
HETATM   12  C   UNL     1     -40.866 -51.225  12.792  1.00  0.00     0.044 C 
BRANCH  11  13
HETATM   13  C   UNL     1     -42.908 -49.963  13.454  1.00  0.00     0.183 C 
BRANCH  13  14
HETATM   14  N   UNL     1     -44.207 -50.570  13.664  1.00  0.00    -0.301 N 
HETATM   15  C   UNL     1     -44.841 -50.746  14.861  1.00  0.00     0.118 A 
HETATM   16  C   UNL     1     -46.033 -51.381  14.583  1.00  0.00    -0.028 A 
HETATM   17  C   UNL     1     -47.095 -51.795  15.524  1.00  0.00     0.051 C 
HETATM   18  C   UNL     1     -46.009 -51.552  13.180  1.00  0.00     0.115 A 
HETATM   19  N   UNL     1     -44.898 -51.068  12.621  1.00  0.00    -0.310 N 
ATOM     20  HN  UNL     1     -44.635 -51.073  11.635  1.00  0.00     0.186 HD
ENDBRANCH  13  14
ENDBRANCH  11  13
ENDBRANCH   1  11
TORSDOF 7
ENDMDL
MODEL 6
REMARK VINA RESULT:      -5.2      1.522      2.216
REMARK  7 active torsions:
REMARK  status: ('A' for Active; 'I' for Inactive)
REMARK    1  A    between atoms: C_2  and  N_3 
REMARK       I    between atoms: N_3  and  C_4 
REMARK    2  A    between atoms: C_4  and  C_6 
REMARK    3  A    between atoms: C_6  and  C_7 
REMARK    4  A    between atoms: C_7  and  N_8 
REMARK    5  A    between atoms: N_8  and  C_9 
REMARK    6  A    between atoms: C_9  and  C_11 
REMARK    7  A    between atoms: C_11  and  N_12 
ROOT
HETATM    1  N   UNL     1     -41.928 -49.774  11.401  1.00  0.00     0.089 N 
HETATM    2  H   UNL     1     -42.770 -49.812  10.820  1.00  0.00     0.316 HD
ENDROOT
BRANCH   1   3
HETATM    3  C   UNL     1     -42.205 -50.521  12.641  1.00  0.00     0.279 C 
BRANCH   3   4
HETATM    4  C   UNL     1     -42.086 -52.035  12.457  1.00  0.00     0.132 C 
BRANCH   4   5
HETATM    5  C   UNL     1     -40.675 -52.467  12.812  1.00  0.00     0.219 C 
HETATM    6  N   UNL     1     -39.938 -51.497  13.456  1.00  0.00    -0.361 N 
HETATM    7  H   UNL     1     -40.387 -50.642  13.753  1.00  0.00     0.162 HD
HETATM    8  O   UNL     1     -40.217 -53.575  12.543  1.00  0.00    -0.274 OA
BRANCH   6   9
HETATM    9  C   UNL     1     -38.574 -51.753  13.878  1.00  0.00     0.118 C 
HETATM   10  C   UNL     1     -37.565 -51.032  13.002  1.00  0.00     0.026 C 
ENDBRANCH   6   9
ENDBRANCH   4   5
ENDBRANCH   3   4
ENDBRANCH   1   3
BRANCH   1  11
HETATM   11  C   UNL     1     -41.654 -48.338  11.689  1.00  0.00     0.236 C 
HETATM   12  C   UNL     1     -40.292 -48.145  12.371  1.00  0.00     0.044 C 
BRANCH  11  13
HETATM   13  C   UNL     1     -41.662 -47.483  10.400  1.00  0.00     0.183 C 
BRANCH  13  14
HETATM   14  N   UNL     1     -42.901 -47.548   9.650  1.00  0.00    -0.301 N 
HETATM   15  C   UNL     1     -44.155 -47.290  10.124  1.00  0.00     0.118 A 
HETATM   16  C   UNL     1     -45.022 -47.497   9.071  1.00  0.00    -0.028 A 
HETATM   17  C   UNL     1     -46.492 -47.348   9.048  1.00  0.00     0.051 C 
HETATM   18  C   UNL     1     -44.177 -47.892   8.009  1.00  0.00     0.115 A 
HETATM   19  N   UNL     1     -42.890 -47.930   8.359  1.00  0.00    -0.310 N 
ATOM     20  HN  UNL     1     -42.087 -48.188   7.784  1.00  0.00     0.186 HD
ENDBRANCH  13  14
ENDBRANCH  11  13
ENDBRANCH   1  11
TORSDOF 7
ENDMDL
MODEL 7
REMARK VINA RESULT:      -5.2      3.301      6.824
REMARK  7 active torsions:
REMARK  status: ('A' for Active; 'I' for Inactive)
REMARK    1  A    between atoms: C_2  and  N_3 
REMARK       I    between atoms: N_3  and  C_4 
REMARK    2  A    between atoms: C_4  and  C_6 
REMARK    3  A    between atoms: C_6  and  C_7 
REMARK    4  A    between atoms: C_7  and  N_8 
REMARK    5  A    between atoms: N_8  and  C_9 
REMARK    6  A    between atoms: C_9  and  C_11 
REMARK    7  A    between atoms: C_11  and  N_12 
ROOT
HETATM    1  N   UNL     1     -42.535 -49.780  11.687  1.00  0.00     0.089 N 
HETATM    2  H   UNL     1     -42.392 -49.473  10.722  1.00  0.00     0.316 HD
ENDROOT
BRANCH   1   3
HETATM    3  C   UNL     1     -43.021 -48.623  12.460  1.00  0.00     0.279 C 
BRANCH   3   4
HETATM    4  C   UNL     1     -42.883 -47.304  11.697  1.00  0.00     0.132 C 
BRANCH   4   5
HETATM    5  C   UNL     1     -43.434 -47.483  10.295  1.00  0.00     0.219 C 
HETATM    6  N   UNL     1     -44.777 -47.195  10.180  1.00  0.00    -0.361 N 
HETATM    7  H   UNL     1     -45.269 -46.783  10.961  1.00  0.00     0.162 HD
HETATM    8  O   UNL     1     -42.756 -47.863   9.342  1.00  0.00    -0.274 OA
BRANCH   6   9
HETATM    9  C   UNL     1     -45.456 -47.300   8.904  1.00  0.00     0.118 C 
HETATM   10  C   UNL     1     -46.567 -48.335   8.937  1.00  0.00     0.026 C 
ENDBRANCH   6   9
ENDBRANCH   4   5
ENDBRANCH   3   4
ENDBRANCH   1   3
BRANCH   1  11
HETATM   11  C   UNL     1     -41.220 -50.255  12.200  1.00  0.00     0.236 C 
HETATM   12  C   UNL     1     -41.092 -50.045  13.716  1.00  0.00     0.044 C 
BRANCH  11  13
HETATM   13  C   UNL     1     -41.000 -51.758  11.911  1.00  0.00     0.183 C 
BRANCH  13  14
HETATM   14  N   UNL     1     -42.032 -52.624  12.445  1.00  0.00    -0.301 N 
HETATM   15  C   UNL     1     -41.959 -53.374  13.584  1.00  0.00     0.118 A 
HETATM   16  C   UNL     1     -43.157 -54.051  13.684  1.00  0.00    -0.028 A 
HETATM   17  C   UNL     1     -43.596 -54.990  14.737  1.00  0.00     0.051 C 
HETATM   18  C   UNL     1     -43.876 -53.641  12.538  1.00  0.00     0.115 A 
HETATM   19  N   UNL     1     -43.193 -52.781  11.780  1.00  0.00    -0.310 N 
ATOM     20  HN  UNL     1     -43.482 -52.345  10.904  1.00  0.00     0.186 HD
ENDBRANCH  13  14
ENDBRANCH  11  13
ENDBRANCH   1  11
TORSDOF 7
ENDMDL
MODEL 8
REMARK VINA RESULT:      -5.0      4.006      5.740
REMARK  7 active torsions:
REMARK  status: ('A' for Active; 'I' for Inactive)
REMARK    1  A    between atoms: C_2  and  N_3 
REMARK       I    between atoms: N_3  and  C_4 
REMARK    2  A    between atoms: C_4  and  C_6 
REMARK    3  A    between atoms: C_6  and  C_7 
REMARK    4  A    between atoms: C_7  and  N_8 
REMARK    5  A    between atoms: N_8  and  C_9 
REMARK    6  A    between atoms: C_9  and  C_11 
REMARK    7  A    between atoms: C_11  and  N_12 
ROOT
HETATM    1  N   UNL     1     -41.667 -50.693  11.527  1.00  0.00     0.089 N 
HETATM    2  H   UNL     1     -42.066 -50.969  10.625  1.00  0.00     0.316 HD
ENDROOT
BRANCH   1   3
HETATM    3  C   UNL     1     -42.530 -51.244  12.586  1.00  0.00     0.279 C 
BRANCH   3   4
HETATM    4  C   UNL     1     -42.778 -52.745  12.426  1.00  0.00     0.132 C 
BRANCH   4   5
HETATM    5  C   UNL     1     -44.270 -53.011  12.504  1.00  0.00     0.219 C 
HETATM    6  N   UNL     1     -45.037 -51.872  12.623  1.00  0.00    -0.361 N 
HETATM    7  H   UNL     1     -44.602 -50.964  12.530  1.00  0.00     0.162 HD
HETATM    8  O   UNL     1     -44.761 -54.138  12.480  1.00  0.00    -0.274 OA
BRANCH   6   9
HETATM    9  C   UNL     1     -46.483 -51.950  12.695  1.00  0.00     0.118 C 
HETATM   10  C   UNL     1     -47.130 -51.744  11.337  1.00  0.00     0.026 C 
ENDBRANCH   6   9
ENDBRANCH   4   5
ENDBRANCH   3   4
ENDBRANCH   1   3
BRANCH   1  11
HETATM   11  C   UNL     1     -41.651 -49.204  11.566  1.00  0.00     0.236 C 
HETATM   12  C   UNL     1     -42.782 -48.647  12.445  1.00  0.00     0.044 C 
BRANCH  11  13
HETATM   13  C   UNL     1     -40.313 -48.659  12.117  1.00  0.00     0.183 C 
BRANCH  13  14
HETATM   14  N   UNL     1     -40.095 -47.249  11.863  1.00  0.00    -0.301 N 
HETATM   15  C   UNL     1     -39.798 -46.290  12.788  1.00  0.00     0.118 A 
HETATM   16  C   UNL     1     -39.702 -45.098  12.100  1.00  0.00    -0.028 A 
HETATM   17  C   UNL     1     -39.391 -43.754  12.630  1.00  0.00     0.051 C 
HETATM   18  C   UNL     1     -39.973 -45.456  10.760  1.00  0.00     0.115 A 
HETATM   19  N   UNL     1     -40.220 -46.760  10.614  1.00  0.00    -0.310 N 
ATOM     20  HN  UNL     1     -40.449 -47.266   9.758  1.00  0.00     0.186 HD
ENDBRANCH  13  14
ENDBRANCH  11  13
ENDBRANCH   1  11
TORSDOF 7
ENDMDL
MODEL 9
REMARK VINA RESULT:      -5.0      4.073      5.509
REMARK  7 active torsions:
REMARK  status: ('A' for Active; 'I' for Inactive)
REMARK    1  A    between atoms: C_2  and  N_3 
REMARK       I    between atoms: N_3  and  C_4 
REMARK    2  A    between atoms: C_4  and  C_6 
REMARK    3  A    between atoms: C_6  and  C_7 
REMARK    4  A    between atoms: C_7  and  N_8 
REMARK    5  A    between atoms: N_8  and  C_9 
REMARK    6  A    between atoms: C_9  and  C_11 
REMARK    7  A    between atoms: C_11  and  N_12 
ROOT
HETATM    1  N   UNL     1     -41.201 -51.890  11.481  1.00  0.00     0.089 N 
HETATM    2  H   UNL     1     -40.685 -52.747  11.263  1.00  0.00     0.316 HD
ENDROOT
BRANCH   1   3
HETATM    3  C   UNL     1     -40.319 -51.028  12.287  1.00  0.00     0.279 C 
BRANCH   3   4
HETATM    4  C   UNL     1     -39.639 -49.937  11.458  1.00  0.00     0.132 C 
BRANCH   4   5
HETATM    5  C   UNL     1     -40.169 -48.583  11.891  1.00  0.00     0.219 C 
HETATM    6  N   UNL     1     -40.005 -47.590  10.948  1.00  0.00    -0.361 N 
HETATM    7  H   UNL     1     -39.674 -47.829  10.024  1.00  0.00     0.162 HD
HETATM    8  O   UNL     1     -40.687 -48.375  12.986  1.00  0.00    -0.274 OA
BRANCH   6   9
HETATM    9  C   UNL     1     -40.471 -46.240  11.198  1.00  0.00     0.118 C 
HETATM   10  C   UNL     1     -39.734 -45.220  10.348  1.00  0.00     0.026 C 
ENDBRANCH   6   9
ENDBRANCH   4   5
ENDBRANCH   3   4
ENDBRANCH   1   3
BRANCH   1  11
HETATM   11  C   UNL     1     -42.413 -52.286  12.249  1.00  0.00     0.236 C 
HETATM   12  C   UNL     1     -42.124 -53.455  13.204  1.00  0.00     0.044 C 
BRANCH  11  13
HETATM   13  C   UNL     1     -42.968 -51.114  13.092  1.00  0.00     0.183 C 
BRANCH  13  14
HETATM   14  N   UNL     1     -44.359 -51.260  13.471  1.00  0.00    -0.301 N 
HETATM   15  C   UNL     1     -44.866 -51.231  14.739  1.00  0.00     0.118 A 
HETATM   16  C   UNL     1     -46.225 -51.431  14.622  1.00  0.00    -0.028 A 
HETATM   17  C   UNL     1     -47.242 -51.482  15.693  1.00  0.00     0.051 C 
HETATM   18  C   UNL     1     -46.428 -51.582  13.231  1.00  0.00     0.115 A 
HETATM   19  N   UNL     1     -45.296 -51.486  12.531  1.00  0.00    -0.310 N 
ATOM     20  HN  UNL     1     -45.170 -51.564  11.522  1.00  0.00     0.186 HD
ENDBRANCH  13  14
ENDBRANCH  11  13
ENDBRANCH   1  11
TORSDOF 7
ENDMDL
