MODEL 1
REMARK VINA RESULT:      -5.9      0.000      0.000
REMARK  5 active torsions:
REMARK  status: ('A' for Active; 'I' for Inactive)
REMARK    1  A    between atoms: S_2  and  N_4 
REMARK    2  A    between atoms: S_2  and  N_14 
REMARK    3  A    between atoms: N_4  and  C_5 
REMARK    4  A    between atoms: C_5  and  C_6 
REMARK    5  A    between atoms: C_6  and  C_7 
ROOT
HETATM    1  N   UNL     1     -42.038 -50.093  11.661  1.00  0.00    -0.202 NA
HETATM    2  H   UNL     1     -42.485 -49.437  12.302  1.00  0.00     0.141 HD
ENDROOT
BRANCH   1   3
HETATM    3  S   UNL     1     -41.672 -51.480  12.562  1.00  0.00     0.298 S 
HETATM    4  O   UNL     1     -41.238 -52.509  11.648  1.00  0.00    -0.188 OA
HETATM    5  O   UNL     1     -40.844 -51.030  13.653  1.00  0.00    -0.188 OA
BRANCH   3   6
HETATM    6  N   UNL     1     -43.206 -51.865  13.169  1.00  0.00    -0.298 N 
HETATM    7  C   UNL     1     -43.902 -53.003  12.519  1.00  0.00     0.136 C 
HETATM    8  C   UNL     1     -44.709 -53.794  13.550  1.00  0.00     0.021 C 
HETATM    9  C   UNL     1     -46.145 -53.306  13.727  1.00  0.00     0.002 C 
HETATM   10  C   UNL     1     -46.328 -51.794  13.788  1.00  0.00     0.002 C 
HETATM   11  C   UNL     1     -45.196 -51.062  14.502  1.00  0.00     0.021 C 
HETATM   12  C   UNL     1     -44.043 -50.708  13.564  1.00  0.00     0.136 C 
ENDBRANCH   3   6
ENDBRANCH   1   3
BRANCH   1  13
HETATM   13  C   UNL     1     -40.809 -49.446  11.094  1.00  0.00     0.112 C 
BRANCH  13  14
HETATM   14  C   UNL     1     -40.877 -47.927  11.253  1.00  0.00     0.072 C 
BRANCH  14  15
HETATM   15  C   UNL     1     -41.921 -47.347  10.331  1.00  0.00     0.010 A 
HETATM   16  C   UNL     1     -42.380 -46.044  10.507  1.00  0.00     0.025 A 
HETATM   17  C   UNL     1     -43.382 -45.564   9.667  1.00  0.00     0.003 A 
HETATM   18  C   UNL     1     -43.900 -46.393   8.680  1.00  0.00     0.017 A 
HETATM   19  C   UNL     1     -43.387 -47.674   8.572  1.00  0.00     0.088 A 
HETATM   20  N   UNL     1     -42.415 -48.167   9.374  1.00  0.00    -0.369 N 
ATOM     21  HN  UNL     1     -42.068 -49.120   9.261  1.00  0.00     0.165 HD
ENDBRANCH  14  15
ENDBRANCH  13  14
ENDBRANCH   1  13
TORSDOF 5
ENDMDL
MODEL 2
REMARK VINA RESULT:      -5.8      1.507      1.992
REMARK  5 active torsions:
REMARK  status: ('A' for Active; 'I' for Inactive)
REMARK    1  A    between atoms: S_2  and  N_4 
REMARK    2  A    between atoms: S_2  and  N_14 
REMARK    3  A    between atoms: N_4  and  C_5 
REMARK    4  A    between atoms: C_5  and  C_6 
REMARK    5  A    between atoms: C_6  and  C_7 
ROOT
HETATM    1  N   UNL     1     -41.560 -50.513  11.662  1.00  0.00    -0.202 NA
HETATM    2  H   UNL     1     -42.471 -50.940  11.498  1.00  0.00     0.141 HD
ENDROOT
BRANCH   1   3
HETATM    3  S   UNL     1     -40.843 -51.371  12.936  1.00  0.00     0.298 S 
HETATM    4  O   UNL     1     -39.648 -52.006  12.434  1.00  0.00    -0.188 OA
HETATM    5  O   UNL     1     -40.811 -50.459  14.052  1.00  0.00    -0.188 OA
BRANCH   3   6
HETATM    6  N   UNL     1     -42.034 -52.541  13.226  1.00  0.00    -0.298 N 
HETATM    7  C   UNL     1     -43.432 -52.143  12.924  1.00  0.00     0.136 C 
HETATM    8  C   UNL     1     -44.217 -53.333  12.372  1.00  0.00     0.021 C 
HETATM    9  C   UNL     1     -44.921 -54.167  13.441  1.00  0.00     0.002 C 
HETATM   10  C   UNL     1     -44.107 -54.458  14.695  1.00  0.00     0.002 C 
HETATM   11  C   UNL     1     -42.621 -54.682  14.431  1.00  0.00     0.021 C 
HETATM   12  C   UNL     1     -41.824 -53.379  14.430  1.00  0.00     0.136 C 
ENDBRANCH   3   6
ENDBRANCH   1   3
BRANCH   1  13
HETATM   13  C   UNL     1     -41.762 -49.066  11.999  1.00  0.00     0.112 C 
BRANCH  13  14
HETATM   14  C   UNL     1     -41.420 -48.180  10.801  1.00  0.00     0.072 C 
BRANCH  14  15
HETATM   15  C   UNL     1     -42.653 -47.919   9.971  1.00  0.00     0.010 A 
HETATM   16  C   UNL     1     -43.866 -47.608  10.579  1.00  0.00     0.025 A 
HETATM   17  C   UNL     1     -44.993 -47.425   9.780  1.00  0.00     0.003 A 
HETATM   18  C   UNL     1     -44.881 -47.560   8.402  1.00  0.00     0.017 A 
HETATM   19  C   UNL     1     -43.638 -47.870   7.878  1.00  0.00     0.088 A 
HETATM   20  N   UNL     1     -42.527 -48.054   8.629  1.00  0.00    -0.369 N 
ATOM     21  HN  UNL     1     -41.631 -48.284   8.201  1.00  0.00     0.165 HD
ENDBRANCH  14  15
ENDBRANCH  13  14
ENDBRANCH   1  13
TORSDOF 5
ENDMDL
MODEL 3
REMARK VINA RESULT:      -5.8      4.954      6.433
REMARK  5 active torsions:
REMARK  status: ('A' for Active; 'I' for Inactive)
REMARK    1  A    between atoms: S_2  and  N_4 
REMARK    2  A    between atoms: S_2  and  N_14 
REMARK    3  A    between atoms: N_4  and  C_5 
REMARK    4  A    between atoms: C_5  and  C_6 
REMARK    5  A    between atoms: C_6  and  C_7 
ROOT
HETATM    1  N   UNL     1     -46.440 -53.492  13.751  1.00  0.00    -0.202 NA
HETATM    2  H   UNL     1     -47.137 -53.944  13.159  1.00  0.00     0.141 HD
ENDROOT
BRANCH   1   3
HETATM    3  S   UNL     1     -45.486 -54.728  14.409  1.00  0.00     0.298 S 
HETATM    4  O   UNL     1     -45.646 -54.706  15.843  1.00  0.00    -0.188 OA
HETATM    5  O   UNL     1     -45.776 -55.904  13.628  1.00  0.00    -0.188 OA
BRANCH   3   6
HETATM    6  N   UNL     1     -43.939 -54.172  13.998  1.00  0.00    -0.298 N 
HETATM    7  C   UNL     1     -43.724 -53.826  12.570  1.00  0.00     0.136 C 
HETATM    8  C   UNL     1     -42.787 -52.624  12.449  1.00  0.00     0.021 C 
HETATM    9  C   UNL     1     -41.308 -52.992  12.351  1.00  0.00     0.002 C 
HETATM   10  C   UNL     1     -40.834 -54.085  13.301  1.00  0.00     0.002 C 
HETATM   11  C   UNL     1     -41.507 -54.051  14.669  1.00  0.00     0.021 C 
HETATM   12  C   UNL     1     -42.816 -54.838  14.699  1.00  0.00     0.136 C 
ENDBRANCH   3   6
ENDBRANCH   1   3
BRANCH   1  13
HETATM   13  C   UNL     1     -47.151 -52.703  14.810  1.00  0.00     0.112 C 
BRANCH  13  14
HETATM   14  C   UNL     1     -46.672 -51.251  14.813  1.00  0.00     0.072 C 
BRANCH  14  15
HETATM   15  C   UNL     1     -45.288 -51.154  15.406  1.00  0.00     0.010 A 
HETATM   16  C   UNL     1     -44.300 -50.395  14.785  1.00  0.00     0.025 A 
HETATM   17  C   UNL     1     -43.020 -50.374  15.336  1.00  0.00     0.003 A 
HETATM   18  C   UNL     1     -42.762 -51.108  16.487  1.00  0.00     0.017 A 
HETATM   19  C   UNL     1     -43.800 -51.835  17.042  1.00  0.00     0.088 A 
HETATM   20  N   UNL     1     -45.051 -51.875  16.528  1.00  0.00    -0.369 N 
ATOM     21  HN  UNL     1     -45.788 -52.427  16.969  1.00  0.00     0.165 HD
ENDBRANCH  14  15
ENDBRANCH  13  14
ENDBRANCH   1  13
TORSDOF 5
ENDMDL
MODEL 4
REMARK VINA RESULT:      -5.8      3.235      6.410
REMARK  5 active torsions:
REMARK  status: ('A' for Active; 'I' for Inactive)
REMARK    1  A    between atoms: S_2  and  N_4 
REMARK    2  A    between atoms: S_2  and  N_14 
REMARK    3  A    between atoms: N_4  and  C_5 
REMARK    4  A    between atoms: C_5  and  C_6 
REMARK    5  A    between atoms: C_6  and  C_7 
ROOT
HETATM    1  N   UNL     1     -41.482 -53.749  12.459  1.00  0.00    -0.202 NA
HETATM    2  H   UNL     1     -41.091 -54.577  12.010  1.00  0.00     0.141 HD
ENDROOT
BRANCH   1   3
HETATM    3  S   UNL     1     -40.351 -53.242  13.614  1.00  0.00     0.298 S 
HETATM    4  O   UNL     1     -41.066 -52.857  14.806  1.00  0.00    -0.188 OA
HETATM    5  O   UNL     1     -39.329 -54.259  13.633  1.00  0.00    -0.188 OA
BRANCH   3   6
HETATM    6  N   UNL     1     -39.729 -51.864  12.849  1.00  0.00    -0.298 N 
HETATM    7  C   UNL     1     -38.489 -51.293  13.433  1.00  0.00     0.136 C 
HETATM    8  C   UNL     1     -37.587 -50.739  12.329  1.00  0.00     0.021 C 
HETATM    9  C   UNL     1     -37.839 -49.271  11.995  1.00  0.00     0.002 C 
HETATM   10  C   UNL     1     -39.302 -48.856  11.899  1.00  0.00     0.002 C 
HETATM   11  C   UNL     1     -40.212 -49.926  11.303  1.00  0.00     0.021 C 
HETATM   12  C   UNL     1     -40.739 -50.899  12.355  1.00  0.00     0.136 C 
ENDBRANCH   3   6
ENDBRANCH   1   3
BRANCH   1  13
HETATM   13  C   UNL     1     -42.797 -54.115  13.079  1.00  0.00     0.112 C 
BRANCH  13  14
HETATM   14  C   UNL     1     -43.938 -53.331  12.429  1.00  0.00     0.072 C 
BRANCH  14  15
HETATM   15  C   UNL     1     -44.760 -52.628  13.481  1.00  0.00     0.010 A 
HETATM   16  C   UNL     1     -45.998 -52.077  13.164  1.00  0.00     0.025 A 
HETATM   17  C   UNL     1     -46.703 -51.391  14.152  1.00  0.00     0.003 A 
HETATM   18  C   UNL     1     -46.155 -51.273  15.423  1.00  0.00     0.017 A 
HETATM   19  C   UNL     1     -44.919 -51.852  15.655  1.00  0.00     0.088 A 
HETATM   20  N   UNL     1     -44.212 -52.522  14.715  1.00  0.00    -0.369 N 
ATOM     21  HN  UNL     1     -43.303 -52.931  14.929  1.00  0.00     0.165 HD
ENDBRANCH  14  15
ENDBRANCH  13  14
ENDBRANCH   1  13
TORSDOF 5
ENDMDL
MODEL 5
REMARK VINA RESULT:      -5.7      1.155      1.354
REMARK  5 active torsions:
REMARK  status: ('A' for Active; 'I' for Inactive)
REMARK    1  A    between atoms: S_2  and  N_4 
REMARK    2  A    between atoms: S_2  and  N_14 
REMARK    3  A    between atoms: N_4  and  C_5 
REMARK    4  A    between atoms: C_5  and  C_6 
REMARK    5  A    between atoms: C_6  and  C_7 
ROOT
HETATM    1  N   UNL     1     -40.961 -50.847  11.435  1.00  0.00    -0.202 NA
HETATM    2  H   UNL     1     -41.673 -50.160  11.685  1.00  0.00     0.141 HD
ENDROOT
BRANCH   1   3
HETATM    3  S   UNL     1     -40.975 -52.027  12.651  1.00  0.00     0.298 S 
HETATM    4  O   UNL     1     -40.544 -53.276  12.072  1.00  0.00    -0.188 OA
HETATM    5  O   UNL     1     -40.298 -51.435  13.778  1.00  0.00    -0.188 OA
BRANCH   3   6
HETATM    6  N   UNL     1     -42.634 -52.096  12.992  1.00  0.00    -0.298 N 
HETATM    7  C   UNL     1     -43.411 -53.126  12.259  1.00  0.00     0.136 C 
HETATM    8  C   UNL     1     -44.511 -53.700  13.153  1.00  0.00     0.021 C 
HETATM    9  C   UNL     1     -45.841 -52.954  13.065  1.00  0.00     0.002 C 
HETATM   10  C   UNL     1     -45.747 -51.433  13.055  1.00  0.00     0.002 C 
HETATM   11  C   UNL     1     -44.634 -50.875  13.937  1.00  0.00     0.021 C 
HETATM   12  C   UNL     1     -43.295 -50.787  13.205  1.00  0.00     0.136 C 
ENDBRANCH   3   6
ENDBRANCH   1   3
BRANCH   1  13
HETATM   13  C   UNL     1     -39.636 -50.150  11.339  1.00  0.00     0.112 C 
BRANCH  13  14
HETATM   14  C   UNL     1     -39.764 -48.687  11.765  1.00  0.00     0.072 C 
BRANCH  14  15
HETATM   15  C   UNL     1     -41.106 -48.135  11.353  1.00  0.00     0.010 A 
HETATM   16  C   UNL     1     -41.942 -47.528  12.286  1.00  0.00     0.025 A 
HETATM   17  C   UNL     1     -43.195 -47.077  11.877  1.00  0.00     0.003 A 
HETATM   18  C   UNL     1     -43.580 -47.245  10.552  1.00  0.00     0.017 A 
HETATM   19  C   UNL     1     -42.689 -47.858   9.688  1.00  0.00     0.088 A 
HETATM   20  N   UNL     1     -41.467 -48.305  10.058  1.00  0.00    -0.369 N 
ATOM     21  HN  UNL     1     -40.842 -48.754   9.389  1.00  0.00     0.165 HD
ENDBRANCH  14  15
ENDBRANCH  13  14
ENDBRANCH   1  13
TORSDOF 5
ENDMDL
MODEL 6
REMARK VINA RESULT:      -5.7      4.250      5.988
REMARK  5 active torsions:
REMARK  status: ('A' for Active; 'I' for Inactive)
REMARK    1  A    between atoms: S_2  and  N_4 
REMARK    2  A    between atoms: S_2  and  N_14 
REMARK    3  A    between atoms: N_4  and  C_5 
REMARK    4  A    between atoms: C_5  and  C_6 
REMARK    5  A    between atoms: C_6  and  C_7 
ROOT
HETATM    1  N   UNL     1     -45.793 -53.661  15.086  1.00  0.00    -0.202 NA
HETATM    2  H   UNL     1     -45.079 -52.987  15.362  1.00  0.00     0.141 HD
ENDROOT
BRANCH   1   3
HETATM    3  S   UNL     1     -45.169 -54.516  13.763  1.00  0.00     0.298 S 
HETATM    4  O   UNL     1     -45.587 -55.893  13.879  1.00  0.00    -0.188 OA
HETATM    5  O   UNL     1     -45.478 -53.720  12.602  1.00  0.00    -0.188 OA
BRANCH   3   6
HETATM    6  N   UNL     1     -43.508 -54.395  14.075  1.00  0.00    -0.298 N 
HETATM    7  C   UNL     1     -43.127 -53.977  15.448  1.00  0.00     0.136 C 
HETATM    8  C   UNL     1     -41.853 -54.697  15.890  1.00  0.00     0.021 C 
HETATM    9  C   UNL     1     -40.564 -53.954  15.547  1.00  0.00     0.002 C 
HETATM   10  C   UNL     1     -40.506 -53.339  14.153  1.00  0.00     0.002 C 
HETATM   11  C   UNL     1     -41.197 -54.172  13.079  1.00  0.00     0.021 C 
HETATM   12  C   UNL     1     -42.688 -53.860  12.963  1.00  0.00     0.136 C 
ENDBRANCH   3   6
ENDBRANCH   1   3
BRANCH   1  13
HETATM   13  C   UNL     1     -47.046 -52.915  14.736  1.00  0.00     0.112 C 
BRANCH  13  14
HETATM   14  C   UNL     1     -46.921 -51.440  15.121  1.00  0.00     0.072 C 
BRANCH  14  15
HETATM   15  C   UNL     1     -45.488 -50.985  15.001  1.00  0.00     0.010 A 
HETATM   16  C   UNL     1     -44.782 -50.559  16.123  1.00  0.00     0.025 A 
HETATM   17  C   UNL     1     -43.477 -50.097  15.963  1.00  0.00     0.003 A 
HETATM   18  C   UNL     1     -42.914 -50.071  14.693  1.00  0.00     0.017 A 
HETATM   19  C   UNL     1     -43.684 -50.513  13.631  1.00  0.00     0.088 A 
HETATM   20  N   UNL     1     -44.954 -50.966  13.757  1.00  0.00    -0.369 N 
ATOM     21  HN  UNL     1     -45.487 -51.280  12.947  1.00  0.00     0.165 HD
ENDBRANCH  14  15
ENDBRANCH  13  14
ENDBRANCH   1  13
TORSDOF 5
ENDMDL
MODEL 7
REMARK VINA RESULT:      -5.6      2.139      3.121
REMARK  5 active torsions:
REMARK  status: ('A' for Active; 'I' for Inactive)
REMARK    1  A    between atoms: S_2  and  N_4 
REMARK    2  A    between atoms: S_2  and  N_14 
REMARK    3  A    between atoms: N_4  and  C_5 
REMARK    4  A    between atoms: C_5  and  C_6 
REMARK    5  A    between atoms: C_6  and  C_7 
ROOT
HETATM    1  N   UNL     1     -42.771 -52.158  12.250  1.00  0.00    -0.202 NA
HETATM    2  H   UNL     1     -43.450 -51.414  12.093  1.00  0.00     0.141 HD
ENDROOT
BRANCH   1   3
HETATM    3  S   UNL     1     -43.571 -53.371  13.122  1.00  0.00     0.298 S 
HETATM    4  O   UNL     1     -44.344 -54.158  12.193  1.00  0.00    -0.188 OA
HETATM    5  O   UNL     1     -42.572 -53.962  13.976  1.00  0.00    -0.188 OA
BRANCH   3   6
HETATM    6  N   UNL     1     -44.609 -52.428  14.075  1.00  0.00    -0.298 N 
HETATM    7  C   UNL     1     -44.255 -52.313  15.512  1.00  0.00     0.136 C 
HETATM    8  C   UNL     1     -44.598 -50.917  16.034  1.00  0.00     0.021 C 
HETATM    9  C   UNL     1     -46.011 -50.791  16.600  1.00  0.00     0.002 C 
HETATM   10  C   UNL     1     -47.112 -51.464  15.789  1.00  0.00     0.002 C 
HETATM   11  C   UNL     1     -46.902 -51.389  14.280  1.00  0.00     0.021 C 
HETATM   12  C   UNL     1     -46.050 -52.540  13.749  1.00  0.00     0.136 C 
ENDBRANCH   3   6
ENDBRANCH   1   3
BRANCH   1  13
HETATM   13  C   UNL     1     -41.606 -51.593  13.007  1.00  0.00     0.112 C 
BRANCH  13  14
HETATM   14  C   UNL     1     -40.480 -51.199  12.050  1.00  0.00     0.072 C 
BRANCH  14  15
HETATM   15  C   UNL     1     -40.633 -49.760  11.622  1.00  0.00     0.010 A 
HETATM   16  C   UNL     1     -39.667 -48.813  11.955  1.00  0.00     0.025 A 
HETATM   17  C   UNL     1     -39.871 -47.485  11.586  1.00  0.00     0.003 A 
HETATM   18  C   UNL     1     -41.028 -47.138  10.899  1.00  0.00     0.017 A 
HETATM   19  C   UNL     1     -41.937 -48.140  10.607  1.00  0.00     0.088 A 
HETATM   20  N   UNL     1     -41.766 -49.437  10.954  1.00  0.00    -0.369 N 
ATOM     21  HN  UNL     1     -42.463 -50.144  10.720  1.00  0.00     0.165 HD
ENDBRANCH  14  15
ENDBRANCH  13  14
ENDBRANCH   1  13
TORSDOF 5
ENDMDL
MODEL 8
REMARK VINA RESULT:      -5.5      1.973      5.942
REMARK  5 active torsions:
REMARK  status: ('A' for Active; 'I' for Inactive)
REMARK    1  A    between atoms: S_2  and  N_4 
REMARK    2  A    between atoms: S_2  and  N_14 
REMARK    3  A    between atoms: N_4  and  C_5 
REMARK    4  A    between atoms: C_5  and  C_6 
REMARK    5  A    between atoms: C_6  and  C_7 
ROOT
HETATM    1  N   UNL     1     -42.165 -52.635  14.022  1.00  0.00    -0.202 NA
HETATM    2  H   UNL     1     -42.894 -52.000  13.697  1.00  0.00     0.141 HD
ENDROOT
BRANCH   1   3
HETATM    3  S   UNL     1     -40.730 -52.163  13.253  1.00  0.00     0.298 S 
HETATM    4  O   UNL     1     -39.713 -51.995  14.262  1.00  0.00    -0.188 OA
HETATM    5  O   UNL     1     -40.564 -53.070  12.145  1.00  0.00    -0.188 OA
BRANCH   3   6
HETATM    6  N   UNL     1     -41.191 -50.649  12.648  1.00  0.00    -0.298 N 
HETATM    7  C   UNL     1     -42.651 -50.401  12.542  1.00  0.00     0.136 C 
HETATM    8  C   UNL     1     -42.967 -48.939  12.860  1.00  0.00     0.021 C 
HETATM    9  C   UNL     1     -42.949 -48.017  11.642  1.00  0.00     0.002 C 
HETATM   10  C   UNL     1     -41.796 -48.230  10.668  1.00  0.00     0.002 C 
HETATM   11  C   UNL     1     -40.480 -48.608  11.340  1.00  0.00     0.021 C 
HETATM   12  C   UNL     1     -40.343 -50.114  11.557  1.00  0.00     0.136 C 
ENDBRANCH   3   6
ENDBRANCH   1   3
BRANCH   1  13
HETATM   13  C   UNL     1     -42.559 -54.038  13.668  1.00  0.00     0.112 C 
BRANCH  13  14
HETATM   14  C   UNL     1     -43.869 -54.048  12.878  1.00  0.00     0.072 C 
BRANCH  14  15
HETATM   15  C   UNL     1     -44.892 -53.161  13.545  1.00  0.00     0.010 A 
HETATM   16  C   UNL     1     -45.723 -52.341  12.787  1.00  0.00     0.025 A 
HETATM   17  C   UNL     1     -46.619 -51.499  13.442  1.00  0.00     0.003 A 
HETATM   18  C   UNL     1     -46.660 -51.497  14.831  1.00  0.00     0.017 A 
HETATM   19  C   UNL     1     -45.800 -52.344  15.509  1.00  0.00     0.088 A 
HETATM   20  N   UNL     1     -44.920 -53.170  14.899  1.00  0.00    -0.369 N 
ATOM     21  HN  UNL     1     -44.302 -53.777  15.438  1.00  0.00     0.165 HD
ENDBRANCH  14  15
ENDBRANCH  13  14
ENDBRANCH   1  13
TORSDOF 5
ENDMDL
MODEL 9
REMARK VINA RESULT:      -5.4      4.149      6.913
REMARK  5 active torsions:
REMARK  status: ('A' for Active; 'I' for Inactive)
REMARK    1  A    between atoms: S_2  and  N_4 
REMARK    2  A    between atoms: S_2  and  N_14 
REMARK    3  A    between atoms: N_4  and  C_5 
REMARK    4  A    between atoms: C_5  and  C_6 
REMARK    5  A    between atoms: C_6  and  C_7 
ROOT
HETATM    1  N   UNL     1     -45.389 -53.624  15.164  1.00  0.00    -0.202 NA
HETATM    2  H   UNL     1     -44.837 -52.779  15.312  1.00  0.00     0.141 HD
ENDROOT
BRANCH   1   3
HETATM    3  S   UNL     1     -44.456 -54.651  14.192  1.00  0.00     0.298 S 
HETATM    4  O   UNL     1     -43.873 -55.665  15.037  1.00  0.00    -0.188 OA
HETATM    5  O   UNL     1     -45.290 -54.985  13.064  1.00  0.00    -0.188 OA
BRANCH   3   6
HETATM    6  N   UNL     1     -43.253 -53.575  13.675  1.00  0.00    -0.298 N 
HETATM    7  C   UNL     1     -43.690 -52.493  12.758  1.00  0.00     0.136 C 
HETATM    8  C   UNL     1     -42.915 -51.206  13.046  1.00  0.00     0.021 C 
HETATM    9  C   UNL     1     -41.625 -51.061  12.242  1.00  0.00     0.002 C 
HETATM   10  C   UNL     1     -40.769 -52.317  12.132  1.00  0.00     0.002 C 
HETATM   11  C   UNL     1     -40.774 -53.182  13.389  1.00  0.00     0.021 C 
HETATM   12  C   UNL     1     -41.928 -54.182  13.407  1.00  0.00     0.136 C 
ENDBRANCH   3   6
ENDBRANCH   1   3
BRANCH   1  13
HETATM   13  C   UNL     1     -46.681 -53.242  14.505  1.00  0.00     0.112 C 
BRANCH  13  14
HETATM   14  C   UNL     1     -46.854 -51.722  14.497  1.00  0.00     0.072 C 
BRANCH  14  15
HETATM   15  C   UNL     1     -46.774 -51.176  15.901  1.00  0.00     0.010 A 
HETATM   16  C   UNL     1     -47.897 -51.163  16.724  1.00  0.00     0.025 A 
HETATM   17  C   UNL     1     -47.794 -50.603  17.996  1.00  0.00     0.003 A 
HETATM   18  C   UNL     1     -46.579 -50.072  18.410  1.00  0.00     0.017 A 
HETATM   19  C   UNL     1     -45.511 -50.125  17.531  1.00  0.00     0.088 A 
HETATM   20  N   UNL     1     -45.583 -50.662  16.291  1.00  0.00    -0.369 N 
ATOM     21  HN  UNL     1     -44.771 -50.679  15.673  1.00  0.00     0.165 HD
ENDBRANCH  14  15
ENDBRANCH  13  14
ENDBRANCH   1  13
TORSDOF 5
ENDMDL
