MODEL 1
REMARK VINA RESULT:      -5.9      0.000      0.000
REMARK  6 active torsions:
REMARK  status: ('A' for Active; 'I' for Inactive)
REMARK    1  A    between atoms: C_2  and  C_3 
REMARK    2  A    between atoms: C_3  and  C_4 
REMARK    3  A    between atoms: C_4  and  C_5 
REMARK    4  A    between atoms: C_5  and  C_6 
REMARK       I    between atoms: C_6  and  N_8 
REMARK    5  A    between atoms: N_8  and  C_9 
REMARK    6  A    between atoms: C_12  and  N_16 
ROOT
HETATM    1  C   UNL     1     -41.083 -49.584  11.226  1.00  0.00     0.107 A 
HETATM    2  C   UNL     1     -39.752 -49.606  11.608  1.00  0.00     0.051 A 
HETATM    3  C   UNL     1     -39.299 -50.658  12.419  1.00  0.00     0.034 A 
HETATM    4  C   UNL     1     -40.158 -51.673  12.862  1.00  0.00     0.046 A 
HETATM    5  C   UNL     1     -41.484 -51.486  12.482  1.00  0.00     0.119 A 
HETATM    6  N   UNL     1     -41.950 -50.489  11.691  1.00  0.00    -0.350 N 
ATOM      7  HN  UNL     1     -42.941 -50.431  11.455  1.00  0.00     0.166 HD
ENDROOT
BRANCH   1   8
HETATM    8  N   UNL     1     -41.507 -48.605  10.312  1.00  0.00    -0.313 N 
HETATM    9  C   UNL     1     -42.678 -47.889  10.464  1.00  0.00     0.223 C 
HETATM   10  O   UNL     1     -43.509 -48.031  11.359  1.00  0.00    -0.273 OA
HETATM   11  H   UNL     1     -40.979 -48.499   9.461  1.00  0.00     0.170 HD
BRANCH   9  12
HETATM   12  C   UNL     1     -42.930 -46.901   9.333  1.00  0.00     0.103 C 
BRANCH  12  13
HETATM   13  C   UNL     1     -44.224 -47.273   8.609  1.00  0.00     0.009 C 
BRANCH  13  14
HETATM   14  C   UNL     1     -45.380 -46.317   8.884  1.00  0.00     0.000 C 
BRANCH  14  15
HETATM   15  C   UNL     1     -46.661 -47.113   9.152  1.00  0.00    -0.005 C 
HETATM   16  C   UNL     1     -46.566 -48.539   8.641  1.00  0.00     0.005 C 
ENDBRANCH  14  15
ENDBRANCH  13  14
ENDBRANCH  12  13
ENDBRANCH   9  12
ENDBRANCH   1   8
BRANCH   4  17
HETATM   17  N   UNL     1     -39.712 -52.728  13.637  1.00  0.00    -0.376 N 
HETATM   18  C   UNL     1     -40.359 -54.055  13.563  1.00  0.00     0.149 C 
HETATM   19  C   UNL     1     -41.120 -54.367  14.865  1.00  0.00     0.187 C 
HETATM   20  O   UNL     1     -40.288 -54.225  16.027  1.00  0.00    -0.388 OA
HETATM   21  C   UNL     1     -39.785 -52.882  16.112  1.00  0.00     0.187 C 
HETATM   22  C   UNL     1     -38.937 -52.535  14.880  1.00  0.00     0.149 C 
ENDBRANCH   4  17
TORSDOF 6
ENDMDL
MODEL 2
REMARK VINA RESULT:      -5.7      2.389      2.945
REMARK  6 active torsions:
REMARK  status: ('A' for Active; 'I' for Inactive)
REMARK    1  A    between atoms: C_2  and  C_3 
REMARK    2  A    between atoms: C_3  and  C_4 
REMARK    3  A    between atoms: C_4  and  C_5 
REMARK    4  A    between atoms: C_5  and  C_6 
REMARK       I    between atoms: C_6  and  N_8 
REMARK    5  A    between atoms: N_8  and  C_9 
REMARK    6  A    between atoms: C_12  and  N_16 
ROOT
HETATM    1  C   UNL     1     -41.064 -48.380  10.588  1.00  0.00     0.107 A 
HETATM    2  C   UNL     1     -40.555 -47.357  11.371  1.00  0.00     0.051 A 
HETATM    3  C   UNL     1     -39.533 -47.651  12.286  1.00  0.00     0.034 A 
HETATM    4  C   UNL     1     -39.027 -48.949  12.438  1.00  0.00     0.046 A 
HETATM    5  C   UNL     1     -39.683 -49.898  11.659  1.00  0.00     0.119 A 
HETATM    6  N   UNL     1     -40.663 -49.645  10.758  1.00  0.00    -0.350 N 
ATOM      7  HN  UNL     1     -41.086 -50.402  10.221  1.00  0.00     0.166 HD
ENDROOT
BRANCH   1   8
HETATM    8  N   UNL     1     -41.994 -48.065   9.584  1.00  0.00    -0.313 N 
HETATM    9  C   UNL     1     -43.285 -47.654   9.855  1.00  0.00     0.223 C 
HETATM   10  O   UNL     1     -43.802 -47.556  10.966  1.00  0.00    -0.273 OA
HETATM   11  H   UNL     1     -41.731 -48.243   8.629  1.00  0.00     0.170 HD
BRANCH   9  12
HETATM   12  C   UNL     1     -44.107 -47.390   8.600  1.00  0.00     0.103 C 
BRANCH  12  13
HETATM   13  C   UNL     1     -45.230 -46.402   8.924  1.00  0.00     0.009 C 
BRANCH  13  14
HETATM   14  C   UNL     1     -46.598 -47.057   9.083  1.00  0.00     0.000 C 
BRANCH  14  15
HETATM   15  C   UNL     1     -46.573 -48.466   8.483  1.00  0.00    -0.005 C 
HETATM   16  C   UNL     1     -47.068 -49.515   9.462  1.00  0.00     0.005 C 
ENDBRANCH  14  15
ENDBRANCH  13  14
ENDBRANCH  12  13
ENDBRANCH   9  12
ENDBRANCH   1   8
BRANCH   4  17
HETATM   17  N   UNL     1     -38.000 -49.240  13.317  1.00  0.00    -0.376 N 
HETATM   18  C   UNL     1     -37.707 -50.634  13.713  1.00  0.00     0.149 C 
HETATM   19  C   UNL     1     -38.068 -50.871  15.191  1.00  0.00     0.187 C 
HETATM   20  O   UNL     1     -37.448 -49.912  16.061  1.00  0.00    -0.388 OA
HETATM   21  C   UNL     1     -37.864 -48.583  15.706  1.00  0.00     0.187 C 
HETATM   22  C   UNL     1     -37.453 -48.247  14.264  1.00  0.00     0.149 C 
ENDBRANCH   4  17
TORSDOF 6
ENDMDL
MODEL 3
REMARK VINA RESULT:      -5.7      4.134      6.142
REMARK  6 active torsions:
REMARK  status: ('A' for Active; 'I' for Inactive)
REMARK    1  A    between atoms: C_2  and  C_3 
REMARK    2  A    between atoms: C_3  and  C_4 
REMARK    3  A    between atoms: C_4  and  C_5 
REMARK    4  A    between atoms: C_5  and  C_6 
REMARK       I    between atoms: C_6  and  N_8 
REMARK    5  A    between atoms: N_8  and  C_9 
REMARK    6  A    between atoms: C_12  and  N_16 
ROOT
HETATM    1  C   UNL     1     -42.236 -53.619  13.456  1.00  0.00     0.107 A 
HETATM    2  C   UNL     1     -41.284 -53.293  14.407  1.00  0.00     0.051 A 
HETATM    3  C   UNL     1     -40.247 -52.418  14.053  1.00  0.00     0.034 A 
HETATM    4  C   UNL     1     -40.141 -51.879  12.763  1.00  0.00     0.046 A 
HETATM    5  C   UNL     1     -41.107 -52.355  11.880  1.00  0.00     0.119 A 
HETATM    6  N   UNL     1     -42.127 -53.189  12.194  1.00  0.00    -0.350 N 
ATOM      7  HN  UNL     1     -42.798 -53.483  11.484  1.00  0.00     0.166 HD
ENDROOT
BRANCH   1   8
HETATM    8  N   UNL     1     -43.343 -54.391  13.845  1.00  0.00    -0.313 N 
HETATM    9  C   UNL     1     -44.582 -54.290  13.241  1.00  0.00     0.223 C 
HETATM   10  O   UNL     1     -44.895 -53.508  12.346  1.00  0.00    -0.273 OA
HETATM   11  H   UNL     1     -43.247 -54.969  14.664  1.00  0.00     0.170 HD
BRANCH   9  12
HETATM   12  C   UNL     1     -45.625 -55.216  13.852  1.00  0.00     0.103 C 
BRANCH  12  13
HETATM   13  C   UNL     1     -46.654 -54.387  14.623  1.00  0.00     0.009 C 
BRANCH  13  14
HETATM   14  C   UNL     1     -46.067 -53.624  15.806  1.00  0.00     0.000 C 
BRANCH  14  15
HETATM   15  C   UNL     1     -46.719 -52.242  15.909  1.00  0.00    -0.005 C 
HETATM   16  C   UNL     1     -46.772 -51.533  14.568  1.00  0.00     0.005 C 
ENDBRANCH  14  15
ENDBRANCH  13  14
ENDBRANCH  12  13
ENDBRANCH   9  12
ENDBRANCH   1   8
BRANCH   4  17
HETATM   17  N   UNL     1     -39.138 -50.994  12.416  1.00  0.00    -0.376 N 
HETATM   18  C   UNL     1     -37.838 -51.001  13.119  1.00  0.00     0.149 C 
HETATM   19  C   UNL     1     -37.669 -49.730  13.972  1.00  0.00     0.187 C 
HETATM   20  O   UNL     1     -37.872 -48.532  13.206  1.00  0.00    -0.388 OA
HETATM   21  C   UNL     1     -39.195 -48.524  12.646  1.00  0.00     0.187 C 
HETATM   22  C   UNL     1     -39.401 -49.723  11.709  1.00  0.00     0.149 C 
ENDBRANCH   4  17
TORSDOF 6
ENDMDL
MODEL 4
REMARK VINA RESULT:      -5.5      2.818      7.502
REMARK  6 active torsions:
REMARK  status: ('A' for Active; 'I' for Inactive)
REMARK    1  A    between atoms: C_2  and  C_3 
REMARK    2  A    between atoms: C_3  and  C_4 
REMARK    3  A    between atoms: C_4  and  C_5 
REMARK    4  A    between atoms: C_5  and  C_6 
REMARK       I    between atoms: C_6  and  N_8 
REMARK    5  A    between atoms: N_8  and  C_9 
REMARK    6  A    between atoms: C_12  and  N_16 
ROOT
HETATM    1  C   UNL     1     -40.468 -49.767  11.383  1.00  0.00     0.107 A 
HETATM    2  C   UNL     1     -39.521 -48.850  11.807  1.00  0.00     0.051 A 
HETATM    3  C   UNL     1     -39.746 -47.486  11.569  1.00  0.00     0.034 A 
HETATM    4  C   UNL     1     -40.893 -47.031  10.903  1.00  0.00     0.046 A 
HETATM    5  C   UNL     1     -41.719 -48.056  10.452  1.00  0.00     0.119 A 
HETATM    6  N   UNL     1     -41.536 -49.380  10.677  1.00  0.00    -0.350 N 
ATOM      7  HN  UNL     1     -42.198 -50.067  10.314  1.00  0.00     0.166 HD
ENDROOT
BRANCH   1   8
HETATM    8  N   UNL     1     -40.306 -51.117  11.734  1.00  0.00    -0.313 N 
HETATM    9  C   UNL     1     -41.328 -51.890  12.249  1.00  0.00     0.223 C 
HETATM   10  O   UNL     1     -42.468 -51.512  12.511  1.00  0.00    -0.273 OA
HETATM   11  H   UNL     1     -39.376 -51.502  11.697  1.00  0.00     0.170 HD
BRANCH   9  12
HETATM   12  C   UNL     1     -40.901 -53.316  12.568  1.00  0.00     0.103 C 
BRANCH  12  13
HETATM   13  C   UNL     1     -42.079 -54.078  13.179  1.00  0.00     0.009 C 
BRANCH  13  14
HETATM   14  C   UNL     1     -41.873 -54.461  14.641  1.00  0.00     0.000 C 
BRANCH  14  15
HETATM   15  C   UNL     1     -43.221 -54.792  15.287  1.00  0.00    -0.005 C 
HETATM   16  C   UNL     1     -44.350 -54.820  14.273  1.00  0.00     0.005 C 
ENDBRANCH  14  15
ENDBRANCH  13  14
ENDBRANCH  12  13
ENDBRANCH   9  12
ENDBRANCH   1   8
BRANCH   4  17
HETATM   17  N   UNL     1     -41.135 -45.686  10.690  1.00  0.00    -0.376 N 
HETATM   18  C   UNL     1     -40.024 -44.715  10.611  1.00  0.00     0.149 C 
HETATM   19  C   UNL     1     -40.025 -43.779  11.834  1.00  0.00     0.187 C 
HETATM   20  O   UNL     1     -41.297 -43.142  12.028  1.00  0.00    -0.388 OA
HETATM   21  C   UNL     1     -42.320 -44.133  12.220  1.00  0.00     0.187 C 
HETATM   22  C   UNL     1     -42.434 -45.049  10.993  1.00  0.00     0.149 C 
ENDBRANCH   4  17
TORSDOF 6
ENDMDL
MODEL 5
REMARK VINA RESULT:      -5.5      3.396      6.979
REMARK  6 active torsions:
REMARK  status: ('A' for Active; 'I' for Inactive)
REMARK    1  A    between atoms: C_2  and  C_3 
REMARK    2  A    between atoms: C_3  and  C_4 
REMARK    3  A    between atoms: C_4  and  C_5 
REMARK    4  A    between atoms: C_5  and  C_6 
REMARK       I    between atoms: C_6  and  N_8 
REMARK    5  A    between atoms: N_8  and  C_9 
REMARK    6  A    between atoms: C_12  and  N_16 
ROOT
HETATM    1  C   UNL     1     -42.560 -49.677  12.202  1.00  0.00     0.107 A 
HETATM    2  C   UNL     1     -42.948 -48.565  12.930  1.00  0.00     0.051 A 
HETATM    3  C   UNL     1     -42.601 -47.291  12.456  1.00  0.00     0.034 A 
HETATM    4  C   UNL     1     -41.863 -47.117  11.277  1.00  0.00     0.046 A 
HETATM    5  C   UNL     1     -41.461 -48.313  10.689  1.00  0.00     0.119 A 
HETATM    6  N   UNL     1     -41.789 -49.557  11.115  1.00  0.00    -0.350 N 
ATOM      7  HN  UNL     1     -41.456 -50.383  10.618  1.00  0.00     0.166 HD
ENDROOT
BRANCH   1   8
HETATM    8  N   UNL     1     -43.015 -50.943  12.606  1.00  0.00    -0.313 N 
HETATM    9  C   UNL     1     -42.285 -52.101  12.422  1.00  0.00     0.223 C 
HETATM   10  O   UNL     1     -41.197 -52.195  11.857  1.00  0.00    -0.273 OA
HETATM   11  H   UNL     1     -43.958 -51.012  12.954  1.00  0.00     0.170 HD
BRANCH   9  12
HETATM   12  C   UNL     1     -42.999 -53.348  12.925  1.00  0.00     0.103 C 
BRANCH  12  13
HETATM   13  C   UNL     1     -44.452 -53.334  12.445  1.00  0.00     0.009 C 
BRANCH  13  14
HETATM   14  C   UNL     1     -45.472 -53.500  13.567  1.00  0.00     0.000 C 
BRANCH  14  15
HETATM   15  C   UNL     1     -46.333 -52.238  13.677  1.00  0.00    -0.005 C 
HETATM   16  C   UNL     1     -46.662 -51.648  12.318  1.00  0.00     0.005 C 
ENDBRANCH  14  15
ENDBRANCH  13  14
ENDBRANCH  12  13
ENDBRANCH   9  12
ENDBRANCH   1   8
BRANCH   4  17
HETATM   17  N   UNL     1     -41.543 -45.864  10.789  1.00  0.00    -0.376 N 
HETATM   18  C   UNL     1     -40.141 -45.493  10.501  1.00  0.00     0.149 C 
HETATM   19  C   UNL     1     -39.637 -44.436  11.501  1.00  0.00     0.187 C 
HETATM   20  O   UNL     1     -40.505 -43.293  11.565  1.00  0.00    -0.388 OA
HETATM   21  C   UNL     1     -41.824 -43.698  11.967  1.00  0.00     0.187 C 
HETATM   22  C   UNL     1     -42.424 -44.690  10.959  1.00  0.00     0.149 C 
ENDBRANCH   4  17
TORSDOF 6
ENDMDL
MODEL 6
REMARK VINA RESULT:      -5.5      3.190      6.996
REMARK  6 active torsions:
REMARK  status: ('A' for Active; 'I' for Inactive)
REMARK    1  A    between atoms: C_2  and  C_3 
REMARK    2  A    between atoms: C_3  and  C_4 
REMARK    3  A    between atoms: C_4  and  C_5 
REMARK    4  A    between atoms: C_5  and  C_6 
REMARK       I    between atoms: C_6  and  N_8 
REMARK    5  A    between atoms: N_8  and  C_9 
REMARK    6  A    between atoms: C_12  and  N_16 
ROOT
HETATM    1  C   UNL     1     -42.666 -51.161  13.370  1.00  0.00     0.107 A 
HETATM    2  C   UNL     1     -43.384 -49.977  13.410  1.00  0.00     0.051 A 
HETATM    3  C   UNL     1     -43.044 -48.949  12.517  1.00  0.00     0.034 A 
HETATM    4  C   UNL     1     -41.992 -49.085  11.600  1.00  0.00     0.046 A 
HETATM    5  C   UNL     1     -41.297 -50.284  11.722  1.00  0.00     0.119 A 
HETATM    6  N   UNL     1     -41.608 -51.300  12.564  1.00  0.00    -0.350 N 
ATOM      7  HN  UNL     1     -41.046 -52.151  12.583  1.00  0.00     0.166 HD
ENDROOT
BRANCH   1   8
HETATM    8  N   UNL     1     -43.087 -52.234  14.172  1.00  0.00    -0.313 N 
HETATM    9  C   UNL     1     -43.586 -53.412  13.654  1.00  0.00     0.223 C 
HETATM   10  O   UNL     1     -43.773 -53.665  12.466  1.00  0.00    -0.273 OA
HETATM   11  H   UNL     1     -43.114 -52.090  15.169  1.00  0.00     0.170 HD
BRANCH   9  12
HETATM   12  C   UNL     1     -43.993 -54.415  14.725  1.00  0.00     0.103 C 
BRANCH  12  13
HETATM   13  C   UNL     1     -45.087 -53.807  15.605  1.00  0.00     0.009 C 
BRANCH  13  14
HETATM   14  C   UNL     1     -46.415 -53.605  14.883  1.00  0.00     0.000 C 
BRANCH  14  15
HETATM   15  C   UNL     1     -46.796 -52.122  14.901  1.00  0.00    -0.005 C 
HETATM   16  C   UNL     1     -46.704 -51.490  13.524  1.00  0.00     0.005 C 
ENDBRANCH  14  15
ENDBRANCH  13  14
ENDBRANCH  12  13
ENDBRANCH   9  12
ENDBRANCH   1   8
BRANCH   4  17
HETATM   17  N   UNL     1     -41.671 -48.087  10.698  1.00  0.00    -0.376 N 
HETATM   18  C   UNL     1     -40.671 -47.051  11.032  1.00  0.00     0.149 C 
HETATM   19  C   UNL     1     -41.344 -45.676  11.205  1.00  0.00     0.187 C 
HETATM   20  O   UNL     1     -42.146 -45.319  10.069  1.00  0.00    -0.388 OA
HETATM   21  C   UNL     1     -43.176 -46.300   9.865  1.00  0.00     0.187 C 
HETATM   22  C   UNL     1     -42.569 -47.685   9.596  1.00  0.00     0.149 C 
ENDBRANCH   4  17
TORSDOF 6
ENDMDL
MODEL 7
REMARK VINA RESULT:      -5.3      2.740      7.373
REMARK  6 active torsions:
REMARK  status: ('A' for Active; 'I' for Inactive)
REMARK    1  A    between atoms: C_2  and  C_3 
REMARK    2  A    between atoms: C_3  and  C_4 
REMARK    3  A    between atoms: C_4  and  C_5 
REMARK    4  A    between atoms: C_5  and  C_6 
REMARK       I    between atoms: C_6  and  N_8 
REMARK    5  A    between atoms: N_8  and  C_9 
REMARK    6  A    between atoms: C_12  and  N_16 
ROOT
HETATM    1  C   UNL     1     -41.835 -50.753  12.131  1.00  0.00     0.107 A 
HETATM    2  C   UNL     1     -42.580 -49.698  12.630  1.00  0.00     0.051 A 
HETATM    3  C   UNL     1     -42.356 -48.410  12.120  1.00  0.00     0.034 A 
HETATM    4  C   UNL     1     -41.391 -48.164  11.133  1.00  0.00     0.046 A 
HETATM    5  C   UNL     1     -40.652 -49.290  10.783  1.00  0.00     0.119 A 
HETATM    6  N   UNL     1     -40.852 -50.547  11.247  1.00  0.00    -0.350 N 
ATOM      7  HN  UNL     1     -40.266 -51.319  10.930  1.00  0.00     0.166 HD
ENDROOT
BRANCH   1   8
HETATM    8  N   UNL     1     -42.146 -52.058  12.547  1.00  0.00    -0.313 N 
HETATM    9  C   UNL     1     -41.186 -52.994  12.876  1.00  0.00     0.223 C 
HETATM   10  O   UNL     1     -39.968 -52.844  12.808  1.00  0.00    -0.273 OA
HETATM   11  H   UNL     1     -43.111 -52.344  12.505  1.00  0.00     0.170 HD
BRANCH   9  12
HETATM   12  C   UNL     1     -41.772 -54.341  13.277  1.00  0.00     0.103 C 
BRANCH  12  13
HETATM   13  C   UNL     1     -42.040 -54.352  14.784  1.00  0.00     0.009 C 
BRANCH  13  14
HETATM   14  C   UNL     1     -43.522 -54.372  15.144  1.00  0.00     0.000 C 
BRANCH  14  15
HETATM   15  C   UNL     1     -44.335 -54.924  13.969  1.00  0.00    -0.005 C 
HETATM   16  C   UNL     1     -45.830 -54.802  14.200  1.00  0.00     0.005 C 
ENDBRANCH  14  15
ENDBRANCH  13  14
ENDBRANCH  12  13
ENDBRANCH   9  12
ENDBRANCH   1   8
BRANCH   4  17
HETATM   17  N   UNL     1     -41.185 -46.902  10.606  1.00  0.00    -0.376 N 
HETATM   18  C   UNL     1     -39.925 -46.170  10.853  1.00  0.00     0.149 C 
HETATM   19  C   UNL     1     -40.168 -44.955  11.769  1.00  0.00     0.187 C 
HETATM   20  O   UNL     1     -41.211 -44.102  11.272  1.00  0.00    -0.388 OA
HETATM   21  C   UNL     1     -42.441 -44.838  11.167  1.00  0.00     0.187 C 
HETATM   22  C   UNL     1     -42.293 -46.017  10.193  1.00  0.00     0.149 C 
ENDBRANCH   4  17
TORSDOF 6
ENDMDL
MODEL 8
REMARK VINA RESULT:      -5.1      3.747      5.629
REMARK  6 active torsions:
REMARK  status: ('A' for Active; 'I' for Inactive)
REMARK    1  A    between atoms: C_2  and  C_3 
REMARK    2  A    between atoms: C_3  and  C_4 
REMARK    3  A    between atoms: C_4  and  C_5 
REMARK    4  A    between atoms: C_5  and  C_6 
REMARK       I    between atoms: C_6  and  N_8 
REMARK    5  A    between atoms: N_8  and  C_9 
REMARK    6  A    between atoms: C_12  and  N_16 
ROOT
HETATM    1  C   UNL     1     -42.513 -51.892  12.350  1.00  0.00     0.107 A 
HETATM    2  C   UNL     1     -41.490 -52.717  12.786  1.00  0.00     0.051 A 
HETATM    3  C   UNL     1     -40.201 -52.182  12.922  1.00  0.00     0.034 A 
HETATM    4  C   UNL     1     -39.919 -50.843  12.616  1.00  0.00     0.046 A 
HETATM    5  C   UNL     1     -41.012 -50.147  12.106  1.00  0.00     0.119 A 
HETATM    6  N   UNL     1     -42.271 -50.631  11.974  1.00  0.00    -0.350 N 
ATOM      7  HN  UNL     1     -43.016 -50.047  11.596  1.00  0.00     0.166 HD
ENDROOT
BRANCH   1   8
HETATM    8  N   UNL     1     -43.826 -52.391  12.336  1.00  0.00    -0.313 N 
HETATM    9  C   UNL     1     -44.860 -51.813  13.047  1.00  0.00     0.223 C 
HETATM   10  O   UNL     1     -44.775 -50.847  13.802  1.00  0.00    -0.273 OA
HETATM   11  H   UNL     1     -43.989 -53.265  11.864  1.00  0.00     0.170 HD
BRANCH   9  12
HETATM   12  C   UNL     1     -46.184 -52.548  12.887  1.00  0.00     0.103 C 
BRANCH  12  13
HETATM   13  C   UNL     1     -46.828 -52.745  14.261  1.00  0.00     0.009 C 
BRANCH  13  14
HETATM   14  C   UNL     1     -46.307 -53.965  15.014  1.00  0.00     0.000 C 
BRANCH  14  15
HETATM   15  C   UNL     1     -45.666 -54.949  14.032  1.00  0.00    -0.005 C 
HETATM   16  C   UNL     1     -44.221 -55.250  14.383  1.00  0.00     0.005 C 
ENDBRANCH  14  15
ENDBRANCH  13  14
ENDBRANCH  12  13
ENDBRANCH   9  12
ENDBRANCH   1   8
BRANCH   4  17
HETATM   17  N   UNL     1     -38.657 -50.302  12.775  1.00  0.00    -0.376 N 
HETATM   18  C   UNL     1     -37.641 -50.973  13.614  1.00  0.00     0.149 C 
HETATM   19  C   UNL     1     -37.359 -50.159  14.890  1.00  0.00     0.187 C 
HETATM   20  O   UNL     1     -37.018 -48.795  14.599  1.00  0.00    -0.388 OA
HETATM   21  C   UNL     1     -38.093 -48.158  13.889  1.00  0.00     0.187 C 
HETATM   22  C   UNL     1     -38.367 -48.870  12.556  1.00  0.00     0.149 C 
ENDBRANCH   4  17
TORSDOF 6
ENDMDL
MODEL 9
REMARK VINA RESULT:      -5.0      2.780      7.573
REMARK  6 active torsions:
REMARK  status: ('A' for Active; 'I' for Inactive)
REMARK    1  A    between atoms: C_2  and  C_3 
REMARK    2  A    between atoms: C_3  and  C_4 
REMARK    3  A    between atoms: C_4  and  C_5 
REMARK    4  A    between atoms: C_5  and  C_6 
REMARK       I    between atoms: C_6  and  N_8 
REMARK    5  A    between atoms: N_8  and  C_9 
REMARK    6  A    between atoms: C_12  and  N_16 
ROOT
HETATM    1  C   UNL     1     -40.501 -50.395  11.600  1.00  0.00     0.107 A 
HETATM    2  C   UNL     1     -39.328 -49.746  11.947  1.00  0.00     0.051 A 
HETATM    3  C   UNL     1     -39.274 -48.347  11.847  1.00  0.00     0.034 A 
HETATM    4  C   UNL     1     -40.368 -47.596  11.395  1.00  0.00     0.046 A 
HETATM    5  C   UNL     1     -41.451 -48.373  10.995  1.00  0.00     0.119 A 
HETATM    6  N   UNL     1     -41.538 -49.722  11.090  1.00  0.00    -0.350 N 
ATOM      7  HN  UNL     1     -42.376 -50.213  10.779  1.00  0.00     0.166 HD
ENDROOT
BRANCH   1   8
HETATM    8  N   UNL     1     -40.598 -51.779  11.820  1.00  0.00    -0.313 N 
HETATM    9  C   UNL     1     -41.524 -52.343  12.676  1.00  0.00     0.223 C 
HETATM   10  O   UNL     1     -42.333 -51.738  13.377  1.00  0.00    -0.273 OA
HETATM   11  H   UNL     1     -39.894 -52.369  11.409  1.00  0.00     0.170 HD
BRANCH   9  12
HETATM   12  C   UNL     1     -41.419 -53.859  12.761  1.00  0.00     0.103 C 
BRANCH  12  13
HETATM   13  C   UNL     1     -40.925 -54.259  14.153  1.00  0.00     0.009 C 
BRANCH  13  14
HETATM   14  C   UNL     1     -39.409 -54.194  14.310  1.00  0.00     0.000 C 
BRANCH  14  15
HETATM   15  C   UNL     1     -39.048 -53.322  15.516  1.00  0.00    -0.005 C 
HETATM   16  C   UNL     1     -38.869 -51.864  15.135  1.00  0.00     0.005 C 
ENDBRANCH  14  15
ENDBRANCH  13  14
ENDBRANCH  12  13
ENDBRANCH   9  12
ENDBRANCH   1   8
BRANCH   4  17
HETATM   17  N   UNL     1     -40.331 -46.215  11.321  1.00  0.00    -0.376 N 
HETATM   18  C   UNL     1     -39.801 -45.407  12.440  1.00  0.00     0.149 C 
HETATM   19  C   UNL     1     -40.930 -44.617  13.128  1.00  0.00     0.187 C 
HETATM   20  O   UNL     1     -41.690 -43.833  12.196  1.00  0.00    -0.388 OA
HETATM   21  C   UNL     1     -42.281 -44.686  11.202  1.00  0.00     0.187 C 
HETATM   22  C   UNL     1     -41.200 -45.439  10.412  1.00  0.00     0.149 C 
ENDBRANCH   4  17
TORSDOF 6
ENDMDL
