MODEL 1
REMARK VINA RESULT:      -6.2      0.000      0.000
REMARK  3 active torsions:
REMARK  status: ('A' for Active; 'I' for Inactive)
REMARK    1  A    between atoms: C_5  and  N_9 
REMARK       I    between atoms: N_9  and  C_10 
REMARK    2  A    between atoms: C_10  and  C_12 
REMARK    3  A    between atoms: C_12  and  C_13 
ROOT
HETATM    1  N   UNL     1     -41.690 -52.354  14.505  1.00  0.00    -0.352 N 
HETATM    2  C   UNL     1     -40.718 -51.915  13.629  1.00  0.00     0.222 C 
HETATM    3  O   UNL     1     -40.090 -52.648  12.868  1.00  0.00    -0.273 OA
HETATM    4  H   UNL     1     -42.035 -51.682  15.188  1.00  0.00     0.163 HD
ENDROOT
BRANCH   2   5
HETATM    5  C   UNL     1     -40.458 -50.424  13.669  1.00  0.00     0.149 C 
BRANCH   5   6
HETATM    6  C   UNL     1     -41.225 -49.742  12.575  1.00  0.00     0.041 C 
HETATM    7  C   UNL     1     -42.514 -49.349  12.599  1.00  0.00     0.018 C 
HETATM    8  C   UNL     1     -43.454 -49.640  13.740  1.00  0.00     0.069 C 
HETATM    9  N   UNL     1     -43.111 -48.631  11.584  1.00  0.00    -0.349 N 
HETATM   10  C   UNL     1     -42.389 -48.304  10.565  1.00  0.00     0.080 C 
ATOM     11  HN  UNL     1     -44.094 -48.366  11.637  1.00  0.00     0.167 HD
HETATM   12  C   UNL     1     -42.959 -47.474   9.452  1.00  0.00     0.089 C 
HETATM   13  N   UNL     1     -41.084 -48.665  10.425  1.00  0.00    -0.313 N 
HETATM   14  C   UNL     1     -40.456 -49.450  11.344  1.00  0.00     0.255 C 
HETATM   15  H   UNL     1     -40.566 -48.447   9.587  1.00  0.00     0.170 HD
HETATM   16  O   UNL     1     -39.326 -49.895  11.162  1.00  0.00    -0.268 OA
ENDBRANCH   5   6
ENDBRANCH   2   5
BRANCH   1  17
HETATM   17  C   UNL     1     -42.107 -53.763  14.641  1.00  0.00     0.029 C 
HETATM   18  C   UNL     1     -42.536 -54.343  13.272  1.00  0.00     0.031 C 
HETATM   19  C   UNL     1     -43.823 -53.707  12.739  1.00  0.00     0.007 C 
HETATM   20  C   UNL     1     -44.994 -53.834  13.722  1.00  0.00    -0.019 C 
HETATM   21  C   UNL     1     -45.490 -55.279  13.824  1.00  0.00     0.010 C 
HETATM   22  C   UNL     1     -44.601 -53.265  15.091  1.00  0.00     0.007 C 
HETATM   23  C   UNL     1     -43.297 -53.852  15.634  1.00  0.00     0.031 C 
HETATM   24  C   UNL     1     -40.954 -54.601  15.229  1.00  0.00     0.038 C 
ENDBRANCH   1  17
TORSDOF 3
ENDMDL
MODEL 2
REMARK VINA RESULT:      -6.1      2.441      4.049
REMARK  3 active torsions:
REMARK  status: ('A' for Active; 'I' for Inactive)
REMARK    1  A    between atoms: C_5  and  N_9 
REMARK       I    between atoms: N_9  and  C_10 
REMARK    2  A    between atoms: C_10  and  C_12 
REMARK    3  A    between atoms: C_12  and  C_13 
ROOT
HETATM    1  N   UNL     1     -43.796 -53.486  13.149  1.00  0.00    -0.352 N 
HETATM    2  C   UNL     1     -42.546 -53.948  13.509  1.00  0.00     0.222 C 
HETATM    3  O   UNL     1     -42.326 -54.663  14.484  1.00  0.00    -0.273 OA
HETATM    4  H   UNL     1     -43.836 -52.783  12.414  1.00  0.00     0.163 HD
ENDROOT
BRANCH   2   5
HETATM    5  C   UNL     1     -41.421 -53.496  12.601  1.00  0.00     0.149 C 
BRANCH   5   6
HETATM    6  C   UNL     1     -40.617 -52.426  13.277  1.00  0.00     0.041 C 
HETATM    7  C   UNL     1     -40.918 -51.116  13.381  1.00  0.00     0.018 C 
HETATM    8  C   UNL     1     -42.111 -50.479  12.715  1.00  0.00     0.069 C 
HETATM    9  N   UNL     1     -40.172 -50.218  14.115  1.00  0.00    -0.349 N 
HETATM   10  C   UNL     1     -39.138 -50.661  14.749  1.00  0.00     0.080 C 
ATOM     11  HN  UNL     1     -40.429 -49.231  14.155  1.00  0.00     0.167 HD
HETATM   12  C   UNL     1     -38.315 -49.750  15.612  1.00  0.00     0.089 C 
HETATM   13  N   UNL     1     -38.728 -51.958  14.698  1.00  0.00    -0.313 N 
HETATM   14  C   UNL     1     -39.364 -52.880  13.922  1.00  0.00     0.255 C 
HETATM   15  H   UNL     1     -37.881 -52.259  15.155  1.00  0.00     0.170 HD
HETATM   16  O   UNL     1     -38.924 -54.015  13.761  1.00  0.00    -0.268 OA
ENDBRANCH   5   6
ENDBRANCH   2   5
BRANCH   1  17
HETATM   17  C   UNL     1     -45.036 -53.795  13.886  1.00  0.00     0.029 C 
HETATM   18  C   UNL     1     -46.225 -52.974  13.328  1.00  0.00     0.031 C 
HETATM   19  C   UNL     1     -46.086 -51.474  13.605  1.00  0.00     0.007 C 
HETATM   20  C   UNL     1     -45.922 -51.163  15.099  1.00  0.00    -0.019 C 
HETATM   21  C   UNL     1     -47.221 -51.408  15.871  1.00  0.00     0.010 C 
HETATM   22  C   UNL     1     -44.749 -51.962  15.681  1.00  0.00     0.007 C 
HETATM   23  C   UNL     1     -44.838 -53.460  15.387  1.00  0.00     0.031 C 
HETATM   24  C   UNL     1     -45.348 -55.302  13.787  1.00  0.00     0.038 C 
ENDBRANCH   1  17
TORSDOF 3
ENDMDL
MODEL 3
REMARK VINA RESULT:      -6.0      2.914      5.915
REMARK  3 active torsions:
REMARK  status: ('A' for Active; 'I' for Inactive)
REMARK    1  A    between atoms: C_5  and  N_9 
REMARK       I    between atoms: N_9  and  C_10 
REMARK    2  A    between atoms: C_10  and  C_12 
REMARK    3  A    between atoms: C_12  and  C_13 
ROOT
HETATM    1  N   UNL     1     -43.647 -52.521  13.682  1.00  0.00    -0.352 N 
HETATM    2  C   UNL     1     -42.274 -52.587  13.803  1.00  0.00     0.222 C 
HETATM    3  O   UNL     1     -41.571 -51.670  14.222  1.00  0.00    -0.273 OA
HETATM    4  H   UNL     1     -44.105 -53.283  13.185  1.00  0.00     0.163 HD
ENDROOT
BRANCH   2   5
HETATM    5  C   UNL     1     -41.663 -53.902  13.366  1.00  0.00     0.149 C 
BRANCH   5   6
HETATM    6  C   UNL     1     -40.836 -54.476  14.476  1.00  0.00     0.041 C 
HETATM    7  C   UNL     1     -41.274 -55.091  15.593  1.00  0.00     0.018 C 
HETATM    8  C   UNL     1     -42.731 -55.209  15.963  1.00  0.00     0.069 C 
HETATM    9  N   UNL     1     -40.438 -55.685  16.515  1.00  0.00    -0.349 N 
HETATM   10  C   UNL     1     -39.168 -55.665  16.286  1.00  0.00     0.080 C 
ATOM     11  HN  UNL     1     -40.813 -56.128  17.354  1.00  0.00     0.167 HD
HETATM   12  C   UNL     1     -38.206 -56.342  17.217  1.00  0.00     0.089 C 
HETATM   13  N   UNL     1     -38.613 -55.054  15.203  1.00  0.00    -0.313 N 
HETATM   14  C   UNL     1     -39.370 -54.371  14.299  1.00  0.00     0.255 C 
HETATM   15  H   UNL     1     -37.612 -55.002  15.086  1.00  0.00     0.170 HD
HETATM   16  O   UNL     1     -38.869 -53.703  13.398  1.00  0.00    -0.268 OA
ENDBRANCH   5   6
ENDBRANCH   2   5
BRANCH   1  17
HETATM   17  C   UNL     1     -44.455 -51.341  14.044  1.00  0.00     0.029 C 
HETATM   18  C   UNL     1     -44.424 -51.102  15.573  1.00  0.00     0.031 C 
HETATM   19  C   UNL     1     -45.147 -52.203  16.356  1.00  0.00     0.007 C 
HETATM   20  C   UNL     1     -46.603 -52.383  15.910  1.00  0.00    -0.019 C 
HETATM   21  C   UNL     1     -47.475 -51.200  16.339  1.00  0.00     0.010 C 
HETATM   22  C   UNL     1     -46.668 -52.624  14.396  1.00  0.00     0.007 C 
HETATM   23  C   UNL     1     -45.921 -51.562  13.587  1.00  0.00     0.031 C 
HETATM   24  C   UNL     1     -43.927 -50.093  13.308  1.00  0.00     0.038 C 
ENDBRANCH   1  17
TORSDOF 3
ENDMDL
MODEL 4
REMARK VINA RESULT:      -5.9      2.520      6.033
REMARK  3 active torsions:
REMARK  status: ('A' for Active; 'I' for Inactive)
REMARK    1  A    between atoms: C_5  and  N_9 
REMARK       I    between atoms: N_9  and  C_10 
REMARK    2  A    between atoms: C_10  and  C_12 
REMARK    3  A    between atoms: C_12  and  C_13 
ROOT
HETATM    1  N   UNL     1     -38.576 -51.708  13.786  1.00  0.00    -0.352 N 
HETATM    2  C   UNL     1     -39.071 -52.514  14.792  1.00  0.00     0.222 C 
HETATM    3  O   UNL     1     -39.295 -52.132  15.938  1.00  0.00    -0.273 OA
HETATM    4  H   UNL     1     -38.289 -52.167  12.924  1.00  0.00     0.163 HD
ENDROOT
BRANCH   2   5
HETATM    5  C   UNL     1     -39.321 -53.951  14.384  1.00  0.00     0.149 C 
BRANCH   5   6
HETATM    6  C   UNL     1     -40.786 -54.168  14.147  1.00  0.00     0.041 C 
HETATM    7  C   UNL     1     -41.673 -54.749  14.979  1.00  0.00     0.018 C 
HETATM    8  C   UNL     1     -41.293 -55.392  16.288  1.00  0.00     0.069 C 
HETATM    9  N   UNL     1     -43.027 -54.812  14.725  1.00  0.00    -0.349 N 
HETATM   10  C   UNL     1     -43.469 -54.270  13.640  1.00  0.00     0.080 C 
ATOM     11  HN  UNL     1     -43.662 -55.274  15.376  1.00  0.00     0.167 HD
HETATM   12  C   UNL     1     -44.937 -54.251  13.330  1.00  0.00     0.089 C 
HETATM   13  N   UNL     1     -42.661 -53.675  12.718  1.00  0.00    -0.313 N 
HETATM   14  C   UNL     1     -41.307 -53.656  12.860  1.00  0.00     0.255 C 
HETATM   15  H   UNL     1     -43.031 -53.316  11.851  1.00  0.00     0.170 HD
HETATM   16  O   UNL     1     -40.562 -53.246  11.973  1.00  0.00    -0.268 OA
ENDBRANCH   5   6
ENDBRANCH   2   5
BRANCH   1  17
HETATM   17  C   UNL     1     -38.255 -50.278  13.954  1.00  0.00     0.029 C 
HETATM   18  C   UNL     1     -39.517 -49.476  14.357  1.00  0.00     0.031 C 
HETATM   19  C   UNL     1     -40.558 -49.413  13.235  1.00  0.00     0.007 C 
HETATM   20  C   UNL     1     -39.990 -48.828  11.936  1.00  0.00    -0.019 C 
HETATM   21  C   UNL     1     -39.718 -47.327  12.065  1.00  0.00     0.010 C 
HETATM   22  C   UNL     1     -38.738 -49.603  11.509  1.00  0.00     0.007 C 
HETATM   23  C   UNL     1     -37.693 -49.718  12.620  1.00  0.00     0.031 C 
HETATM   24  C   UNL     1     -37.159 -50.104  15.024  1.00  0.00     0.038 C 
ENDBRANCH   1  17
TORSDOF 3
ENDMDL
MODEL 5
REMARK VINA RESULT:      -5.9      2.110      2.988
REMARK  3 active torsions:
REMARK  status: ('A' for Active; 'I' for Inactive)
REMARK    1  A    between atoms: C_5  and  N_9 
REMARK       I    between atoms: N_9  and  C_10 
REMARK    2  A    between atoms: C_10  and  C_12 
REMARK    3  A    between atoms: C_12  and  C_13 
ROOT
HETATM    1  N   UNL     1     -43.095 -52.877  13.025  1.00  0.00    -0.352 N 
HETATM    2  C   UNL     1     -41.738 -52.760  13.251  1.00  0.00     0.222 C 
HETATM    3  O   UNL     1     -41.175 -53.110  14.286  1.00  0.00    -0.273 OA
HETATM    4  H   UNL     1     -43.467 -52.418  12.197  1.00  0.00     0.163 HD
ENDROOT
BRANCH   2   5
HETATM    5  C   UNL     1     -40.958 -52.142  12.109  1.00  0.00     0.149 C 
BRANCH   5   6
HETATM    6  C   UNL     1     -40.374 -50.830  12.540  1.00  0.00     0.041 C 
HETATM    7  C   UNL     1     -41.004 -49.642  12.630  1.00  0.00     0.018 C 
HETATM    8  C   UNL     1     -42.429 -49.418  12.195  1.00  0.00     0.069 C 
HETATM    9  N   UNL     1     -40.414 -48.503  13.138  1.00  0.00    -0.349 N 
HETATM   10  C   UNL     1     -39.199 -48.586  13.565  1.00  0.00     0.080 C 
ATOM     11  HN  UNL     1     -40.924 -47.621  13.176  1.00  0.00     0.167 HD
HETATM   12  C   UNL     1     -38.517 -47.402  14.183  1.00  0.00     0.089 C 
HETATM   13  N   UNL     1     -38.460 -49.728  13.502  1.00  0.00    -0.313 N 
HETATM   14  C   UNL     1     -38.947 -50.866  12.931  1.00  0.00     0.255 C 
HETATM   15  H   UNL     1     -37.493 -49.743  13.787  1.00  0.00     0.170 HD
HETATM   16  O   UNL     1     -38.245 -51.856  12.746  1.00  0.00    -0.268 OA
ENDBRANCH   5   6
ENDBRANCH   2   5
BRANCH   1  17
HETATM   17  C   UNL     1     -44.050 -53.445  13.996  1.00  0.00     0.029 C 
HETATM   18  C   UNL     1     -45.472 -53.516  13.389  1.00  0.00     0.031 C 
HETATM   19  C   UNL     1     -46.082 -52.130  13.155  1.00  0.00     0.007 C 
HETATM   20  C   UNL     1     -46.126 -51.282  14.432  1.00  0.00    -0.019 C 
HETATM   21  C   UNL     1     -47.165 -51.813  15.425  1.00  0.00     0.010 C 
HETATM   22  C   UNL     1     -44.729 -51.192  15.058  1.00  0.00     0.007 C 
HETATM   23  C   UNL     1     -44.076 -52.559  15.269  1.00  0.00     0.031 C 
HETATM   24  C   UNL     1     -43.592 -54.854  14.424  1.00  0.00     0.038 C 
ENDBRANCH   1  17
TORSDOF 3
ENDMDL
MODEL 6
REMARK VINA RESULT:      -5.8      2.321      6.722
REMARK  3 active torsions:
REMARK  status: ('A' for Active; 'I' for Inactive)
REMARK    1  A    between atoms: C_5  and  N_9 
REMARK       I    between atoms: N_9  and  C_10 
REMARK    2  A    between atoms: C_10  and  C_12 
REMARK    3  A    between atoms: C_12  and  C_13 
ROOT
HETATM    1  N   UNL     1     -40.070 -51.523  12.100  1.00  0.00    -0.352 N 
HETATM    2  C   UNL     1     -41.273 -52.119  12.419  1.00  0.00     0.222 C 
HETATM    3  O   UNL     1     -42.291 -51.504  12.726  1.00  0.00    -0.273 OA
HETATM    4  H   UNL     1     -39.260 -52.133  12.009  1.00  0.00     0.163 HD
ENDROOT
BRANCH   2   5
HETATM    5  C   UNL     1     -41.259 -53.633  12.375  1.00  0.00     0.149 C 
BRANCH   5   6
HETATM    6  C   UNL     1     -41.089 -54.183  13.760  1.00  0.00     0.041 C 
HETATM    7  C   UNL     1     -42.058 -54.590  14.605  1.00  0.00     0.018 C 
HETATM    8  C   UNL     1     -43.530 -54.452  14.315  1.00  0.00     0.069 C 
HETATM    9  N   UNL     1     -41.806 -55.184  15.823  1.00  0.00    -0.349 N 
HETATM   10  C   UNL     1     -40.576 -55.375  16.164  1.00  0.00     0.080 C 
ATOM     11  HN  UNL     1     -42.570 -55.464  16.438  1.00  0.00     0.167 HD
HETATM   12  C   UNL     1     -40.231 -56.068  17.450  1.00  0.00     0.089 C 
HETATM   13  N   UNL     1     -39.518 -54.985  15.400  1.00  0.00    -0.313 N 
HETATM   14  C   UNL     1     -39.691 -54.313  14.228  1.00  0.00     0.255 C 
HETATM   15  H   UNL     1     -38.569 -55.093  15.724  1.00  0.00     0.170 HD
HETATM   16  O   UNL     1     -38.748 -53.837  13.601  1.00  0.00    -0.268 OA
ENDBRANCH   5   6
ENDBRANCH   2   5
BRANCH   1  17
HETATM   17  C   UNL     1     -39.848 -50.064  12.079  1.00  0.00     0.029 C 
HETATM   18  C   UNL     1     -38.380 -49.737  11.713  1.00  0.00     0.031 C 
HETATM   19  C   UNL     1     -37.391 -50.168  12.800  1.00  0.00     0.007 C 
HETATM   20  C   UNL     1     -37.713 -49.551  14.167  1.00  0.00    -0.019 C 
HETATM   21  C   UNL     1     -37.421 -48.048  14.190  1.00  0.00     0.010 C 
HETATM   22  C   UNL     1     -39.163 -49.860  14.560  1.00  0.00     0.007 C 
HETATM   23  C   UNL     1     -40.173 -49.477  13.478  1.00  0.00     0.031 C 
HETATM   24  C   UNL     1     -40.802 -49.399  11.067  1.00  0.00     0.038 C 
ENDBRANCH   1  17
TORSDOF 3
ENDMDL
MODEL 7
REMARK VINA RESULT:      -5.7      2.044      3.508
REMARK  3 active torsions:
REMARK  status: ('A' for Active; 'I' for Inactive)
REMARK    1  A    between atoms: C_5  and  N_9 
REMARK       I    between atoms: N_9  and  C_10 
REMARK    2  A    between atoms: C_10  and  C_12 
REMARK    3  A    between atoms: C_12  and  C_13 
ROOT
HETATM    1  N   UNL     1     -44.038 -50.974  12.996  1.00  0.00    -0.352 N 
HETATM    2  C   UNL     1     -43.320 -49.813  13.198  1.00  0.00     0.222 C 
HETATM    3  O   UNL     1     -43.019 -49.368  14.304  1.00  0.00    -0.273 OA
HETATM    4  H   UNL     1     -44.355 -51.163  12.047  1.00  0.00     0.163 HD
ENDROOT
BRANCH   2   5
HETATM    5  C   UNL     1     -42.917 -49.090  11.930  1.00  0.00     0.149 C 
BRANCH   5   6
HETATM    6  C   UNL     1     -41.439 -49.218  11.716  1.00  0.00     0.041 C 
HETATM    7  C   UNL     1     -40.540 -48.221  11.582  1.00  0.00     0.018 C 
HETATM    8  C   UNL     1     -40.915 -46.763  11.521  1.00  0.00     0.069 C 
HETATM    9  N   UNL     1     -39.180 -48.428  11.494  1.00  0.00    -0.349 N 
HETATM   10  C   UNL     1     -38.744 -49.641  11.561  1.00  0.00     0.080 C 
ATOM     11  HN  UNL     1     -38.536 -47.645  11.380  1.00  0.00     0.167 HD
HETATM   12  C   UNL     1     -37.273 -49.934  11.530  1.00  0.00     0.089 C 
HETATM   13  N   UNL     1     -39.561 -50.725  11.673  1.00  0.00    -0.313 N 
HETATM   14  C   UNL     1     -40.917 -50.602  11.675  1.00  0.00     0.255 C 
HETATM   15  H   UNL     1     -39.191 -51.664  11.659  1.00  0.00     0.170 HD
HETATM   16  O   UNL     1     -41.663 -51.578  11.637  1.00  0.00    -0.268 OA
ENDBRANCH   5   6
ENDBRANCH   2   5
BRANCH   1  17
HETATM   17  C   UNL     1     -44.536 -51.840  14.082  1.00  0.00     0.029 C 
HETATM   18  C   UNL     1     -43.420 -52.118  15.118  1.00  0.00     0.031 C 
HETATM   19  C   UNL     1     -42.291 -52.984  14.549  1.00  0.00     0.007 C 
HETATM   20  C   UNL     1     -42.798 -54.319  13.990  1.00  0.00    -0.019 C 
HETATM   21  C   UNL     1     -43.253 -55.262  15.108  1.00  0.00     0.010 C 
HETATM   22  C   UNL     1     -43.905 -54.077  12.958  1.00  0.00     0.007 C 
HETATM   23  C   UNL     1     -45.030 -53.182  13.482  1.00  0.00     0.031 C 
HETATM   24  C   UNL     1     -45.742 -51.174  14.776  1.00  0.00     0.038 C 
ENDBRANCH   1  17
TORSDOF 3
ENDMDL
MODEL 8
REMARK VINA RESULT:      -5.7      3.068      6.447
REMARK  3 active torsions:
REMARK  status: ('A' for Active; 'I' for Inactive)
REMARK    1  A    between atoms: C_5  and  N_9 
REMARK       I    between atoms: N_9  and  C_10 
REMARK    2  A    between atoms: C_10  and  C_12 
REMARK    3  A    between atoms: C_12  and  C_13 
ROOT
HETATM    1  N   UNL     1     -43.850 -52.542  13.779  1.00  0.00    -0.352 N 
HETATM    2  C   UNL     1     -42.493 -52.661  14.007  1.00  0.00     0.222 C 
HETATM    3  O   UNL     1     -41.795 -51.780  14.503  1.00  0.00    -0.273 OA
HETATM    4  H   UNL     1     -44.292 -53.275  13.228  1.00  0.00     0.163 HD
ENDROOT
BRANCH   2   5
HETATM    5  C   UNL     1     -41.896 -53.987  13.585  1.00  0.00     0.149 C 
BRANCH   5   6
HETATM    6  C   UNL     1     -41.483 -54.770  14.795  1.00  0.00     0.041 C 
HETATM    7  C   UNL     1     -40.243 -54.890  15.310  1.00  0.00     0.018 C 
HETATM    8  C   UNL     1     -39.010 -54.315  14.661  1.00  0.00     0.069 C 
HETATM    9  N   UNL     1     -39.969 -55.546  16.492  1.00  0.00    -0.349 N 
HETATM   10  C   UNL     1     -40.956 -56.058  17.147  1.00  0.00     0.080 C 
ATOM     11  HN  UNL     1     -39.013 -55.625  16.839  1.00  0.00     0.167 HD
HETATM   12  C   UNL     1     -40.737 -56.735  18.468  1.00  0.00     0.089 C 
HETATM   13  N   UNL     1     -42.246 -56.016  16.710  1.00  0.00    -0.313 N 
HETATM   14  C   UNL     1     -42.578 -55.464  15.510  1.00  0.00     0.255 C 
HETATM   15  H   UNL     1     -42.985 -56.480  17.215  1.00  0.00     0.170 HD
HETATM   16  O   UNL     1     -43.712 -55.542  15.045  1.00  0.00    -0.268 OA
ENDBRANCH   5   6
ENDBRANCH   2   5
BRANCH   1  17
HETATM   17  C   UNL     1     -44.642 -51.342  14.107  1.00  0.00     0.029 C 
HETATM   18  C   UNL     1     -44.578 -51.039  15.624  1.00  0.00     0.031 C 
HETATM   19  C   UNL     1     -45.292 -52.100  16.467  1.00  0.00     0.007 C 
HETATM   20  C   UNL     1     -46.758 -52.289  16.058  1.00  0.00    -0.019 C 
HETATM   21  C   UNL     1     -47.614 -51.083  16.455  1.00  0.00     0.010 C 
HETATM   22  C   UNL     1     -46.855 -52.593  14.559  1.00  0.00     0.007 C 
HETATM   23  C   UNL     1     -46.118 -51.572  13.690  1.00  0.00     0.031 C 
HETATM   24  C   UNL     1     -44.121 -50.130  13.308  1.00  0.00     0.038 C 
ENDBRANCH   1  17
TORSDOF 3
ENDMDL
MODEL 9
REMARK VINA RESULT:      -5.6      2.105      2.908
REMARK  3 active torsions:
REMARK  status: ('A' for Active; 'I' for Inactive)
REMARK    1  A    between atoms: C_5  and  N_9 
REMARK       I    between atoms: N_9  and  C_10 
REMARK    2  A    between atoms: C_10  and  C_12 
REMARK    3  A    between atoms: C_12  and  C_13 
ROOT
HETATM    1  N   UNL     1     -41.216 -52.103  14.556  1.00  0.00    -0.352 N 
HETATM    2  C   UNL     1     -40.220 -52.104  13.600  1.00  0.00     0.222 C 
HETATM    3  O   UNL     1     -40.247 -52.778  12.573  1.00  0.00    -0.273 OA
HETATM    4  H   UNL     1     -41.016 -51.622  15.431  1.00  0.00     0.163 HD
ENDROOT
BRANCH   2   5
HETATM    5  C   UNL     1     -39.047 -51.197  13.908  1.00  0.00     0.149 C 
BRANCH   5   6
HETATM    6  C   UNL     1     -39.182 -49.911  13.148  1.00  0.00     0.041 C 
HETATM    7  C   UNL     1     -38.537 -49.555  12.019  1.00  0.00     0.018 C 
HETATM    8  C   UNL     1     -37.459 -50.388  11.375  1.00  0.00     0.069 C 
HETATM    9  N   UNL     1     -38.800 -48.392  11.325  1.00  0.00    -0.349 N 
HETATM   10  C   UNL     1     -39.726 -47.612  11.775  1.00  0.00     0.080 C 
ATOM     11  HN  UNL     1     -38.279 -48.155  10.482  1.00  0.00     0.167 HD
HETATM   12  C   UNL     1     -40.103 -46.361  11.038  1.00  0.00     0.089 C 
HETATM   13  N   UNL     1     -40.425 -47.860  12.917  1.00  0.00    -0.313 N 
HETATM   14  C   UNL     1     -40.156 -48.943  13.700  1.00  0.00     0.255 C 
HETATM   15  H   UNL     1     -41.097 -47.200  13.274  1.00  0.00     0.170 HD
HETATM   16  O   UNL     1     -40.683 -49.103  14.797  1.00  0.00    -0.268 OA
ENDBRANCH   5   6
ENDBRANCH   2   5
BRANCH   1  17
HETATM   17  C   UNL     1     -42.448 -52.909  14.470  1.00  0.00     0.029 C 
HETATM   18  C   UNL     1     -43.263 -52.532  13.209  1.00  0.00     0.031 C 
HETATM   19  C   UNL     1     -43.845 -51.117  13.284  1.00  0.00     0.007 C 
HETATM   20  C   UNL     1     -44.720 -50.905  14.525  1.00  0.00    -0.019 C 
HETATM   21  C   UNL     1     -46.039 -51.677  14.423  1.00  0.00     0.010 C 
HETATM   22  C   UNL     1     -43.939 -51.269  15.794  1.00  0.00     0.007 C 
HETATM   23  C   UNL     1     -43.312 -52.663  15.734  1.00  0.00     0.031 C 
HETATM   24  C   UNL     1     -42.096 -54.410  14.437  1.00  0.00     0.038 C 
ENDBRANCH   1  17
TORSDOF 3
ENDMDL
