MODEL 1
REMARK VINA RESULT:      -6.2      0.000      0.000
REMARK  6 active torsions:
REMARK  status: ('A' for Active; 'I' for Inactive)
REMARK    1  A    between atoms: C_2  and  O_3 
REMARK    2  A    between atoms: C_2  and  C_8 
REMARK    3  A    between atoms: O_3  and  C_4 
REMARK    4  A    between atoms: C_4  and  C_5 
REMARK       I    between atoms: C_8  and  N_10 
REMARK    5  A    between atoms: N_10  and  C_11 
REMARK    6  A    between atoms: C_13  and  C_18 
ROOT
HETATM    1  C   UNL     1     -42.940 -47.200   9.844  1.00  0.00     0.104 A 
HETATM    2  C   UNL     1     -44.056 -47.910   9.611  1.00  0.00     0.052 A 
HETATM    3  C   UNL     1     -45.284 -47.281   9.166  1.00  0.00     0.065 A 
HETATM    4  C   UNL     1     -45.281 -45.949   8.968  1.00  0.00     0.107 A 
HETATM    5  N   UNL     1     -44.166 -45.191   9.237  1.00  0.00    -0.331 N 
HETATM    6  C   UNL     1     -42.982 -45.707   9.716  1.00  0.00     0.272 A 
HETATM    7  O   UNL     1     -41.999 -45.019   9.979  1.00  0.00    -0.266 OA
HETATM    8  H   UNL     1     -44.177 -44.191   9.069  1.00  0.00     0.168 HD
ENDROOT
BRANCH   1   9
HETATM    9  N   UNL     1     -41.726 -47.791  10.106  1.00  0.00    -0.320 N 
HETATM   10  C   UNL     1     -41.403 -48.168  11.408  1.00  0.00     0.251 C 
HETATM   11  O   UNL     1     -42.157 -47.983  12.363  1.00  0.00    -0.270 OA
HETATM   12  H   UNL     1     -41.392 -48.393   9.360  1.00  0.00     0.169 HD
BRANCH  10  13
HETATM   13  C   UNL     1     -40.027 -48.844  11.560  1.00  0.00     0.209 C 
HETATM   14  C   UNL     1     -39.627 -48.716  13.031  1.00  0.00     0.050 C 
BRANCH  13  15
HETATM   15  O   UNL     1     -39.973 -50.231  11.219  1.00  0.00    -0.376 OA
BRANCH  15  16
HETATM   16  C   UNL     1     -40.252 -51.094  12.316  1.00  0.00     0.173 C 
BRANCH  16  17
HETATM   17  C   UNL     1     -41.200 -52.167  11.899  1.00  0.00     0.009 A 
HETATM   18  C   UNL     1     -42.559 -52.226  12.553  1.00  0.00     0.007 A 
HETATM   19  C   UNL     1     -41.541 -53.289  12.850  1.00  0.00     0.007 A 
ENDBRANCH  16  17
ENDBRANCH  15  16
ENDBRANCH  13  15
ENDBRANCH  10  13
ENDBRANCH   1   9
BRANCH   3  20
HETATM   20  C   UNL     1     -46.472 -48.153   8.886  1.00  0.00     0.418 C 
HETATM   21  F   UNL     1     -46.592 -49.193   9.756  1.00  0.00    -0.166 F 
HETATM   22  F   UNL     1     -47.630 -47.450   8.967  1.00  0.00    -0.166 F 
HETATM   23  F   UNL     1     -46.422 -48.687   7.641  1.00  0.00    -0.166 F 
ENDBRANCH   3  20
TORSDOF 6
ENDMDL
MODEL 2
REMARK VINA RESULT:      -6.1      4.202      6.460
REMARK  6 active torsions:
REMARK  status: ('A' for Active; 'I' for Inactive)
REMARK    1  A    between atoms: C_2  and  O_3 
REMARK    2  A    between atoms: C_2  and  C_8 
REMARK    3  A    between atoms: O_3  and  C_4 
REMARK    4  A    between atoms: C_4  and  C_5 
REMARK       I    between atoms: C_8  and  N_10 
REMARK    5  A    between atoms: N_10  and  C_11 
REMARK    6  A    between atoms: C_13  and  C_18 
ROOT
HETATM    1  C   UNL     1     -42.219 -51.985  13.083  1.00  0.00     0.104 A 
HETATM    2  C   UNL     1     -42.699 -50.732  13.149  1.00  0.00     0.052 A 
HETATM    3  C   UNL     1     -42.194 -49.674  12.297  1.00  0.00     0.065 A 
HETATM    4  C   UNL     1     -41.229 -49.978  11.408  1.00  0.00     0.107 A 
HETATM    5  N   UNL     1     -40.689 -51.241  11.347  1.00  0.00    -0.331 N 
HETATM    6  C   UNL     1     -41.076 -52.284  12.160  1.00  0.00     0.272 A 
HETATM    7  O   UNL     1     -40.570 -53.401  12.117  1.00  0.00    -0.266 OA
HETATM    8  H   UNL     1     -39.973 -51.456  10.662  1.00  0.00     0.168 HD
ENDROOT
BRANCH   1   9
HETATM    9  N   UNL     1     -42.792 -53.036  13.761  1.00  0.00    -0.320 N 
HETATM   10  C   UNL     1     -43.861 -53.729  13.195  1.00  0.00     0.251 C 
HETATM   11  O   UNL     1     -44.342 -53.435  12.101  1.00  0.00    -0.270 OA
HETATM   12  H   UNL     1     -42.133 -53.580  14.308  1.00  0.00     0.169 HD
BRANCH  10  13
HETATM   13  C   UNL     1     -44.390 -54.900  14.045  1.00  0.00     0.209 C 
HETATM   14  C   UNL     1     -43.481 -55.006  15.272  1.00  0.00     0.050 C 
BRANCH  13  15
HETATM   15  O   UNL     1     -45.733 -54.773  14.514  1.00  0.00    -0.376 OA
BRANCH  15  16
HETATM   16  C   UNL     1     -45.906 -53.719  15.456  1.00  0.00     0.173 C 
BRANCH  16  17
HETATM   17  C   UNL     1     -46.934 -52.756  14.967  1.00  0.00     0.009 A 
HETATM   18  C   UNL     1     -46.473 -51.458  14.348  1.00  0.00     0.007 A 
HETATM   19  C   UNL     1     -47.151 -51.448  15.689  1.00  0.00     0.007 A 
ENDBRANCH  16  17
ENDBRANCH  15  16
ENDBRANCH  13  15
ENDBRANCH  10  13
ENDBRANCH   1   9
BRANCH   3  20
HETATM   20  C   UNL     1     -42.817 -48.313  12.403  1.00  0.00     0.418 C 
HETATM   21  F   UNL     1     -43.359 -48.064  13.627  1.00  0.00    -0.166 F 
HETATM   22  F   UNL     1     -41.905 -47.334  12.182  1.00  0.00    -0.166 F 
HETATM   23  F   UNL     1     -43.808 -48.141  11.495  1.00  0.00    -0.166 F 
ENDBRANCH   3  20
TORSDOF 6
ENDMDL
MODEL 3
REMARK VINA RESULT:      -6.1      1.584      2.261
REMARK  6 active torsions:
REMARK  status: ('A' for Active; 'I' for Inactive)
REMARK    1  A    between atoms: C_2  and  O_3 
REMARK    2  A    between atoms: C_2  and  C_8 
REMARK    3  A    between atoms: O_3  and  C_4 
REMARK    4  A    between atoms: C_4  and  C_5 
REMARK       I    between atoms: C_8  and  N_10 
REMARK    5  A    between atoms: N_10  and  C_11 
REMARK    6  A    between atoms: C_13  and  C_18 
ROOT
HETATM    1  C   UNL     1     -43.217 -47.010  10.366  1.00  0.00     0.104 A 
HETATM    2  C   UNL     1     -44.289 -47.764  10.072  1.00  0.00     0.052 A 
HETATM    3  C   UNL     1     -45.391 -47.251   9.281  1.00  0.00     0.065 A 
HETATM    4  C   UNL     1     -45.310 -45.988   8.822  1.00  0.00     0.107 A 
HETATM    5  N   UNL     1     -44.244 -45.180   9.141  1.00  0.00    -0.331 N 
HETATM    6  C   UNL     1     -43.189 -45.575   9.933  1.00  0.00     0.272 A 
HETATM    7  O   UNL     1     -42.254 -44.839  10.236  1.00  0.00    -0.266 OA
HETATM    8  H   UNL     1     -44.193 -44.236   8.775  1.00  0.00     0.168 HD
ENDROOT
BRANCH   1   9
HETATM    9  N   UNL     1     -42.094 -47.523  10.972  1.00  0.00    -0.320 N 
HETATM   10  C   UNL     1     -41.997 -47.537  12.362  1.00  0.00     0.251 C 
HETATM   11  O   UNL     1     -42.878 -47.090  13.097  1.00  0.00    -0.270 OA
HETATM   12  H   UNL     1     -41.683 -48.309  10.478  1.00  0.00     0.169 HD
BRANCH  10  13
HETATM   13  C   UNL     1     -40.701 -48.164  12.911  1.00  0.00     0.209 C 
HETATM   14  C   UNL     1     -40.711 -47.951  14.427  1.00  0.00     0.050 C 
BRANCH  13  15
HETATM   15  O   UNL     1     -40.537 -49.563  12.675  1.00  0.00    -0.376 OA
BRANCH  15  16
HETATM   16  C   UNL     1     -39.704 -49.855  11.558  1.00  0.00     0.173 C 
BRANCH  16  17
HETATM   17  C   UNL     1     -38.278 -49.585  11.895  1.00  0.00     0.009 A 
HETATM   18  C   UNL     1     -37.209 -50.030  10.926  1.00  0.00     0.007 A 
HETATM   19  C   UNL     1     -37.353 -50.725  12.250  1.00  0.00     0.007 A 
ENDBRANCH  16  17
ENDBRANCH  15  16
ENDBRANCH  13  15
ENDBRANCH  10  13
ENDBRANCH   1   9
BRANCH   3  20
HETATM   20  C   UNL     1     -46.529 -48.173   8.960  1.00  0.00     0.418 C 
HETATM   21  F   UNL     1     -46.450 -48.712   7.712  1.00  0.00    -0.166 F 
HETATM   22  F   UNL     1     -46.578 -49.217   9.825  1.00  0.00    -0.166 F 
HETATM   23  F   UNL     1     -47.726 -47.542   9.038  1.00  0.00    -0.166 F 
ENDBRANCH   3  20
TORSDOF 6
ENDMDL
MODEL 4
REMARK VINA RESULT:      -6.0      3.541      6.708
REMARK  6 active torsions:
REMARK  status: ('A' for Active; 'I' for Inactive)
REMARK    1  A    between atoms: C_2  and  O_3 
REMARK    2  A    between atoms: C_2  and  C_8 
REMARK    3  A    between atoms: O_3  and  C_4 
REMARK    4  A    between atoms: C_4  and  C_5 
REMARK       I    between atoms: C_8  and  N_10 
REMARK    5  A    between atoms: N_10  and  C_11 
REMARK    6  A    between atoms: C_13  and  C_18 
ROOT
HETATM    1  C   UNL     1     -40.856 -50.390  11.684  1.00  0.00     0.104 A 
HETATM    2  C   UNL     1     -41.375 -51.574  12.047  1.00  0.00     0.052 A 
HETATM    3  C   UNL     1     -40.683 -52.466  12.956  1.00  0.00     0.065 A 
HETATM    4  C   UNL     1     -39.496 -52.071  13.455  1.00  0.00     0.107 A 
HETATM    5  N   UNL     1     -38.922 -50.883  13.070  1.00  0.00    -0.331 N 
HETATM    6  C   UNL     1     -39.489 -50.010  12.168  1.00  0.00     0.272 A 
HETATM    7  O   UNL     1     -38.957 -48.963  11.809  1.00  0.00    -0.266 OA
HETATM    8  H   UNL     1     -38.034 -50.594  13.466  1.00  0.00     0.168 HD
ENDROOT
BRANCH   1   9
HETATM    9  N   UNL     1     -41.564 -49.461  10.957  1.00  0.00    -0.320 N 
HETATM   10  C   UNL     1     -42.369 -48.531  11.612  1.00  0.00     0.251 C 
HETATM   11  O   UNL     1     -42.497 -48.504  12.836  1.00  0.00    -0.270 OA
HETATM   12  H   UNL     1     -41.085 -49.142  10.121  1.00  0.00     0.169 HD
BRANCH  10  13
HETATM   13  C   UNL     1     -43.084 -47.531  10.683  1.00  0.00     0.209 C 
HETATM   14  C   UNL     1     -42.347 -46.196  10.816  1.00  0.00     0.050 C 
BRANCH  13  15
HETATM   15  O   UNL     1     -43.105 -47.873   9.297  1.00  0.00    -0.376 OA
BRANCH  15  16
HETATM   16  C   UNL     1     -44.262 -47.402   8.614  1.00  0.00     0.173 C 
BRANCH  16  17
HETATM   17  C   UNL     1     -45.481 -47.653   9.435  1.00  0.00     0.009 A 
HETATM   18  C   UNL     1     -46.606 -48.460   8.831  1.00  0.00     0.007 A 
HETATM   19  C   UNL     1     -46.788 -46.989   9.073  1.00  0.00     0.007 A 
ENDBRANCH  16  17
ENDBRANCH  15  16
ENDBRANCH  13  15
ENDBRANCH  10  13
ENDBRANCH   1   9
BRANCH   3  20
HETATM   20  C   UNL     1     -41.354 -53.750  13.345  1.00  0.00     0.418 C 
HETATM   21  F   UNL     1     -41.089 -54.776  12.489  1.00  0.00    -0.166 F 
HETATM   22  F   UNL     1     -40.954 -54.164  14.573  1.00  0.00    -0.166 F 
HETATM   23  F   UNL     1     -42.702 -53.620  13.393  1.00  0.00    -0.166 F 
ENDBRANCH   3  20
TORSDOF 6
ENDMDL
MODEL 5
REMARK VINA RESULT:      -6.0      5.498      6.981
REMARK  6 active torsions:
REMARK  status: ('A' for Active; 'I' for Inactive)
REMARK    1  A    between atoms: C_2  and  O_3 
REMARK    2  A    between atoms: C_2  and  C_8 
REMARK    3  A    between atoms: O_3  and  C_4 
REMARK    4  A    between atoms: C_4  and  C_5 
REMARK       I    between atoms: C_8  and  N_10 
REMARK    5  A    between atoms: N_10  and  C_11 
REMARK    6  A    between atoms: C_13  and  C_18 
ROOT
HETATM    1  C   UNL     1     -43.301 -53.607  14.400  1.00  0.00     0.104 A 
HETATM    2  C   UNL     1     -44.008 -52.616  13.832  1.00  0.00     0.052 A 
HETATM    3  C   UNL     1     -45.433 -52.734  13.592  1.00  0.00     0.065 A 
HETATM    4  C   UNL     1     -46.050 -53.869  13.971  1.00  0.00     0.107 A 
HETATM    5  N   UNL     1     -45.345 -54.916  14.517  1.00  0.00    -0.331 N 
HETATM    6  C   UNL     1     -43.984 -54.902  14.724  1.00  0.00     0.272 A 
HETATM    7  O   UNL     1     -43.358 -55.851  15.186  1.00  0.00    -0.266 OA
HETATM    8  H   UNL     1     -45.829 -55.758  14.810  1.00  0.00     0.168 HD
ENDROOT
BRANCH   1   9
HETATM    9  N   UNL     1     -41.989 -53.456  14.785  1.00  0.00    -0.320 N 
HETATM   10  C   UNL     1     -40.962 -53.770  13.897  1.00  0.00     0.251 C 
HETATM   11  O   UNL     1     -41.169 -54.202  12.763  1.00  0.00    -0.270 OA
HETATM   12  H   UNL     1     -41.831 -52.668  15.405  1.00  0.00     0.169 HD
BRANCH  10  13
HETATM   13  C   UNL     1     -39.542 -53.528  14.444  1.00  0.00     0.209 C 
HETATM   14  C   UNL     1     -38.962 -54.899  14.799  1.00  0.00     0.050 C 
BRANCH  13  15
HETATM   15  O   UNL     1     -38.629 -52.895  13.547  1.00  0.00    -0.376 OA
BRANCH  15  16
HETATM   16  C   UNL     1     -38.932 -51.525  13.303  1.00  0.00     0.173 C 
BRANCH  16  17
HETATM   17  C   UNL     1     -37.692 -50.779  12.946  1.00  0.00     0.009 A 
HETATM   18  C   UNL     1     -37.775 -49.282  12.764  1.00  0.00     0.007 A 
HETATM   19  C   UNL     1     -37.543 -50.168  11.573  1.00  0.00     0.007 A 
ENDBRANCH  16  17
ENDBRANCH  15  16
ENDBRANCH  13  15
ENDBRANCH  10  13
ENDBRANCH   1   9
BRANCH   3  20
HETATM   20  C   UNL     1     -46.155 -51.563  12.995  1.00  0.00     0.418 C 
HETATM   21  F   UNL     1     -46.819 -51.869  11.847  1.00  0.00    -0.166 F 
HETATM   22  F   UNL     1     -47.082 -51.065  13.852  1.00  0.00    -0.166 F 
HETATM   23  F   UNL     1     -45.309 -50.547  12.699  1.00  0.00    -0.166 F 
ENDBRANCH   3  20
TORSDOF 6
ENDMDL
MODEL 6
REMARK VINA RESULT:      -6.0      4.981      6.703
REMARK  6 active torsions:
REMARK  status: ('A' for Active; 'I' for Inactive)
REMARK    1  A    between atoms: C_2  and  O_3 
REMARK    2  A    between atoms: C_2  and  C_8 
REMARK    3  A    between atoms: O_3  and  C_4 
REMARK    4  A    between atoms: C_4  and  C_5 
REMARK       I    between atoms: C_8  and  N_10 
REMARK    5  A    between atoms: N_10  and  C_11 
REMARK    6  A    between atoms: C_13  and  C_18 
ROOT
HETATM    1  C   UNL     1     -41.551 -50.698  12.060  1.00  0.00     0.104 A 
HETATM    2  C   UNL     1     -40.216 -50.786  11.948  1.00  0.00     0.052 A 
HETATM    3  C   UNL     1     -39.347 -49.666  12.253  1.00  0.00     0.065 A 
HETATM    4  C   UNL     1     -39.912 -48.519  12.676  1.00  0.00     0.107 A 
HETATM    5  N   UNL     1     -41.278 -48.387  12.760  1.00  0.00    -0.331 N 
HETATM    6  C   UNL     1     -42.170 -49.384  12.434  1.00  0.00     0.272 A 
HETATM    7  O   UNL     1     -43.389 -49.249  12.486  1.00  0.00    -0.266 OA
HETATM    8  H   UNL     1     -41.686 -47.520  13.094  1.00  0.00     0.168 HD
ENDROOT
BRANCH   1   9
HETATM    9  N   UNL     1     -42.380 -51.789  11.935  1.00  0.00    -0.320 N 
HETATM   10  C   UNL     1     -42.652 -52.587  13.044  1.00  0.00     0.251 C 
HETATM   11  O   UNL     1     -42.167 -52.373  14.155  1.00  0.00    -0.270 OA
HETATM   12  H   UNL     1     -43.137 -51.657  11.271  1.00  0.00     0.169 HD
BRANCH  10  13
HETATM   13  C   UNL     1     -43.616 -53.758  12.774  1.00  0.00     0.209 C 
HETATM   14  C   UNL     1     -43.748 -54.537  14.085  1.00  0.00     0.050 C 
BRANCH  13  15
HETATM   15  O   UNL     1     -44.933 -53.396  12.355  1.00  0.00    -0.376 OA
BRANCH  15  16
HETATM   16  C   UNL     1     -45.862 -53.297  13.430  1.00  0.00     0.173 C 
BRANCH  16  17
HETATM   17  C   UNL     1     -46.236 -51.872  13.657  1.00  0.00     0.009 A 
HETATM   18  C   UNL     1     -45.499 -51.091  14.719  1.00  0.00     0.007 A 
HETATM   19  C   UNL     1     -46.938 -51.466  14.931  1.00  0.00     0.007 A 
ENDBRANCH  16  17
ENDBRANCH  15  16
ENDBRANCH  13  15
ENDBRANCH  10  13
ENDBRANCH   1   9
BRANCH   3  20
HETATM   20  C   UNL     1     -37.864 -49.864  12.146  1.00  0.00     0.418 C 
HETATM   21  F   UNL     1     -37.154 -49.081  13.005  1.00  0.00    -0.166 F 
HETATM   22  F   UNL     1     -37.516 -51.146  12.419  1.00  0.00    -0.166 F 
HETATM   23  F   UNL     1     -37.408 -49.589  10.899  1.00  0.00    -0.166 F 
ENDBRANCH   3  20
TORSDOF 6
ENDMDL
MODEL 7
REMARK VINA RESULT:      -5.8      5.675      7.666
REMARK  6 active torsions:
REMARK  status: ('A' for Active; 'I' for Inactive)
REMARK    1  A    between atoms: C_2  and  O_3 
REMARK    2  A    between atoms: C_2  and  C_8 
REMARK    3  A    between atoms: O_3  and  C_4 
REMARK    4  A    between atoms: C_4  and  C_5 
REMARK       I    between atoms: C_8  and  N_10 
REMARK    5  A    between atoms: N_10  and  C_11 
REMARK    6  A    between atoms: C_13  and  C_18 
ROOT
HETATM    1  C   UNL     1     -40.770 -52.390  12.804  1.00  0.00     0.104 A 
HETATM    2  C   UNL     1     -40.228 -51.297  12.243  1.00  0.00     0.052 A 
HETATM    3  C   UNL     1     -38.878 -50.869  12.550  1.00  0.00     0.065 A 
HETATM    4  C   UNL     1     -38.155 -51.611  13.411  1.00  0.00     0.107 A 
HETATM    5  N   UNL     1     -38.697 -52.712  14.032  1.00  0.00    -0.331 N 
HETATM    6  C   UNL     1     -39.989 -53.148  13.835  1.00  0.00     0.272 A 
HETATM    7  O   UNL     1     -40.474 -54.116  14.414  1.00  0.00    -0.266 OA
HETATM    8  H   UNL     1     -38.134 -53.268  14.666  1.00  0.00     0.168 HD
ENDROOT
BRANCH   1   9
HETATM    9  N   UNL     1     -41.982 -52.905  12.406  1.00  0.00    -0.320 N 
HETATM   10  C   UNL     1     -43.158 -52.463  13.010  1.00  0.00     0.251 C 
HETATM   11  O   UNL     1     -43.171 -51.627  13.913  1.00  0.00    -0.270 OA
HETATM   12  H   UNL     1     -42.031 -53.123  11.416  1.00  0.00     0.169 HD
BRANCH  10  13
HETATM   13  C   UNL     1     -44.446 -53.099  12.452  1.00  0.00     0.209 C 
HETATM   14  C   UNL     1     -44.690 -54.383  13.248  1.00  0.00     0.050 C 
BRANCH  13  15
HETATM   15  O   UNL     1     -45.627 -52.302  12.550  1.00  0.00    -0.376 OA
BRANCH  15  16
HETATM   16  C   UNL     1     -46.466 -52.665  13.641  1.00  0.00     0.173 C 
BRANCH  16  17
HETATM   17  C   UNL     1     -46.802 -51.462  14.455  1.00  0.00     0.009 A 
HETATM   18  C   UNL     1     -45.978 -51.169  15.686  1.00  0.00     0.007 A 
HETATM   19  C   UNL     1     -47.403 -51.621  15.831  1.00  0.00     0.007 A 
ENDBRANCH  16  17
ENDBRANCH  15  16
ENDBRANCH  13  15
ENDBRANCH  10  13
ENDBRANCH   1   9
BRANCH   3  20
HETATM   20  C   UNL     1     -38.334 -49.662  11.846  1.00  0.00     0.418 C 
HETATM   21  F   UNL     1     -37.598 -49.970  10.742  1.00  0.00    -0.166 F 
HETATM   22  F   UNL     1     -39.331 -48.845  11.425  1.00  0.00    -0.166 F 
HETATM   23  F   UNL     1     -37.535 -48.924  12.654  1.00  0.00    -0.166 F 
ENDBRANCH   3  20
TORSDOF 6
ENDMDL
MODEL 8
REMARK VINA RESULT:      -5.8      3.424      6.705
REMARK  6 active torsions:
REMARK  status: ('A' for Active; 'I' for Inactive)
REMARK    1  A    between atoms: C_2  and  O_3 
REMARK    2  A    between atoms: C_2  and  C_8 
REMARK    3  A    between atoms: O_3  and  C_4 
REMARK    4  A    between atoms: C_4  and  C_5 
REMARK       I    between atoms: C_8  and  N_10 
REMARK    5  A    between atoms: N_10  and  C_11 
REMARK    6  A    between atoms: C_13  and  C_18 
ROOT
HETATM    1  C   UNL     1     -42.241 -52.194  12.413  1.00  0.00     0.104 A 
HETATM    2  C   UNL     1     -43.492 -52.619  12.650  1.00  0.00     0.052 A 
HETATM    3  C   UNL     1     -43.760 -53.821  13.415  1.00  0.00     0.065 A 
HETATM    4  C   UNL     1     -42.712 -54.508  13.908  1.00  0.00     0.107 A 
HETATM    5  N   UNL     1     -41.419 -54.119  13.647  1.00  0.00    -0.331 N 
HETATM    6  C   UNL     1     -41.084 -53.023  12.883  1.00  0.00     0.272 A 
HETATM    7  O   UNL     1     -39.927 -52.699  12.632  1.00  0.00    -0.266 OA
HETATM    8  H   UNL     1     -40.642 -54.640  14.039  1.00  0.00     0.168 HD
ENDROOT
BRANCH   1   9
HETATM    9  N   UNL     1     -41.968 -50.976  11.834  1.00  0.00    -0.320 N 
HETATM   10  C   UNL     1     -42.009 -49.815  12.604  1.00  0.00     0.251 C 
HETATM   11  O   UNL     1     -42.297 -49.817  13.801  1.00  0.00    -0.270 OA
HETATM   12  H   UNL     1     -41.263 -51.016  11.105  1.00  0.00     0.169 HD
BRANCH  10  13
HETATM   13  C   UNL     1     -41.655 -48.524  11.841  1.00  0.00     0.209 C 
HETATM   14  C   UNL     1     -40.148 -48.559  11.580  1.00  0.00     0.050 C 
BRANCH  13  15
HETATM   15  O   UNL     1     -42.305 -48.347  10.581  1.00  0.00    -0.376 OA
BRANCH  15  16
HETATM   16  C   UNL     1     -43.524 -47.617  10.670  1.00  0.00     0.173 C 
BRANCH  16  17
HETATM   17  C   UNL     1     -44.142 -47.479   9.320  1.00  0.00     0.009 A 
HETATM   18  C   UNL     1     -44.701 -46.137   8.914  1.00  0.00     0.007 A 
HETATM   19  C   UNL     1     -45.633 -47.284   9.185  1.00  0.00     0.007 A 
ENDBRANCH  16  17
ENDBRANCH  15  16
ENDBRANCH  13  15
ENDBRANCH  10  13
ENDBRANCH   1   9
BRANCH   3  20
HETATM   20  C   UNL     1     -45.188 -54.201  13.672  1.00  0.00     0.418 C 
HETATM   21  F   UNL     1     -45.562 -54.039  14.971  1.00  0.00    -0.166 F 
HETATM   22  F   UNL     1     -46.040 -53.447  12.932  1.00  0.00    -0.166 F 
HETATM   23  F   UNL     1     -45.430 -55.496  13.353  1.00  0.00    -0.166 F 
ENDBRANCH   3  20
TORSDOF 6
ENDMDL
MODEL 9
REMARK VINA RESULT:      -5.8      4.092      6.590
REMARK  6 active torsions:
REMARK  status: ('A' for Active; 'I' for Inactive)
REMARK    1  A    between atoms: C_2  and  O_3 
REMARK    2  A    between atoms: C_2  and  C_8 
REMARK    3  A    between atoms: O_3  and  C_4 
REMARK    4  A    between atoms: C_4  and  C_5 
REMARK       I    between atoms: C_8  and  N_10 
REMARK    5  A    between atoms: N_10  and  C_11 
REMARK    6  A    between atoms: C_13  and  C_18 
ROOT
HETATM    1  C   UNL     1     -42.215 -52.698  12.528  1.00  0.00     0.104 A 
HETATM    2  C   UNL     1     -43.493 -53.057  12.726  1.00  0.00     0.052 A 
HETATM    3  C   UNL     1     -43.857 -54.118  13.644  1.00  0.00     0.065 A 
HETATM    4  C   UNL     1     -42.872 -54.738  14.323  1.00  0.00     0.107 A 
HETATM    5  N   UNL     1     -41.551 -54.419  14.110  1.00  0.00    -0.331 N 
HETATM    6  C   UNL     1     -41.124 -53.464  13.214  1.00  0.00     0.272 A 
HETATM    7  O   UNL     1     -39.942 -53.205  13.011  1.00  0.00    -0.266 OA
HETATM    8  H   UNL     1     -40.823 -54.886  14.640  1.00  0.00     0.168 HD
ENDROOT
BRANCH   1   9
HETATM    9  N   UNL     1     -41.860 -51.592  11.791  1.00  0.00    -0.320 N 
HETATM   10  C   UNL     1     -41.886 -50.328  12.376  1.00  0.00     0.251 C 
HETATM   11  O   UNL     1     -42.233 -50.139  13.542  1.00  0.00    -0.270 OA
HETATM   12  H   UNL     1     -41.123 -51.767  11.115  1.00  0.00     0.169 HD
BRANCH  10  13
HETATM   13  C   UNL     1     -41.439 -49.181  11.450  1.00  0.00     0.209 C 
HETATM   14  C   UNL     1     -41.982 -47.883  12.054  1.00  0.00     0.050 C 
BRANCH  13  15
HETATM   15  O   UNL     1     -40.029 -49.022  11.290  1.00  0.00    -0.376 OA
BRANCH  15  16
HETATM   16  C   UNL     1     -39.345 -48.771  12.513  1.00  0.00     0.173 C 
BRANCH  16  17
HETATM   17  C   UNL     1     -37.923 -49.208  12.408  1.00  0.00     0.009 A 
HETATM   18  C   UNL     1     -37.549 -50.198  11.331  1.00  0.00     0.007 A 
HETATM   19  C   UNL     1     -37.536 -50.621  12.772  1.00  0.00     0.007 A 
ENDBRANCH  16  17
ENDBRANCH  15  16
ENDBRANCH  13  15
ENDBRANCH  10  13
ENDBRANCH   1   9
BRANCH   3  20
HETATM   20  C   UNL     1     -45.312 -54.426  13.840  1.00  0.00     0.418 C 
HETATM   21  F   UNL     1     -45.642 -55.702  13.500  1.00  0.00    -0.166 F 
HETATM   22  F   UNL     1     -45.680 -54.268  15.137  1.00  0.00    -0.166 F 
HETATM   23  F   UNL     1     -46.103 -53.608  13.104  1.00  0.00    -0.166 F 
ENDBRANCH   3  20
TORSDOF 6
ENDMDL
