MODEL 1
REMARK VINA RESULT:      -6.5      0.000      0.000
REMARK  4 active torsions:
REMARK  status: ('A' for Active; 'I' for Inactive)
REMARK    1  A    between atoms: N_5  and  C_6 
REMARK    2  A    between atoms: C_6  and  C_7 
REMARK    3  A    between atoms: C_7  and  O_8 
REMARK    4  A    between atoms: C_7  and  C_9 
ROOT
HETATM    1  C   UNL     1     -40.804 -52.505  12.072  1.00  0.00     0.070 C 
HETATM    2  C   UNL     1     -41.957 -53.191  12.772  1.00  0.00     0.029 A 
HETATM    3  N   UNL     1     -43.146 -52.922  12.335  1.00  0.00    -0.300 N 
ATOM      4  HN  UNL     1     -43.283 -52.282  11.552  1.00  0.00     0.187 HD
HETATM    5  N   UNL     1     -44.212 -53.517  12.950  1.00  0.00    -0.253 N 
HETATM    6  C   UNL     1     -44.104 -54.410  14.008  1.00  0.00     0.283 A 
HETATM    7  O   UNL     1     -45.078 -54.924  14.558  1.00  0.00    -0.265 OA
HETATM    8  C   UNL     1     -42.727 -54.694  14.483  1.00  0.00     0.121 A 
HETATM    9  C   UNL     1     -42.597 -55.585  15.582  1.00  0.00     0.105 C 
HETATM   10  N   UNL     1     -42.423 -56.296  16.484  1.00  0.00    -0.191 NA
HETATM   11  C   UNL     1     -41.659 -54.112  13.908  1.00  0.00    -0.012 A 
HETATM   12  C   UNL     1     -40.228 -54.305  14.316  1.00  0.00     0.052 C 
ENDROOT
BRANCH   5  13
HETATM   13  C   UNL     1     -45.536 -53.150  12.460  1.00  0.00     0.189 C 
BRANCH  13  14
HETATM   14  C   UNL     1     -45.935 -51.690  12.765  1.00  0.00     0.171 C 
BRANCH  14  15
HETATM   15  O   UNL     1     -47.237 -51.397  12.238  1.00  0.00    -0.389 OA
HETATM   16  H   UNL     1     -47.877 -51.552  12.957  1.00  0.00     0.210 HD
ENDBRANCH  14  15
BRANCH  14  17
HETATM   17  C   UNL     1     -45.955 -51.329  14.244  1.00  0.00    -0.028 A 
HETATM   18  C   UNL     1     -44.856 -50.764  14.913  1.00  0.00     0.010 A 
HETATM   19  C   UNL     1     -44.906 -50.499  16.284  1.00  0.00     0.001 A 
HETATM   20  C   UNL     1     -46.058 -50.783  17.009  1.00  0.00     0.000 A 
HETATM   21  C   UNL     1     -47.167 -51.321  16.362  1.00  0.00     0.001 A 
HETATM   22  C   UNL     1     -47.117 -51.588  14.992  1.00  0.00     0.010 A 
ENDBRANCH  14  17
ENDBRANCH  13  14
ENDBRANCH   5  13
TORSDOF 4
ENDMDL
MODEL 2
REMARK VINA RESULT:      -6.4      1.649      2.168
REMARK  4 active torsions:
REMARK  status: ('A' for Active; 'I' for Inactive)
REMARK    1  A    between atoms: N_5  and  C_6 
REMARK    2  A    between atoms: C_6  and  C_7 
REMARK    3  A    between atoms: C_7  and  O_8 
REMARK    4  A    between atoms: C_7  and  C_9 
ROOT
HETATM    1  C   UNL     1     -40.758 -50.073  11.492  1.00  0.00     0.070 C 
HETATM    2  C   UNL     1     -41.141 -51.351  12.207  1.00  0.00     0.029 A 
HETATM    3  N   UNL     1     -42.346 -51.786  12.017  1.00  0.00    -0.300 N 
ATOM      4  HN  UNL     1     -42.993 -51.286  11.408  1.00  0.00     0.187 HD
HETATM    5  N   UNL     1     -42.727 -52.933  12.656  1.00  0.00    -0.253 N 
HETATM    6  C   UNL     1     -41.900 -53.677  13.485  1.00  0.00     0.283 A 
HETATM    7  O   UNL     1     -42.268 -54.700  14.063  1.00  0.00    -0.265 OA
HETATM    8  C   UNL     1     -40.527 -53.148  13.681  1.00  0.00     0.121 A 
HETATM    9  C   UNL     1     -39.673 -53.882  14.547  1.00  0.00     0.105 C 
HETATM   10  N   UNL     1     -38.929 -54.428  15.253  1.00  0.00    -0.191 NA
HETATM   11  C   UNL     1     -40.127 -52.014  13.078  1.00  0.00    -0.012 A 
HETATM   12  C   UNL     1     -38.776 -51.375  13.219  1.00  0.00     0.052 C 
ENDROOT
BRANCH   5  13
HETATM   13  C   UNL     1     -44.107 -53.363  12.455  1.00  0.00     0.189 C 
BRANCH  13  14
HETATM   14  C   UNL     1     -45.132 -52.208  12.472  1.00  0.00     0.171 C 
BRANCH  14  15
HETATM   15  O   UNL     1     -46.342 -52.591  11.802  1.00  0.00    -0.389 OA
HETATM   16  H   UNL     1     -46.515 -51.917  11.119  1.00  0.00     0.210 HD
ENDBRANCH  14  15
BRANCH  14  17
HETATM   17  C   UNL     1     -45.521 -51.720  13.861  1.00  0.00    -0.028 A 
HETATM   18  C   UNL     1     -44.649 -51.003  14.696  1.00  0.00     0.010 A 
HETATM   19  C   UNL     1     -45.035 -50.622  15.983  1.00  0.00     0.001 A 
HETATM   20  C   UNL     1     -46.303 -50.942  16.456  1.00  0.00     0.000 A 
HETATM   21  C   UNL     1     -47.193 -51.631  15.637  1.00  0.00     0.001 A 
HETATM   22  C   UNL     1     -46.806 -52.014  14.351  1.00  0.00     0.010 A 
ENDBRANCH  14  17
ENDBRANCH  13  14
ENDBRANCH   5  13
TORSDOF 4
ENDMDL
MODEL 3
REMARK VINA RESULT:      -6.3      3.190      4.776
REMARK  4 active torsions:
REMARK  status: ('A' for Active; 'I' for Inactive)
REMARK    1  A    between atoms: N_5  and  C_6 
REMARK    2  A    between atoms: C_6  and  C_7 
REMARK    3  A    between atoms: C_7  and  O_8 
REMARK    4  A    between atoms: C_7  and  C_9 
ROOT
HETATM    1  C   UNL     1     -43.209 -48.127  11.666  1.00  0.00     0.070 C 
HETATM    2  C   UNL     1     -42.236 -49.266  11.882  1.00  0.00     0.029 A 
HETATM    3  N   UNL     1     -42.738 -50.395  12.270  1.00  0.00    -0.300 N 
ATOM      4  HN  UNL     1     -43.742 -50.500  12.413  1.00  0.00     0.187 HD
HETATM    5  N   UNL     1     -41.885 -51.443  12.484  1.00  0.00    -0.253 N 
HETATM    6  C   UNL     1     -40.512 -51.382  12.296  1.00  0.00     0.283 A 
HETATM    7  O   UNL     1     -39.760 -52.333  12.508  1.00  0.00    -0.265 OA
HETATM    8  C   UNL     1     -39.971 -50.073  11.852  1.00  0.00     0.121 A 
HETATM    9  C   UNL     1     -38.564 -49.984  11.679  1.00  0.00     0.105 C 
HETATM   10  N   UNL     1     -37.421 -49.841  11.530  1.00  0.00    -0.191 NA
HETATM   11  C   UNL     1     -40.783 -49.019  11.649  1.00  0.00    -0.012 A 
HETATM   12  C   UNL     1     -40.349 -47.647  11.224  1.00  0.00     0.052 C 
ENDROOT
BRANCH   5  13
HETATM   13  C   UNL     1     -42.484 -52.682  12.966  1.00  0.00     0.189 C 
BRANCH  13  14
HETATM   14  C   UNL     1     -43.977 -52.841  12.600  1.00  0.00     0.171 C 
BRANCH  14  15
HETATM   15  O   UNL     1     -44.244 -54.166  12.120  1.00  0.00    -0.389 OA
HETATM   16  H   UNL     1     -44.536 -54.694  12.886  1.00  0.00     0.210 HD
ENDBRANCH  14  15
BRANCH  14  17
HETATM   17  C   UNL     1     -44.946 -52.570  13.742  1.00  0.00    -0.028 A 
HETATM   18  C   UNL     1     -44.896 -53.249  14.971  1.00  0.00     0.010 A 
HETATM   19  C   UNL     1     -45.841 -53.002  15.970  1.00  0.00     0.001 A 
HETATM   20  C   UNL     1     -46.847 -52.064  15.763  1.00  0.00     0.000 A 
HETATM   21  C   UNL     1     -46.902 -51.362  14.563  1.00  0.00     0.001 A 
HETATM   22  C   UNL     1     -45.958 -51.611  13.563  1.00  0.00     0.010 A 
ENDBRANCH  14  17
ENDBRANCH  13  14
ENDBRANCH   5  13
TORSDOF 4
ENDMDL
MODEL 4
REMARK VINA RESULT:      -6.2      4.533      6.559
REMARK  4 active torsions:
REMARK  status: ('A' for Active; 'I' for Inactive)
REMARK    1  A    between atoms: N_5  and  C_6 
REMARK    2  A    between atoms: C_6  and  C_7 
REMARK    3  A    between atoms: C_7  and  O_8 
REMARK    4  A    between atoms: C_7  and  C_9 
ROOT
HETATM    1  C   UNL     1     -42.562 -47.916   9.698  1.00  0.00     0.070 C 
HETATM    2  C   UNL     1     -41.712 -48.244  10.906  1.00  0.00     0.029 A 
HETATM    3  N   UNL     1     -41.749 -49.467  11.329  1.00  0.00    -0.300 N 
ATOM      4  HN  UNL     1     -42.323 -50.166  10.858  1.00  0.00     0.187 HD
HETATM    5  N   UNL     1     -40.999 -49.795  12.424  1.00  0.00    -0.253 N 
HETATM    6  C   UNL     1     -40.182 -48.905  13.107  1.00  0.00     0.283 A 
HETATM    7  O   UNL     1     -39.526 -49.218  14.100  1.00  0.00    -0.265 OA
HETATM    8  C   UNL     1     -40.165 -47.512  12.594  1.00  0.00     0.121 A 
HETATM    9  C   UNL     1     -39.355 -46.579  13.296  1.00  0.00     0.105 C 
HETATM   10  N   UNL     1     -38.722 -45.765  13.831  1.00  0.00    -0.191 NA
HETATM   11  C   UNL     1     -40.904 -47.154  11.528  1.00  0.00    -0.012 A 
HETATM   12  C   UNL     1     -40.983 -45.777  10.938  1.00  0.00     0.052 C 
ENDROOT
BRANCH   5  13
HETATM   13  C   UNL     1     -41.106 -51.171  12.898  1.00  0.00     0.189 C 
BRANCH  13  14
HETATM   14  C   UNL     1     -42.041 -52.057  12.046  1.00  0.00     0.171 C 
BRANCH  14  15
HETATM   15  O   UNL     1     -41.303 -52.728  11.014  1.00  0.00    -0.389 OA
HETATM   16  H   UNL     1     -40.935 -52.038  10.431  1.00  0.00     0.210 HD
ENDBRANCH  14  15
BRANCH  14  17
HETATM   17  C   UNL     1     -42.797 -53.123  12.826  1.00  0.00    -0.028 A 
HETATM   18  C   UNL     1     -44.127 -53.481  12.548  1.00  0.00     0.010 A 
HETATM   19  C   UNL     1     -44.795 -54.429  13.327  1.00  0.00     0.001 A 
HETATM   20  C   UNL     1     -44.144 -55.044  14.390  1.00  0.00     0.000 A 
HETATM   21  C   UNL     1     -42.819 -54.723  14.669  1.00  0.00     0.001 A 
HETATM   22  C   UNL     1     -42.151 -53.774  13.892  1.00  0.00     0.010 A 
ENDBRANCH  14  17
ENDBRANCH  13  14
ENDBRANCH   5  13
TORSDOF 4
ENDMDL
MODEL 5
REMARK VINA RESULT:      -6.2      2.419      5.674
REMARK  4 active torsions:
REMARK  status: ('A' for Active; 'I' for Inactive)
REMARK    1  A    between atoms: N_5  and  C_6 
REMARK    2  A    between atoms: C_6  and  C_7 
REMARK    3  A    between atoms: C_7  and  O_8 
REMARK    4  A    between atoms: C_7  and  C_9 
ROOT
HETATM    1  C   UNL     1     -46.625 -51.978  12.344  1.00  0.00     0.070 C 
HETATM    2  C   UNL     1     -45.429 -51.714  13.233  1.00  0.00     0.029 A 
HETATM    3  N   UNL     1     -44.261 -51.821  12.686  1.00  0.00    -0.300 N 
ATOM      4  HN  UNL     1     -44.165 -52.067  11.700  1.00  0.00     0.187 HD
HETATM    5  N   UNL     1     -43.159 -51.598  13.464  1.00  0.00    -0.253 N 
HETATM    6  C   UNL     1     -43.208 -51.246  14.805  1.00  0.00     0.283 A 
HETATM    7  O   UNL     1     -42.203 -51.063  15.492  1.00  0.00    -0.265 OA
HETATM    8  C   UNL     1     -44.564 -51.133  15.400  1.00  0.00     0.121 A 
HETATM    9  C   UNL     1     -44.634 -50.797  16.778  1.00  0.00     0.105 C 
HETATM   10  N   UNL     1     -44.762 -50.538  17.904  1.00  0.00    -0.191 NA
HETATM   11  C   UNL     1     -45.667 -51.361  14.664  1.00  0.00    -0.012 A 
HETATM   12  C   UNL     1     -47.081 -51.298  15.161  1.00  0.00     0.052 C 
ENDROOT
BRANCH   5  13
HETATM   13  C   UNL     1     -41.861 -51.778  12.822  1.00  0.00     0.189 C 
BRANCH  13  14
HETATM   14  C   UNL     1     -41.495 -53.253  12.548  1.00  0.00     0.171 C 
BRANCH  14  15
HETATM   15  O   UNL     1     -40.514 -53.349  11.506  1.00  0.00    -0.389 OA
HETATM   16  H   UNL     1     -39.652 -53.494  11.937  1.00  0.00     0.210 HD
ENDBRANCH  14  15
BRANCH  14  17
HETATM   17  C   UNL     1     -40.950 -54.009  13.752  1.00  0.00    -0.028 A 
HETATM   18  C   UNL     1     -41.769 -54.542  14.761  1.00  0.00     0.010 A 
HETATM   19  C   UNL     1     -41.218 -55.183  15.873  1.00  0.00     0.001 A 
HETATM   20  C   UNL     1     -39.838 -55.312  15.992  1.00  0.00     0.000 A 
HETATM   21  C   UNL     1     -39.008 -54.813  14.993  1.00  0.00     0.001 A 
HETATM   22  C   UNL     1     -39.559 -54.171  13.882  1.00  0.00     0.010 A 
ENDBRANCH  14  17
ENDBRANCH  13  14
ENDBRANCH   5  13
TORSDOF 4
ENDMDL
MODEL 6
REMARK VINA RESULT:      -6.2      1.802      2.812
REMARK  4 active torsions:
REMARK  status: ('A' for Active; 'I' for Inactive)
REMARK    1  A    between atoms: N_5  and  C_6 
REMARK    2  A    between atoms: C_6  and  C_7 
REMARK    3  A    between atoms: C_7  and  O_8 
REMARK    4  A    between atoms: C_7  and  C_9 
ROOT
HETATM    1  C   UNL     1     -42.369 -55.742  16.648  1.00  0.00     0.070 C 
HETATM    2  C   UNL     1     -42.281 -54.878  15.408  1.00  0.00     0.029 A 
HETATM    3  N   UNL     1     -43.351 -54.788  14.685  1.00  0.00    -0.300 N 
ATOM      4  HN  UNL     1     -44.206 -55.275  14.952  1.00  0.00     0.187 HD
HETATM    5  N   UNL     1     -43.303 -54.023  13.552  1.00  0.00    -0.253 N 
HETATM    6  C   UNL     1     -42.184 -53.319  13.132  1.00  0.00     0.283 A 
HETATM    7  O   UNL     1     -42.157 -52.647  12.101  1.00  0.00    -0.265 OA
HETATM    8  C   UNL     1     -40.975 -53.447  13.985  1.00  0.00     0.121 A 
HETATM    9  C   UNL     1     -39.811 -52.754  13.558  1.00  0.00     0.105 C 
HETATM   10  N   UNL     1     -38.823 -52.222  13.258  1.00  0.00    -0.191 NA
HETATM   11  C   UNL     1     -40.987 -54.204  15.097  1.00  0.00    -0.012 A 
HETATM   12  C   UNL     1     -39.824 -54.424  16.020  1.00  0.00     0.052 C 
ENDROOT
BRANCH   5  13
HETATM   13  C   UNL     1     -44.514 -53.986  12.739  1.00  0.00     0.189 C 
BRANCH  13  14
HETATM   14  C   UNL     1     -45.162 -52.587  12.642  1.00  0.00     0.171 C 
BRANCH  14  15
HETATM   15  O   UNL     1     -46.318 -52.620  11.793  1.00  0.00    -0.389 OA
HETATM   16  H   UNL     1     -46.444 -51.717  11.448  1.00  0.00     0.210 HD
ENDBRANCH  14  15
BRANCH  14  17
HETATM   17  C   UNL     1     -45.597 -51.992  13.974  1.00  0.00    -0.028 A 
HETATM   18  C   UNL     1     -44.800 -51.105  14.717  1.00  0.00     0.010 A 
HETATM   19  C   UNL     1     -45.222 -50.626  15.959  1.00  0.00     0.001 A 
HETATM   20  C   UNL     1     -46.452 -51.015  16.478  1.00  0.00     0.000 A 
HETATM   21  C   UNL     1     -47.269 -51.874  15.748  1.00  0.00     0.001 A 
HETATM   22  C   UNL     1     -46.847 -52.355  14.507  1.00  0.00     0.010 A 
ENDBRANCH  14  17
ENDBRANCH  13  14
ENDBRANCH   5  13
TORSDOF 4
ENDMDL
MODEL 7
REMARK VINA RESULT:      -5.9      3.367      5.302
REMARK  4 active torsions:
REMARK  status: ('A' for Active; 'I' for Inactive)
REMARK    1  A    between atoms: N_5  and  C_6 
REMARK    2  A    between atoms: C_6  and  C_7 
REMARK    3  A    between atoms: C_7  and  O_8 
REMARK    4  A    between atoms: C_7  and  C_9 
ROOT
HETATM    1  C   UNL     1     -39.852 -54.464  15.580  1.00  0.00     0.070 C 
HETATM    2  C   UNL     1     -40.982 -54.084  14.648  1.00  0.00     0.029 A 
HETATM    3  N   UNL     1     -40.719 -53.192  13.747  1.00  0.00    -0.300 N 
ATOM      4  HN  UNL     1     -39.789 -52.779  13.676  1.00  0.00     0.187 HD
HETATM    5  N   UNL     1     -41.720 -52.819  12.894  1.00  0.00    -0.253 N 
HETATM    6  C   UNL     1     -43.003 -53.347  12.919  1.00  0.00     0.283 A 
HETATM    7  O   UNL     1     -43.896 -52.987  12.151  1.00  0.00    -0.265 OA
HETATM    8  C   UNL     1     -43.270 -54.365  13.966  1.00  0.00     0.121 A 
HETATM    9  C   UNL     1     -44.585 -54.899  14.023  1.00  0.00     0.105 C 
HETATM   10  N   UNL     1     -45.644 -55.366  14.131  1.00  0.00    -0.191 NA
HETATM   11  C   UNL     1     -42.309 -54.742  14.829  1.00  0.00    -0.012 A 
HETATM   12  C   UNL     1     -42.469 -55.741  15.937  1.00  0.00     0.052 C 
ENDROOT
BRANCH   5  13
HETATM   13  C   UNL     1     -41.397 -51.777  11.925  1.00  0.00     0.189 C 
BRANCH  13  14
HETATM   14  C   UNL     1     -40.253 -50.840  12.371  1.00  0.00     0.171 C 
BRANCH  14  15
HETATM   15  O   UNL     1     -38.983 -51.342  11.928  1.00  0.00    -0.389 OA
HETATM   16  H   UNL     1     -39.144 -51.838  11.105  1.00  0.00     0.210 HD
ENDBRANCH  14  15
BRANCH  14  17
HETATM   17  C   UNL     1     -40.371 -49.407  11.873  1.00  0.00    -0.028 A 
HETATM   18  C   UNL     1     -39.499 -48.380  12.271  1.00  0.00     0.010 A 
HETATM   19  C   UNL     1     -39.681 -47.068  11.827  1.00  0.00     0.001 A 
HETATM   20  C   UNL     1     -40.729 -46.760  10.967  1.00  0.00     0.000 A 
HETATM   21  C   UNL     1     -41.591 -47.766  10.540  1.00  0.00     0.001 A 
HETATM   22  C   UNL     1     -41.411 -49.078  10.986  1.00  0.00     0.010 A 
ENDBRANCH  14  17
ENDBRANCH  13  14
ENDBRANCH   5  13
TORSDOF 4
ENDMDL
MODEL 8
REMARK VINA RESULT:      -5.9      4.258      6.598
REMARK  4 active torsions:
REMARK  status: ('A' for Active; 'I' for Inactive)
REMARK    1  A    between atoms: N_5  and  C_6 
REMARK    2  A    between atoms: C_6  and  C_7 
REMARK    3  A    between atoms: C_7  and  O_8 
REMARK    4  A    between atoms: C_7  and  C_9 
ROOT
HETATM    1  C   UNL     1     -40.047 -54.710  16.258  1.00  0.00     0.070 C 
HETATM    2  C   UNL     1     -40.591 -53.987  15.045  1.00  0.00     0.029 A 
HETATM    3  N   UNL     1     -39.821 -53.097  14.504  1.00  0.00    -0.300 N 
ATOM      4  HN  UNL     1     -38.893 -52.908  14.883  1.00  0.00     0.187 HD
HETATM    5  N   UNL     1     -40.285 -52.419  13.411  1.00  0.00    -0.253 N 
HETATM    6  C   UNL     1     -41.526 -52.632  12.829  1.00  0.00     0.283 A 
HETATM    7  O   UNL     1     -41.931 -51.999  11.854  1.00  0.00    -0.265 OA
HETATM    8  C   UNL     1     -42.383 -53.657  13.476  1.00  0.00     0.121 A 
HETATM    9  C   UNL     1     -43.668 -53.871  12.910  1.00  0.00     0.105 C 
HETATM   10  N   UNL     1     -44.735 -54.086  12.504  1.00  0.00    -0.191 NA
HETATM   11  C   UNL     1     -41.960 -54.331  14.561  1.00  0.00    -0.012 A 
HETATM   12  C   UNL     1     -42.744 -55.369  15.310  1.00  0.00     0.052 C 
ENDROOT
BRANCH   5  13
HETATM   13  C   UNL     1     -39.407 -51.391  12.861  1.00  0.00     0.189 C 
BRANCH  13  14
HETATM   14  C   UNL     1     -37.967 -51.433  13.419  1.00  0.00     0.171 C 
BRANCH  14  15
HETATM   15  O   UNL     1     -37.021 -51.672  12.367  1.00  0.00    -0.389 OA
HETATM   16  H   UNL     1     -37.532 -51.816  11.550  1.00  0.00     0.210 HD
ENDBRANCH  14  15
BRANCH  14  17
HETATM   17  C   UNL     1     -37.527 -50.169  14.144  1.00  0.00    -0.028 A 
HETATM   18  C   UNL     1     -36.829 -50.185  15.363  1.00  0.00     0.010 A 
HETATM   19  C   UNL     1     -36.492 -48.997  16.016  1.00  0.00     0.001 A 
HETATM   20  C   UNL     1     -36.837 -47.771  15.458  1.00  0.00     0.000 A 
HETATM   21  C   UNL     1     -37.508 -47.730  14.239  1.00  0.00     0.001 A 
HETATM   22  C   UNL     1     -37.846 -48.918  13.587  1.00  0.00     0.010 A 
ENDBRANCH  14  17
ENDBRANCH  13  14
ENDBRANCH   5  13
TORSDOF 4
ENDMDL
MODEL 9
REMARK VINA RESULT:      -5.8      3.805      6.479
REMARK  4 active torsions:
REMARK  status: ('A' for Active; 'I' for Inactive)
REMARK    1  A    between atoms: N_5  and  C_6 
REMARK    2  A    between atoms: C_6  and  C_7 
REMARK    3  A    between atoms: C_7  and  O_8 
REMARK    4  A    between atoms: C_7  and  C_9 
ROOT
HETATM    1  C   UNL     1     -43.224 -48.489  15.626  1.00  0.00     0.070 C 
HETATM    2  C   UNL     1     -42.522 -48.745  14.310  1.00  0.00     0.029 A 
HETATM    3  N   UNL     1     -41.983 -49.913  14.156  1.00  0.00    -0.300 N 
ATOM      4  HN  UNL     1     -42.043 -50.618  14.890  1.00  0.00     0.187 HD
HETATM    5  N   UNL     1     -41.333 -50.174  12.982  1.00  0.00    -0.253 N 
HETATM    6  C   UNL     1     -41.224 -49.274  11.932  1.00  0.00     0.283 A 
HETATM    7  O   UNL     1     -40.621 -49.524  10.888  1.00  0.00    -0.265 OA
HETATM    8  C   UNL     1     -41.852 -47.945  12.145  1.00  0.00     0.121 A 
HETATM    9  C   UNL     1     -41.730 -47.001  11.091  1.00  0.00     0.105 C 
HETATM   10  N   UNL     1     -41.655 -46.179  10.273  1.00  0.00    -0.191 NA
HETATM   11  C   UNL     1     -42.486 -47.653  13.295  1.00  0.00    -0.012 A 
HETATM   12  C   UNL     1     -43.136 -46.342  13.629  1.00  0.00     0.052 C 
ENDROOT
BRANCH   5  13
HETATM   13  C   UNL     1     -40.698 -51.483  12.866  1.00  0.00     0.189 C 
BRANCH  13  14
HETATM   14  C   UNL     1     -41.502 -52.497  12.023  1.00  0.00     0.171 C 
BRANCH  14  15
HETATM   15  O   UNL     1     -40.622 -53.389  11.324  1.00  0.00    -0.389 OA
HETATM   16  H   UNL     1     -41.160 -53.859  10.660  1.00  0.00     0.210 HD
ENDBRANCH  14  15
BRANCH  14  17
HETATM   17  C   UNL     1     -42.478 -53.356  12.817  1.00  0.00    -0.028 A 
HETATM   18  C   UNL     1     -43.846 -53.444  12.514  1.00  0.00     0.010 A 
HETATM   19  C   UNL     1     -44.711 -54.205  13.304  1.00  0.00     0.001 A 
HETATM   20  C   UNL     1     -44.222 -54.900  14.405  1.00  0.00     0.000 A 
HETATM   21  C   UNL     1     -42.866 -54.846  14.710  1.00  0.00     0.001 A 
HETATM   22  C   UNL     1     -42.001 -54.084  13.921  1.00  0.00     0.010 A 
ENDBRANCH  14  17
ENDBRANCH  13  14
ENDBRANCH   5  13
TORSDOF 4
ENDMDL
