MODEL 1
REMARK VINA RESULT:      -6.2      0.000      0.000
REMARK  6 active torsions:
REMARK  status: ('A' for Active; 'I' for Inactive)
REMARK    1  A    between atoms: C_2  and  C_3 
REMARK    2  A    between atoms: C_3  and  C_4 
REMARK    3  A    between atoms: C_4  and  N_5 
REMARK    4  A    between atoms: C_6  and  N_7 
REMARK    5  A    between atoms: C_8  and  N_9 
REMARK       I    between atoms: N_9  and  C_11 
REMARK    6  A    between atoms: C_11  and  C_13 
ROOT
HETATM    1  N   UNL     1     -45.544 -53.508  14.158  1.00  0.00    -0.293 N 
HETATM    2  C   UNL     1     -44.618 -54.022  15.085  1.00  0.00     0.116 C 
HETATM    3  C   UNL     1     -43.301 -54.172  14.718  1.00  0.00     0.139 C 
HETATM    4  C   UNL     1     -43.055 -53.857  13.251  1.00  0.00     0.259 C 
HETATM    5  O   UNL     1     -41.977 -53.469  12.803  1.00  0.00    -0.272 OA
HETATM    6  N   UNL     1     -44.109 -54.025  12.417  1.00  0.00    -0.173 NA
HETATM    7  C   UNL     1     -45.280 -53.463  12.798  1.00  0.00     0.308 C 
HETATM    8  O   UNL     1     -46.004 -52.939  11.952  1.00  0.00    -0.253 OA
HETATM    9  H   UNL     1     -43.906 -53.830  11.449  1.00  0.00     0.141 HD
ENDROOT
BRANCH   3  10
HETATM   10  N   UNL     1     -42.171 -54.550  15.529  1.00  0.00    -0.309 N 
HETATM   11  C   UNL     1     -41.212 -53.496  15.891  1.00  0.00     0.160 C 
HETATM   12  C   UNL     1     -42.014 -55.824  16.121  1.00  0.00     0.283 C 
HETATM   13  O   UNL     1     -42.820 -56.748  15.991  1.00  0.00    -0.265 OA
BRANCH  12  14
HETATM   14  C   UNL     1     -40.804 -56.128  16.988  1.00  0.00     0.159 C 
HETATM   15  C   UNL     1     -40.981 -56.012  18.312  1.00  0.00     0.177 C 
HETATM   16  O   UNL     1     -40.033 -56.192  19.274  1.00  0.00    -0.358 OA
HETATM   17  C   UNL     1     -38.704 -56.340  18.793  1.00  0.00     0.201 C 
HETATM   18  C   UNL     1     -38.525 -56.693  17.314  1.00  0.00     0.202 C 
HETATM   19  O   UNL     1     -39.590 -56.400  16.414  1.00  0.00    -0.342 OA
ENDBRANCH  12  14
ENDBRANCH   3  10
BRANCH   2  20
HETATM   20  N   UNL     1     -45.116 -54.397  16.325  1.00  0.00    -0.286 NA
HETATM   21  H   UNL     1     -46.058 -54.070  16.499  1.00  0.00     0.125 HD
HETATM   22  H   UNL     1     -44.532 -54.044  17.088  1.00  0.00     0.125 HD
ENDBRANCH   2  20
BRANCH   1  23
HETATM   23  C   UNL     1     -46.827 -52.936  14.606  1.00  0.00     0.134 C 
BRANCH  23  24
HETATM   24  C   UNL     1     -46.729 -51.424  14.872  1.00  0.00     0.020 C 
BRANCH  24  25
HETATM   25  C   UNL     1     -46.657 -51.114  16.367  1.00  0.00    -0.003 C 
HETATM   26  C   UNL     1     -48.043 -51.106  16.996  1.00  0.00     0.005 C 
ENDBRANCH  24  25
ENDBRANCH  23  24
ENDBRANCH   1  23
TORSDOF 6
ENDMDL
MODEL 2
REMARK VINA RESULT:      -6.2      6.441      7.824
REMARK  6 active torsions:
REMARK  status: ('A' for Active; 'I' for Inactive)
REMARK    1  A    between atoms: C_2  and  C_3 
REMARK    2  A    between atoms: C_3  and  C_4 
REMARK    3  A    between atoms: C_4  and  N_5 
REMARK    4  A    between atoms: C_6  and  N_7 
REMARK    5  A    between atoms: C_8  and  N_9 
REMARK       I    between atoms: N_9  and  C_11 
REMARK    6  A    between atoms: C_11  and  C_13 
ROOT
HETATM    1  N   UNL     1     -42.645 -46.228   9.832  1.00  0.00    -0.293 N 
HETATM    2  C   UNL     1     -42.018 -47.455  10.118  1.00  0.00     0.116 C 
HETATM    3  C   UNL     1     -41.432 -47.647  11.348  1.00  0.00     0.139 C 
HETATM    4  C   UNL     1     -41.446 -46.397  12.213  1.00  0.00     0.259 C 
HETATM    5  O   UNL     1     -41.426 -46.412  13.443  1.00  0.00    -0.272 OA
HETATM    6  N   UNL     1     -41.481 -45.214  11.556  1.00  0.00    -0.173 NA
HETATM    7  C   UNL     1     -42.415 -45.087  10.584  1.00  0.00     0.308 C 
HETATM    8  O   UNL     1     -43.003 -44.015  10.445  1.00  0.00    -0.253 OA
HETATM    9  H   UNL     1     -41.466 -44.405  12.157  1.00  0.00     0.141 HD
ENDROOT
BRANCH   3  10
HETATM   10  N   UNL     1     -40.855 -48.847  11.899  1.00  0.00    -0.309 N 
HETATM   11  C   UNL     1     -39.389 -48.913  11.998  1.00  0.00     0.160 C 
HETATM   12  C   UNL     1     -41.608 -49.888  12.488  1.00  0.00     0.283 C 
HETATM   13  O   UNL     1     -42.839 -49.883  12.577  1.00  0.00    -0.265 OA
BRANCH  12  14
HETATM   14  C   UNL     1     -40.914 -51.107  13.074  1.00  0.00     0.159 C 
HETATM   15  C   UNL     1     -40.822 -52.177  12.271  1.00  0.00     0.177 C 
HETATM   16  O   UNL     1     -40.283 -53.386  12.594  1.00  0.00    -0.358 OA
HETATM   17  C   UNL     1     -39.958 -53.555  13.968  1.00  0.00     0.201 C 
HETATM   18  C   UNL     1     -39.850 -52.293  14.828  1.00  0.00     0.202 C 
HETATM   19  O   UNL     1     -40.511 -51.112  14.383  1.00  0.00    -0.342 OA
ENDBRANCH  12  14
ENDBRANCH   3  10
BRANCH   2  20
HETATM   20  N   UNL     1     -41.990 -48.397   9.100  1.00  0.00    -0.286 NA
HETATM   21  H   UNL     1     -41.360 -49.169   9.280  1.00  0.00     0.125 HD
HETATM   22  H   UNL     1     -41.704 -47.980   8.210  1.00  0.00     0.125 HD
ENDBRANCH   2  20
BRANCH   1  23
HETATM   23  C   UNL     1     -43.632 -46.118   8.742  1.00  0.00     0.134 C 
BRANCH  23  24
HETATM   24  C   UNL     1     -45.034 -46.575   9.177  1.00  0.00     0.020 C 
BRANCH  24  25
HETATM   25  C   UNL     1     -45.423 -47.905   8.532  1.00  0.00    -0.003 C 
HETATM   26  C   UNL     1     -46.827 -48.327   8.941  1.00  0.00     0.005 C 
ENDBRANCH  24  25
ENDBRANCH  23  24
ENDBRANCH   1  23
TORSDOF 6
ENDMDL
MODEL 3
REMARK VINA RESULT:      -6.2      7.147      8.286
REMARK  6 active torsions:
REMARK  status: ('A' for Active; 'I' for Inactive)
REMARK    1  A    between atoms: C_2  and  C_3 
REMARK    2  A    between atoms: C_3  and  C_4 
REMARK    3  A    between atoms: C_4  and  N_5 
REMARK    4  A    between atoms: C_6  and  N_7 
REMARK    5  A    between atoms: C_8  and  N_9 
REMARK       I    between atoms: N_9  and  C_11 
REMARK    6  A    between atoms: C_11  and  C_13 
ROOT
HETATM    1  N   UNL     1     -42.764 -47.133  10.329  1.00  0.00    -0.293 N 
HETATM    2  C   UNL     1     -41.882 -47.963  11.047  1.00  0.00     0.116 C 
HETATM    3  C   UNL     1     -40.698 -47.447  11.520  1.00  0.00     0.139 C 
HETATM    4  C   UNL     1     -40.454 -46.016  11.070  1.00  0.00     0.259 C 
HETATM    5  O   UNL     1     -39.765 -45.208  11.691  1.00  0.00    -0.272 OA
HETATM    6  N   UNL     1     -41.044 -45.643   9.909  1.00  0.00    -0.173 NA
HETATM    7  C   UNL     1     -42.362 -45.925   9.781  1.00  0.00     0.308 C 
HETATM    8  O   UNL     1     -43.105 -45.114   9.231  1.00  0.00    -0.253 OA
HETATM    9  H   UNL     1     -40.843 -44.696   9.628  1.00  0.00     0.141 HD
ENDROOT
BRANCH   3  10
HETATM   10  N   UNL     1     -39.718 -48.065  12.376  1.00  0.00    -0.309 N 
HETATM   11  C   UNL     1     -38.676 -48.881  11.736  1.00  0.00     0.160 C 
HETATM   12  C   UNL     1     -39.606 -47.811  13.763  1.00  0.00     0.283 C 
HETATM   13  O   UNL     1     -40.346 -47.045  14.384  1.00  0.00    -0.265 OA
BRANCH  12  14
HETATM   14  C   UNL     1     -38.521 -48.486  14.585  1.00  0.00     0.159 C 
HETATM   15  C   UNL     1     -37.404 -47.772  14.790  1.00  0.00     0.177 C 
HETATM   16  O   UNL     1     -36.291 -48.186  15.457  1.00  0.00    -0.358 OA
HETATM   17  C   UNL     1     -36.271 -49.565  15.801  1.00  0.00     0.201 C 
HETATM   18  C   UNL     1     -37.603 -50.319  15.775  1.00  0.00     0.202 C 
HETATM   19  O   UNL     1     -38.666 -49.787  14.990  1.00  0.00    -0.342 OA
ENDBRANCH  12  14
ENDBRANCH   3  10
BRANCH   2  20
HETATM   20  N   UNL     1     -42.252 -49.292  11.192  1.00  0.00    -0.286 NA
HETATM   21  H   UNL     1     -43.190 -49.489  10.867  1.00  0.00     0.125 HD
HETATM   22  H   UNL     1     -42.206 -49.591  12.170  1.00  0.00     0.125 HD
ENDBRANCH   2  20
BRANCH   1  23
HETATM   23  C   UNL     1     -44.187 -47.490  10.178  1.00  0.00     0.134 C 
BRANCH  23  24
HETATM   24  C   UNL     1     -44.554 -47.818   8.721  1.00  0.00     0.020 C 
BRANCH  24  25
HETATM   25  C   UNL     1     -46.037 -48.158   8.572  1.00  0.00    -0.003 C 
HETATM   26  C   UNL     1     -46.915 -47.078   9.187  1.00  0.00     0.005 C 
ENDBRANCH  24  25
ENDBRANCH  23  24
ENDBRANCH   1  23
TORSDOF 6
ENDMDL
MODEL 4
REMARK VINA RESULT:      -6.0      6.009      8.717
REMARK  6 active torsions:
REMARK  status: ('A' for Active; 'I' for Inactive)
REMARK    1  A    between atoms: C_2  and  C_3 
REMARK    2  A    between atoms: C_3  and  C_4 
REMARK    3  A    between atoms: C_4  and  N_5 
REMARK    4  A    between atoms: C_6  and  N_7 
REMARK    5  A    between atoms: C_8  and  N_9 
REMARK       I    between atoms: N_9  and  C_11 
REMARK    6  A    between atoms: C_11  and  C_13 
ROOT
HETATM    1  N   UNL     1     -42.011 -51.976  12.392  1.00  0.00    -0.293 N 
HETATM    2  C   UNL     1     -42.203 -50.584  12.474  1.00  0.00     0.116 C 
HETATM    3  C   UNL     1     -41.136 -49.738  12.273  1.00  0.00     0.139 C 
HETATM    4  C   UNL     1     -39.819 -50.476  12.103  1.00  0.00     0.259 C 
HETATM    5  O   UNL     1     -38.858 -50.032  11.478  1.00  0.00    -0.272 OA
HETATM    6  N   UNL     1     -39.733 -51.694  12.691  1.00  0.00    -0.173 NA
HETATM    7  C   UNL     1     -40.752 -52.553  12.456  1.00  0.00     0.308 C 
HETATM    8  O   UNL     1     -40.511 -53.749  12.293  1.00  0.00    -0.253 OA
HETATM    9  H   UNL     1     -38.839 -52.146  12.579  1.00  0.00     0.141 HD
ENDROOT
BRANCH   3  10
HETATM   10  N   UNL     1     -41.125 -48.300  12.182  1.00  0.00    -0.309 N 
HETATM   11  C   UNL     1     -40.542 -47.553  13.307  1.00  0.00     0.160 C 
HETATM   12  C   UNL     1     -41.492 -47.578  11.024  1.00  0.00     0.283 C 
HETATM   13  O   UNL     1     -41.875 -48.104   9.976  1.00  0.00    -0.265 OA
BRANCH  12  14
HETATM   14  C   UNL     1     -41.421 -46.060  11.006  1.00  0.00     0.159 C 
HETATM   15  C   UNL     1     -40.354 -45.525  10.395  1.00  0.00     0.177 C 
HETATM   16  O   UNL     1     -40.061 -44.199  10.294  1.00  0.00    -0.358 OA
HETATM   17  C   UNL     1     -40.883 -43.337  11.069  1.00  0.00     0.201 C 
HETATM   18  C   UNL     1     -42.212 -43.900  11.578  1.00  0.00     0.202 C 
HETATM   19  O   UNL     1     -42.356 -45.314  11.676  1.00  0.00    -0.342 OA
ENDBRANCH  12  14
ENDBRANCH   3  10
BRANCH   2  20
HETATM   20  N   UNL     1     -43.477 -50.146  12.807  1.00  0.00    -0.286 NA
HETATM   21  H   UNL     1     -43.571 -49.878  13.779  1.00  0.00     0.125 HD
HETATM   22  H   UNL     1     -44.181 -50.866  12.626  1.00  0.00     0.125 HD
ENDBRANCH   2  20
BRANCH   1  23
HETATM   23  C   UNL     1     -43.149 -52.886  12.172  1.00  0.00     0.134 C 
BRANCH  23  24
HETATM   24  C   UNL     1     -43.669 -53.497  13.484  1.00  0.00     0.020 C 
BRANCH  24  25
HETATM   25  C   UNL     1     -45.168 -53.790  13.421  1.00  0.00    -0.003 C 
HETATM   26  C   UNL     1     -45.467 -55.225  13.830  1.00  0.00     0.005 C 
ENDBRANCH  24  25
ENDBRANCH  23  24
ENDBRANCH   1  23
TORSDOF 6
ENDMDL
MODEL 5
REMARK VINA RESULT:      -5.5      4.876      7.078
REMARK  6 active torsions:
REMARK  status: ('A' for Active; 'I' for Inactive)
REMARK    1  A    between atoms: C_2  and  C_3 
REMARK    2  A    between atoms: C_3  and  C_4 
REMARK    3  A    between atoms: C_4  and  N_5 
REMARK    4  A    between atoms: C_6  and  N_7 
REMARK    5  A    between atoms: C_8  and  N_9 
REMARK       I    between atoms: N_9  and  C_11 
REMARK    6  A    between atoms: C_11  and  C_13 
ROOT
HETATM    1  N   UNL     1     -40.056 -49.214  11.745  1.00  0.00    -0.293 N 
HETATM    2  C   UNL     1     -41.307 -49.828  11.941  1.00  0.00     0.116 C 
HETATM    3  C   UNL     1     -41.371 -51.062  12.547  1.00  0.00     0.139 C 
HETATM    4  C   UNL     1     -40.000 -51.659  12.820  1.00  0.00     0.259 C 
HETATM    5  O   UNL     1     -39.768 -52.467  13.718  1.00  0.00    -0.272 OA
HETATM    6  N   UNL     1     -38.997 -51.255  12.004  1.00  0.00    -0.173 NA
HETATM    7  C   UNL     1     -38.866 -49.921  11.818  1.00  0.00     0.308 C 
HETATM    8  O   UNL     1     -37.742 -49.425  11.754  1.00  0.00    -0.253 OA
HETATM    9  H   UNL     1     -38.107 -51.687  12.197  1.00  0.00     0.141 HD
ENDROOT
BRANCH   3  10
HETATM   10  N   UNL     1     -42.531 -51.810  12.960  1.00  0.00    -0.309 N 
HETATM   11  C   UNL     1     -42.935 -52.952  12.127  1.00  0.00     0.160 C 
HETATM   12  C   UNL     1     -43.204 -51.611  14.188  1.00  0.00     0.283 C 
HETATM   13  O   UNL     1     -42.875 -50.767  15.025  1.00  0.00    -0.265 OA
BRANCH  12  14
HETATM   14  C   UNL     1     -44.403 -52.468  14.557  1.00  0.00     0.159 C 
HETATM   15  C   UNL     1     -44.157 -53.518  15.354  1.00  0.00     0.177 C 
HETATM   16  O   UNL     1     -45.064 -54.442  15.777  1.00  0.00    -0.358 OA
HETATM   17  C   UNL     1     -46.342 -54.362  15.159  1.00  0.00     0.201 C 
HETATM   18  C   UNL     1     -46.695 -53.060  14.436  1.00  0.00     0.202 C 
HETATM   19  O   UNL     1     -45.632 -52.213  14.007  1.00  0.00    -0.342 OA
ENDBRANCH  12  14
ENDBRANCH   3  10
BRANCH   2  20
HETATM   20  N   UNL     1     -42.419 -49.155  11.454  1.00  0.00    -0.286 NA
HETATM   21  H   UNL     1     -43.262 -49.716  11.449  1.00  0.00     0.125 HD
HETATM   22  H   UNL     1     -42.272 -48.829  10.495  1.00  0.00     0.125 HD
ENDBRANCH   2  20
BRANCH   1  23
HETATM   23  C   UNL     1     -39.954 -47.762  11.508  1.00  0.00     0.134 C 
BRANCH  23  24
HETATM   24  C   UNL     1     -39.939 -46.958  12.819  1.00  0.00     0.020 C 
BRANCH  24  25
HETATM   25  C   UNL     1     -40.297 -45.490  12.589  1.00  0.00    -0.003 C 
HETATM   26  C   UNL     1     -39.105 -44.583  12.860  1.00  0.00     0.005 C 
ENDBRANCH  24  25
ENDBRANCH  23  24
ENDBRANCH   1  23
TORSDOF 6
ENDMDL
MODEL 6
REMARK VINA RESULT:      -5.3      3.804      6.778
REMARK  6 active torsions:
REMARK  status: ('A' for Active; 'I' for Inactive)
REMARK    1  A    between atoms: C_2  and  C_3 
REMARK    2  A    between atoms: C_3  and  C_4 
REMARK    3  A    between atoms: C_4  and  N_5 
REMARK    4  A    between atoms: C_6  and  N_7 
REMARK    5  A    between atoms: C_8  and  N_9 
REMARK       I    between atoms: N_9  and  C_11 
REMARK    6  A    between atoms: C_11  and  C_13 
ROOT
HETATM    1  N   UNL     1     -43.455 -54.377  14.246  1.00  0.00    -0.293 N 
HETATM    2  C   UNL     1     -42.705 -53.226  13.941  1.00  0.00     0.116 C 
HETATM    3  C   UNL     1     -43.322 -52.152  13.343  1.00  0.00     0.139 C 
HETATM    4  C   UNL     1     -44.770 -52.432  12.973  1.00  0.00     0.259 C 
HETATM    5  O   UNL     1     -45.635 -51.562  12.876  1.00  0.00    -0.272 OA
HETATM    6  N   UNL     1     -45.091 -53.727  12.745  1.00  0.00    -0.173 NA
HETATM    7  C   UNL     1     -44.694 -54.624  13.677  1.00  0.00     0.308 C 
HETATM    8  O   UNL     1     -45.438 -55.558  13.976  1.00  0.00    -0.253 OA
HETATM    9  H   UNL     1     -46.053 -53.875  12.480  1.00  0.00     0.141 HD
ENDROOT
BRANCH   3  10
HETATM   10  N   UNL     1     -42.791 -50.842  13.061  1.00  0.00    -0.309 N 
HETATM   11  C   UNL     1     -43.298 -49.718  13.861  1.00  0.00     0.160 C 
HETATM   12  C   UNL     1     -41.712 -50.600  12.181  1.00  0.00     0.283 C 
HETATM   13  O   UNL     1     -41.123 -51.483  11.552  1.00  0.00    -0.265 OA
BRANCH  12  14
HETATM   14  C   UNL     1     -41.195 -49.187  11.966  1.00  0.00     0.159 C 
HETATM   15  C   UNL     1     -41.663 -48.543  10.887  1.00  0.00     0.177 C 
HETATM   16  O   UNL     1     -41.311 -47.294  10.474  1.00  0.00    -0.358 OA
HETATM   17  C   UNL     1     -40.214 -46.715  11.168  1.00  0.00     0.201 C 
HETATM   18  C   UNL     1     -39.828 -47.330  12.516  1.00  0.00     0.202 C 
HETATM   19  O   UNL     1     -40.227 -48.670  12.788  1.00  0.00    -0.342 OA
ENDBRANCH  12  14
ENDBRANCH   3  10
BRANCH   2  20
HETATM   20  N   UNL     1     -41.348 -53.268  14.227  1.00  0.00    -0.286 NA
HETATM   21  H   UNL     1     -41.047 -54.145  14.634  1.00  0.00     0.125 HD
HETATM   22  H   UNL     1     -41.077 -52.528  14.879  1.00  0.00     0.125 HD
ENDBRANCH   2  20
BRANCH   1  23
HETATM   23  C   UNL     1     -42.973 -55.353  15.242  1.00  0.00     0.134 C 
BRANCH  23  24
HETATM   24  C   UNL     1     -43.155 -54.851  16.684  1.00  0.00     0.020 C 
BRANCH  24  25
HETATM   25  C   UNL     1     -42.343 -55.679  17.680  1.00  0.00    -0.003 C 
HETATM   26  C   UNL     1     -41.296 -56.525  16.969  1.00  0.00     0.005 C 
ENDBRANCH  24  25
ENDBRANCH  23  24
ENDBRANCH   1  23
TORSDOF 6
ENDMDL
MODEL 7
REMARK VINA RESULT:      -5.2      5.127      6.137
REMARK  6 active torsions:
REMARK  status: ('A' for Active; 'I' for Inactive)
REMARK    1  A    between atoms: C_2  and  C_3 
REMARK    2  A    between atoms: C_3  and  C_4 
REMARK    3  A    between atoms: C_4  and  N_5 
REMARK    4  A    between atoms: C_6  and  N_7 
REMARK    5  A    between atoms: C_8  and  N_9 
REMARK       I    between atoms: N_9  and  C_11 
REMARK    6  A    between atoms: C_11  and  C_13 
ROOT
HETATM    1  N   UNL     1     -40.522 -48.514  12.228  1.00  0.00    -0.293 N 
HETATM    2  C   UNL     1     -40.194 -49.327  13.329  1.00  0.00     0.116 C 
HETATM    3  C   UNL     1     -40.619 -50.635  13.357  1.00  0.00     0.139 C 
HETATM    4  C   UNL     1     -41.528 -50.988  12.191  1.00  0.00     0.259 C 
HETATM    5  O   UNL     1     -41.652 -52.125  11.736  1.00  0.00    -0.272 OA
HETATM    6  N   UNL     1     -42.227 -49.965  11.644  1.00  0.00    -0.173 NA
HETATM    7  C   UNL     1     -41.527 -48.849  11.335  1.00  0.00     0.308 C 
HETATM    8  O   UNL     1     -41.794 -48.233  10.304  1.00  0.00    -0.253 OA
HETATM    9  H   UNL     1     -42.837 -50.237  10.889  1.00  0.00     0.141 HD
ENDROOT
BRANCH   3  10
HETATM   10  N   UNL     1     -40.298 -51.672  14.306  1.00  0.00    -0.309 N 
HETATM   11  C   UNL     1     -41.316 -52.010  15.312  1.00  0.00     0.160 C 
HETATM   12  C   UNL     1     -39.142 -52.482  14.230  1.00  0.00     0.283 C 
HETATM   13  O   UNL     1     -38.281 -52.374  13.353  1.00  0.00    -0.265 OA
BRANCH  12  14
HETATM   14  C   UNL     1     -38.898 -53.574  15.257  1.00  0.00     0.159 C 
HETATM   15  C   UNL     1     -39.070 -54.835  14.833  1.00  0.00     0.177 C 
HETATM   16  O   UNL     1     -38.949 -55.965  15.584  1.00  0.00    -0.358 OA
HETATM   17  C   UNL     1     -38.801 -55.749  16.981  1.00  0.00     0.201 C 
HETATM   18  C   UNL     1     -38.385 -54.349  17.438  1.00  0.00     0.202 C 
HETATM   19  O   UNL     1     -38.620 -53.252  16.560  1.00  0.00    -0.342 OA
ENDBRANCH  12  14
ENDBRANCH   3  10
BRANCH   2  20
HETATM   20  N   UNL     1     -39.487 -48.728  14.362  1.00  0.00    -0.286 NA
HETATM   21  H   UNL     1     -38.556 -48.431  14.096  1.00  0.00     0.125 HD
HETATM   22  H   UNL     1     -39.383 -49.358  15.162  1.00  0.00     0.125 HD
ENDBRANCH   2  20
BRANCH   1  23
HETATM   23  C   UNL     1     -39.761 -47.284  11.941  1.00  0.00     0.134 C 
BRANCH  23  24
HETATM   24  C   UNL     1     -40.434 -46.032  12.528  1.00  0.00     0.020 C 
BRANCH  24  25
HETATM   25  C   UNL     1     -40.556 -44.914  11.492  1.00  0.00    -0.003 C 
HETATM   26  C   UNL     1     -39.706 -45.206  10.264  1.00  0.00     0.005 C 
ENDBRANCH  24  25
ENDBRANCH  23  24
ENDBRANCH   1  23
TORSDOF 6
ENDMDL
MODEL 8
REMARK VINA RESULT:      -5.2      6.034      8.642
REMARK  6 active torsions:
REMARK  status: ('A' for Active; 'I' for Inactive)
REMARK    1  A    between atoms: C_2  and  C_3 
REMARK    2  A    between atoms: C_3  and  C_4 
REMARK    3  A    between atoms: C_4  and  N_5 
REMARK    4  A    between atoms: C_6  and  N_7 
REMARK    5  A    between atoms: C_8  and  N_9 
REMARK       I    between atoms: N_9  and  C_11 
REMARK    6  A    between atoms: C_11  and  C_13 
ROOT
HETATM    1  N   UNL     1     -40.434 -52.230  13.823  1.00  0.00    -0.293 N 
HETATM    2  C   UNL     1     -40.819 -50.911  13.515  1.00  0.00     0.116 C 
HETATM    3  C   UNL     1     -39.989 -50.122  12.752  1.00  0.00     0.139 C 
HETATM    4  C   UNL     1     -38.659 -50.789  12.441  1.00  0.00     0.259 C 
HETATM    5  O   UNL     1     -37.975 -50.530  11.452  1.00  0.00    -0.272 OA
HETATM    6  N   UNL     1     -38.232 -51.719  13.328  1.00  0.00    -0.173 NA
HETATM    7  C   UNL     1     -39.126 -52.668  13.690  1.00  0.00     0.308 C 
HETATM    8  O   UNL     1     -38.747 -53.828  13.848  1.00  0.00    -0.253 OA
HETATM    9  H   UNL     1     -37.337 -52.124  13.105  1.00  0.00     0.141 HD
ENDROOT
BRANCH   3  10
HETATM   10  N   UNL     1     -40.232 -48.808  12.214  1.00  0.00    -0.309 N 
HETATM   11  C   UNL     1     -41.186 -48.695  11.101  1.00  0.00     0.160 C 
HETATM   12  C   UNL     1     -39.734 -47.615  12.787  1.00  0.00     0.283 C 
HETATM   13  O   UNL     1     -39.028 -47.578  13.798  1.00  0.00    -0.265 OA
BRANCH  12  14
HETATM   14  C   UNL     1     -40.065 -46.266  12.170  1.00  0.00     0.159 C 
HETATM   15  C   UNL     1     -40.864 -45.466  12.891  1.00  0.00     0.177 C 
HETATM   16  O   UNL     1     -41.324 -44.238  12.522  1.00  0.00    -0.358 OA
HETATM   17  C   UNL     1     -41.064 -43.875  11.172  1.00  0.00     0.201 C 
HETATM   18  C   UNL     1     -39.984 -44.663  10.426  1.00  0.00     0.202 C 
HETATM   19  O   UNL     1     -39.640 -45.961  10.903  1.00  0.00    -0.342 OA
ENDBRANCH  12  14
ENDBRANCH   3  10
BRANCH   2  20
HETATM   20  N   UNL     1     -42.017 -50.466  14.056  1.00  0.00    -0.286 NA
HETATM   21  H   UNL     1     -42.816 -51.023  13.781  1.00  0.00     0.125 HD
HETATM   22  H   UNL     1     -42.218 -49.501  13.782  1.00  0.00     0.125 HD
ENDBRANCH   2  20
BRANCH   1  23
HETATM   23  C   UNL     1     -41.430 -53.230  14.249  1.00  0.00     0.134 C 
BRANCH  23  24
HETATM   24  C   UNL     1     -42.130 -53.901  13.055  1.00  0.00     0.020 C 
BRANCH  24  25
HETATM   25  C   UNL     1     -43.643 -53.979  13.254  1.00  0.00    -0.003 C 
HETATM   26  C   UNL     1     -43.999 -54.862  14.441  1.00  0.00     0.005 C 
ENDBRANCH  24  25
ENDBRANCH  23  24
ENDBRANCH   1  23
TORSDOF 6
ENDMDL
MODEL 9
REMARK VINA RESULT:      -5.2      1.898      2.291
REMARK  6 active torsions:
REMARK  status: ('A' for Active; 'I' for Inactive)
REMARK    1  A    between atoms: C_2  and  C_3 
REMARK    2  A    between atoms: C_3  and  C_4 
REMARK    3  A    between atoms: C_4  and  N_5 
REMARK    4  A    between atoms: C_6  and  N_7 
REMARK    5  A    between atoms: C_8  and  N_9 
REMARK       I    between atoms: N_9  and  C_11 
REMARK    6  A    between atoms: C_11  and  C_13 
ROOT
HETATM    1  N   UNL     1     -45.362 -53.410  13.893  1.00  0.00    -0.293 N 
HETATM    2  C   UNL     1     -44.269 -53.761  14.708  1.00  0.00     0.116 C 
HETATM    3  C   UNL     1     -42.992 -53.449  14.302  1.00  0.00     0.139 C 
HETATM    4  C   UNL     1     -42.943 -52.849  12.907  1.00  0.00     0.259 C 
HETATM    5  O   UNL     1     -42.057 -52.090  12.516  1.00  0.00    -0.272 OA
HETATM    6  N   UNL     1     -43.952 -53.192  12.071  1.00  0.00    -0.173 NA
HETATM    7  C   UNL     1     -45.209 -53.074  12.557  1.00  0.00     0.308 C 
HETATM    8  O   UNL     1     -46.107 -52.666  11.822  1.00  0.00    -0.253 OA
HETATM    9  H   UNL     1     -43.877 -52.796  11.147  1.00  0.00     0.141 HD
ENDROOT
BRANCH   3  10
HETATM   10  N   UNL     1     -41.752 -53.593  15.023  1.00  0.00    -0.309 N 
HETATM   11  C   UNL     1     -40.661 -54.321  14.357  1.00  0.00     0.160 C 
HETATM   12  C   UNL     1     -41.471 -52.951  16.250  1.00  0.00     0.283 C 
HETATM   13  O   UNL     1     -42.265 -52.213  16.839  1.00  0.00    -0.265 OA
BRANCH  12  14
HETATM   14  C   UNL     1     -40.123 -53.135  16.927  1.00  0.00     0.159 C 
HETATM   15  C   UNL     1     -39.239 -52.139  16.766  1.00  0.00     0.177 C 
HETATM   16  O   UNL     1     -37.964 -52.105  17.242  1.00  0.00    -0.358 OA
HETATM   17  C   UNL     1     -37.495 -53.324  17.804  1.00  0.00     0.201 C 
HETATM   18  C   UNL     1     -38.543 -54.371  18.189  1.00  0.00     0.202 C 
HETATM   19  O   UNL     1     -39.824 -54.308  17.569  1.00  0.00    -0.342 OA
ENDBRANCH  12  14
ENDBRANCH   3  10
BRANCH   2  20
HETATM   20  N   UNL     1     -44.555 -54.458  15.873  1.00  0.00    -0.286 NA
HETATM   21  H   UNL     1     -44.170 -54.030  16.706  1.00  0.00     0.125 HD
HETATM   22  H   UNL     1     -44.195 -55.416  15.836  1.00  0.00     0.125 HD
ENDBRANCH   2  20
BRANCH   1  23
HETATM   23  C   UNL     1     -46.725 -53.327  14.448  1.00  0.00     0.134 C 
BRANCH  23  24
HETATM   24  C   UNL     1     -47.038 -51.933  15.017  1.00  0.00     0.020 C 
BRANCH  24  25
HETATM   25  C   UNL     1     -47.024 -51.927  16.546  1.00  0.00    -0.003 C 
HETATM   26  C   UNL     1     -48.104 -51.013  17.104  1.00  0.00     0.005 C 
ENDBRANCH  24  25
ENDBRANCH  23  24
ENDBRANCH   1  23
TORSDOF 6
ENDMDL
