MODEL 1
REMARK VINA RESULT:      -6.4      0.000      0.000
REMARK  5 active torsions:
REMARK  status: ('A' for Active; 'I' for Inactive)
REMARK    1  A    between atoms: C_2  and  N_3 
REMARK    2  A    between atoms: C_2  and  C_10 
REMARK       I    between atoms: C_10  and  N_12 
REMARK    3  A    between atoms: N_12  and  C_13 
REMARK    4  A    between atoms: C_13  and  C_14 
REMARK    5  A    between atoms: C_14  and  N_15 
ROOT
HETATM    1  C   UNL     1     -43.144 -54.163  13.774  1.00  0.00     0.251 C 
HETATM    2  O   UNL     1     -42.607 -54.887  14.609  1.00  0.00    -0.271 OA
HETATM    3  N   UNL     1     -42.401 -53.481  12.827  1.00  0.00    -0.358 N 
HETATM    4  H   UNL     1     -42.860 -52.648  12.465  1.00  0.00     0.162 HD
ENDROOT
BRANCH   3   5
HETATM    5  C   UNL     1     -40.947 -53.524  12.894  1.00  0.00     0.143 C 
BRANCH   5   6
HETATM    6  C   UNL     1     -40.344 -52.228  13.451  1.00  0.00     0.151 C 
BRANCH   6   7
HETATM    7  N   UNL     1     -40.031 -51.269  12.416  1.00  0.00    -0.329 N 
HETATM    8  C   UNL     1     -40.910 -50.776  11.502  1.00  0.00     0.201 A 
HETATM    9  N   UNL     1     -40.287 -49.947  10.699  1.00  0.00    -0.295 N 
HETATM   10  N   UNL     1     -38.967 -49.911  11.082  1.00  0.00    -0.288 N 
ATOM     11  HN  UNL     1     -40.706 -49.424   9.929  1.00  0.00     0.187 HD
HETATM   12  C   UNL     1     -38.813 -50.719  12.112  1.00  0.00     0.095 A 
ATOM     13  HN  UNL     1     -38.233 -49.355  10.644  1.00  0.00     0.188 HD
HETATM   14  C   UNL     1     -37.546 -50.999  12.827  1.00  0.00     0.091 C 
ENDBRANCH   6   7
ENDBRANCH   5   6
ENDBRANCH   3   5
BRANCH   1  15
HETATM   15  C   UNL     1     -44.682 -53.989  13.658  1.00  0.00     0.311 C 
HETATM   16  C   UNL     1     -45.317 -55.385  13.690  1.00  0.00     0.053 C 
BRANCH  15  17
HETATM   17  N   UNL     1     -45.172 -52.968  14.616  1.00  0.00     0.110 N 
HETATM   18  C   UNL     1     -46.208 -53.369  15.590  1.00  0.00     0.220 C 
HETATM   19  C   UNL     1     -45.606 -53.927  16.880  1.00  0.00     0.043 C 
HETATM   20  C   UNL     1     -46.972 -52.074  15.917  1.00  0.00     0.037 C 
HETATM   21  C   UNL     1     -46.152 -50.973  15.274  1.00  0.00     0.037 C 
HETATM   22  C   UNL     1     -45.552 -51.657  14.051  1.00  0.00     0.220 C 
HETATM   23  C   UNL     1     -46.565 -51.634  12.899  1.00  0.00     0.043 C 
ENDBRANCH  15  17
ENDBRANCH   1  15
TORSDOF 5
ENDMDL
MODEL 2
REMARK VINA RESULT:      -6.0      1.870      2.484
REMARK  5 active torsions:
REMARK  status: ('A' for Active; 'I' for Inactive)
REMARK    1  A    between atoms: C_2  and  N_3 
REMARK    2  A    between atoms: C_2  and  C_10 
REMARK       I    between atoms: C_10  and  N_12 
REMARK    3  A    between atoms: N_12  and  C_13 
REMARK    4  A    between atoms: C_13  and  C_14 
REMARK    5  A    between atoms: C_14  and  N_15 
ROOT
HETATM    1  C   UNL     1     -42.441 -52.134  13.563  1.00  0.00     0.251 C 
HETATM    2  O   UNL     1     -41.410 -52.796  13.463  1.00  0.00    -0.271 OA
HETATM    3  N   UNL     1     -42.419 -50.832  14.033  1.00  0.00    -0.358 N 
HETATM    4  H   UNL     1     -43.300 -50.526  14.439  1.00  0.00     0.162 HD
ENDROOT
BRANCH   3   5
HETATM    5  C   UNL     1     -41.170 -50.274  14.531  1.00  0.00     0.143 C 
BRANCH   5   6
HETATM    6  C   UNL     1     -40.741 -49.015  13.768  1.00  0.00     0.151 C 
BRANCH   6   7
HETATM    7  N   UNL     1     -40.796 -49.187  12.334  1.00  0.00    -0.329 N 
HETATM    8  C   UNL     1     -39.970 -49.980  11.600  1.00  0.00     0.201 A 
HETATM    9  N   UNL     1     -40.283 -49.882  10.330  1.00  0.00    -0.295 N 
HETATM   10  N   UNL     1     -41.324 -48.990  10.227  1.00  0.00    -0.288 N 
ATOM     11  HN  UNL     1     -39.835 -50.377   9.558  1.00  0.00     0.187 HD
HETATM   12  C   UNL     1     -41.624 -48.562  11.437  1.00  0.00     0.095 A 
ATOM     13  HN  UNL     1     -41.785 -48.707   9.362  1.00  0.00     0.188 HD
HETATM   14  C   UNL     1     -42.672 -47.575  11.785  1.00  0.00     0.091 C 
ENDBRANCH   6   7
ENDBRANCH   5   6
ENDBRANCH   3   5
BRANCH   1  15
HETATM   15  C   UNL     1     -43.837 -52.655  13.128  1.00  0.00     0.311 C 
HETATM   16  C   UNL     1     -43.695 -54.143  12.782  1.00  0.00     0.053 C 
BRANCH  15  17
HETATM   17  N   UNL     1     -44.879 -52.253  14.104  1.00  0.00     0.110 N 
HETATM   18  C   UNL     1     -45.496 -53.307  14.935  1.00  0.00     0.220 C 
HETATM   19  C   UNL     1     -44.726 -53.545  16.236  1.00  0.00     0.043 C 
HETATM   20  C   UNL     1     -46.899 -52.777  15.277  1.00  0.00     0.037 C 
HETATM   21  C   UNL     1     -46.890 -51.337  14.804  1.00  0.00     0.037 C 
HETATM   22  C   UNL     1     -45.954 -51.374  13.601  1.00  0.00     0.220 C 
HETATM   23  C   UNL     1     -46.731 -51.823  12.357  1.00  0.00     0.043 C 
ENDBRANCH  15  17
ENDBRANCH   1  15
TORSDOF 5
ENDMDL
MODEL 3
REMARK VINA RESULT:      -6.0      1.908      7.141
REMARK  5 active torsions:
REMARK  status: ('A' for Active; 'I' for Inactive)
REMARK    1  A    between atoms: C_2  and  N_3 
REMARK    2  A    between atoms: C_2  and  C_10 
REMARK       I    between atoms: C_10  and  N_12 
REMARK    3  A    between atoms: N_12  and  C_13 
REMARK    4  A    between atoms: C_13  and  C_14 
REMARK    5  A    between atoms: C_14  and  N_15 
ROOT
HETATM    1  C   UNL     1     -41.033 -52.087  12.323  1.00  0.00     0.251 C 
HETATM    2  O   UNL     1     -40.511 -53.140  11.962  1.00  0.00    -0.271 OA
HETATM    3  N   UNL     1     -42.192 -52.080  13.079  1.00  0.00    -0.358 N 
HETATM    4  H   UNL     1     -42.737 -51.225  12.990  1.00  0.00     0.162 HD
ENDROOT
BRANCH   3   5
HETATM    5  C   UNL     1     -42.874 -53.337  13.352  1.00  0.00     0.143 C 
BRANCH   5   6
HETATM    6  C   UNL     1     -44.145 -53.513  12.513  1.00  0.00     0.151 C 
BRANCH   6   7
HETATM    7  N   UNL     1     -45.307 -53.815  13.317  1.00  0.00    -0.329 N 
HETATM    8  C   UNL     1     -45.611 -55.033  13.843  1.00  0.00     0.201 A 
HETATM    9  N   UNL     1     -46.746 -54.957  14.496  1.00  0.00    -0.295 N 
HETATM   10  N   UNL     1     -47.206 -53.667  14.380  1.00  0.00    -0.288 N 
ATOM     11  HN  UNL     1     -47.203 -55.718  14.999  1.00  0.00     0.187 HD
HETATM   12  C   UNL     1     -46.342 -52.982  13.658  1.00  0.00     0.095 A 
ATOM     13  HN  UNL     1     -48.069 -53.302  14.783  1.00  0.00     0.188 HD
HETATM   14  C   UNL     1     -46.455 -51.558  13.268  1.00  0.00     0.091 C 
ENDBRANCH   6   7
ENDBRANCH   5   6
ENDBRANCH   3   5
BRANCH   1  15
HETATM   15  C   UNL     1     -40.429 -50.689  12.025  1.00  0.00     0.311 C 
HETATM   16  C   UNL     1     -41.591 -49.720  11.770  1.00  0.00     0.053 C 
BRANCH  15  17
HETATM   17  N   UNL     1     -39.415 -50.323  13.045  1.00  0.00     0.110 N 
HETATM   18  C   UNL     1     -39.486 -48.974  13.642  1.00  0.00     0.220 C 
HETATM   19  C   UNL     1     -40.381 -48.934  14.882  1.00  0.00     0.043 C 
HETATM   20  C   UNL     1     -38.042 -48.645  14.059  1.00  0.00     0.037 C 
HETATM   21  C   UNL     1     -37.286 -49.947  13.880  1.00  0.00     0.037 C 
HETATM   22  C   UNL     1     -38.006 -50.607  12.708  1.00  0.00     0.220 C 
HETATM   23  C   UNL     1     -37.453 -50.054  11.388  1.00  0.00     0.043 C 
ENDBRANCH  15  17
ENDBRANCH   1  15
TORSDOF 5
ENDMDL
MODEL 4
REMARK VINA RESULT:      -6.0      1.535      2.642
REMARK  5 active torsions:
REMARK  status: ('A' for Active; 'I' for Inactive)
REMARK    1  A    between atoms: C_2  and  N_3 
REMARK    2  A    between atoms: C_2  and  C_10 
REMARK       I    between atoms: C_10  and  N_12 
REMARK    3  A    between atoms: N_12  and  C_13 
REMARK    4  A    between atoms: C_13  and  C_14 
REMARK    5  A    between atoms: C_14  and  N_15 
ROOT
HETATM    1  C   UNL     1     -41.527 -53.346  13.879  1.00  0.00     0.251 C 
HETATM    2  O   UNL     1     -41.292 -53.487  12.680  1.00  0.00    -0.271 OA
HETATM    3  N   UNL     1     -40.578 -52.827  14.743  1.00  0.00    -0.358 N 
HETATM    4  H   UNL     1     -40.707 -53.109  15.712  1.00  0.00     0.162 HD
ENDROOT
BRANCH   3   5
HETATM    5  C   UNL     1     -39.236 -52.553  14.249  1.00  0.00     0.143 C 
BRANCH   5   6
HETATM    6  C   UNL     1     -38.955 -51.052  14.111  1.00  0.00     0.151 C 
BRANCH   6   7
HETATM    7  N   UNL     1     -38.784 -50.642  12.736  1.00  0.00    -0.329 N 
HETATM    8  C   UNL     1     -37.602 -50.606  12.061  1.00  0.00     0.201 A 
HETATM    9  N   UNL     1     -37.806 -50.163  10.844  1.00  0.00    -0.295 N 
HETATM   10  N   UNL     1     -39.147 -49.883  10.723  1.00  0.00    -0.288 N 
ATOM     11  HN  UNL     1     -37.099 -50.047  10.118  1.00  0.00     0.187 HD
HETATM   12  C   UNL     1     -39.733 -50.162  11.870  1.00  0.00     0.095 A 
ATOM     13  HN  UNL     1     -39.609 -49.522   9.889  1.00  0.00     0.188 HD
HETATM   14  C   UNL     1     -41.169 -49.989  12.188  1.00  0.00     0.091 C 
ENDBRANCH   6   7
ENDBRANCH   5   6
ENDBRANCH   3   5
BRANCH   1  15
HETATM   15  C   UNL     1     -42.900 -53.673  14.524  1.00  0.00     0.311 C 
HETATM   16  C   UNL     1     -42.741 -53.567  16.046  1.00  0.00     0.053 C 
BRANCH  15  17
HETATM   17  N   UNL     1     -43.987 -52.903  13.871  1.00  0.00     0.110 N 
HETATM   18  C   UNL     1     -44.697 -51.887  14.674  1.00  0.00     0.220 C 
HETATM   19  C   UNL     1     -44.023 -50.515  14.600  1.00  0.00     0.043 C 
HETATM   20  C   UNL     1     -46.098 -51.787  14.046  1.00  0.00     0.037 C 
HETATM   21  C   UNL     1     -46.002 -52.596  12.767  1.00  0.00     0.037 C 
HETATM   22  C   UNL     1     -44.992 -53.683  13.120  1.00  0.00     0.220 C 
HETATM   23  C   UNL     1     -45.704 -54.831  13.845  1.00  0.00     0.043 C 
ENDBRANCH  15  17
ENDBRANCH   1  15
TORSDOF 5
ENDMDL
MODEL 5
REMARK VINA RESULT:      -5.9      2.735      3.715
REMARK  5 active torsions:
REMARK  status: ('A' for Active; 'I' for Inactive)
REMARK    1  A    between atoms: C_2  and  N_3 
REMARK    2  A    between atoms: C_2  and  C_10 
REMARK       I    between atoms: C_10  and  N_12 
REMARK    3  A    between atoms: N_12  and  C_13 
REMARK    4  A    between atoms: C_13  and  C_14 
REMARK    5  A    between atoms: C_14  and  N_15 
ROOT
HETATM    1  C   UNL     1     -41.302 -52.103  12.451  1.00  0.00     0.251 C 
HETATM    2  O   UNL     1     -40.117 -52.414  12.552  1.00  0.00    -0.271 OA
HETATM    3  N   UNL     1     -41.695 -50.992  11.725  1.00  0.00    -0.358 N 
HETATM    4  H   UNL     1     -42.591 -50.607  12.015  1.00  0.00     0.162 HD
ENDROOT
BRANCH   3   5
HETATM    5  C   UNL     1     -40.682 -50.106  11.171  1.00  0.00     0.143 C 
BRANCH   5   6
HETATM    6  C   UNL     1     -40.723 -48.703  11.790  1.00  0.00     0.151 C 
BRANCH   6   7
HETATM    7  N   UNL     1     -41.287 -47.716  10.897  1.00  0.00    -0.329 N 
HETATM    8  C   UNL     1     -42.277 -47.942   9.991  1.00  0.00     0.201 A 
HETATM    9  N   UNL     1     -42.529 -46.836   9.333  1.00  0.00    -0.295 N 
HETATM   10  N   UNL     1     -41.672 -45.869   9.803  1.00  0.00    -0.288 N 
ATOM     11  HN  UNL     1     -43.233 -46.715   8.604  1.00  0.00     0.187 HD
HETATM   12  C   UNL     1     -40.916 -46.406  10.739  1.00  0.00     0.095 A 
ATOM     13  HN  UNL     1     -41.629 -44.902   9.482  1.00  0.00     0.188 HD
HETATM   14  C   UNL     1     -39.841 -45.726  11.498  1.00  0.00     0.091 C 
ENDBRANCH   6   7
ENDBRANCH   5   6
ENDBRANCH   3   5
BRANCH   1  15
HETATM   15  C   UNL     1     -42.459 -52.937  13.062  1.00  0.00     0.311 C 
HETATM   16  C   UNL     1     -41.919 -53.645  14.310  1.00  0.00     0.053 C 
BRANCH  15  17
HETATM   17  N   UNL     1     -43.690 -52.118  13.191  1.00  0.00     0.110 N 
HETATM   18  C   UNL     1     -43.968 -51.482  14.494  1.00  0.00     0.220 C 
HETATM   19  C   UNL     1     -43.334 -50.094  14.608  1.00  0.00     0.043 C 
HETATM   20  C   UNL     1     -45.498 -51.336  14.551  1.00  0.00     0.037 C 
HETATM   21  C   UNL     1     -45.968 -51.692  13.154  1.00  0.00     0.037 C 
HETATM   22  C   UNL     1     -44.943 -52.724  12.696  1.00  0.00     0.220 C 
HETATM   23  C   UNL     1     -45.334 -54.109  13.227  1.00  0.00     0.043 C 
ENDBRANCH  15  17
ENDBRANCH   1  15
TORSDOF 5
ENDMDL
MODEL 6
REMARK VINA RESULT:      -5.8      2.554      3.827
REMARK  5 active torsions:
REMARK  status: ('A' for Active; 'I' for Inactive)
REMARK    1  A    between atoms: C_2  and  N_3 
REMARK    2  A    between atoms: C_2  and  C_10 
REMARK       I    between atoms: C_10  and  N_12 
REMARK    3  A    between atoms: N_12  and  C_13 
REMARK    4  A    between atoms: C_13  and  C_14 
REMARK    5  A    between atoms: C_14  and  N_15 
ROOT
HETATM    1  C   UNL     1     -43.361 -50.519  14.108  1.00  0.00     0.251 C 
HETATM    2  O   UNL     1     -43.924 -50.364  13.026  1.00  0.00    -0.271 OA
HETATM    3  N   UNL     1     -42.680 -49.482  14.721  1.00  0.00    -0.358 N 
HETATM    4  H   UNL     1     -41.954 -49.790  15.364  1.00  0.00     0.162 HD
ENDROOT
BRANCH   3   5
HETATM    5  C   UNL     1     -42.525 -48.216  14.020  1.00  0.00     0.143 C 
BRANCH   5   6
HETATM    6  C   UNL     1     -41.141 -48.064  13.377  1.00  0.00     0.151 C 
BRANCH   6   7
HETATM    7  N   UNL     1     -41.093 -48.584  12.030  1.00  0.00    -0.329 N 
HETATM    8  C   UNL     1     -40.459 -49.725  11.644  1.00  0.00     0.201 A 
HETATM    9  N   UNL     1     -40.596 -49.885  10.349  1.00  0.00    -0.295 N 
HETATM   10  N   UNL     1     -41.318 -48.817   9.873  1.00  0.00    -0.288 N 
ATOM     11  HN  UNL     1     -40.232 -50.661   9.796  1.00  0.00     0.187 HD
HETATM   12  C   UNL     1     -41.607 -48.027  10.887  1.00  0.00     0.095 A 
ATOM     13  HN  UNL     1     -41.585 -48.661   8.901  1.00  0.00     0.188 HD
HETATM   14  C   UNL     1     -42.355 -46.750  10.822  1.00  0.00     0.091 C 
ENDBRANCH   6   7
ENDBRANCH   5   6
ENDBRANCH   3   5
BRANCH   1  15
HETATM   15  C   UNL     1     -43.402 -51.848  14.908  1.00  0.00     0.311 C 
HETATM   16  C   UNL     1     -43.453 -51.497  16.400  1.00  0.00     0.053 C 
BRANCH  15  17
HETATM   17  N   UNL     1     -44.435 -52.763  14.362  1.00  0.00     0.110 N 
HETATM   18  C   UNL     1     -45.700 -52.907  15.110  1.00  0.00     0.220 C 
HETATM   19  C   UNL     1     -46.747 -51.876  14.684  1.00  0.00     0.043 C 
HETATM   20  C   UNL     1     -46.215 -54.314  14.758  1.00  0.00     0.037 C 
HETATM   21  C   UNL     1     -45.311 -54.781  13.634  1.00  0.00     0.037 C 
HETATM   22  C   UNL     1     -43.981 -54.108  13.957  1.00  0.00     0.220 C 
HETATM   23  C   UNL     1     -43.214 -54.951  14.984  1.00  0.00     0.043 C 
ENDBRANCH  15  17
ENDBRANCH   1  15
TORSDOF 5
ENDMDL
MODEL 7
REMARK VINA RESULT:      -5.7      3.321      4.078
REMARK  5 active torsions:
REMARK  status: ('A' for Active; 'I' for Inactive)
REMARK    1  A    between atoms: C_2  and  N_3 
REMARK    2  A    between atoms: C_2  and  C_10 
REMARK       I    between atoms: C_10  and  N_12 
REMARK    3  A    between atoms: N_12  and  C_13 
REMARK    4  A    between atoms: C_13  and  C_14 
REMARK    5  A    between atoms: C_14  and  N_15 
ROOT
HETATM    1  C   UNL     1     -42.707 -51.022  13.064  1.00  0.00     0.251 C 
HETATM    2  O   UNL     1     -41.728 -50.959  13.805  1.00  0.00    -0.271 OA
HETATM    3  N   UNL     1     -42.973 -50.030  12.137  1.00  0.00    -0.358 N 
HETATM    4  H   UNL     1     -43.954 -49.967  11.872  1.00  0.00     0.162 HD
ENDROOT
BRANCH   3   5
HETATM    5  C   UNL     1     -42.148 -48.831  12.116  1.00  0.00     0.143 C 
BRANCH   5   6
HETATM    6  C   UNL     1     -41.875 -48.328  10.693  1.00  0.00     0.151 C 
BRANCH   6   7
HETATM    7  N   UNL     1     -42.769 -47.264  10.297  1.00  0.00    -0.329 N 
HETATM    8  C   UNL     1     -44.018 -47.430   9.782  1.00  0.00     0.201 A 
HETATM    9  N   UNL     1     -44.539 -46.257   9.512  1.00  0.00    -0.295 N 
HETATM   10  N   UNL     1     -43.605 -45.303   9.838  1.00  0.00    -0.288 N 
ATOM     11  HN  UNL     1     -45.469 -46.084   9.130  1.00  0.00     0.187 HD
HETATM   12  C   UNL     1     -42.532 -45.914  10.300  1.00  0.00     0.095 A 
ATOM     13  HN  UNL     1     -43.721 -44.295   9.738  1.00  0.00     0.188 HD
HETATM   14  C   UNL     1     -41.277 -45.268  10.748  1.00  0.00     0.091 C 
ENDBRANCH   6   7
ENDBRANCH   5   6
ENDBRANCH   3   5
BRANCH   1  15
HETATM   15  C   UNL     1     -43.693 -52.221  13.052  1.00  0.00     0.311 C 
HETATM   16  C   UNL     1     -42.863 -53.511  13.085  1.00  0.00     0.053 C 
BRANCH  15  17
HETATM   17  N   UNL     1     -44.758 -52.040  14.068  1.00  0.00     0.110 N 
HETATM   18  C   UNL     1     -45.197 -53.224  14.833  1.00  0.00     0.220 C 
HETATM   19  C   UNL     1     -44.371 -53.434  16.103  1.00  0.00     0.043 C 
HETATM   20  C   UNL     1     -46.654 -52.927  15.231  1.00  0.00     0.037 C 
HETATM   21  C   UNL     1     -46.862 -51.472  14.858  1.00  0.00     0.037 C 
HETATM   22  C   UNL     1     -45.960 -51.294  13.642  1.00  0.00     0.220 C 
HETATM   23  C   UNL     1     -46.694 -51.767  12.382  1.00  0.00     0.043 C 
ENDBRANCH  15  17
ENDBRANCH   1  15
TORSDOF 5
ENDMDL
MODEL 8
REMARK VINA RESULT:      -5.7      1.967      3.501
REMARK  5 active torsions:
REMARK  status: ('A' for Active; 'I' for Inactive)
REMARK    1  A    between atoms: C_2  and  N_3 
REMARK    2  A    between atoms: C_2  and  C_10 
REMARK       I    between atoms: C_10  and  N_12 
REMARK    3  A    between atoms: N_12  and  C_13 
REMARK    4  A    between atoms: C_13  and  C_14 
REMARK    5  A    between atoms: C_14  and  N_15 
ROOT
HETATM    1  C   UNL     1     -43.218 -50.783  14.990  1.00  0.00     0.251 C 
HETATM    2  O   UNL     1     -43.316 -49.741  14.345  1.00  0.00    -0.271 OA
HETATM    3  N   UNL     1     -42.007 -51.188  15.524  1.00  0.00    -0.358 N 
HETATM    4  H   UNL     1     -41.941 -52.192  15.679  1.00  0.00     0.162 HD
ENDROOT
BRANCH   3   5
HETATM    5  C   UNL     1     -40.802 -50.432  15.216  1.00  0.00     0.143 C 
BRANCH   5   6
HETATM    6  C   UNL     1     -39.791 -51.242  14.396  1.00  0.00     0.151 C 
BRANCH   6   7
HETATM    7  N   UNL     1     -40.235 -51.481  13.042  1.00  0.00    -0.329 N 
HETATM    8  C   UNL     1     -40.278 -50.553  12.047  1.00  0.00     0.201 A 
HETATM    9  N   UNL     1     -40.754 -51.102  10.956  1.00  0.00    -0.295 N 
HETATM   10  N   UNL     1     -41.048 -52.413  11.246  1.00  0.00    -0.288 N 
ATOM     11  HN  UNL     1     -40.883 -50.641  10.055  1.00  0.00     0.187 HD
HETATM   12  C   UNL     1     -40.745 -52.637  12.509  1.00  0.00     0.095 A 
ATOM     13  HN  UNL     1     -41.435 -53.097  10.595  1.00  0.00     0.188 HD
HETATM   14  C   UNL     1     -40.922 -53.911  13.243  1.00  0.00     0.091 C 
ENDBRANCH   6   7
ENDBRANCH   5   6
ENDBRANCH   3   5
BRANCH   1  15
HETATM   15  C   UNL     1     -44.425 -51.701  15.317  1.00  0.00     0.311 C 
HETATM   16  C   UNL     1     -45.702 -50.971  14.883  1.00  0.00     0.053 C 
BRANCH  15  17
HETATM   17  N   UNL     1     -44.193 -53.078  14.815  1.00  0.00     0.110 N 
HETATM   18  C   UNL     1     -45.051 -53.571  13.718  1.00  0.00     0.220 C 
HETATM   19  C   UNL     1     -44.477 -53.241  12.339  1.00  0.00     0.043 C 
HETATM   20  C   UNL     1     -45.082 -55.100  13.891  1.00  0.00     0.037 C 
HETATM   21  C   UNL     1     -44.034 -55.387  14.949  1.00  0.00     0.037 C 
HETATM   22  C   UNL     1     -44.084 -54.144  15.831  1.00  0.00     0.220 C 
HETATM   23  C   UNL     1     -45.217 -54.285  16.855  1.00  0.00     0.043 C 
ENDBRANCH  15  17
ENDBRANCH   1  15
TORSDOF 5
ENDMDL
MODEL 9
REMARK VINA RESULT:      -5.5      1.822      2.417
REMARK  5 active torsions:
REMARK  status: ('A' for Active; 'I' for Inactive)
REMARK    1  A    between atoms: C_2  and  N_3 
REMARK    2  A    between atoms: C_2  and  C_10 
REMARK       I    between atoms: C_10  and  N_12 
REMARK    3  A    between atoms: N_12  and  C_13 
REMARK    4  A    between atoms: C_13  and  C_14 
REMARK    5  A    between atoms: C_14  and  N_15 
ROOT
HETATM    1  C   UNL     1     -41.881 -52.207  15.117  1.00  0.00     0.251 C 
HETATM    2  O   UNL     1     -40.809 -52.808  15.119  1.00  0.00    -0.271 OA
HETATM    3  N   UNL     1     -41.939 -50.837  14.934  1.00  0.00    -0.358 N 
HETATM    4  H   UNL     1     -42.771 -50.403  15.327  1.00  0.00     0.162 HD
ENDROOT
BRANCH   3   5
HETATM    5  C   UNL     1     -40.701 -50.073  14.862  1.00  0.00     0.143 C 
BRANCH   5   6
HETATM    6  C   UNL     1     -40.772 -48.931  13.842  1.00  0.00     0.151 C 
BRANCH   6   7
HETATM    7  N   UNL     1     -40.349 -49.337  12.521  1.00  0.00    -0.329 N 
HETATM    8  C   UNL     1     -41.174 -49.694  11.500  1.00  0.00     0.201 A 
HETATM    9  N   UNL     1     -40.457 -50.027  10.453  1.00  0.00    -0.295 N 
HETATM   10  N   UNL     1     -39.133 -49.904  10.801  1.00  0.00    -0.288 N 
ATOM     11  HN  UNL     1     -40.816 -50.323   9.545  1.00  0.00     0.187 HD
HETATM   12  C   UNL     1     -39.070 -49.499  12.054  1.00  0.00     0.095 A 
ATOM     13  HN  UNL     1     -38.335 -50.094  10.195  1.00  0.00     0.188 HD
HETATM   14  C   UNL     1     -37.837 -49.257  12.839  1.00  0.00     0.091 C 
ENDBRANCH   6   7
ENDBRANCH   5   6
ENDBRANCH   3   5
BRANCH   1  15
HETATM   15  C   UNL     1     -43.256 -52.914  15.257  1.00  0.00     0.311 C 
HETATM   16  C   UNL     1     -43.362 -53.457  16.687  1.00  0.00     0.053 C 
BRANCH  15  17
HETATM   17  N   UNL     1     -44.349 -52.050  14.746  1.00  0.00     0.110 N 
HETATM   18  C   UNL     1     -45.449 -51.704  15.669  1.00  0.00     0.220 C 
HETATM   19  C   UNL     1     -45.157 -50.433  16.469  1.00  0.00     0.043 C 
HETATM   20  C   UNL     1     -46.667 -51.453  14.763  1.00  0.00     0.037 C 
HETATM   21  C   UNL     1     -46.102 -51.445  13.356  1.00  0.00     0.037 C 
HETATM   22  C   UNL     1     -44.938 -52.426  13.445  1.00  0.00     0.220 C 
HETATM   23  C   UNL     1     -45.458 -53.859  13.275  1.00  0.00     0.043 C 
ENDBRANCH  15  17
ENDBRANCH   1  15
TORSDOF 5
ENDMDL
