MODEL 1
REMARK VINA RESULT:      -5.8      0.000      0.000
REMARK  1 active torsions:
REMARK  status: ('A' for Active; 'I' for Inactive)
REMARK    1  A    between atoms: N_4  and  C_10 
ROOT
HETATM    1  C   UNL     1     -42.840 -51.892  13.385  1.00  0.00     0.075 A 
HETATM    2  C   UNL     1     -42.197 -52.860  12.431  1.00  0.00     0.138 A 
HETATM    3  N   UNL     1     -41.372 -52.613  11.467  1.00  0.00    -0.307 N 
ATOM      4  HN  UNL     1     -40.981 -53.354  10.887  1.00  0.00     0.186 HD
HETATM    5  N   UNL     1     -41.060 -51.309  11.275  1.00  0.00    -0.265 N 
HETATM    6  C   UNL     1     -41.598 -50.259  11.964  1.00  0.00     0.283 A 
HETATM    7  O   UNL     1     -41.292 -49.102  11.686  1.00  0.00    -0.265 OA
HETATM    8  C   UNL     1     -42.543 -50.612  13.068  1.00  0.00     0.131 A 
HETATM    9 CL   UNL     1     -43.117 -49.229  13.947  1.00  0.00    -0.076 Cl
HETATM   10  H   UNL     1     -40.415 -51.092  10.522  1.00  0.00     0.190 HD
ENDROOT
BRANCH   1  11
HETATM   11  N   UNL     1     -43.635 -52.430  14.416  1.00  0.00    -0.373 N 
HETATM   12  C   UNL     1     -45.104 -52.617  14.333  1.00  0.00     0.154 C 
HETATM   13  C   UNL     1     -45.516 -54.040  14.774  1.00  0.00     0.136 C 
HETATM   14  C   UNL     1     -45.366 -55.065  13.652  1.00  0.00     0.041 C 
HETATM   15  O   UNL     1     -44.904 -54.478  15.999  1.00  0.00    -0.373 OA
HETATM   16  C   UNL     1     -43.489 -54.224  16.133  1.00  0.00     0.070 C 
HETATM   17  C   UNL     1     -43.157 -52.753  15.776  1.00  0.00     0.160 C 
HETATM   18  C   UNL     1     -42.677 -55.245  15.326  1.00  0.00     0.047 C 
HETATM   19  C   UNL     1     -43.165 -54.453  17.619  1.00  0.00     0.047 C 
ENDBRANCH   1  11
TORSDOF 1
ENDMDL
MODEL 2
REMARK VINA RESULT:      -5.7      2.446      2.945
REMARK  1 active torsions:
REMARK  status: ('A' for Active; 'I' for Inactive)
REMARK    1  A    between atoms: N_4  and  C_10 
ROOT
HETATM    1  C   UNL     1     -42.640 -52.643  13.911  1.00  0.00     0.075 A 
HETATM    2  C   UNL     1     -42.805 -52.337  12.449  1.00  0.00     0.138 A 
HETATM    3  N   UNL     1     -42.011 -52.628  11.471  1.00  0.00    -0.307 N 
ATOM      4  HN  UNL     1     -42.231 -52.385  10.506  1.00  0.00     0.186 HD
HETATM    5  N   UNL     1     -40.870 -53.274  11.808  1.00  0.00    -0.265 N 
HETATM    6  C   UNL     1     -40.477 -53.569  13.083  1.00  0.00     0.283 A 
HETATM    7  O   UNL     1     -39.397 -54.115  13.297  1.00  0.00    -0.265 OA
HETATM    8  C   UNL     1     -41.440 -53.210  14.168  1.00  0.00     0.131 A 
HETATM    9 CL   UNL     1     -40.904 -53.691  15.748  1.00  0.00    -0.076 Cl
HETATM   10  H   UNL     1     -40.232 -53.511  11.055  1.00  0.00     0.190 HD
ENDROOT
BRANCH   1  11
HETATM   11  N   UNL     1     -43.704 -52.298  14.769  1.00  0.00    -0.373 N 
HETATM   12  C   UNL     1     -44.460 -51.024  14.699  1.00  0.00     0.154 C 
HETATM   13  C   UNL     1     -45.986 -51.274  14.713  1.00  0.00     0.136 C 
HETATM   14  C   UNL     1     -46.532 -51.624  13.330  1.00  0.00     0.041 C 
HETATM   15  O   UNL     1     -46.423 -52.199  15.723  1.00  0.00    -0.373 OA
HETATM   16  C   UNL     1     -45.643 -53.406  15.865  1.00  0.00     0.070 C 
HETATM   17  C   UNL     1     -44.131 -53.079  15.948  1.00  0.00     0.160 C 
HETATM   18  C   UNL     1     -45.989 -54.407  14.754  1.00  0.00     0.047 C 
HETATM   19  C   UNL     1     -46.084 -54.031  17.199  1.00  0.00     0.047 C 
ENDBRANCH   1  11
TORSDOF 1
ENDMDL
MODEL 3
REMARK VINA RESULT:      -5.7      2.473      4.609
REMARK  1 active torsions:
REMARK  status: ('A' for Active; 'I' for Inactive)
REMARK    1  A    between atoms: N_4  and  C_10 
ROOT
HETATM    1  C   UNL     1     -43.862 -53.085  13.282  1.00  0.00     0.075 A 
HETATM    2  C   UNL     1     -44.612 -54.384  13.374  1.00  0.00     0.138 A 
HETATM    3  N   UNL     1     -45.867 -54.573  13.618  1.00  0.00    -0.307 N 
ATOM      4  HN  UNL     1     -46.279 -55.505  13.641  1.00  0.00     0.186 HD
HETATM    5  N   UNL     1     -46.601 -53.457  13.843  1.00  0.00    -0.265 N 
HETATM    6  C   UNL     1     -46.105 -52.185  13.898  1.00  0.00     0.283 A 
HETATM    7  O   UNL     1     -46.840 -51.235  14.159  1.00  0.00    -0.265 OA
HETATM    8  C   UNL     1     -44.648 -52.033  13.603  1.00  0.00     0.131 A 
HETATM    9 CL   UNL     1     -44.114 -50.381  13.612  1.00  0.00    -0.076 Cl
HETATM   10  H   UNL     1     -47.589 -53.583  14.039  1.00  0.00     0.190 HD
ENDROOT
BRANCH   1  11
HETATM   11  N   UNL     1     -42.505 -53.146  12.906  1.00  0.00    -0.373 N 
HETATM   12  C   UNL     1     -41.860 -52.226  11.937  1.00  0.00     0.154 C 
HETATM   13  C   UNL     1     -40.536 -51.656  12.499  1.00  0.00     0.136 C 
HETATM   14  C   UNL     1     -40.761 -50.459  13.421  1.00  0.00     0.041 C 
HETATM   15  O   UNL     1     -39.672 -52.644  13.086  1.00  0.00    -0.373 OA
HETATM   16  C   UNL     1     -40.300 -53.603  13.964  1.00  0.00     0.070 C 
HETATM   17  C   UNL     1     -41.561 -54.212  13.300  1.00  0.00     0.160 C 
HETATM   18  C   UNL     1     -40.576 -52.981  15.338  1.00  0.00     0.047 C 
HETATM   19  C   UNL     1     -39.264 -54.722  14.166  1.00  0.00     0.047 C 
ENDBRANCH   1  11
TORSDOF 1
ENDMDL
MODEL 4
REMARK VINA RESULT:      -5.5      2.465      3.097
REMARK  1 active torsions:
REMARK  status: ('A' for Active; 'I' for Inactive)
REMARK    1  A    between atoms: N_4  and  C_10 
ROOT
HETATM    1  C   UNL     1     -40.651 -51.056  13.065  1.00  0.00     0.075 A 
HETATM    2  C   UNL     1     -41.215 -50.541  11.771  1.00  0.00     0.138 A 
HETATM    3  N   UNL     1     -40.580 -50.083  10.742  1.00  0.00    -0.307 N 
ATOM      4  HN  UNL     1     -41.065 -49.772   9.901  1.00  0.00     0.186 HD
HETATM    5  N   UNL     1     -39.230 -50.040  10.850  1.00  0.00    -0.265 N 
HETATM    6  C   UNL     1     -38.518 -50.371  11.968  1.00  0.00     0.283 A 
HETATM    7  O   UNL     1     -37.294 -50.253  11.991  1.00  0.00    -0.265 OA
HETATM    8  C   UNL     1     -39.310 -50.897  13.121  1.00  0.00     0.131 A 
HETATM    9 CL   UNL     1     -38.325 -51.372  14.470  1.00  0.00    -0.076 Cl
HETATM   10  H   UNL     1     -38.712 -49.682  10.054  1.00  0.00     0.190 HD
ENDROOT
BRANCH   1  11
HETATM   11  N   UNL     1     -41.560 -51.592  13.999  1.00  0.00    -0.373 N 
HETATM   12  C   UNL     1     -42.518 -50.787  14.796  1.00  0.00     0.154 C 
HETATM   13  C   UNL     1     -43.945 -51.380  14.726  1.00  0.00     0.136 C 
HETATM   14  C   UNL     1     -44.695 -50.949  13.467  1.00  0.00     0.041 C 
HETATM   15  O   UNL     1     -44.003 -52.801  14.937  1.00  0.00    -0.373 OA
HETATM   16  C   UNL     1     -43.019 -53.593  14.236  1.00  0.00     0.070 C 
HETATM   17  C   UNL     1     -41.599 -53.004  14.432  1.00  0.00     0.160 C 
HETATM   18  C   UNL     1     -43.410 -53.763  12.763  1.00  0.00     0.047 C 
HETATM   19  C   UNL     1     -43.066 -54.985  14.888  1.00  0.00     0.047 C 
ENDBRANCH   1  11
TORSDOF 1
ENDMDL
MODEL 5
REMARK VINA RESULT:      -5.5      1.442      2.654
REMARK  1 active torsions:
REMARK  status: ('A' for Active; 'I' for Inactive)
REMARK    1  A    between atoms: N_4  and  C_10 
ROOT
HETATM    1  C   UNL     1     -42.628 -51.710  13.213  1.00  0.00     0.075 A 
HETATM    2  C   UNL     1     -41.898 -52.644  12.289  1.00  0.00     0.138 A 
HETATM    3  N   UNL     1     -41.077 -52.353  11.334  1.00  0.00    -0.307 N 
ATOM      4  HN  UNL     1     -40.620 -53.073  10.775  1.00  0.00     0.186 HD
HETATM    5  N   UNL     1     -40.861 -51.033  11.121  1.00  0.00    -0.265 N 
HETATM    6  C   UNL     1     -41.488 -50.014  11.780  1.00  0.00     0.283 A 
HETATM    7  O   UNL     1     -41.265 -48.842  11.484  1.00  0.00    -0.265 OA
HETATM    8  C   UNL     1     -42.422 -50.417  12.875  1.00  0.00     0.131 A 
HETATM    9 CL   UNL     1     -43.115 -49.066  13.718  1.00  0.00    -0.076 Cl
HETATM   10  H   UNL     1     -40.221 -50.782  10.374  1.00  0.00     0.190 HD
ENDROOT
BRANCH   1  11
HETATM   11  N   UNL     1     -43.398 -52.287  14.242  1.00  0.00    -0.373 N 
HETATM   12  C   UNL     1     -43.100 -52.155  15.689  1.00  0.00     0.154 C 
HETATM   13  C   UNL     1     -44.358 -51.739  16.486  1.00  0.00     0.136 C 
HETATM   14  C   UNL     1     -44.605 -50.232  16.443  1.00  0.00     0.041 C 
HETATM   15  O   UNL     1     -45.537 -52.495  16.163  1.00  0.00    -0.373 OA
HETATM   16  C   UNL     1     -45.794 -52.709  14.758  1.00  0.00     0.070 C 
HETATM   17  C   UNL     1     -44.522 -53.223  14.038  1.00  0.00     0.160 C 
HETATM   18  C   UNL     1     -46.389 -51.448  14.118  1.00  0.00     0.047 C 
HETATM   19  C   UNL     1     -46.871 -53.806  14.695  1.00  0.00     0.047 C 
ENDBRANCH   1  11
TORSDOF 1
ENDMDL
MODEL 6
REMARK VINA RESULT:      -5.5      2.732      3.809
REMARK  1 active torsions:
REMARK  status: ('A' for Active; 'I' for Inactive)
REMARK    1  A    between atoms: N_4  and  C_10 
ROOT
HETATM    1  C   UNL     1     -42.618 -53.964  13.875  1.00  0.00     0.075 A 
HETATM    2  C   UNL     1     -42.134 -54.779  15.041  1.00  0.00     0.138 A 
HETATM    3  N   UNL     1     -40.938 -54.860  15.525  1.00  0.00    -0.307 N 
ATOM      4  HN  UNL     1     -40.721 -55.436  16.338  1.00  0.00     0.186 HD
HETATM    5  N   UNL     1     -39.990 -54.134  14.886  1.00  0.00    -0.265 N 
HETATM    6  C   UNL     1     -40.191 -53.397  13.753  1.00  0.00     0.283 A 
HETATM    7  O   UNL     1     -39.257 -52.809  13.211  1.00  0.00    -0.265 OA
HETATM    8  C   UNL     1     -41.596 -53.341  13.246  1.00  0.00     0.131 A 
HETATM    9 CL   UNL     1     -41.783 -52.320  11.854  1.00  0.00    -0.076 Cl
HETATM   10  H   UNL     1     -39.043 -54.185  15.248  1.00  0.00     0.190 HD
ENDROOT
BRANCH   1  11
HETATM   11  N   UNL     1     -44.001 -53.976  13.606  1.00  0.00    -0.373 N 
HETATM   12  C   UNL     1     -44.949 -54.992  14.127  1.00  0.00     0.154 C 
HETATM   13  C   UNL     1     -46.196 -54.328  14.755  1.00  0.00     0.136 C 
HETATM   14  C   UNL     1     -45.956 -53.877  16.194  1.00  0.00     0.041 C 
HETATM   15  O   UNL     1     -46.781 -53.291  13.948  1.00  0.00    -0.373 OA
HETATM   16  C   UNL     1     -45.863 -52.344  13.360  1.00  0.00     0.070 C 
HETATM   17  C   UNL     1     -44.691 -53.076  12.659  1.00  0.00     0.160 C 
HETATM   18  C   UNL     1     -45.403 -51.317  14.403  1.00  0.00     0.047 C 
HETATM   19  C   UNL     1     -46.674 -51.585  12.296  1.00  0.00     0.047 C 
ENDBRANCH   1  11
TORSDOF 1
ENDMDL
MODEL 7
REMARK VINA RESULT:      -5.3      2.382      3.183
REMARK  1 active torsions:
REMARK  status: ('A' for Active; 'I' for Inactive)
REMARK    1  A    between atoms: N_4  and  C_10 
ROOT
HETATM    1  C   UNL     1     -41.126 -51.143  12.415  1.00  0.00     0.075 A 
HETATM    2  C   UNL     1     -41.104 -50.186  11.256  1.00  0.00     0.138 A 
HETATM    3  N   UNL     1     -40.082 -49.717  10.619  1.00  0.00    -0.307 N 
ATOM      4  HN  UNL     1     -40.183 -49.080   9.829  1.00  0.00     0.186 HD
HETATM    5  N   UNL     1     -38.869 -50.124  11.064  1.00  0.00    -0.265 N 
HETATM    6  C   UNL     1     -38.655 -50.916  12.156  1.00  0.00     0.283 A 
HETATM    7  O   UNL     1     -37.513 -51.194  12.517  1.00  0.00    -0.265 OA
HETATM    8  C   UNL     1     -39.877 -51.428  12.847  1.00  0.00     0.131 A 
HETATM    9 CL   UNL     1     -39.521 -52.493  14.172  1.00  0.00    -0.076 Cl
HETATM   10  H   UNL     1     -38.053 -49.766  10.578  1.00  0.00     0.190 HD
ENDROOT
BRANCH   1  11
HETATM   11  N   UNL     1     -42.386 -51.576  12.873  1.00  0.00    -0.373 N 
HETATM   12  C   UNL     1     -43.038 -52.844  12.463  1.00  0.00     0.154 C 
HETATM   13  C   UNL     1     -43.550 -53.635  13.689  1.00  0.00     0.136 C 
HETATM   14  C   UNL     1     -42.450 -54.465  14.348  1.00  0.00     0.041 C 
HETATM   15  O   UNL     1     -44.280 -52.842  14.640  1.00  0.00    -0.373 OA
HETATM   16  C   UNL     1     -43.702 -51.563  14.984  1.00  0.00     0.070 C 
HETATM   17  C   UNL     1     -43.306 -50.778  13.709  1.00  0.00     0.160 C 
HETATM   18  C   UNL     1     -42.544 -51.742  15.974  1.00  0.00     0.047 C 
HETATM   19  C   UNL     1     -44.813 -50.788  15.713  1.00  0.00     0.047 C 
ENDBRANCH   1  11
TORSDOF 1
ENDMDL
MODEL 8
REMARK VINA RESULT:      -5.3      5.558      7.324
REMARK  1 active torsions:
REMARK  status: ('A' for Active; 'I' for Inactive)
REMARK    1  A    between atoms: N_4  and  C_10 
ROOT
HETATM    1  C   UNL     1     -39.876 -48.492  11.977  1.00  0.00     0.075 A 
HETATM    2  C   UNL     1     -40.820 -49.318  11.149  1.00  0.00     0.138 A 
HETATM    3  N   UNL     1     -40.845 -50.601  10.998  1.00  0.00    -0.307 N 
ATOM      4  HN  UNL     1     -41.546 -51.064  10.420  1.00  0.00     0.186 HD
HETATM    5  N   UNL     1     -39.883 -51.294  11.653  1.00  0.00    -0.265 N 
HETATM    6  C   UNL     1     -38.872 -50.739  12.385  1.00  0.00     0.283 A 
HETATM    7  O   UNL     1     -38.011 -51.446  12.905  1.00  0.00    -0.265 OA
HETATM    8  C   UNL     1     -38.901 -49.251  12.524  1.00  0.00     0.131 A 
HETATM    9 CL   UNL     1     -37.633 -48.632  13.536  1.00  0.00    -0.076 Cl
HETATM   10  H   UNL     1     -39.884 -52.303  11.546  1.00  0.00     0.190 HD
ENDROOT
BRANCH   1  11
HETATM   11  N   UNL     1     -40.122 -47.106  12.050  1.00  0.00    -0.373 N 
HETATM   12  C   UNL     1     -40.012 -46.173  10.902  1.00  0.00     0.154 C 
HETATM   13  C   UNL     1     -41.262 -45.271  10.789  1.00  0.00     0.136 C 
HETATM   14  C   UNL     1     -42.415 -45.960  10.061  1.00  0.00     0.041 C 
HETATM   15  O   UNL     1     -41.677 -44.679  12.032  1.00  0.00    -0.373 OA
HETATM   16  C   UNL     1     -41.705 -45.555  13.179  1.00  0.00     0.070 C 
HETATM   17  C   UNL     1     -40.383 -46.354  13.294  1.00  0.00     0.160 C 
HETATM   18  C   UNL     1     -42.954 -46.446  13.150  1.00  0.00     0.047 C 
HETATM   19  C   UNL     1     -41.829 -44.632  14.403  1.00  0.00     0.047 C 
ENDBRANCH   1  11
TORSDOF 1
ENDMDL
MODEL 9
REMARK VINA RESULT:      -5.2      6.110      8.182
REMARK  1 active torsions:
REMARK  status: ('A' for Active; 'I' for Inactive)
REMARK    1  A    between atoms: N_4  and  C_10 
ROOT
HETATM    1  C   UNL     1     -40.700 -47.352  11.868  1.00  0.00     0.075 A 
HETATM    2  C   UNL     1     -41.426 -47.951  10.697  1.00  0.00     0.138 A 
HETATM    3  N   UNL     1     -41.233 -49.098  10.131  1.00  0.00    -0.307 N 
ATOM      4  HN  UNL     1     -41.800 -49.415   9.346  1.00  0.00     0.186 HD
HETATM    5  N   UNL     1     -40.232 -49.851  10.647  1.00  0.00    -0.265 N 
HETATM    6  C   UNL     1     -39.389 -49.462  11.649  1.00  0.00     0.283 A 
HETATM    7  O   UNL     1     -38.473 -50.195  12.019  1.00  0.00    -0.265 OA
HETATM    8  C   UNL     1     -39.666 -48.128  12.262  1.00  0.00     0.131 A 
HETATM    9 CL   UNL     1     -38.604 -47.745  13.581  1.00  0.00    -0.076 Cl
HETATM   10  H   UNL     1     -40.063 -50.754  10.216  1.00  0.00     0.190 HD
ENDROOT
BRANCH   1  11
HETATM   11  N   UNL     1     -41.170 -46.116  12.357  1.00  0.00    -0.373 N 
HETATM   12  C   UNL     1     -41.996 -45.955  13.579  1.00  0.00     0.154 C 
HETATM   13  C   UNL     1     -41.428 -44.850  14.500  1.00  0.00     0.136 C 
HETATM   14  C   UNL     1     -40.293 -45.357  15.387  1.00  0.00     0.041 C 
HETATM   15  O   UNL     1     -41.087 -43.632  13.818  1.00  0.00    -0.373 OA
HETATM   16  C   UNL     1     -40.359 -43.775  12.579  1.00  0.00     0.070 C 
HETATM   17  C   UNL     1     -41.037 -44.821  11.659  1.00  0.00     0.160 C 
HETATM   18  C   UNL     1     -38.879 -44.073  12.853  1.00  0.00     0.047 C 
HETATM   19  C   UNL     1     -40.430 -42.399  11.894  1.00  0.00     0.047 C 
ENDBRANCH   1  11
TORSDOF 1
ENDMDL
