MODEL 1
REMARK VINA RESULT:      -5.9      0.000      0.000
REMARK  4 active torsions:
REMARK  status: ('A' for Active; 'I' for Inactive)
REMARK    1  A    between atoms: C_2  and  C_4 
REMARK    2  A    between atoms: C_4  and  N_5 
REMARK       I    between atoms: N_5  and  C_6 
REMARK       I    between atoms: C_6  and  N_8 
REMARK    3  A    between atoms: N_8  and  C_9 
REMARK    4  A    between atoms: C_14  and  C_16 
ROOT
HETATM    1  C   UNL     1     -40.934 -51.483  11.733  1.00  0.00     0.169 C 
HETATM    2  N   UNL     1     -40.639 -50.614  10.789  1.00  0.00    -0.279 N 
ATOM      3  HN  UNL     1     -41.193 -50.479   9.943  1.00  0.00     0.189 HD
HETATM    4  N   UNL     1     -39.484 -49.903  11.083  1.00  0.00    -0.296 N 
ATOM      5  HN  UNL     1     -39.065 -49.207  10.466  1.00  0.00     0.187 HD
HETATM    6  C   UNL     1     -38.998 -50.239  12.260  1.00  0.00     0.074 C 
HETATM    7  S   UNL     1     -39.947 -51.367  13.121  1.00  0.00    -0.037 SA
ENDROOT
BRANCH   1   8
HETATM    8  N   UNL     1     -41.977 -52.376  11.640  1.00  0.00    -0.288 N 
HETATM    9  C   UNL     1     -43.132 -52.293  12.379  1.00  0.00     0.322 C 
HETATM   10  N   UNL     1     -43.981 -53.350  12.131  1.00  0.00    -0.342 N 
HETATM   11  O   UNL     1     -43.410 -51.435  13.206  1.00  0.00    -0.247 OA
HETATM   12  H   UNL     1     -43.908 -53.813  11.237  1.00  0.00     0.164 HD
HETATM   13  H   UNL     1     -41.709 -53.282  11.288  1.00  0.00     0.172 HD
BRANCH  10  14
HETATM   14  C   UNL     1     -45.226 -53.478  12.868  1.00  0.00     0.128 C 
BRANCH  14  15
HETATM   15  C   UNL     1     -45.297 -54.747  13.735  1.00  0.00    -0.005 C 
HETATM   16  C   UNL     1     -43.998 -54.968  14.510  1.00  0.00     0.011 C 
HETATM   17  C   UNL     1     -46.471 -54.645  14.712  1.00  0.00     0.011 C 
ENDBRANCH  14  15
ENDBRANCH  10  14
ENDBRANCH   1   8
BRANCH   6  18
HETATM   18  C   UNL     1     -37.681 -49.710  12.821  1.00  0.00     0.044 A 
HETATM   19  C   UNL     1     -37.353 -49.919  14.282  1.00  0.00     0.012 A 
HETATM   20  C   UNL     1     -37.746 -48.561  13.808  1.00  0.00     0.012 A 
ENDBRANCH   6  18
TORSDOF 4
ENDMDL
MODEL 2
REMARK VINA RESULT:      -5.9      3.837      5.498
REMARK  4 active torsions:
REMARK  status: ('A' for Active; 'I' for Inactive)
REMARK    1  A    between atoms: C_2  and  C_4 
REMARK    2  A    between atoms: C_4  and  N_5 
REMARK       I    between atoms: N_5  and  C_6 
REMARK       I    between atoms: C_6  and  N_8 
REMARK    3  A    between atoms: N_8  and  C_9 
REMARK    4  A    between atoms: C_14  and  C_16 
ROOT
HETATM    1  C   UNL     1     -40.384 -50.092  11.308  1.00  0.00     0.169 C 
HETATM    2  N   UNL     1     -40.980 -51.262  11.224  1.00  0.00    -0.279 N 
ATOM      3  HN  UNL     1     -41.709 -51.485  10.546  1.00  0.00     0.189 HD
HETATM    4  N   UNL     1     -40.497 -52.158  12.168  1.00  0.00    -0.296 N 
ATOM      5  HN  UNL     1     -40.850 -53.107  12.293  1.00  0.00     0.187 HD
HETATM    6  C   UNL     1     -39.525 -51.628  12.881  1.00  0.00     0.074 C 
HETATM    7  S   UNL     1     -39.075 -50.053  12.403  1.00  0.00    -0.037 SA
ENDROOT
BRANCH   1   8
HETATM    8  N   UNL     1     -40.746 -49.002  10.549  1.00  0.00    -0.288 N 
HETATM    9  C   UNL     1     -41.919 -48.305  10.710  1.00  0.00     0.322 C 
HETATM   10  N   UNL     1     -42.054 -47.300   9.778  1.00  0.00    -0.342 N 
HETATM   11  O   UNL     1     -42.797 -48.531  11.532  1.00  0.00    -0.247 OA
HETATM   12  H   UNL     1     -41.213 -46.914   9.374  1.00  0.00     0.164 HD
HETATM   13  H   UNL     1     -40.300 -48.967   9.646  1.00  0.00     0.172 HD
BRANCH  10  14
HETATM   14  C   UNL     1     -43.262 -46.493   9.739  1.00  0.00     0.128 C 
BRANCH  14  15
HETATM   15  C   UNL     1     -44.246 -46.916   8.636  1.00  0.00    -0.005 C 
HETATM   16  C   UNL     1     -43.595 -47.882   7.646  1.00  0.00     0.011 C 
HETATM   17  C   UNL     1     -45.480 -47.572   9.263  1.00  0.00     0.011 C 
ENDBRANCH  14  15
ENDBRANCH  10  14
ENDBRANCH   1   8
BRANCH   6  18
HETATM   18  C   UNL     1     -38.859 -52.325  14.064  1.00  0.00     0.044 A 
HETATM   19  C   UNL     1     -39.523 -53.529  14.693  1.00  0.00     0.012 A 
HETATM   20  C   UNL     1     -39.538 -52.226  15.415  1.00  0.00     0.012 A 
ENDBRANCH   6  18
TORSDOF 4
ENDMDL
MODEL 3
REMARK VINA RESULT:      -5.9      3.732      5.783
REMARK  4 active torsions:
REMARK  status: ('A' for Active; 'I' for Inactive)
REMARK    1  A    between atoms: C_2  and  C_4 
REMARK    2  A    between atoms: C_4  and  N_5 
REMARK       I    between atoms: N_5  and  C_6 
REMARK       I    between atoms: C_6  and  N_8 
REMARK    3  A    between atoms: N_8  and  C_9 
REMARK    4  A    between atoms: C_14  and  C_16 
ROOT
HETATM    1  C   UNL     1     -40.728 -51.390  11.569  1.00  0.00     0.169 C 
HETATM    2  N   UNL     1     -41.279 -52.534  11.221  1.00  0.00    -0.279 N 
ATOM      3  HN  UNL     1     -41.731 -52.701  10.323  1.00  0.00     0.189 HD
HETATM    4  N   UNL     1     -41.170 -53.486  12.225  1.00  0.00    -0.296 N 
ATOM      5  HN  UNL     1     -41.562 -54.426  12.170  1.00  0.00     0.187 HD
HETATM    6  C   UNL     1     -40.496 -53.024  13.258  1.00  0.00     0.074 C 
HETATM    7  S   UNL     1     -39.880 -51.446  13.049  1.00  0.00    -0.037 SA
ENDROOT
BRANCH   1   8
HETATM    8  N   UNL     1     -40.784 -50.256  10.791  1.00  0.00    -0.288 N 
HETATM    9  C   UNL     1     -41.622 -49.195  11.033  1.00  0.00     0.322 C 
HETATM   10  N   UNL     1     -41.515 -48.221  10.065  1.00  0.00    -0.342 N 
HETATM   11  O   UNL     1     -42.422 -49.090  11.954  1.00  0.00    -0.247 OA
HETATM   12  H   UNL     1     -40.646 -48.156   9.554  1.00  0.00     0.164 HD
HETATM   13  H   UNL     1     -40.461 -50.393   9.846  1.00  0.00     0.172 HD
BRANCH  10  14
HETATM   14  C   UNL     1     -42.372 -47.048  10.107  1.00  0.00     0.128 C 
BRANCH  14  15
HETATM   15  C   UNL     1     -43.637 -47.182   9.242  1.00  0.00    -0.005 C 
HETATM   16  C   UNL     1     -44.278 -45.821   8.974  1.00  0.00     0.011 C 
HETATM   17  C   UNL     1     -43.290 -47.861   7.914  1.00  0.00     0.011 C 
ENDBRANCH  14  15
ENDBRANCH  10  14
ENDBRANCH   1   8
BRANCH   6  18
HETATM   18  C   UNL     1     -40.295 -53.795  14.559  1.00  0.00     0.044 A 
HETATM   19  C   UNL     1     -39.142 -53.437  15.470  1.00  0.00     0.012 A 
HETATM   20  C   UNL     1     -39.078 -54.692  14.667  1.00  0.00     0.012 A 
ENDBRANCH   6  18
TORSDOF 4
ENDMDL
MODEL 4
REMARK VINA RESULT:      -5.7      3.578      7.149
REMARK  4 active torsions:
REMARK  status: ('A' for Active; 'I' for Inactive)
REMARK    1  A    between atoms: C_2  and  C_4 
REMARK    2  A    between atoms: C_4  and  N_5 
REMARK       I    between atoms: N_5  and  C_6 
REMARK       I    between atoms: C_6  and  N_8 
REMARK    3  A    between atoms: N_8  and  C_9 
REMARK    4  A    between atoms: C_14  and  C_16 
ROOT
HETATM    1  C   UNL     1     -39.910 -49.997  11.578  1.00  0.00     0.169 C 
HETATM    2  N   UNL     1     -40.696 -50.749  10.837  1.00  0.00    -0.279 N 
ATOM      3  HN  UNL     1     -41.059 -50.472   9.925  1.00  0.00     0.189 HD
HETATM    4  N   UNL     1     -40.972 -51.966  11.446  1.00  0.00    -0.296 N 
ATOM      5  HN  UNL     1     -41.589 -52.677  11.054  1.00  0.00     0.187 HD
HETATM    6  C   UNL     1     -40.336 -52.086  12.593  1.00  0.00     0.074 C 
HETATM    7  S   UNL     1     -39.301 -50.781  12.966  1.00  0.00    -0.037 SA
ENDROOT
BRANCH   1   8
HETATM    8  N   UNL     1     -39.563 -48.708  11.244  1.00  0.00    -0.288 N 
HETATM    9  C   UNL     1     -40.461 -47.675  11.122  1.00  0.00     0.322 C 
HETATM   10  N   UNL     1     -39.852 -46.506  10.720  1.00  0.00    -0.342 N 
HETATM   11  O   UNL     1     -41.672 -47.735  11.291  1.00  0.00    -0.247 OA
HETATM   12  H   UNL     1     -38.872 -46.387  10.932  1.00  0.00     0.164 HD
HETATM   13  H   UNL     1     -38.694 -48.635  10.740  1.00  0.00     0.172 HD
BRANCH  10  14
HETATM   14  C   UNL     1     -40.646 -45.316  10.466  1.00  0.00     0.128 C 
BRANCH  14  15
HETATM   15  C   UNL     1     -40.026 -44.032  11.043  1.00  0.00    -0.005 C 
HETATM   16  C   UNL     1     -41.074 -42.932  11.210  1.00  0.00     0.011 C 
HETATM   17  C   UNL     1     -39.372 -44.333  12.395  1.00  0.00     0.011 C 
ENDBRANCH  14  15
ENDBRANCH  10  14
ENDBRANCH   1   8
BRANCH   6  18
HETATM   18  C   UNL     1     -40.514 -53.264  13.546  1.00  0.00     0.044 A 
HETATM   19  C   UNL     1     -41.723 -54.162  13.407  1.00  0.00     0.012 A 
HETATM   20  C   UNL     1     -41.654 -53.199  14.543  1.00  0.00     0.012 A 
ENDBRANCH   6  18
TORSDOF 4
ENDMDL
MODEL 5
REMARK VINA RESULT:      -5.7      3.273      4.056
REMARK  4 active torsions:
REMARK  status: ('A' for Active; 'I' for Inactive)
REMARK    1  A    between atoms: C_2  and  C_4 
REMARK    2  A    between atoms: C_4  and  N_5 
REMARK       I    between atoms: N_5  and  C_6 
REMARK       I    between atoms: C_6  and  N_8 
REMARK    3  A    between atoms: N_8  and  C_9 
REMARK    4  A    between atoms: C_14  and  C_16 
ROOT
HETATM    1  C   UNL     1     -40.537 -49.335  11.043  1.00  0.00     0.169 C 
HETATM    2  N   UNL     1     -41.443 -48.730  10.305  1.00  0.00    -0.279 N 
ATOM      3  HN  UNL     1     -42.176 -49.215   9.787  1.00  0.00     0.189 HD
HETATM    4  N   UNL     1     -41.282 -47.351  10.316  1.00  0.00    -0.296 N 
ATOM      5  HN  UNL     1     -41.858 -46.701   9.781  1.00  0.00     0.187 HD
HETATM    6  C   UNL     1     -40.292 -46.988  11.105  1.00  0.00     0.074 C 
HETATM    7  S   UNL     1     -39.552 -48.274  11.947  1.00  0.00    -0.037 SA
ENDROOT
BRANCH   1   8
HETATM    8  N   UNL     1     -40.420 -50.704  11.125  1.00  0.00    -0.288 N 
HETATM    9  C   UNL     1     -41.215 -51.501  11.913  1.00  0.00     0.322 C 
HETATM   10  N   UNL     1     -40.842 -52.825  11.851  1.00  0.00    -0.342 N 
HETATM   11  O   UNL     1     -42.129 -51.131  12.638  1.00  0.00    -0.247 OA
HETATM   12  H   UNL     1     -40.362 -53.142  11.021  1.00  0.00     0.164 HD
HETATM   13  H   UNL     1     -39.507 -51.052  10.877  1.00  0.00     0.172 HD
BRANCH  10  14
HETATM   14  C   UNL     1     -41.519 -53.817  12.669  1.00  0.00     0.128 C 
BRANCH  14  15
HETATM   15  C   UNL     1     -40.952 -53.926  14.094  1.00  0.00    -0.005 C 
HETATM   16  C   UNL     1     -41.867 -54.751  14.999  1.00  0.00     0.011 C 
HETATM   17  C   UNL     1     -39.559 -54.560  14.052  1.00  0.00     0.011 C 
ENDBRANCH  14  15
ENDBRANCH  10  14
ENDBRANCH   1   8
BRANCH   6  18
HETATM   18  C   UNL     1     -39.801 -45.551  11.250  1.00  0.00     0.044 A 
HETATM   19  C   UNL     1     -40.651 -44.414  10.726  1.00  0.00     0.012 A 
HETATM   20  C   UNL     1     -39.417 -44.805   9.987  1.00  0.00     0.012 A 
ENDBRANCH   6  18
TORSDOF 4
ENDMDL
MODEL 6
REMARK VINA RESULT:      -5.6      3.462      6.093
REMARK  4 active torsions:
REMARK  status: ('A' for Active; 'I' for Inactive)
REMARK    1  A    between atoms: C_2  and  C_4 
REMARK    2  A    between atoms: C_4  and  N_5 
REMARK       I    between atoms: N_5  and  C_6 
REMARK       I    between atoms: C_6  and  N_8 
REMARK    3  A    between atoms: N_8  and  C_9 
REMARK    4  A    between atoms: C_14  and  C_16 
ROOT
HETATM    1  C   UNL     1     -40.614 -51.357  11.653  1.00  0.00     0.169 C 
HETATM    2  N   UNL     1     -41.207 -52.447  11.213  1.00  0.00    -0.279 N 
ATOM      3  HN  UNL     1     -41.637 -52.531  10.292  1.00  0.00     0.189 HD
HETATM    4  N   UNL     1     -41.175 -53.468  12.152  1.00  0.00    -0.296 N 
ATOM      5  HN  UNL     1     -41.609 -54.382  12.021  1.00  0.00     0.187 HD
HETATM    6  C   UNL     1     -40.514 -53.109  13.233  1.00  0.00     0.074 C 
HETATM    7  S   UNL     1     -39.817 -51.554  13.150  1.00  0.00    -0.037 SA
ENDROOT
BRANCH   1   8
HETATM    8  N   UNL     1     -40.590 -50.173  10.953  1.00  0.00    -0.288 N 
HETATM    9  C   UNL     1     -41.485 -49.147  11.142  1.00  0.00     0.322 C 
HETATM   10  N   UNL     1     -41.269 -48.105  10.266  1.00  0.00    -0.342 N 
HETATM   11  O   UNL     1     -42.410 -49.122  11.942  1.00  0.00    -0.247 OA
HETATM   12  H   UNL     1     -40.338 -47.988   9.893  1.00  0.00     0.164 HD
HETATM   13  H   UNL     1     -40.132 -50.236  10.057  1.00  0.00     0.172 HD
BRANCH  10  14
HETATM   14  C   UNL     1     -42.156 -46.955  10.262  1.00  0.00     0.128 C 
BRANCH  14  15
HETATM   15  C   UNL     1     -41.485 -45.662  10.753  1.00  0.00    -0.005 C 
HETATM   16  C   UNL     1     -41.897 -45.327  12.187  1.00  0.00     0.011 C 
HETATM   17  C   UNL     1     -39.962 -45.803  10.673  1.00  0.00     0.011 C 
ENDBRANCH  14  15
ENDBRANCH  10  14
ENDBRANCH   1   8
BRANCH   6  18
HETATM   18  C   UNL     1     -40.393 -53.974  14.483  1.00  0.00     0.044 A 
HETATM   19  C   UNL     1     -39.330 -53.657  15.512  1.00  0.00     0.012 A 
HETATM   20  C   UNL     1     -39.157 -54.842  14.624  1.00  0.00     0.012 A 
ENDBRANCH   6  18
TORSDOF 4
ENDMDL
MODEL 7
REMARK VINA RESULT:      -5.6      2.999      3.574
REMARK  4 active torsions:
REMARK  status: ('A' for Active; 'I' for Inactive)
REMARK    1  A    between atoms: C_2  and  C_4 
REMARK    2  A    between atoms: C_4  and  N_5 
REMARK       I    between atoms: N_5  and  C_6 
REMARK       I    between atoms: C_6  and  N_8 
REMARK    3  A    between atoms: N_8  and  C_9 
REMARK    4  A    between atoms: C_14  and  C_16 
ROOT
HETATM    1  C   UNL     1     -40.453 -49.731  11.214  1.00  0.00     0.169 C 
HETATM    2  N   UNL     1     -39.164 -49.473  11.279  1.00  0.00    -0.279 N 
ATOM      3  HN  UNL     1     -38.437 -50.189  11.280  1.00  0.00     0.189 HD
HETATM    4  N   UNL     1     -38.912 -48.110  11.346  1.00  0.00    -0.296 N 
ATOM      5  HN  UNL     1     -37.982 -47.702  11.438  1.00  0.00     0.187 HD
HETATM    6  C   UNL     1     -40.025 -47.410  11.276  1.00  0.00     0.074 C 
HETATM    7  S   UNL     1     -41.433 -48.344  11.038  1.00  0.00    -0.037 SA
ENDROOT
BRANCH   1   8
HETATM    8  N   UNL     1     -40.972 -51.005  11.233  1.00  0.00    -0.288 N 
HETATM    9  C   UNL     1     -40.796 -51.893  12.267  1.00  0.00     0.322 C 
HETATM   10  N   UNL     1     -41.370 -53.117  12.000  1.00  0.00    -0.342 N 
HETATM   11  O   UNL     1     -40.176 -51.695  13.304  1.00  0.00    -0.247 OA
HETATM   12  H   UNL     1     -42.142 -53.144  11.350  1.00  0.00     0.164 HD
HETATM   13  H   UNL     1     -41.165 -51.383  10.319  1.00  0.00     0.172 HD
BRANCH  10  14
HETATM   14  C   UNL     1     -41.232 -54.213  12.944  1.00  0.00     0.128 C 
BRANCH  14  15
HETATM   15  C   UNL     1     -42.490 -54.450  13.795  1.00  0.00    -0.005 C 
HETATM   16  C   UNL     1     -42.387 -53.752  15.151  1.00  0.00     0.011 C 
HETATM   17  C   UNL     1     -43.727 -53.947  13.047  1.00  0.00     0.011 C 
ENDBRANCH  14  15
ENDBRANCH  10  14
ENDBRANCH   1   8
BRANCH   6  18
HETATM   18  C   UNL     1     -40.088 -45.893  11.425  1.00  0.00     0.044 A 
HETATM   19  C   UNL     1     -41.137 -45.110  10.667  1.00  0.00     0.012 A 
HETATM   20  C   UNL     1     -39.716 -45.049  10.222  1.00  0.00     0.012 A 
ENDBRANCH   6  18
TORSDOF 4
ENDMDL
MODEL 8
REMARK VINA RESULT:      -5.6      1.446      1.907
REMARK  4 active torsions:
REMARK  status: ('A' for Active; 'I' for Inactive)
REMARK    1  A    between atoms: C_2  and  C_4 
REMARK    2  A    between atoms: C_4  and  N_5 
REMARK       I    between atoms: N_5  and  C_6 
REMARK       I    between atoms: C_6  and  N_8 
REMARK    3  A    between atoms: N_8  and  C_9 
REMARK    4  A    between atoms: C_14  and  C_16 
ROOT
HETATM    1  C   UNL     1     -41.446 -52.600  12.805  1.00  0.00     0.169 C 
HETATM    2  N   UNL     1     -41.472 -52.226  11.544  1.00  0.00    -0.279 N 
ATOM      3  HN  UNL     1     -42.131 -52.587  10.854  1.00  0.00     0.189 HD
HETATM    4  N   UNL     1     -40.494 -51.282  11.264  1.00  0.00    -0.296 N 
ATOM      5  HN  UNL     1     -40.323 -50.889  10.339  1.00  0.00     0.187 HD
HETATM    6  C   UNL     1     -39.816 -50.956  12.345  1.00  0.00     0.074 C 
HETATM    7  S   UNL     1     -40.369 -51.701  13.777  1.00  0.00    -0.037 SA
ENDROOT
BRANCH   1   8
HETATM    8  N   UNL     1     -42.250 -53.594  13.316  1.00  0.00    -0.288 N 
HETATM    9  C   UNL     1     -43.612 -53.649  13.144  1.00  0.00     0.322 C 
HETATM   10  N   UNL     1     -44.174 -54.715  13.812  1.00  0.00    -0.342 N 
HETATM   11  O   UNL     1     -44.303 -52.853  12.523  1.00  0.00    -0.247 OA
HETATM   12  H   UNL     1     -43.590 -55.518  13.996  1.00  0.00     0.164 HD
HETATM   13  H   UNL     1     -41.859 -54.065  14.117  1.00  0.00     0.172 HD
BRANCH  10  14
HETATM   14  C   UNL     1     -45.614 -54.905  13.809  1.00  0.00     0.128 C 
BRANCH  14  15
HETATM   15  C   UNL     1     -46.312 -54.319  15.047  1.00  0.00    -0.005 C 
HETATM   16  C   UNL     1     -45.317 -54.053  16.177  1.00  0.00     0.011 C 
HETATM   17  C   UNL     1     -47.030 -53.018  14.674  1.00  0.00     0.011 C 
ENDBRANCH  14  15
ENDBRANCH  10  14
ENDBRANCH   1   8
BRANCH   6  18
HETATM   18  C   UNL     1     -38.610 -50.021  12.344  1.00  0.00     0.044 A 
HETATM   19  C   UNL     1     -37.662 -50.025  11.166  1.00  0.00     0.012 A 
HETATM   20  C   UNL     1     -37.233 -50.645  12.452  1.00  0.00     0.012 A 
ENDBRANCH   6  18
TORSDOF 4
ENDMDL
MODEL 9
REMARK VINA RESULT:      -5.4      1.801      6.982
REMARK  4 active torsions:
REMARK  status: ('A' for Active; 'I' for Inactive)
REMARK    1  A    between atoms: C_2  and  C_4 
REMARK    2  A    between atoms: C_4  and  N_5 
REMARK       I    between atoms: N_5  and  C_6 
REMARK       I    between atoms: C_6  and  N_8 
REMARK    3  A    between atoms: N_8  and  C_9 
REMARK    4  A    between atoms: C_14  and  C_16 
ROOT
HETATM    1  C   UNL     1     -43.346 -52.734  12.464  1.00  0.00     0.169 C 
HETATM    2  N   UNL     1     -43.583 -54.024  12.571  1.00  0.00    -0.279 N 
ATOM      3  HN  UNL     1     -42.993 -54.750  12.164  1.00  0.00     0.189 HD
HETATM    4  N   UNL     1     -44.735 -54.280  13.302  1.00  0.00    -0.296 N 
ATOM      5  HN  UNL     1     -45.114 -55.212  13.470  1.00  0.00     0.187 HD
HETATM    6  C   UNL     1     -45.276 -53.167  13.753  1.00  0.00     0.074 C 
HETATM    7  S   UNL     1     -44.387 -51.754  13.397  1.00  0.00    -0.037 SA
ENDROOT
BRANCH   1   8
HETATM    8  N   UNL     1     -42.319 -52.214  11.710  1.00  0.00    -0.288 N 
HETATM    9  C   UNL     1     -41.437 -51.262  12.161  1.00  0.00     0.322 C 
HETATM   10  N   UNL     1     -40.548 -50.876  11.182  1.00  0.00    -0.342 N 
HETATM   11  O   UNL     1     -41.421 -50.747  13.272  1.00  0.00    -0.247 OA
HETATM   12  H   UNL     1     -40.349 -51.531  10.440  1.00  0.00     0.164 HD
HETATM   13  H   UNL     1     -42.466 -52.283  10.716  1.00  0.00     0.172 HD
BRANCH  10  14
HETATM   14  C   UNL     1     -39.579 -49.826  11.444  1.00  0.00     0.128 C 
BRANCH  14  15
HETATM   15  C   UNL     1     -38.211 -50.356  11.905  1.00  0.00    -0.005 C 
HETATM   16  C   UNL     1     -37.122 -50.066  10.873  1.00  0.00     0.011 C 
HETATM   17  C   UNL     1     -37.834 -49.723  13.248  1.00  0.00     0.011 C 
ENDBRANCH  14  15
ENDBRANCH  10  14
ENDBRANCH   1   8
BRANCH   6  18
HETATM   18  C   UNL     1     -46.603 -53.108  14.503  1.00  0.00     0.044 A 
HETATM   19  C   UNL     1     -47.037 -51.815  15.155  1.00  0.00     0.012 A 
HETATM   20  C   UNL     1     -46.556 -52.938  16.009  1.00  0.00     0.012 A 
ENDBRANCH   6  18
TORSDOF 4
ENDMDL
