MODEL 1
REMARK VINA RESULT:      -6.0      0.000      0.000
REMARK  2 active torsions:
REMARK  status: ('A' for Active; 'I' for Inactive)
REMARK    1  A    between atoms: C_4  and  N_5 
REMARK       I    between atoms: N_5  and  C_6 
REMARK       I    between atoms: C_6  and  N_8 
REMARK    2  A    between atoms: N_8  and  C_9 
ROOT
HETATM    1  N   UNL     1     -42.350 -51.365  12.075  1.00  0.00    -0.308 N 
HETATM    2  C   UNL     1     -42.771 -50.096  12.423  1.00  0.00     0.321 C 
HETATM    3  O   UNL     1     -43.317 -49.795  13.477  1.00  0.00    -0.247 OA
HETATM    4  N   UNL     1     -42.528 -49.164  11.433  1.00  0.00    -0.338 N 
HETATM    5  H   UNL     1     -41.638 -51.416  11.366  1.00  0.00     0.170 HD
HETATM    6  H   UNL     1     -42.627 -49.567  10.510  1.00  0.00     0.164 HD
ENDROOT
BRANCH   1   7
HETATM    7  C   UNL     1     -42.602 -52.501  12.824  1.00  0.00     0.052 A 
HETATM    8  C   UNL     1     -43.785 -53.138  12.847  1.00  0.00     0.123 A 
HETATM    9  N   UNL     1     -44.022 -54.240  13.645  1.00  0.00    -0.327 N 
HETATM   10  C   UNL     1     -45.337 -54.859  13.630  1.00  0.00     0.159 C 
HETATM   11  C   UNL     1     -43.052 -54.766  14.489  1.00  0.00     0.247 A 
HETATM   12  C   UNL     1     -41.726 -54.089  14.439  1.00  0.00     0.077 A 
HETATM   13  O   UNL     1     -43.217 -55.725  15.236  1.00  0.00    -0.268 OA
HETATM   14  C   UNL     1     -41.524 -53.033  13.637  1.00  0.00     0.036 A 
ENDBRANCH   1   7
BRANCH   4  15
HETATM   15  C   UNL     1     -43.106 -47.820  11.593  1.00  0.00     0.090 C 
HETATM   16  C   UNL     1     -44.009 -47.472  10.409  1.00  0.00     0.051 C 
HETATM   17  C   UNL     1     -43.170 -47.109   9.198  1.00  0.00     0.169 C 
HETATM   18  O   UNL     1     -42.386 -45.957   9.494  1.00  0.00    -0.391 OA
HETATM   19  C   UNL     1     -41.423 -46.215  10.513  1.00  0.00     0.169 C 
HETATM   20  C   UNL     1     -42.069 -46.700  11.804  1.00  0.00     0.051 C 
ENDBRANCH   4  15
TORSDOF 2
ENDMDL
MODEL 2
REMARK VINA RESULT:      -5.8      0.750      1.599
REMARK  2 active torsions:
REMARK  status: ('A' for Active; 'I' for Inactive)
REMARK    1  A    between atoms: C_4  and  N_5 
REMARK       I    between atoms: N_5  and  C_6 
REMARK       I    between atoms: C_6  and  N_8 
REMARK    2  A    between atoms: N_8  and  C_9 
ROOT
HETATM    1  N   UNL     1     -42.408 -51.163  12.135  1.00  0.00    -0.308 N 
HETATM    2  C   UNL     1     -42.898 -49.898  12.397  1.00  0.00     0.321 C 
HETATM    3  O   UNL     1     -43.524 -49.572  13.398  1.00  0.00    -0.247 OA
HETATM    4  N   UNL     1     -42.622 -49.001  11.383  1.00  0.00    -0.338 N 
HETATM    5  H   UNL     1     -41.649 -51.217  11.478  1.00  0.00     0.170 HD
HETATM    6  H   UNL     1     -42.644 -49.447  10.475  1.00  0.00     0.164 HD
ENDROOT
BRANCH   1   7
HETATM    7  C   UNL     1     -42.669 -52.274  12.918  1.00  0.00     0.052 A 
HETATM    8  C   UNL     1     -41.883 -52.680  13.930  1.00  0.00     0.123 A 
HETATM    9  N   UNL     1     -42.141 -53.824  14.660  1.00  0.00    -0.327 N 
HETATM   10  C   UNL     1     -41.230 -54.208  15.725  1.00  0.00     0.159 C 
HETATM   11  C   UNL     1     -43.231 -54.642  14.395  1.00  0.00     0.247 A 
HETATM   12  C   UNL     1     -44.129 -54.177  13.301  1.00  0.00     0.077 A 
HETATM   13  O   UNL     1     -43.493 -55.680  14.995  1.00  0.00    -0.268 OA
HETATM   14  C   UNL     1     -43.860 -53.050  12.625  1.00  0.00     0.036 A 
ENDBRANCH   1   7
BRANCH   4  15
HETATM   15  C   UNL     1     -43.258 -47.675  11.442  1.00  0.00     0.090 C 
HETATM   16  C   UNL     1     -44.160 -47.449  10.228  1.00  0.00     0.051 C 
HETATM   17  C   UNL     1     -43.321 -47.136   9.003  1.00  0.00     0.169 C 
HETATM   18  O   UNL     1     -42.591 -45.933   9.225  1.00  0.00    -0.391 OA
HETATM   19  C   UNL     1     -41.631 -46.079  10.269  1.00  0.00     0.169 C 
HETATM   20  C   UNL     1     -42.272 -46.500  11.585  1.00  0.00     0.051 C 
ENDBRANCH   4  15
TORSDOF 2
ENDMDL
MODEL 3
REMARK VINA RESULT:      -5.5      2.165      7.666
REMARK  2 active torsions:
REMARK  status: ('A' for Active; 'I' for Inactive)
REMARK    1  A    between atoms: C_4  and  N_5 
REMARK       I    between atoms: N_5  and  C_6 
REMARK       I    between atoms: C_6  and  N_8 
REMARK    2  A    between atoms: N_8  and  C_9 
ROOT
HETATM    1  N   UNL     1     -41.581 -49.002  10.808  1.00  0.00    -0.308 N 
HETATM    2  C   UNL     1     -42.041 -49.725  11.891  1.00  0.00     0.321 C 
HETATM    3  O   UNL     1     -43.031 -49.450  12.558  1.00  0.00    -0.247 OA
HETATM    4  N   UNL     1     -41.248 -50.820  12.177  1.00  0.00    -0.338 N 
HETATM    5  H   UNL     1     -40.991 -49.499  10.163  1.00  0.00     0.170 HD
HETATM    6  H   UNL     1     -40.272 -50.632  11.987  1.00  0.00     0.164 HD
ENDROOT
BRANCH   1   7
HETATM    7  C   UNL     1     -42.107 -47.788  10.403  1.00  0.00     0.052 A 
HETATM    8  C   UNL     1     -41.826 -46.613  10.992  1.00  0.00     0.123 A 
HETATM    9  N   UNL     1     -42.407 -45.424  10.598  1.00  0.00    -0.327 N 
HETATM   10  C   UNL     1     -42.066 -44.199  11.302  1.00  0.00     0.159 C 
HETATM   11  C   UNL     1     -43.333 -45.359   9.566  1.00  0.00     0.247 A 
HETATM   12  C   UNL     1     -43.621 -46.650   8.882  1.00  0.00     0.077 A 
HETATM   13  O   UNL     1     -43.898 -44.336   9.193  1.00  0.00    -0.268 OA
HETATM   14  C   UNL     1     -43.023 -47.784   9.277  1.00  0.00     0.036 A 
ENDBRANCH   1   7
BRANCH   4  15
HETATM   15  C   UNL     1     -41.511 -51.557  13.422  1.00  0.00     0.090 C 
HETATM   16  C   UNL     1     -40.305 -51.489  14.360  1.00  0.00     0.051 C 
HETATM   17  C   UNL     1     -39.214 -52.429  13.881  1.00  0.00     0.169 C 
HETATM   18  O   UNL     1     -39.701 -53.768  13.903  1.00  0.00    -0.391 OA
HETATM   19  C   UNL     1     -40.759 -53.965  12.968  1.00  0.00     0.169 C 
HETATM   20  C   UNL     1     -41.931 -53.025  13.219  1.00  0.00     0.051 C 
ENDBRANCH   4  15
TORSDOF 2
ENDMDL
MODEL 4
REMARK VINA RESULT:      -5.3      1.325      7.372
REMARK  2 active torsions:
REMARK  status: ('A' for Active; 'I' for Inactive)
REMARK    1  A    between atoms: C_4  and  N_5 
REMARK       I    between atoms: N_5  and  C_6 
REMARK       I    between atoms: C_6  and  N_8 
REMARK    2  A    between atoms: N_8  and  C_9 
ROOT
HETATM    1  N   UNL     1     -43.354 -49.480  12.496  1.00  0.00    -0.308 N 
HETATM    2  C   UNL     1     -42.749 -50.721  12.472  1.00  0.00     0.321 C 
HETATM    3  O   UNL     1     -41.653 -50.966  11.984  1.00  0.00    -0.247 OA
HETATM    4  N   UNL     1     -43.525 -51.704  13.056  1.00  0.00    -0.338 N 
HETATM    5  H   UNL     1     -44.061 -49.346  13.199  1.00  0.00     0.170 HD
HETATM    6  H   UNL     1     -44.511 -51.544  12.894  1.00  0.00     0.164 HD
ENDROOT
BRANCH   1   7
HETATM    7  C   UNL     1     -42.856 -48.359  11.856  1.00  0.00     0.052 A 
HETATM    8  C   UNL     1     -43.350 -47.870  10.705  1.00  0.00     0.123 A 
HETATM    9  N   UNL     1     -42.798 -46.780  10.062  1.00  0.00    -0.327 N 
HETATM   10  C   UNL     1     -43.377 -46.326   8.809  1.00  0.00     0.159 C 
HETATM   11  C   UNL     1     -41.685 -46.113  10.556  1.00  0.00     0.247 A 
HETATM   12  C   UNL     1     -41.156 -46.624  11.852  1.00  0.00     0.077 A 
HETATM   13  O   UNL     1     -41.141 -45.157  10.014  1.00  0.00    -0.268 OA
HETATM   14  C   UNL     1     -41.729 -47.673  12.461  1.00  0.00     0.036 A 
ENDBRANCH   1   7
BRANCH   4  15
HETATM   15  C   UNL     1     -43.088 -53.102  12.919  1.00  0.00     0.090 C 
HETATM   16  C   UNL     1     -44.257 -54.000  12.513  1.00  0.00     0.051 C 
HETATM   17  C   UNL     1     -45.156 -54.263  13.707  1.00  0.00     0.169 C 
HETATM   18  O   UNL     1     -44.417 -54.948  14.714  1.00  0.00    -0.391 OA
HETATM   19  C   UNL     1     -43.368 -54.141  15.246  1.00  0.00     0.169 C 
HETATM   20  C   UNL     1     -42.396 -53.680  14.168  1.00  0.00     0.051 C 
ENDBRANCH   4  15
TORSDOF 2
ENDMDL
MODEL 5
REMARK VINA RESULT:      -5.3      2.171      7.476
REMARK  2 active torsions:
REMARK  status: ('A' for Active; 'I' for Inactive)
REMARK    1  A    between atoms: C_4  and  N_5 
REMARK       I    between atoms: N_5  and  C_6 
REMARK       I    between atoms: C_6  and  N_8 
REMARK    2  A    between atoms: N_8  and  C_9 
ROOT
HETATM    1  N   UNL     1     -43.014 -48.597  11.528  1.00  0.00    -0.308 N 
HETATM    2  C   UNL     1     -43.293 -49.239  12.719  1.00  0.00     0.321 C 
HETATM    3  O   UNL     1     -42.970 -48.843  13.832  1.00  0.00    -0.247 OA
HETATM    4  N   UNL     1     -43.983 -50.423  12.536  1.00  0.00    -0.338 N 
HETATM    5  H   UNL     1     -43.606 -48.832  10.750  1.00  0.00     0.170 HD
HETATM    6  H   UNL     1     -43.698 -50.892  11.686  1.00  0.00     0.164 HD
ENDROOT
BRANCH   1   7
HETATM    7  C   UNL     1     -42.216 -47.472  11.421  1.00  0.00     0.052 A 
HETATM    8  C   UNL     1     -42.688 -46.213  11.429  1.00  0.00     0.123 A 
HETATM    9  N   UNL     1     -41.872 -45.111  11.268  1.00  0.00    -0.327 N 
HETATM   10  C   UNL     1     -42.463 -43.783  11.266  1.00  0.00     0.159 C 
HETATM   11  C   UNL     1     -40.501 -45.225  11.078  1.00  0.00     0.247 A 
HETATM   12  C   UNL     1     -39.965 -46.615  11.107  1.00  0.00     0.077 A 
HETATM   13  O   UNL     1     -39.735 -44.283  10.904  1.00  0.00    -0.268 OA
HETATM   14  C   UNL     1     -40.784 -47.663  11.287  1.00  0.00     0.036 A 
ENDBRANCH   1   7
BRANCH   4  15
HETATM   15  C   UNL     1     -44.166 -51.302  13.702  1.00  0.00     0.090 C 
HETATM   16  C   UNL     1     -43.459 -52.641  13.490  1.00  0.00     0.051 C 
HETATM   17  C   UNL     1     -44.261 -53.514  12.543  1.00  0.00     0.169 C 
HETATM   18  O   UNL     1     -45.536 -53.787  13.116  1.00  0.00    -0.391 OA
HETATM   19  C   UNL     1     -46.325 -52.607  13.246  1.00  0.00     0.169 C 
HETATM   20  C   UNL     1     -45.636 -51.545  14.093  1.00  0.00     0.051 C 
ENDBRANCH   4  15
TORSDOF 2
ENDMDL
MODEL 6
REMARK VINA RESULT:      -5.0      1.516      7.457
REMARK  2 active torsions:
REMARK  status: ('A' for Active; 'I' for Inactive)
REMARK    1  A    between atoms: C_4  and  N_5 
REMARK       I    between atoms: N_5  and  C_6 
REMARK       I    between atoms: C_6  and  N_8 
REMARK    2  A    between atoms: N_8  and  C_9 
ROOT
HETATM    1  N   UNL     1     -41.973 -49.816  11.562  1.00  0.00    -0.308 N 
HETATM    2  C   UNL     1     -42.535 -50.204  12.763  1.00  0.00     0.321 C 
HETATM    3  O   UNL     1     -43.044 -49.452  13.584  1.00  0.00    -0.247 OA
HETATM    4  N   UNL     1     -42.457 -51.568  12.971  1.00  0.00    -0.338 N 
HETATM    5  H   UNL     1     -41.907 -50.527  10.854  1.00  0.00     0.170 HD
HETATM    6  H   UNL     1     -41.605 -51.955  12.586  1.00  0.00     0.164 HD
ENDROOT
BRANCH   1   7
HETATM    7  C   UNL     1     -41.795 -48.499  11.178  1.00  0.00     0.052 A 
HETATM    8  C   UNL     1     -42.693 -47.795  10.468  1.00  0.00     0.123 A 
HETATM    9  N   UNL     1     -42.464 -46.497  10.054  1.00  0.00    -0.327 N 
HETATM   10  C   UNL     1     -43.478 -45.813   9.269  1.00  0.00     0.159 C 
HETATM   11  C   UNL     1     -41.282 -45.827  10.338  1.00  0.00     0.247 A 
HETATM   12  C   UNL     1     -40.297 -46.586  11.158  1.00  0.00     0.077 A 
HETATM   13  O   UNL     1     -41.017 -44.686   9.974  1.00  0.00    -0.268 OA
HETATM   14  C   UNL     1     -40.560 -47.839  11.562  1.00  0.00     0.036 A 
ENDBRANCH   1   7
BRANCH   4  15
HETATM   15  C   UNL     1     -42.836 -52.088  14.294  1.00  0.00     0.090 C 
HETATM   16  C   UNL     1     -41.604 -52.266  15.182  1.00  0.00     0.051 C 
HETATM   17  C   UNL     1     -40.836 -53.508  14.771  1.00  0.00     0.169 C 
HETATM   18  O   UNL     1     -41.662 -54.655  14.947  1.00  0.00    -0.391 OA
HETATM   19  C   UNL     1     -42.787 -54.641  14.070  1.00  0.00     0.169 C 
HETATM   20  C   UNL     1     -43.646 -53.398  14.257  1.00  0.00     0.051 C 
ENDBRANCH   4  15
TORSDOF 2
ENDMDL
MODEL 7
REMARK VINA RESULT:      -5.0      1.582      2.246
REMARK  2 active torsions:
REMARK  status: ('A' for Active; 'I' for Inactive)
REMARK    1  A    between atoms: C_4  and  N_5 
REMARK       I    between atoms: N_5  and  C_6 
REMARK       I    between atoms: C_6  and  N_8 
REMARK    2  A    between atoms: N_8  and  C_9 
ROOT
HETATM    1  N   UNL     1     -43.475 -50.809  12.522  1.00  0.00    -0.308 N 
HETATM    2  C   UNL     1     -43.041 -49.608  13.048  1.00  0.00     0.321 C 
HETATM    3  O   UNL     1     -43.092 -49.291  14.230  1.00  0.00    -0.247 OA
HETATM    4  N   UNL     1     -42.539 -48.755  12.084  1.00  0.00    -0.338 N 
HETATM    5  H   UNL     1     -43.078 -51.074  11.636  1.00  0.00     0.170 HD
HETATM    6  H   UNL     1     -43.036 -48.850  11.208  1.00  0.00     0.164 HD
ENDROOT
BRANCH   1   7
HETATM    7  C   UNL     1     -44.146 -51.778  13.247  1.00  0.00     0.052 A 
HETATM    8  C   UNL     1     -43.563 -52.880  13.748  1.00  0.00     0.123 A 
HETATM    9  N   UNL     1     -44.270 -53.855  14.424  1.00  0.00    -0.327 N 
HETATM   10  C   UNL     1     -43.568 -55.029  14.916  1.00  0.00     0.159 C 
HETATM   11  C   UNL     1     -45.640 -53.770  14.628  1.00  0.00     0.247 A 
HETATM   12  C   UNL     1     -46.288 -52.532  14.110  1.00  0.00     0.077 A 
HETATM   13  O   UNL     1     -46.320 -54.617  15.197  1.00  0.00    -0.268 OA
HETATM   14  C   UNL     1     -45.568 -51.594  13.476  1.00  0.00     0.036 A 
ENDBRANCH   1   7
BRANCH   4  15
HETATM   15  C   UNL     1     -42.230 -47.372  12.479  1.00  0.00     0.090 C 
HETATM   16  C   UNL     1     -42.901 -46.373  11.535  1.00  0.00     0.051 C 
HETATM   17  C   UNL     1     -42.145 -46.304  10.220  1.00  0.00     0.169 C 
HETATM   18  O   UNL     1     -40.819 -45.844  10.461  1.00  0.00    -0.391 OA
HETATM   19  C   UNL     1     -40.067 -46.771  11.241  1.00  0.00     0.169 C 
HETATM   20  C   UNL     1     -40.725 -47.059  12.584  1.00  0.00     0.051 C 
ENDBRANCH   4  15
TORSDOF 2
ENDMDL
MODEL 8
REMARK VINA RESULT:      -5.0      2.179      7.214
REMARK  2 active torsions:
REMARK  status: ('A' for Active; 'I' for Inactive)
REMARK    1  A    between atoms: C_4  and  N_5 
REMARK       I    between atoms: N_5  and  C_6 
REMARK       I    between atoms: C_6  and  N_8 
REMARK    2  A    between atoms: N_8  and  C_9 
ROOT
HETATM    1  N   UNL     1     -42.959 -50.821  12.301  1.00  0.00    -0.308 N 
HETATM    2  C   UNL     1     -43.225 -51.345  13.551  1.00  0.00     0.321 C 
HETATM    3  O   UNL     1     -42.819 -50.889  14.612  1.00  0.00    -0.247 OA
HETATM    4  N   UNL     1     -44.009 -52.481  13.496  1.00  0.00    -0.338 N 
HETATM    5  H   UNL     1     -43.604 -51.069  11.570  1.00  0.00     0.170 HD
HETATM    6  H   UNL     1     -43.804 -53.036  12.675  1.00  0.00     0.164 HD
ENDROOT
BRANCH   1   7
HETATM    7  C   UNL     1     -42.085 -49.774  12.066  1.00  0.00     0.052 A 
HETATM    8  C   UNL     1     -40.749 -49.908  12.016  1.00  0.00     0.123 A 
HETATM    9  N   UNL     1     -39.899 -48.835  11.832  1.00  0.00    -0.327 N 
HETATM   10  C   UNL     1     -38.463 -49.061  11.812  1.00  0.00     0.159 C 
HETATM   11  C   UNL     1     -40.367 -47.535  11.692  1.00  0.00     0.247 A 
HETATM   12  C   UNL     1     -41.848 -47.384  11.707  1.00  0.00     0.077 A 
HETATM   13  O   UNL     1     -39.657 -46.545  11.552  1.00  0.00    -0.268 OA
HETATM   14  C   UNL     1     -42.646 -48.451  11.867  1.00  0.00     0.036 A 
ENDBRANCH   1   7
BRANCH   4  15
HETATM   15  C   UNL     1     -44.199 -53.249  14.736  1.00  0.00     0.090 C 
HETATM   16  C   UNL     1     -44.128 -54.752  14.463  1.00  0.00     0.051 C 
HETATM   17  C   UNL     1     -45.415 -55.230  13.816  1.00  0.00     0.169 C 
HETATM   18  O   UNL     1     -46.503 -55.007  14.708  1.00  0.00    -0.391 OA
HETATM   19  C   UNL     1     -46.729 -53.617  14.936  1.00  0.00     0.169 C 
HETATM   20  C   UNL     1     -45.497 -52.920  15.499  1.00  0.00     0.051 C 
ENDBRANCH   4  15
TORSDOF 2
ENDMDL
MODEL 9
REMARK VINA RESULT:      -4.8      3.366      4.189
REMARK  2 active torsions:
REMARK  status: ('A' for Active; 'I' for Inactive)
REMARK    1  A    between atoms: C_4  and  N_5 
REMARK       I    between atoms: N_5  and  C_6 
REMARK       I    between atoms: C_6  and  N_8 
REMARK    2  A    between atoms: N_8  and  C_9 
ROOT
HETATM    1  N   UNL     1     -42.527 -51.995  12.619  1.00  0.00    -0.308 N 
HETATM    2  C   UNL     1     -41.412 -51.707  13.381  1.00  0.00     0.321 C 
HETATM    3  O   UNL     1     -41.336 -51.821  14.598  1.00  0.00    -0.247 OA
HETATM    4  N   UNL     1     -40.352 -51.246  12.623  1.00  0.00    -0.338 N 
HETATM    5  H   UNL     1     -42.360 -52.184  11.645  1.00  0.00     0.170 HD
HETATM    6  H   UNL     1     -40.670 -50.690  11.840  1.00  0.00     0.164 HD
ENDROOT
BRANCH   1   7
HETATM    7  C   UNL     1     -43.761 -52.335  13.144  1.00  0.00     0.052 A 
HETATM    8  C   UNL     1     -44.169 -53.600  13.343  1.00  0.00     0.123 A 
HETATM    9  N   UNL     1     -45.428 -53.910  13.821  1.00  0.00    -0.327 N 
HETATM   10  C   UNL     1     -45.800 -55.305  13.988  1.00  0.00     0.159 C 
HETATM   11  C   UNL     1     -46.366 -52.933  14.123  1.00  0.00     0.247 A 
HETATM   12  C   UNL     1     -45.908 -51.527  13.943  1.00  0.00     0.077 A 
HETATM   13  O   UNL     1     -47.504 -53.153  14.525  1.00  0.00    -0.268 OA
HETATM   14  C   UNL     1     -44.671 -51.261  13.496  1.00  0.00     0.036 A 
ENDBRANCH   1   7
BRANCH   4  15
HETATM   15  C   UNL     1     -39.177 -50.716  13.330  1.00  0.00     0.090 C 
HETATM   16  C   UNL     1     -39.162 -49.187  13.292  1.00  0.00     0.051 C 
HETATM   17  C   UNL     1     -38.721 -48.701  11.924  1.00  0.00     0.169 C 
HETATM   18  O   UNL     1     -37.394 -49.149  11.668  1.00  0.00    -0.391 OA
HETATM   19  C   UNL     1     -37.322 -50.570  11.566  1.00  0.00     0.169 C 
HETATM   20  C   UNL     1     -37.828 -51.262  12.825  1.00  0.00     0.051 C 
ENDBRANCH   4  15
TORSDOF 2
ENDMDL
