MODEL 1
REMARK VINA RESULT:      -6.7      0.000      0.000
REMARK  4 active torsions:
REMARK  status: ('A' for Active; 'I' for Inactive)
REMARK    1  A    between atoms: C_5  and  N_22 
REMARK    2  A    between atoms: C_8  and  N_9 
REMARK       I    between atoms: N_9  and  C_10 
REMARK       I    between atoms: C_10  and  N_12 
REMARK    3  A    between atoms: N_12  and  C_13 
REMARK    4  A    between atoms: C_17  and  C_19 
ROOT
HETATM    1  N   UNL     1     -41.370 -50.591  11.788  1.00  0.00    -0.307 N 
HETATM    2  C   UNL     1     -42.404 -49.713  12.053  1.00  0.00     0.321 C 
HETATM    3  O   UNL     1     -43.027 -49.643  13.101  1.00  0.00    -0.247 OA
HETATM    4  N   UNL     1     -42.639 -48.878  10.981  1.00  0.00    -0.338 N 
HETATM    5  H   UNL     1     -40.614 -50.158  11.278  1.00  0.00     0.170 HD
HETATM    6  H   UNL     1     -41.970 -48.911  10.227  1.00  0.00     0.164 HD
ENDROOT
BRANCH   1   7
HETATM    7  C   UNL     1     -40.983 -51.615  12.686  1.00  0.00     0.058 A 
HETATM    8  C   UNL     1     -40.012 -51.502  13.683  1.00  0.00     0.034 A 
HETATM    9  C   UNL     1     -39.277 -50.227  13.975  1.00  0.00     0.070 C 
HETATM   10  N   UNL     1     -39.728 -52.521  14.543  1.00  0.00    -0.344 N 
HETATM   11  C   UNL     1     -40.367 -53.705  14.447  1.00  0.00     0.103 A 
ATOM     12  HN  UNL     1     -39.024 -52.385  15.269  1.00  0.00     0.167 HD
HETATM   13  C   UNL     1     -41.355 -53.870  13.483  1.00  0.00     0.051 A 
HETATM   14  C   UNL     1     -41.685 -52.821  12.622  1.00  0.00     0.035 A 
BRANCH  11  15
HETATM   15  N   UNL     1     -40.001 -54.703  15.305  1.00  0.00    -0.367 N 
HETATM   16  C   UNL     1     -38.660 -55.210  15.519  1.00  0.00     0.124 C 
HETATM   17  C   UNL     1     -38.786 -56.160  16.715  1.00  0.00     0.021 C 
HETATM   18  C   UNL     1     -40.174 -55.909  17.288  1.00  0.00     0.021 C 
HETATM   19  C   UNL     1     -40.988 -55.412  16.101  1.00  0.00     0.124 C 
ENDBRANCH  11  15
ENDBRANCH   1   7
BRANCH   4  20
HETATM   20  C   UNL     1     -43.513 -47.700  11.068  1.00  0.00     0.090 C 
HETATM   21  C   UNL     1     -44.267 -47.369   9.769  1.00  0.00     0.051 C 
HETATM   22  C   UNL     1     -43.394 -46.680   8.725  1.00  0.00     0.170 C 
HETATM   23  O   UNL     1     -42.664 -45.583   9.282  1.00  0.00    -0.385 OA
HETATM   24  C   UNL     1     -41.817 -46.014  10.348  1.00  0.00     0.127 C 
HETATM   25  C   UNL     1     -42.702 -46.473  11.505  1.00  0.00     0.057 C 
BRANCH  24  26
HETATM   26  C   UNL     1     -40.913 -44.884  10.751  1.00  0.00     0.015 A 
HETATM   27  C   UNL     1     -39.570 -44.704  10.087  1.00  0.00     0.007 A 
HETATM   28  C   UNL     1     -39.640 -45.190  11.507  1.00  0.00     0.007 A 
ENDBRANCH  24  26
ENDBRANCH   4  20
TORSDOF 4
ENDMDL
MODEL 2
REMARK VINA RESULT:      -6.0      2.985      8.805
REMARK  4 active torsions:
REMARK  status: ('A' for Active; 'I' for Inactive)
REMARK    1  A    between atoms: C_5  and  N_22 
REMARK    2  A    between atoms: C_8  and  N_9 
REMARK       I    between atoms: N_9  and  C_10 
REMARK       I    between atoms: C_10  and  N_12 
REMARK    3  A    between atoms: N_12  and  C_13 
REMARK    4  A    between atoms: C_17  and  C_19 
ROOT
HETATM    1  N   UNL     1     -42.080 -49.757  11.687  1.00  0.00    -0.307 N 
HETATM    2  C   UNL     1     -41.928 -50.434  12.883  1.00  0.00     0.321 C 
HETATM    3  O   UNL     1     -41.763 -49.916  13.977  1.00  0.00    -0.247 OA
HETATM    4  N   UNL     1     -42.022 -51.797  12.701  1.00  0.00    -0.338 N 
HETATM    5  H   UNL     1     -42.789 -50.165  11.096  1.00  0.00     0.170 HD
HETATM    6  H   UNL     1     -42.316 -52.113  11.790  1.00  0.00     0.164 HD
ENDROOT
BRANCH   1   7
HETATM    7  C   UNL     1     -41.939 -48.351  11.576  1.00  0.00     0.058 A 
HETATM    8  C   UNL     1     -40.732 -47.649  11.586  1.00  0.00     0.034 A 
HETATM    9  C   UNL     1     -39.391 -48.318  11.660  1.00  0.00     0.070 C 
HETATM   10  N   UNL     1     -40.675 -46.297  11.426  1.00  0.00    -0.344 N 
HETATM   11  C   UNL     1     -41.801 -45.570  11.273  1.00  0.00     0.103 A 
ATOM     12  HN  UNL     1     -39.768 -45.829  11.421  1.00  0.00     0.167 HD
HETATM   13  C   UNL     1     -43.031 -46.218  11.238  1.00  0.00     0.051 A 
HETATM   14  C   UNL     1     -43.101 -47.608  11.361  1.00  0.00     0.035 A 
BRANCH  11  15
HETATM   15  N   UNL     1     -41.681 -44.214  11.168  1.00  0.00    -0.367 N 
HETATM   16  C   UNL     1     -42.760 -43.262  10.994  1.00  0.00     0.124 C 
HETATM   17  C   UNL     1     -42.098 -41.887  11.145  1.00  0.00     0.021 C 
HETATM   18  C   UNL     1     -40.702 -42.165  11.683  1.00  0.00     0.021 C 
HETATM   19  C   UNL     1     -40.379 -43.569  11.187  1.00  0.00     0.124 C 
ENDBRANCH  11  15
ENDBRANCH   1   7
BRANCH   4  20
HETATM   20  C   UNL     1     -42.135 -52.741  13.822  1.00  0.00     0.090 C 
HETATM   21  C   UNL     1     -42.449 -54.188  13.405  1.00  0.00     0.051 C 
HETATM   22  C   UNL     1     -43.913 -54.405  13.037  1.00  0.00     0.170 C 
HETATM   23  O   UNL     1     -44.795 -53.869  14.027  1.00  0.00    -0.385 OA
HETATM   24  C   UNL     1     -44.588 -52.467  14.199  1.00  0.00     0.127 C 
HETATM   25  C   UNL     1     -43.204 -52.259  14.811  1.00  0.00     0.057 C 
BRANCH  24  26
HETATM   26  C   UNL     1     -45.674 -51.908  15.075  1.00  0.00     0.015 A 
HETATM   27  C   UNL     1     -47.013 -52.595  15.166  1.00  0.00     0.007 A 
HETATM   28  C   UNL     1     -46.895 -51.289  14.434  1.00  0.00     0.007 A 
ENDBRANCH  24  26
ENDBRANCH   4  20
TORSDOF 4
ENDMDL
MODEL 3
REMARK VINA RESULT:      -6.0      1.614      3.202
REMARK  4 active torsions:
REMARK  status: ('A' for Active; 'I' for Inactive)
REMARK    1  A    between atoms: C_5  and  N_22 
REMARK    2  A    between atoms: C_8  and  N_9 
REMARK       I    between atoms: N_9  and  C_10 
REMARK       I    between atoms: C_10  and  N_12 
REMARK    3  A    between atoms: N_12  and  C_13 
REMARK    4  A    between atoms: C_17  and  C_19 
ROOT
HETATM    1  N   UNL     1     -41.629 -50.325  12.980  1.00  0.00    -0.307 N 
HETATM    2  C   UNL     1     -41.001 -49.465  12.099  1.00  0.00     0.321 C 
HETATM    3  O   UNL     1     -39.811 -49.467  11.828  1.00  0.00    -0.247 OA
HETATM    4  N   UNL     1     -41.903 -48.599  11.517  1.00  0.00    -0.338 N 
HETATM    5  H   UNL     1     -42.525 -50.644  12.641  1.00  0.00     0.170 HD
HETATM    6  H   UNL     1     -42.880 -48.782  11.688  1.00  0.00     0.164 HD
ENDROOT
BRANCH   1   7
HETATM    7  C   UNL     1     -40.921 -51.257  13.779  1.00  0.00     0.058 A 
HETATM    8  C   UNL     1     -40.638 -52.580  13.432  1.00  0.00     0.034 A 
HETATM    9  C   UNL     1     -41.010 -53.181  12.108  1.00  0.00     0.070 C 
HETATM   10  N   UNL     1     -39.908 -53.404  14.236  1.00  0.00    -0.344 N 
HETATM   11  C   UNL     1     -39.444 -52.974  15.427  1.00  0.00     0.103 A 
ATOM     12  HN  UNL     1     -39.711 -54.358  13.932  1.00  0.00     0.167 HD
HETATM   13  C   UNL     1     -39.680 -51.661  15.817  1.00  0.00     0.051 A 
HETATM   14  C   UNL     1     -40.393 -50.793  14.986  1.00  0.00     0.035 A 
BRANCH  11  15
HETATM   15  N   UNL     1     -38.763 -53.862  16.209  1.00  0.00    -0.367 N 
HETATM   16  C   UNL     1     -38.023 -53.559  17.419  1.00  0.00     0.124 C 
HETATM   17  C   UNL     1     -37.640 -54.926  17.998  1.00  0.00     0.021 C 
HETATM   18  C   UNL     1     -38.447 -55.944  17.204  1.00  0.00     0.021 C 
HETATM   19  C   UNL     1     -38.685 -55.270  15.859  1.00  0.00     0.124 C 
ENDBRANCH  11  15
ENDBRANCH   1   7
BRANCH   4  20
HETATM   20  C   UNL     1     -41.558 -47.741  10.375  1.00  0.00     0.090 C 
HETATM   21  C   UNL     1     -41.359 -46.258  10.730  1.00  0.00     0.051 C 
HETATM   22  C   UNL     1     -42.671 -45.507  10.935  1.00  0.00     0.170 C 
HETATM   23  O   UNL     1     -43.590 -45.742   9.865  1.00  0.00    -0.385 OA
HETATM   24  C   UNL     1     -43.894 -47.131   9.740  1.00  0.00     0.127 C 
HETATM   25  C   UNL     1     -42.631 -47.858   9.285  1.00  0.00     0.057 C 
BRANCH  24  26
HETATM   26  C   UNL     1     -45.022 -47.307   8.763  1.00  0.00     0.015 A 
HETATM   27  C   UNL     1     -46.374 -46.695   9.034  1.00  0.00     0.007 A 
HETATM   28  C   UNL     1     -46.195 -48.183   9.137  1.00  0.00     0.007 A 
ENDBRANCH  24  26
ENDBRANCH   4  20
TORSDOF 4
ENDMDL
MODEL 4
REMARK VINA RESULT:      -5.9      5.367      6.746
REMARK  4 active torsions:
REMARK  status: ('A' for Active; 'I' for Inactive)
REMARK    1  A    between atoms: C_5  and  N_22 
REMARK    2  A    between atoms: C_8  and  N_9 
REMARK       I    between atoms: N_9  and  C_10 
REMARK       I    between atoms: C_10  and  N_12 
REMARK    3  A    between atoms: N_12  and  C_13 
REMARK    4  A    between atoms: C_17  and  C_19 
ROOT
HETATM    1  N   UNL     1     -41.951 -53.883  15.369  1.00  0.00    -0.307 N 
HETATM    2  C   UNL     1     -43.134 -54.440  14.920  1.00  0.00     0.321 C 
HETATM    3  O   UNL     1     -43.476 -55.602  15.072  1.00  0.00    -0.247 OA
HETATM    4  N   UNL     1     -43.922 -53.500  14.291  1.00  0.00    -0.338 N 
HETATM    5  H   UNL     1     -42.077 -52.957  15.751  1.00  0.00     0.170 HD
HETATM    6  H   UNL     1     -43.620 -52.540  14.356  1.00  0.00     0.164 HD
ENDROOT
BRANCH   1   7
HETATM    7  C   UNL     1     -40.922 -54.648  15.972  1.00  0.00     0.058 A 
HETATM    8  C   UNL     1     -39.709 -54.997  15.376  1.00  0.00     0.034 A 
HETATM    9  C   UNL     1     -39.306 -54.545  14.003  1.00  0.00     0.070 C 
HETATM   10  N   UNL     1     -38.745 -55.697  16.039  1.00  0.00    -0.344 N 
HETATM   11  C   UNL     1     -38.940 -56.107  17.310  1.00  0.00     0.103 A 
ATOM     12  HN  UNL     1     -37.866 -55.913  15.569  1.00  0.00     0.167 HD
HETATM   13  C   UNL     1     -40.122 -55.773  17.960  1.00  0.00     0.051 A 
HETATM   14  C   UNL     1     -41.102 -55.023  17.306  1.00  0.00     0.035 A 
BRANCH  11  15
HETATM   15  N   UNL     1     -37.957 -56.848  17.902  1.00  0.00    -0.367 N 
HETATM   16  C   UNL     1     -36.549 -56.510  17.981  1.00  0.00     0.124 C 
HETATM   17  C   UNL     1     -35.945 -57.564  18.917  1.00  0.00     0.021 C 
HETATM   18  C   UNL     1     -37.134 -58.281  19.542  1.00  0.00     0.021 C 
HETATM   19  C   UNL     1     -38.247 -58.134  18.512  1.00  0.00     0.124 C 
ENDBRANCH  11  15
ENDBRANCH   1   7
BRANCH   4  20
HETATM   20  C   UNL     1     -45.323 -53.753  13.928  1.00  0.00     0.090 C 
HETATM   21  C   UNL     1     -45.868 -52.838  12.818  1.00  0.00     0.051 C 
HETATM   22  C   UNL     1     -46.219 -51.437  13.311  1.00  0.00     0.170 C 
HETATM   23  O   UNL     1     -47.020 -51.475  14.494  1.00  0.00    -0.385 OA
HETATM   24  C   UNL     1     -46.347 -52.157  15.553  1.00  0.00     0.127 C 
HETATM   25  C   UNL     1     -46.219 -53.630  15.167  1.00  0.00     0.057 C 
BRANCH  24  26
HETATM   26  C   UNL     1     -47.120 -51.981  16.829  1.00  0.00     0.015 A 
HETATM   27  C   UNL     1     -48.109 -50.850  16.975  1.00  0.00     0.007 A 
HETATM   28  C   UNL     1     -46.808 -50.805  17.726  1.00  0.00     0.007 A 
ENDBRANCH  24  26
ENDBRANCH   4  20
TORSDOF 4
ENDMDL
MODEL 5
REMARK VINA RESULT:      -5.9      4.582      7.773
REMARK  4 active torsions:
REMARK  status: ('A' for Active; 'I' for Inactive)
REMARK    1  A    between atoms: C_5  and  N_22 
REMARK    2  A    between atoms: C_8  and  N_9 
REMARK       I    between atoms: N_9  and  C_10 
REMARK       I    between atoms: C_10  and  N_12 
REMARK    3  A    between atoms: N_12  and  C_13 
REMARK    4  A    between atoms: C_17  and  C_19 
ROOT
HETATM    1  N   UNL     1     -39.845 -55.612  16.805  1.00  0.00    -0.307 N 
HETATM    2  C   UNL     1     -39.484 -55.165  15.547  1.00  0.00     0.321 C 
HETATM    3  O   UNL     1     -38.598 -55.638  14.852  1.00  0.00    -0.247 OA
HETATM    4  N   UNL     1     -40.282 -54.118  15.139  1.00  0.00    -0.338 N 
HETATM    5  H   UNL     1     -40.845 -55.624  16.940  1.00  0.00     0.170 HD
HETATM    6  H   UNL     1     -41.082 -53.907  15.716  1.00  0.00     0.164 HD
ENDROOT
BRANCH   1   7
HETATM    7  C   UNL     1     -39.131 -56.621  17.497  1.00  0.00     0.058 A 
HETATM    8  C   UNL     1     -37.949 -56.435  18.217  1.00  0.00     0.034 A 
HETATM    9  C   UNL     1     -37.299 -55.095  18.402  1.00  0.00     0.070 C 
HETATM   10  N   UNL     1     -37.344 -57.449  18.899  1.00  0.00    -0.344 N 
HETATM   11  C   UNL     1     -37.860 -58.696  18.883  1.00  0.00     0.103 A 
ATOM     12  HN  UNL     1     -36.492 -57.262  19.427  1.00  0.00     0.167 HD
HETATM   13  C   UNL     1     -39.044 -58.936  18.196  1.00  0.00     0.051 A 
HETATM   14  C   UNL     1     -39.696 -57.897  17.527  1.00  0.00     0.035 A 
BRANCH  11  15
HETATM   15  N   UNL     1     -37.180 -59.679  19.543  1.00  0.00    -0.367 N 
HETATM   16  C   UNL     1     -35.856 -60.178  19.224  1.00  0.00     0.124 C 
HETATM   17  C   UNL     1     -35.497 -61.110  20.387  1.00  0.00     0.021 C 
HETATM   18  C   UNL     1     -36.554 -60.855  21.453  1.00  0.00     0.021 C 
HETATM   19  C   UNL     1     -37.771 -60.379  20.671  1.00  0.00     0.124 C 
ENDBRANCH  11  15
ENDBRANCH   1   7
BRANCH   4  20
HETATM   20  C   UNL     1     -40.280 -53.607  13.762  1.00  0.00     0.090 C 
HETATM   21  C   UNL     1     -40.281 -52.073  13.652  1.00  0.00     0.051 C 
HETATM   22  C   UNL     1     -41.651 -51.452  13.910  1.00  0.00     0.170 C 
HETATM   23  O   UNL     1     -42.679 -52.102  13.157  1.00  0.00    -0.385 OA
HETATM   24  C   UNL     1     -42.758 -53.490  13.480  1.00  0.00     0.127 C 
HETATM   25  C   UNL     1     -41.480 -54.168  12.990  1.00  0.00     0.057 C 
BRANCH  24  26
HETATM   26  C   UNL     1     -43.983 -54.080  12.842  1.00  0.00     0.015 A 
HETATM   27  C   UNL     1     -45.333 -53.433  13.031  1.00  0.00     0.007 A 
HETATM   28  C   UNL     1     -45.029 -54.736  13.714  1.00  0.00     0.007 A 
ENDBRANCH  24  26
ENDBRANCH   4  20
TORSDOF 4
ENDMDL
MODEL 6
REMARK VINA RESULT:      -5.9      3.260      4.361
REMARK  4 active torsions:
REMARK  status: ('A' for Active; 'I' for Inactive)
REMARK    1  A    between atoms: C_5  and  N_22 
REMARK    2  A    between atoms: C_8  and  N_9 
REMARK       I    between atoms: N_9  and  C_10 
REMARK       I    between atoms: C_10  and  N_12 
REMARK    3  A    between atoms: N_12  and  C_13 
REMARK    4  A    between atoms: C_17  and  C_19 
ROOT
HETATM    1  N   UNL     1     -41.730 -48.701  12.542  1.00  0.00    -0.307 N 
HETATM    2  C   UNL     1     -41.873 -47.900  11.424  1.00  0.00     0.321 C 
HETATM    3  O   UNL     1     -42.729 -48.028  10.563  1.00  0.00    -0.247 OA
HETATM    4  N   UNL     1     -40.933 -46.892  11.407  1.00  0.00    -0.338 N 
HETATM    5  H   UNL     1     -41.505 -48.172  13.372  1.00  0.00     0.170 HD
HETATM    6  H   UNL     1     -40.375 -46.780  12.240  1.00  0.00     0.164 HD
ENDROOT
BRANCH   1   7
HETATM    7  C   UNL     1     -42.511 -49.863  12.760  1.00  0.00     0.058 A 
HETATM    8  C   UNL     1     -42.165 -51.161  12.381  1.00  0.00     0.034 A 
HETATM    9  C   UNL     1     -40.859 -51.507  11.726  1.00  0.00     0.070 C 
HETATM   10  N   UNL     1     -42.949 -52.238  12.669  1.00  0.00    -0.344 N 
HETATM   11  C   UNL     1     -44.120 -52.086  13.322  1.00  0.00     0.103 A 
ATOM     12  HN  UNL     1     -42.646 -53.171  12.388  1.00  0.00     0.167 HD
HETATM   13  C   UNL     1     -44.507 -50.818  13.739  1.00  0.00     0.051 A 
HETATM   14  C   UNL     1     -43.695 -49.710  13.485  1.00  0.00     0.035 A 
BRANCH  11  15
HETATM   15  N   UNL     1     -44.884 -53.197  13.536  1.00  0.00    -0.367 N 
HETATM   16  C   UNL     1     -44.520 -54.567  13.233  1.00  0.00     0.124 C 
HETATM   17  C   UNL     1     -45.634 -55.416  13.857  1.00  0.00     0.021 C 
HETATM   18  C   UNL     1     -46.432 -54.459  14.732  1.00  0.00     0.021 C 
HETATM   19  C   UNL     1     -46.224 -53.095  14.087  1.00  0.00     0.124 C 
ENDBRANCH  11  15
ENDBRANCH   1   7
BRANCH   4  20
HETATM   20  C   UNL     1     -40.997 -45.762  10.470  1.00  0.00     0.090 C 
HETATM   21  C   UNL     1     -39.670 -45.005  10.294  1.00  0.00     0.051 C 
HETATM   22  C   UNL     1     -39.356 -44.063  11.452  1.00  0.00     0.170 C 
HETATM   23  O   UNL     1     -40.474 -43.233  11.780  1.00  0.00    -0.385 OA
HETATM   24  C   UNL     1     -41.610 -44.016  12.146  1.00  0.00     0.127 C 
HETATM   25  C   UNL     1     -42.086 -44.775  10.908  1.00  0.00     0.057 C 
BRANCH  24  26
HETATM   26  C   UNL     1     -42.680 -43.113  12.692  1.00  0.00     0.015 A 
HETATM   27  C   UNL     1     -42.313 -41.855  13.439  1.00  0.00     0.007 A 
HETATM   28  C   UNL     1     -42.881 -43.026  14.187  1.00  0.00     0.007 A 
ENDBRANCH  24  26
ENDBRANCH   4  20
TORSDOF 4
ENDMDL
MODEL 7
REMARK VINA RESULT:      -5.9      3.171      9.268
REMARK  4 active torsions:
REMARK  status: ('A' for Active; 'I' for Inactive)
REMARK    1  A    between atoms: C_5  and  N_22 
REMARK    2  A    between atoms: C_8  and  N_9 
REMARK       I    between atoms: N_9  and  C_10 
REMARK       I    between atoms: C_10  and  N_12 
REMARK    3  A    between atoms: N_12  and  C_13 
REMARK    4  A    between atoms: C_17  and  C_19 
ROOT
HETATM    1  N   UNL     1     -43.375 -48.990  12.043  1.00  0.00    -0.307 N 
HETATM    2  C   UNL     1     -42.534 -49.936  12.599  1.00  0.00     0.321 C 
HETATM    3  O   UNL     1     -41.430 -49.716  13.072  1.00  0.00    -0.247 OA
HETATM    4  N   UNL     1     -43.112 -51.188  12.588  1.00  0.00    -0.338 N 
HETATM    5  H   UNL     1     -44.341 -49.129  12.301  1.00  0.00     0.170 HD
HETATM    6  H   UNL     1     -44.084 -51.235  12.321  1.00  0.00     0.164 HD
ENDROOT
BRANCH   1   7
HETATM    7  C   UNL     1     -42.991 -47.640  11.849  1.00  0.00     0.058 A 
HETATM    8  C   UNL     1     -42.723 -47.037  10.619  1.00  0.00     0.034 A 
HETATM    9  C   UNL     1     -42.866 -47.747   9.305  1.00  0.00     0.070 C 
HETATM   10  N   UNL     1     -42.405 -45.716  10.509  1.00  0.00    -0.344 N 
HETATM   11  C   UNL     1     -42.313 -44.934  11.605  1.00  0.00     0.103 A 
ATOM     12  HN  UNL     1     -42.236 -45.314   9.587  1.00  0.00     0.167 HD
HETATM   13  C   UNL     1     -42.586 -45.476  12.855  1.00  0.00     0.051 A 
HETATM   14  C   UNL     1     -42.951 -46.819  12.978  1.00  0.00     0.035 A 
BRANCH  11  15
HETATM   15  N   UNL     1     -41.941 -43.631  11.433  1.00  0.00    -0.367 N 
HETATM   16  C   UNL     1     -42.822 -42.507  11.182  1.00  0.00     0.124 C 
HETATM   17  C   UNL     1     -41.919 -41.272  11.279  1.00  0.00     0.021 C 
HETATM   18  C   UNL     1     -40.607 -41.773  11.868  1.00  0.00     0.021 C 
HETATM   19  C   UNL     1     -40.543 -43.237  11.453  1.00  0.00     0.124 C 
ENDBRANCH  11  15
ENDBRANCH   1   7
BRANCH   4  20
HETATM   20  C   UNL     1     -42.549 -52.329  13.323  1.00  0.00     0.090 C 
HETATM   21  C   UNL     1     -42.889 -53.703  12.721  1.00  0.00     0.051 C 
HETATM   22  C   UNL     1     -44.309 -54.164  13.037  1.00  0.00     0.170 C 
HETATM   23  O   UNL     1     -44.613 -54.034  14.428  1.00  0.00    -0.385 OA
HETATM   24  C   UNL     1     -44.484 -52.680  14.862  1.00  0.00     0.127 C 
HETATM   25  C   UNL     1     -43.009 -52.292  14.786  1.00  0.00     0.057 C 
BRANCH  24  26
HETATM   26  C   UNL     1     -45.023 -52.552  16.258  1.00  0.00     0.015 A 
HETATM   27  C   UNL     1     -45.985 -53.577  16.805  1.00  0.00     0.007 A 
HETATM   28  C   UNL     1     -46.479 -52.201  16.459  1.00  0.00     0.007 A 
ENDBRANCH  24  26
ENDBRANCH   4  20
TORSDOF 4
ENDMDL
MODEL 8
REMARK VINA RESULT:      -5.8      2.701      8.862
REMARK  4 active torsions:
REMARK  status: ('A' for Active; 'I' for Inactive)
REMARK    1  A    between atoms: C_5  and  N_22 
REMARK    2  A    between atoms: C_8  and  N_9 
REMARK       I    between atoms: N_9  and  C_10 
REMARK       I    between atoms: C_10  and  N_12 
REMARK    3  A    between atoms: N_12  and  C_13 
REMARK    4  A    between atoms: C_17  and  C_19 
ROOT
HETATM    1  N   UNL     1     -42.610 -49.929  13.917  1.00  0.00    -0.307 N 
HETATM    2  C   UNL     1     -42.508 -51.022  13.076  1.00  0.00     0.321 C 
HETATM    3  O   UNL     1     -41.891 -51.053  12.023  1.00  0.00    -0.247 OA
HETATM    4  N   UNL     1     -43.172 -52.114  13.592  1.00  0.00    -0.338 N 
HETATM    5  H   UNL     1     -42.539 -50.180  14.892  1.00  0.00     0.170 HD
HETATM    6  H   UNL     1     -43.514 -52.030  14.537  1.00  0.00     0.164 HD
ENDROOT
BRANCH   1   7
HETATM    7  C   UNL     1     -42.093 -48.652  13.584  1.00  0.00     0.058 A 
HETATM    8  C   UNL     1     -40.793 -48.209  13.831  1.00  0.00     0.034 A 
HETATM    9  C   UNL     1     -39.732 -49.074  14.446  1.00  0.00     0.070 C 
HETATM   10  N   UNL     1     -40.354 -46.980  13.437  1.00  0.00    -0.344 N 
HETATM   11  C   UNL     1     -41.180 -46.122  12.805  1.00  0.00     0.103 A 
ATOM     12  HN  UNL     1     -39.389 -46.707  13.623  1.00  0.00     0.167 HD
HETATM   13  C   UNL     1     -42.482 -46.515  12.517  1.00  0.00     0.051 A 
HETATM   14  C   UNL     1     -42.933 -47.787  12.879  1.00  0.00     0.035 A 
BRANCH  11  15
HETATM   15  N   UNL     1     -40.696 -44.886  12.481  1.00  0.00    -0.367 N 
HETATM   16  C   UNL     1     -41.242 -43.977  11.492  1.00  0.00     0.124 C 
HETATM   17  C   UNL     1     -40.454 -42.675  11.681  1.00  0.00     0.021 C 
HETATM   18  C   UNL     1     -39.686 -42.850  12.983  1.00  0.00     0.021 C 
HETATM   19  C   UNL     1     -39.500 -44.356  13.111  1.00  0.00     0.124 C 
ENDBRANCH  11  15
ENDBRANCH   1   7
BRANCH   4  20
HETATM   20  C   UNL     1     -43.033 -53.465  13.032  1.00  0.00     0.090 C 
HETATM   21  C   UNL     1     -44.358 -54.230  12.877  1.00  0.00     0.051 C 
HETATM   22  C   UNL     1     -44.883 -54.798  14.192  1.00  0.00     0.170 C 
HETATM   23  O   UNL     1     -43.869 -55.509  14.907  1.00  0.00    -0.385 OA
HETATM   24  C   UNL     1     -42.758 -54.664  15.206  1.00  0.00     0.127 C 
HETATM   25  C   UNL     1     -42.071 -54.295  13.892  1.00  0.00     0.057 C 
BRANCH  24  26
HETATM   26  C   UNL     1     -41.825 -55.380  16.140  1.00  0.00     0.015 A 
HETATM   27  C   UNL     1     -42.311 -55.864  17.485  1.00  0.00     0.007 A 
HETATM   28  C   UNL     1     -41.375 -54.691  17.408  1.00  0.00     0.007 A 
ENDBRANCH  24  26
ENDBRANCH   4  20
TORSDOF 4
ENDMDL
MODEL 9
REMARK VINA RESULT:      -5.8     14.722     17.589
REMARK  4 active torsions:
REMARK  status: ('A' for Active; 'I' for Inactive)
REMARK    1  A    between atoms: C_5  and  N_22 
REMARK    2  A    between atoms: C_8  and  N_9 
REMARK       I    between atoms: N_9  and  C_10 
REMARK       I    between atoms: C_10  and  N_12 
REMARK    3  A    between atoms: N_12  and  C_13 
REMARK    4  A    between atoms: C_17  and  C_19 
ROOT
HETATM    1  N   UNL     1     -50.708 -48.708  -0.002  1.00  0.00    -0.307 N 
HETATM    2  C   UNL     1     -50.290 -49.940   0.466  1.00  0.00     0.321 C 
HETATM    3  O   UNL     1     -49.973 -50.192   1.618  1.00  0.00    -0.247 OA
HETATM    4  N   UNL     1     -50.306 -50.887  -0.536  1.00  0.00    -0.338 N 
HETATM    5  H   UNL     1     -51.477 -48.779  -0.652  1.00  0.00     0.170 HD
HETATM    6  H   UNL     1     -50.732 -50.615  -1.408  1.00  0.00     0.164 HD
ENDROOT
BRANCH   1   7
HETATM    7  C   UNL     1     -50.702 -47.539   0.799  1.00  0.00     0.058 A 
HETATM    8  C   UNL     1     -51.805 -47.000   1.463  1.00  0.00     0.034 A 
HETATM    9  C   UNL     1     -53.163 -47.640   1.458  1.00  0.00     0.070 C 
HETATM   10  N   UNL     1     -51.711 -45.896   2.257  1.00  0.00    -0.344 N 
HETATM   11  C   UNL     1     -50.533 -45.257   2.415  1.00  0.00     0.103 A 
ATOM     12  HN  UNL     1     -52.541 -45.548   2.737  1.00  0.00     0.167 HD
HETATM   13  C   UNL     1     -49.396 -45.759   1.792  1.00  0.00     0.051 A 
HETATM   14  C   UNL     1     -49.471 -46.913   1.007  1.00  0.00     0.035 A 
BRANCH  11  15
HETATM   15  N   UNL     1     -50.513 -44.127   3.182  1.00  0.00    -0.367 N 
HETATM   16  C   UNL     1     -51.654 -43.307   3.540  1.00  0.00     0.124 C 
HETATM   17  C   UNL     1     -51.110 -42.306   4.566  1.00  0.00     0.021 C 
HETATM   18  C   UNL     1     -49.725 -42.817   4.937  1.00  0.00     0.021 C 
HETATM   19  C   UNL     1     -49.269 -43.596   3.710  1.00  0.00     0.124 C 
ENDBRANCH  11  15
ENDBRANCH   1   7
BRANCH   4  20
HETATM   20  C   UNL     1     -50.140 -52.323  -0.273  1.00  0.00     0.090 C 
HETATM   21  C   UNL     1     -48.939 -52.966  -0.987  1.00  0.00     0.051 C 
HETATM   22  C   UNL     1     -49.193 -53.237  -2.467  1.00  0.00     0.170 C 
HETATM   23  O   UNL     1     -50.438 -53.908  -2.679  1.00  0.00    -0.385 OA
HETATM   24  C   UNL     1     -51.532 -53.139  -2.179  1.00  0.00     0.127 C 
HETATM   25  C   UNL     1     -51.418 -53.079  -0.657  1.00  0.00     0.057 C 
BRANCH  24  26
HETATM   26  C   UNL     1     -52.823 -53.769  -2.617  1.00  0.00     0.015 A 
HETATM   27  C   UNL     1     -52.919 -54.472  -3.948  1.00  0.00     0.007 A 
HETATM   28  C   UNL     1     -53.601 -53.147  -3.754  1.00  0.00     0.007 A 
ENDBRANCH  24  26
ENDBRANCH   4  20
TORSDOF 4
ENDMDL
