MODEL 1
REMARK VINA RESULT:      -6.7      0.000      0.000
REMARK  8 active torsions:
REMARK  status: ('A' for Active; 'I' for Inactive)
REMARK    1  A    between atoms: C_2  and  C_3 
REMARK    2  A    between atoms: C_2  and  N_11 
REMARK    3  A    between atoms: C_3  and  N_4 
REMARK    4  A    between atoms: N_11  and  C_12 
REMARK    5  A    between atoms: C_12  and  C_13 
REMARK    6  A    between atoms: C_13  and  O_14 
REMARK    7  A    between atoms: C_13  and  C_15 
REMARK    8  A    between atoms: C_15  and  N_16 
ROOT
HETATM    1  N   UNL     1     -42.064 -50.079  11.657  1.00  0.00     0.091 N 
HETATM    2  H   UNL     1     -42.277 -50.271  10.672  1.00  0.00     0.316 HD
ENDROOT
BRANCH   1   3
HETATM    3  C   UNL     1     -41.796 -48.649  11.860  1.00  0.00     0.236 C 
HETATM    4  C   UNL     1     -40.507 -48.568  12.690  1.00  0.00     0.044 C 
BRANCH   3   5
HETATM    5  C   UNL     1     -41.645 -47.915  10.513  1.00  0.00     0.183 C 
BRANCH   5   6
HETATM    6  N   UNL     1     -42.871 -47.815   9.753  1.00  0.00    -0.301 N 
HETATM    7  C   UNL     1     -44.094 -47.445  10.231  1.00  0.00     0.118 A 
HETATM    8  C   UNL     1     -44.940 -47.408   9.147  1.00  0.00    -0.028 A 
HETATM    9  C   UNL     1     -46.375 -47.063   9.121  1.00  0.00     0.051 C 
HETATM   10  C   UNL     1     -44.113 -47.763   8.055  1.00  0.00     0.115 A 
HETATM   11  N   UNL     1     -42.848 -47.995   8.421  1.00  0.00    -0.310 N 
ATOM     12  HN  UNL     1     -42.056 -48.248   7.831  1.00  0.00     0.186 HD
ENDBRANCH   5   6
ENDBRANCH   3   5
ENDBRANCH   1   3
BRANCH   1  13
HETATM   13  C   UNL     1     -40.971 -50.977  12.049  1.00  0.00     0.303 C 
BRANCH  13  14
HETATM   14  C   UNL     1     -41.510 -52.417  12.004  1.00  0.00     0.174 C 
BRANCH  14  15
HETATM   15  O   UNL     1     -40.571 -53.222  11.272  1.00  0.00    -0.392 OA
HETATM   16  H   UNL     1     -39.830 -52.644  11.023  1.00  0.00     0.210 HD
ENDBRANCH  14  15
BRANCH  14  17
HETATM   17  C   UNL     1     -41.755 -52.971  13.430  1.00  0.00     0.305 C 
BRANCH  17  18
HETATM   18  N   UNL     1     -43.062 -52.589  14.000  1.00  0.00     0.091 N 
HETATM   19  C   UNL     1     -43.394 -53.279  15.258  1.00  0.00     0.273 C 
HETATM   20  C   UNL     1     -43.770 -54.756  15.090  1.00  0.00     0.034 C 
HETATM   21  C   UNL     1     -44.875 -54.971  14.047  1.00  0.00    -0.015 C 
HETATM   22  C   UNL     1     -46.252 -54.592  14.599  1.00  0.00     0.010 C 
HETATM   23  C   UNL     1     -44.550 -54.199  12.762  1.00  0.00     0.034 C 
HETATM   24  C   UNL     1     -44.157 -52.742  13.032  1.00  0.00     0.273 C 
ENDBRANCH  17  18
ENDBRANCH  14  17
ENDBRANCH  13  14
ENDBRANCH   1  13
TORSDOF 8
ENDMDL
MODEL 2
REMARK VINA RESULT:      -6.0      2.033      3.212
REMARK  8 active torsions:
REMARK  status: ('A' for Active; 'I' for Inactive)
REMARK    1  A    between atoms: C_2  and  C_3 
REMARK    2  A    between atoms: C_2  and  N_11 
REMARK    3  A    between atoms: C_3  and  N_4 
REMARK    4  A    between atoms: N_11  and  C_12 
REMARK    5  A    between atoms: C_12  and  C_13 
REMARK    6  A    between atoms: C_13  and  O_14 
REMARK    7  A    between atoms: C_13  and  C_15 
REMARK    8  A    between atoms: C_15  and  N_16 
ROOT
HETATM    1  N   UNL     1     -42.176 -50.053  11.587  1.00  0.00     0.091 N 
HETATM    2  H   UNL     1     -42.686 -50.545  10.845  1.00  0.00     0.316 HD
ENDROOT
BRANCH   1   3
HETATM    3  C   UNL     1     -41.835 -48.688  11.162  1.00  0.00     0.236 C 
HETATM    4  C   UNL     1     -42.921 -47.773  11.746  1.00  0.00     0.044 C 
BRANCH   3   5
HETATM    5  C   UNL     1     -40.433 -48.285  11.658  1.00  0.00     0.183 C 
BRANCH   5   6
HETATM    6  N   UNL     1     -40.165 -46.865  11.585  1.00  0.00    -0.301 N 
HETATM    7  C   UNL     1     -39.859 -46.043  12.628  1.00  0.00     0.118 A 
HETATM    8  C   UNL     1     -39.603 -44.805  12.085  1.00  0.00    -0.028 A 
HETATM    9  C   UNL     1     -39.224 -43.562  12.785  1.00  0.00     0.051 C 
HETATM   10  C   UNL     1     -39.775 -44.999  10.693  1.00  0.00     0.115 A 
HETATM   11  N   UNL     1     -40.101 -46.259  10.387  1.00  0.00    -0.310 N 
ATOM     12  HN  UNL     1     -40.262 -46.663   9.464  1.00  0.00     0.186 HD
ENDBRANCH   5   6
ENDBRANCH   3   5
ENDBRANCH   1   3
BRANCH   1  13
HETATM   13  C   UNL     1     -41.030 -50.891  11.958  1.00  0.00     0.303 C 
BRANCH  13  14
HETATM   14  C   UNL     1     -41.515 -52.350  12.010  1.00  0.00     0.174 C 
BRANCH  14  15
HETATM   15  O   UNL     1     -40.546 -53.166  11.331  1.00  0.00    -0.392 OA
HETATM   16  H   UNL     1     -40.924 -54.058  11.256  1.00  0.00     0.210 HD
ENDBRANCH  14  15
BRANCH  14  17
HETATM   17  C   UNL     1     -41.741 -52.816  13.470  1.00  0.00     0.305 C 
BRANCH  17  18
HETATM   18  N   UNL     1     -43.078 -52.486  13.999  1.00  0.00     0.091 N 
HETATM   19  C   UNL     1     -43.408 -53.162  15.266  1.00  0.00     0.273 C 
HETATM   20  C   UNL     1     -43.708 -54.660  15.124  1.00  0.00     0.034 C 
HETATM   21  C   UNL     1     -44.775 -54.952  14.061  1.00  0.00    -0.015 C 
HETATM   22  C   UNL     1     -46.182 -54.628  14.572  1.00  0.00     0.010 C 
HETATM   23  C   UNL     1     -44.456 -54.194  12.765  1.00  0.00     0.034 C 
HETATM   24  C   UNL     1     -44.141 -52.714  13.010  1.00  0.00     0.273 C 
ENDBRANCH  17  18
ENDBRANCH  14  17
ENDBRANCH  13  14
ENDBRANCH   1  13
TORSDOF 8
ENDMDL
MODEL 3
REMARK VINA RESULT:      -5.9      1.996      2.971
REMARK  8 active torsions:
REMARK  status: ('A' for Active; 'I' for Inactive)
REMARK    1  A    between atoms: C_2  and  C_3 
REMARK    2  A    between atoms: C_2  and  N_11 
REMARK    3  A    between atoms: C_3  and  N_4 
REMARK    4  A    between atoms: N_11  and  C_12 
REMARK    5  A    between atoms: C_12  and  C_13 
REMARK    6  A    between atoms: C_13  and  O_14 
REMARK    7  A    between atoms: C_13  and  C_15 
REMARK    8  A    between atoms: C_15  and  N_16 
ROOT
HETATM    1  N   UNL     1     -42.303 -50.106  11.768  1.00  0.00     0.091 N 
HETATM    2  H   UNL     1     -42.105 -50.405  10.807  1.00  0.00     0.316 HD
ENDROOT
BRANCH   1   3
HETATM    3  C   UNL     1     -41.949 -48.692  11.953  1.00  0.00     0.236 C 
HETATM    4  C   UNL     1     -40.677 -48.679  12.813  1.00  0.00     0.044 C 
BRANCH   3   5
HETATM    5  C   UNL     1     -41.721 -47.994  10.600  1.00  0.00     0.183 C 
BRANCH   5   6
HETATM    6  N   UNL     1     -42.917 -47.851   9.798  1.00  0.00    -0.301 N 
HETATM    7  C   UNL     1     -44.153 -47.490  10.244  1.00  0.00     0.118 A 
HETATM    8  C   UNL     1     -44.957 -47.401   9.131  1.00  0.00    -0.028 A 
HETATM    9  C   UNL     1     -46.388 -47.043   9.064  1.00  0.00     0.051 C 
HETATM   10  C   UNL     1     -44.092 -47.721   8.057  1.00  0.00     0.115 A 
HETATM   11  N   UNL     1     -42.844 -47.979   8.462  1.00  0.00    -0.310 N 
ATOM     12  HN  UNL     1     -42.032 -48.216   7.893  1.00  0.00     0.186 HD
ENDBRANCH   5   6
ENDBRANCH   3   5
ENDBRANCH   1   3
BRANCH   1  13
HETATM   13  C   UNL     1     -41.615 -51.041  12.666  1.00  0.00     0.303 C 
BRANCH  13  14
HETATM   14  C   UNL     1     -41.934 -52.468  12.188  1.00  0.00     0.174 C 
BRANCH  14  15
HETATM   15  O   UNL     1     -41.204 -52.704  10.972  1.00  0.00    -0.392 OA
HETATM   16  H   UNL     1     -40.387 -52.179  11.020  1.00  0.00     0.210 HD
ENDBRANCH  14  15
BRANCH  14  17
HETATM   17  C   UNL     1     -41.593 -53.516  13.277  1.00  0.00     0.305 C 
BRANCH  17  18
HETATM   18  N   UNL     1     -40.669 -53.016  14.314  1.00  0.00     0.091 N 
HETATM   19  C   UNL     1     -39.275 -53.460  14.143  1.00  0.00     0.273 C 
HETATM   20  C   UNL     1     -39.035 -54.937  14.479  1.00  0.00     0.034 C 
HETATM   21  C   UNL     1     -39.559 -55.319  15.871  1.00  0.00    -0.015 C 
HETATM   22  C   UNL     1     -38.625 -54.824  16.979  1.00  0.00     0.010 C 
HETATM   23  C   UNL     1     -40.989 -54.799  16.062  1.00  0.00     0.034 C 
HETATM   24  C   UNL     1     -41.137 -53.324  15.672  1.00  0.00     0.273 C 
ENDBRANCH  17  18
ENDBRANCH  14  17
ENDBRANCH  13  14
ENDBRANCH   1  13
TORSDOF 8
ENDMDL
MODEL 4
REMARK VINA RESULT:      -5.9      1.793      2.552
REMARK  8 active torsions:
REMARK  status: ('A' for Active; 'I' for Inactive)
REMARK    1  A    between atoms: C_2  and  C_3 
REMARK    2  A    between atoms: C_2  and  N_11 
REMARK    3  A    between atoms: C_3  and  N_4 
REMARK    4  A    between atoms: N_11  and  C_12 
REMARK    5  A    between atoms: C_12  and  C_13 
REMARK    6  A    between atoms: C_13  and  O_14 
REMARK    7  A    between atoms: C_13  and  C_15 
REMARK    8  A    between atoms: C_15  and  N_16 
ROOT
HETATM    1  N   UNL     1     -40.426 -47.267  10.857  1.00  0.00     0.091 N 
HETATM    2  H   UNL     1     -39.624 -46.631  10.788  1.00  0.00     0.316 HD
ENDROOT
BRANCH   1   3
HETATM    3  C   UNL     1     -41.656 -46.519  11.153  1.00  0.00     0.236 C 
HETATM    4  C   UNL     1     -41.259 -45.417  12.146  1.00  0.00     0.044 C 
BRANCH   3   5
HETATM    5  C   UNL     1     -42.268 -45.926   9.869  1.00  0.00     0.183 C 
BRANCH   5   6
HETATM    6  N   UNL     1     -43.228 -46.790   9.217  1.00  0.00    -0.301 N 
HETATM    7  C   UNL     1     -44.503 -47.041   9.629  1.00  0.00     0.118 A 
HETATM    8  C   UNL     1     -45.071 -47.844   8.667  1.00  0.00    -0.028 A 
HETATM    9  C   UNL     1     -46.438 -48.400   8.633  1.00  0.00     0.051 C 
HETATM   10  C   UNL     1     -44.044 -48.008   7.707  1.00  0.00     0.115 A 
HETATM   11  N   UNL     1     -42.926 -47.351   8.034  1.00  0.00    -0.310 N 
ATOM     12  HN  UNL     1     -42.053 -47.290   7.510  1.00  0.00     0.186 HD
ENDBRANCH   5   6
ENDBRANCH   3   5
ENDBRANCH   1   3
BRANCH   1  13
HETATM   13  C   UNL     1     -40.079 -48.301  11.840  1.00  0.00     0.303 C 
BRANCH  13  14
HETATM   14  C   UNL     1     -40.897 -49.560  11.501  1.00  0.00     0.174 C 
BRANCH  14  15
HETATM   15  O   UNL     1     -40.479 -50.028  10.208  1.00  0.00    -0.392 OA
HETATM   16  H   UNL     1     -39.713 -50.610  10.347  1.00  0.00     0.210 HD
ENDBRANCH  14  15
BRANCH  14  17
HETATM   17  C   UNL     1     -40.730 -50.648  12.591  1.00  0.00     0.305 C 
BRANCH  17  18
HETATM   18  N   UNL     1     -41.976 -51.380  12.895  1.00  0.00     0.091 N 
HETATM   19  C   UNL     1     -42.247 -51.532  14.335  1.00  0.00     0.273 C 
HETATM   20  C   UNL     1     -41.342 -52.547  15.045  1.00  0.00     0.034 C 
HETATM   21  C   UNL     1     -41.326 -53.915  14.350  1.00  0.00    -0.015 C 
HETATM   22  C   UNL     1     -42.601 -54.711  14.645  1.00  0.00     0.010 C 
HETATM   23  C   UNL     1     -41.105 -53.741  12.842  1.00  0.00     0.034 C 
HETATM   24  C   UNL     1     -42.032 -52.687  12.227  1.00  0.00     0.273 C 
ENDBRANCH  17  18
ENDBRANCH  14  17
ENDBRANCH  13  14
ENDBRANCH   1  13
TORSDOF 8
ENDMDL
MODEL 5
REMARK VINA RESULT:      -5.9      2.327      3.453
REMARK  8 active torsions:
REMARK  status: ('A' for Active; 'I' for Inactive)
REMARK    1  A    between atoms: C_2  and  C_3 
REMARK    2  A    between atoms: C_2  and  N_11 
REMARK    3  A    between atoms: C_3  and  N_4 
REMARK    4  A    between atoms: N_11  and  C_12 
REMARK    5  A    between atoms: C_12  and  C_13 
REMARK    6  A    between atoms: C_13  and  O_14 
REMARK    7  A    between atoms: C_13  and  C_15 
REMARK    8  A    between atoms: C_15  and  N_16 
ROOT
HETATM    1  N   UNL     1     -42.103 -49.890  11.632  1.00  0.00     0.091 N 
HETATM    2  H   UNL     1     -42.834 -50.362  11.089  1.00  0.00     0.316 HD
ENDROOT
BRANCH   1   3
HETATM    3  C   UNL     1     -41.743 -48.607  11.011  1.00  0.00     0.236 C 
HETATM    4  C   UNL     1     -43.065 -47.868  10.758  1.00  0.00     0.044 C 
BRANCH   3   5
HETATM    5  C   UNL     1     -40.807 -47.791  11.922  1.00  0.00     0.183 C 
BRANCH   5   6
HETATM    6  N   UNL     1     -40.546 -46.448  11.452  1.00  0.00    -0.301 N 
HETATM    7  C   UNL     1     -40.905 -45.288  12.071  1.00  0.00     0.118 A 
HETATM    8  C   UNL     1     -40.380 -44.266  11.315  1.00  0.00    -0.028 A 
HETATM    9  C   UNL     1     -40.480 -42.812  11.550  1.00  0.00     0.051 C 
HETATM   10  C   UNL     1     -39.708 -44.929  10.260  1.00  0.00     0.115 A 
HETATM   11  N   UNL     1     -39.795 -46.260  10.353  1.00  0.00    -0.310 N 
ATOM     12  HN  UNL     1     -39.388 -46.964   9.737  1.00  0.00     0.186 HD
ENDBRANCH   5   6
ENDBRANCH   3   5
ENDBRANCH   1   3
BRANCH   1  13
HETATM   13  C   UNL     1     -40.992 -50.838  11.783  1.00  0.00     0.303 C 
BRANCH  13  14
HETATM   14  C   UNL     1     -41.599 -52.237  11.995  1.00  0.00     0.174 C 
BRANCH  14  15
HETATM   15  O   UNL     1     -40.623 -53.211  11.591  1.00  0.00    -0.392 OA
HETATM   16  H   UNL     1     -40.072 -52.799  10.904  1.00  0.00     0.210 HD
ENDBRANCH  14  15
BRANCH  14  17
HETATM   17  C   UNL     1     -42.043 -52.440  13.465  1.00  0.00     0.305 C 
BRANCH  17  18
HETATM   18  N   UNL     1     -43.338 -53.135  13.604  1.00  0.00     0.091 N 
HETATM   19  C   UNL     1     -44.418 -52.563  12.780  1.00  0.00     0.273 C 
HETATM   20  C   UNL     1     -44.955 -51.218  13.284  1.00  0.00     0.034 C 
HETATM   21  C   UNL     1     -45.367 -51.262  14.762  1.00  0.00    -0.015 C 
HETATM   22  C   UNL     1     -46.711 -51.970  14.951  1.00  0.00     0.010 C 
HETATM   23  C   UNL     1     -44.262 -51.914  15.602  1.00  0.00     0.034 C 
HETATM   24  C   UNL     1     -43.768 -53.236  15.005  1.00  0.00     0.273 C 
ENDBRANCH  17  18
ENDBRANCH  14  17
ENDBRANCH  13  14
ENDBRANCH   1  13
TORSDOF 8
ENDMDL
MODEL 6
REMARK VINA RESULT:      -5.7      1.873      2.714
REMARK  8 active torsions:
REMARK  status: ('A' for Active; 'I' for Inactive)
REMARK    1  A    between atoms: C_2  and  C_3 
REMARK    2  A    between atoms: C_2  and  N_11 
REMARK    3  A    between atoms: C_3  and  N_4 
REMARK    4  A    between atoms: N_11  and  C_12 
REMARK    5  A    between atoms: C_12  and  C_13 
REMARK    6  A    between atoms: C_13  and  O_14 
REMARK    7  A    between atoms: C_13  and  C_15 
REMARK    8  A    between atoms: C_15  and  N_16 
ROOT
HETATM    1  N   UNL     1     -39.349 -51.570  13.338  1.00  0.00     0.091 N 
HETATM    2  H   UNL     1     -38.690 -51.762  14.101  1.00  0.00     0.316 HD
ENDROOT
BRANCH   1   3
HETATM    3  C   UNL     1     -39.621 -50.129  13.239  1.00  0.00     0.236 C 
HETATM    4  C   UNL     1     -38.667 -49.444  14.228  1.00  0.00     0.044 C 
BRANCH   3   5
HETATM    5  C   UNL     1     -39.404 -49.619  11.802  1.00  0.00     0.183 C 
BRANCH   5   6
HETATM    6  N   UNL     1     -40.423 -48.702  11.340  1.00  0.00    -0.301 N 
HETATM    7  C   UNL     1     -41.761 -48.951  11.256  1.00  0.00     0.118 A 
HETATM    8  C   UNL     1     -42.350 -47.776  10.849  1.00  0.00    -0.028 A 
HETATM    9  C   UNL     1     -43.781 -47.509  10.606  1.00  0.00     0.051 C 
HETATM   10  C   UNL     1     -41.266 -46.873  10.727  1.00  0.00     0.115 A 
HETATM   11  N   UNL     1     -40.094 -47.433  11.043  1.00  0.00    -0.310 N 
ATOM     12  HN  UNL     1     -39.170 -47.000  11.055  1.00  0.00     0.186 HD
ENDBRANCH   5   6
ENDBRANCH   3   5
ENDBRANCH   1   3
BRANCH   1  13
HETATM   13  C   UNL     1     -40.531 -52.411  13.561  1.00  0.00     0.303 C 
BRANCH  13  14
HETATM   14  C   UNL     1     -41.320 -52.467  12.241  1.00  0.00     0.174 C 
BRANCH  14  15
HETATM   15  O   UNL     1     -40.698 -53.447  11.392  1.00  0.00    -0.392 OA
HETATM   16  H   UNL     1     -39.995 -52.994  10.897  1.00  0.00     0.210 HD
ENDBRANCH  14  15
BRANCH  14  17
HETATM   17  C   UNL     1     -42.815 -52.787  12.492  1.00  0.00     0.305 C 
BRANCH  17  18
HETATM   18  N   UNL     1     -43.326 -52.268  13.776  1.00  0.00     0.091 N 
HETATM   19  C   UNL     1     -44.190 -53.212  14.504  1.00  0.00     0.273 C 
HETATM   20  C   UNL     1     -45.584 -53.396  13.892  1.00  0.00     0.034 C 
HETATM   21  C   UNL     1     -46.310 -52.063  13.663  1.00  0.00    -0.015 C 
HETATM   22  C   UNL     1     -46.863 -51.491  14.972  1.00  0.00     0.010 C 
HETATM   23  C   UNL     1     -45.381 -51.066  12.959  1.00  0.00     0.034 C 
HETATM   24  C   UNL     1     -44.003 -50.973  13.623  1.00  0.00     0.273 C 
ENDBRANCH  17  18
ENDBRANCH  14  17
ENDBRANCH  13  14
ENDBRANCH   1  13
TORSDOF 8
ENDMDL
MODEL 7
REMARK VINA RESULT:      -5.6      3.763      6.746
REMARK  8 active torsions:
REMARK  status: ('A' for Active; 'I' for Inactive)
REMARK    1  A    between atoms: C_2  and  C_3 
REMARK    2  A    between atoms: C_2  and  N_11 
REMARK    3  A    between atoms: C_3  and  N_4 
REMARK    4  A    between atoms: N_11  and  C_12 
REMARK    5  A    between atoms: C_12  and  C_13 
REMARK    6  A    between atoms: C_13  and  O_14 
REMARK    7  A    between atoms: C_13  and  C_15 
REMARK    8  A    between atoms: C_15  and  N_16 
ROOT
HETATM    1  N   UNL     1     -43.107 -52.930  13.593  1.00  0.00     0.091 N 
HETATM    2  H   UNL     1     -42.421 -52.749  14.334  1.00  0.00     0.316 HD
ENDROOT
BRANCH   1   3
HETATM    3  C   UNL     1     -43.505 -54.344  13.588  1.00  0.00     0.236 C 
HETATM    4  C   UNL     1     -43.068 -54.917  14.944  1.00  0.00     0.044 C 
BRANCH   3   5
HETATM    5  C   UNL     1     -45.024 -54.494  13.378  1.00  0.00     0.183 C 
BRANCH   5   6
HETATM    6  N   UNL     1     -45.804 -53.389  13.890  1.00  0.00    -0.301 N 
HETATM    7  C   UNL     1     -46.249 -53.235  15.169  1.00  0.00     0.118 A 
HETATM    8  C   UNL     1     -46.869 -52.008  15.220  1.00  0.00    -0.028 A 
HETATM    9  C   UNL     1     -47.520 -51.361  16.376  1.00  0.00     0.051 C 
HETATM   10  C   UNL     1     -46.729 -51.498  13.907  1.00  0.00     0.115 A 
HETATM   11  N   UNL     1     -46.065 -52.333  13.100  1.00  0.00    -0.310 N 
ATOM     12  HN  UNL     1     -45.815 -52.200  12.120  1.00  0.00     0.186 HD
ENDBRANCH   5   6
ENDBRANCH   3   5
ENDBRANCH   1   3
BRANCH   1  13
HETATM   13  C   UNL     1     -42.528 -52.444  12.335  1.00  0.00     0.303 C 
BRANCH  13  14
HETATM   14  C   UNL     1     -41.006 -52.658  12.409  1.00  0.00     0.174 C 
BRANCH  14  15
HETATM   15  O   UNL     1     -40.620 -53.498  11.309  1.00  0.00    -0.392 OA
HETATM   16  H   UNL     1     -40.052 -54.201  11.668  1.00  0.00     0.210 HD
ENDBRANCH  14  15
BRANCH  14  17
HETATM   17  C   UNL     1     -40.247 -51.308  12.398  1.00  0.00     0.305 C 
BRANCH  17  18
HETATM   18  N   UNL     1     -39.383 -51.101  13.577  1.00  0.00     0.091 N 
HETATM   19  C   UNL     1     -39.837 -50.024  14.473  1.00  0.00     0.273 C 
HETATM   20  C   UNL     1     -39.620 -48.609  13.923  1.00  0.00     0.034 C 
HETATM   21  C   UNL     1     -38.173 -48.365  13.473  1.00  0.00    -0.015 C 
HETATM   22  C   UNL     1     -37.242 -48.139  14.668  1.00  0.00     0.010 C 
HETATM   23  C   UNL     1     -37.689 -49.522  12.590  1.00  0.00     0.034 C 
HETATM   24  C   UNL     1     -37.976 -50.895  13.207  1.00  0.00     0.273 C 
ENDBRANCH  17  18
ENDBRANCH  14  17
ENDBRANCH  13  14
ENDBRANCH   1  13
TORSDOF 8
ENDMDL
MODEL 8
REMARK VINA RESULT:      -5.6      3.670      4.928
REMARK  8 active torsions:
REMARK  status: ('A' for Active; 'I' for Inactive)
REMARK    1  A    between atoms: C_2  and  C_3 
REMARK    2  A    between atoms: C_2  and  N_11 
REMARK    3  A    between atoms: C_3  and  N_4 
REMARK    4  A    between atoms: N_11  and  C_12 
REMARK    5  A    between atoms: C_12  and  C_13 
REMARK    6  A    between atoms: C_13  and  O_14 
REMARK    7  A    between atoms: C_13  and  C_15 
REMARK    8  A    between atoms: C_15  and  N_16 
ROOT
HETATM    1  N   UNL     1     -41.335 -48.102  10.497  1.00  0.00     0.091 N 
HETATM    2  H   UNL     1     -40.353 -48.328  10.307  1.00  0.00     0.316 HD
ENDROOT
BRANCH   1   3
HETATM    3  C   UNL     1     -41.492 -46.669  10.782  1.00  0.00     0.236 C 
HETATM    4  C   UNL     1     -40.074 -46.080  10.804  1.00  0.00     0.044 C 
BRANCH   3   5
HETATM    5  C   UNL     1     -42.369 -45.983   9.717  1.00  0.00     0.183 C 
BRANCH   5   6
HETATM    6  N   UNL     1     -43.369 -46.847   9.129  1.00  0.00    -0.301 N 
HETATM    7  C   UNL     1     -44.615 -47.098   9.621  1.00  0.00     0.118 A 
HETATM    8  C   UNL     1     -45.243 -47.902   8.698  1.00  0.00    -0.028 A 
HETATM    9  C   UNL     1     -46.610 -48.457   8.751  1.00  0.00     0.051 C 
HETATM   10  C   UNL     1     -44.280 -48.065   7.674  1.00  0.00     0.115 A 
HETATM   11  N   UNL     1     -43.143 -47.408   7.928  1.00  0.00    -0.310 N 
ATOM     12  HN  UNL     1     -42.306 -47.348   7.349  1.00  0.00     0.186 HD
ENDBRANCH   5   6
ENDBRANCH   3   5
ENDBRANCH   1   3
BRANCH   1  13
HETATM   13  C   UNL     1     -41.789 -49.000  11.566  1.00  0.00     0.303 C 
BRANCH  13  14
HETATM   14  C   UNL     1     -40.870 -50.233  11.562  1.00  0.00     0.174 C 
BRANCH  14  15
HETATM   15  O   UNL     1     -40.060 -50.181  10.376  1.00  0.00    -0.392 OA
HETATM   16  H   UNL     1     -40.166 -49.294   9.993  1.00  0.00     0.210 HD
ENDBRANCH  14  15
BRANCH  14  17
HETATM   17  C   UNL     1     -40.007 -50.296  12.847  1.00  0.00     0.305 C 
BRANCH  17  18
HETATM   18  N   UNL     1     -39.996 -49.036  13.617  1.00  0.00     0.091 N 
HETATM   19  C   UNL     1     -38.781 -48.225  13.426  1.00  0.00     0.273 C 
HETATM   20  C   UNL     1     -37.530 -48.788  14.111  1.00  0.00     0.034 C 
HETATM   21  C   UNL     1     -37.753 -49.087  15.600  1.00  0.00    -0.015 C 
HETATM   22  C   UNL     1     -37.743 -47.805  16.438  1.00  0.00     0.010 C 
HETATM   23  C   UNL     1     -39.052 -49.879  15.794  1.00  0.00     0.034 C 
HETATM   24  C   UNL     1     -40.239 -49.257  15.049  1.00  0.00     0.273 C 
ENDBRANCH  17  18
ENDBRANCH  14  17
ENDBRANCH  13  14
ENDBRANCH   1  13
TORSDOF 8
ENDMDL
MODEL 9
REMARK VINA RESULT:      -5.4      2.202      6.065
REMARK  8 active torsions:
REMARK  status: ('A' for Active; 'I' for Inactive)
REMARK    1  A    between atoms: C_2  and  C_3 
REMARK    2  A    between atoms: C_2  and  N_11 
REMARK    3  A    between atoms: C_3  and  N_4 
REMARK    4  A    between atoms: N_11  and  C_12 
REMARK    5  A    between atoms: C_12  and  C_13 
REMARK    6  A    between atoms: C_13  and  O_14 
REMARK    7  A    between atoms: C_13  and  C_15 
REMARK    8  A    between atoms: C_15  and  N_16 
ROOT
HETATM    1  N   UNL     1     -42.275 -53.050  13.912  1.00  0.00     0.091 N 
HETATM    2  H   UNL     1     -42.487 -52.741  14.867  1.00  0.00     0.316 HD
ENDROOT
BRANCH   1   3
HETATM    3  C   UNL     1     -42.868 -54.370  13.651  1.00  0.00     0.236 C 
HETATM    4  C   UNL     1     -43.104 -55.012  15.025  1.00  0.00     0.044 C 
BRANCH   3   5
HETATM    5  C   UNL     1     -44.182 -54.242  12.857  1.00  0.00     0.183 C 
BRANCH   5   6
HETATM    6  N   UNL     1     -45.045 -53.174  13.309  1.00  0.00    -0.301 N 
HETATM    7  C   UNL     1     -45.758 -53.144  14.471  1.00  0.00     0.118 A 
HETATM    8  C   UNL     1     -46.363 -51.910  14.524  1.00  0.00    -0.028 A 
HETATM    9  C   UNL     1     -47.246 -51.371  15.578  1.00  0.00     0.051 C 
HETATM   10  C   UNL     1     -45.934 -51.266  13.339  1.00  0.00     0.115 A 
HETATM   11  N   UNL     1     -45.117 -52.030  12.606  1.00  0.00    -0.310 N 
ATOM     12  HN  UNL     1     -44.658 -51.800  11.725  1.00  0.00     0.186 HD
ENDBRANCH   5   6
ENDBRANCH   3   5
ENDBRANCH   1   3
BRANCH   1  13
HETATM   13  C   UNL     1     -40.819 -52.981  13.744  1.00  0.00     0.303 C 
BRANCH  13  14
HETATM   14  C   UNL     1     -40.536 -52.302  12.393  1.00  0.00     0.174 C 
BRANCH  14  15
HETATM   15  O   UNL     1     -40.550 -53.315  11.374  1.00  0.00    -0.392 OA
HETATM   16  H   UNL     1     -40.005 -54.053  11.694  1.00  0.00     0.210 HD
ENDBRANCH  14  15
BRANCH  14  17
HETATM   17  C   UNL     1     -41.562 -51.177  12.103  1.00  0.00     0.305 C 
BRANCH  17  18
HETATM   18  N   UNL     1     -41.166 -49.860  12.637  1.00  0.00     0.091 N 
HETATM   19  C   UNL     1     -42.232 -49.167  13.380  1.00  0.00     0.273 C 
HETATM   20  C   UNL     1     -43.353 -48.601  12.500  1.00  0.00     0.034 C 
HETATM   21  C   UNL     1     -42.824 -47.717  11.363  1.00  0.00    -0.015 C 
HETATM   22  C   UNL     1     -42.406 -46.334  11.873  1.00  0.00     0.010 C 
HETATM   23  C   UNL     1     -41.672 -48.421  10.634  1.00  0.00     0.034 C 
HETATM   24  C   UNL     1     -40.618 -48.979  11.596  1.00  0.00     0.273 C 
ENDBRANCH  17  18
ENDBRANCH  14  17
ENDBRANCH  13  14
ENDBRANCH   1  13
TORSDOF 8
ENDMDL
