MODEL 1
REMARK VINA RESULT:      -5.9      0.000      0.000
REMARK  4 active torsions:
REMARK  status: ('A' for Active; 'I' for Inactive)
REMARK    1  A    between atoms: C_2  and  N_3 
REMARK    2  A    between atoms: C_2  and  C_13 
REMARK       I    between atoms: N_3  and  C_4 
REMARK       I    between atoms: C_4  and  N_6 
REMARK    3  A    between atoms: N_6  and  C_7 
REMARK       I    between atoms: C_13  and  N_15 
REMARK    4  A    between atoms: N_15  and  C_16 
ROOT
HETATM    1  N   UNL     1     -42.652 -48.624  11.082  1.00  0.00    -0.330 N 
HETATM    2  C   UNL     1     -42.904 -47.297  11.226  1.00  0.00     0.322 C 
HETATM    3  O   UNL     1     -42.375 -46.617  12.102  1.00  0.00    -0.247 OA
HETATM    4  N   UNL     1     -43.729 -46.727  10.298  1.00  0.00    -0.289 N 
HETATM    5  H   UNL     1     -43.307 -49.149  10.507  1.00  0.00     0.165 HD
HETATM    6  H   UNL     1     -43.799 -45.718  10.309  1.00  0.00     0.172 HD
ENDROOT
BRANCH   1   7
HETATM    7  C   UNL     1     -41.724 -49.373  11.912  1.00  0.00     0.174 C 
HETATM    8  C   UNL     1     -40.573 -49.885  11.053  1.00  0.00     0.042 C 
BRANCH   7   9
HETATM    9  C   UNL     1     -42.452 -50.553  12.582  1.00  0.00     0.240 C 
HETATM   10  O   UNL     1     -41.946 -51.665  12.717  1.00  0.00    -0.271 OA
HETATM   11  N   UNL     1     -43.739 -50.256  12.988  1.00  0.00    -0.355 N 
HETATM   12  H   UNL     1     -44.183 -49.455  12.542  1.00  0.00     0.162 HD
BRANCH  11  13
HETATM   13  C   UNL     1     -44.557 -51.233  13.670  1.00  0.00     0.084 C 
HETATM   14  C   UNL     1     -45.956 -51.381  13.067  1.00  0.00     0.025 C 
HETATM   15  C   UNL     1     -46.899 -51.628  14.247  1.00  0.00     0.002 C 
HETATM   16  C   UNL     1     -46.017 -51.712  15.487  1.00  0.00     0.002 C 
HETATM   17  C   UNL     1     -44.803 -50.872  15.130  1.00  0.00     0.025 C 
ENDBRANCH  11  13
ENDBRANCH   7   9
ENDBRANCH   1   7
BRANCH   4  18
HETATM   18  C   UNL     1     -44.458 -47.418   9.374  1.00  0.00     0.152 A 
HETATM   19  N   UNL     1     -45.684 -47.868   9.504  1.00  0.00    -0.346 N 
HETATM   20  C   UNL     1     -46.068 -48.477   8.327  1.00  0.00     0.097 A 
ATOM     21  HN  UNL     1     -46.260 -47.782  10.341  1.00  0.00     0.167 HD
HETATM   22  C   UNL     1     -45.102 -48.531   7.344  1.00  0.00     0.070 A 
HETATM   23  S   UNL     1     -43.687 -47.717   7.885  1.00  0.00    -0.064 SA
ENDBRANCH   4  18
TORSDOF 4
ENDMDL
MODEL 2
REMARK VINA RESULT:      -5.8      1.933      2.242
REMARK  4 active torsions:
REMARK  status: ('A' for Active; 'I' for Inactive)
REMARK    1  A    between atoms: C_2  and  N_3 
REMARK    2  A    between atoms: C_2  and  C_13 
REMARK       I    between atoms: N_3  and  C_4 
REMARK       I    between atoms: C_4  and  N_6 
REMARK    3  A    between atoms: N_6  and  C_7 
REMARK       I    between atoms: C_13  and  N_15 
REMARK    4  A    between atoms: N_15  and  C_16 
ROOT
HETATM    1  N   UNL     1     -41.884 -49.891  11.526  1.00  0.00    -0.330 N 
HETATM    2  C   UNL     1     -40.907 -48.980  11.277  1.00  0.00     0.322 C 
HETATM    3  O   UNL     1     -39.810 -49.022  11.830  1.00  0.00    -0.247 OA
HETATM    4  N   UNL     1     -41.175 -48.041  10.321  1.00  0.00    -0.289 N 
HETATM    5  H   UNL     1     -42.823 -49.641  11.225  1.00  0.00     0.165 HD
HETATM    6  H   UNL     1     -40.404 -47.459  10.026  1.00  0.00     0.172 HD
ENDROOT
BRANCH   1   7
HETATM    7  C   UNL     1     -41.737 -51.016  12.434  1.00  0.00     0.174 C 
HETATM    8  C   UNL     1     -41.290 -52.246  11.651  1.00  0.00     0.042 C 
BRANCH   7   9
HETATM    9  C   UNL     1     -43.074 -51.297  13.145  1.00  0.00     0.240 C 
HETATM   10  O   UNL     1     -43.395 -50.768  14.206  1.00  0.00    -0.271 OA
HETATM   11  N   UNL     1     -43.866 -52.225  12.495  1.00  0.00    -0.355 N 
HETATM   12  H   UNL     1     -43.394 -52.847  11.841  1.00  0.00     0.162 HD
BRANCH  11  13
HETATM   13  C   UNL     1     -45.173 -52.583  13.000  1.00  0.00     0.084 C 
HETATM   14  C   UNL     1     -46.078 -51.375  13.253  1.00  0.00     0.025 C 
HETATM   15  C   UNL     1     -46.893 -51.716  14.504  1.00  0.00     0.002 C 
HETATM   16  C   UNL     1     -46.512 -53.141  14.885  1.00  0.00     0.002 C 
HETATM   17  C   UNL     1     -45.102 -53.301  14.342  1.00  0.00     0.025 C 
ENDBRANCH  11  13
ENDBRANCH   7   9
ENDBRANCH   1   7
BRANCH   4  18
HETATM   18  C   UNL     1     -42.399 -47.837   9.751  1.00  0.00     0.152 A 
HETATM   19  N   UNL     1     -42.739 -48.052   8.502  1.00  0.00    -0.346 N 
HETATM   20  C   UNL     1     -44.078 -47.757   8.342  1.00  0.00     0.097 A 
ATOM     21  HN  UNL     1     -42.115 -48.383   7.767  1.00  0.00     0.167 HD
HETATM   22  C   UNL     1     -44.714 -47.265   9.463  1.00  0.00     0.070 A 
HETATM   23  S   UNL     1     -43.617 -47.248  10.786  1.00  0.00    -0.064 SA
ENDBRANCH   4  18
TORSDOF 4
ENDMDL
MODEL 3
REMARK VINA RESULT:      -5.6      2.747      5.911
REMARK  4 active torsions:
REMARK  status: ('A' for Active; 'I' for Inactive)
REMARK    1  A    between atoms: C_2  and  N_3 
REMARK    2  A    between atoms: C_2  and  C_13 
REMARK       I    between atoms: N_3  and  C_4 
REMARK       I    between atoms: C_4  and  N_6 
REMARK    3  A    between atoms: N_6  and  C_7 
REMARK       I    between atoms: C_13  and  N_15 
REMARK    4  A    between atoms: N_15  and  C_16 
ROOT
HETATM    1  N   UNL     1     -42.579 -50.958  12.667  1.00  0.00    -0.330 N 
HETATM    2  C   UNL     1     -42.232 -52.170  12.161  1.00  0.00     0.322 C 
HETATM    3  O   UNL     1     -41.134 -52.382  11.652  1.00  0.00    -0.247 OA
HETATM    4  N   UNL     1     -43.145 -53.178  12.306  1.00  0.00    -0.289 N 
HETATM    5  H   UNL     1     -43.570 -50.805  12.836  1.00  0.00     0.165 HD
HETATM    6  H   UNL     1     -42.834 -54.110  12.070  1.00  0.00     0.172 HD
ENDROOT
BRANCH   1   7
HETATM    7  C   UNL     1     -41.698 -49.803  12.692  1.00  0.00     0.174 C 
HETATM    8  C   UNL     1     -42.069 -48.906  13.869  1.00  0.00     0.042 C 
BRANCH   7   9
HETATM    9  C   UNL     1     -41.818 -49.020  11.371  1.00  0.00     0.240 C 
HETATM   10  O   UNL     1     -40.906 -48.942  10.552  1.00  0.00    -0.271 OA
HETATM   11  N   UNL     1     -43.035 -48.386  11.208  1.00  0.00    -0.355 N 
HETATM   12  H   UNL     1     -43.578 -48.218  12.054  1.00  0.00     0.162 HD
BRANCH  11  13
HETATM   13  C   UNL     1     -43.338 -47.636  10.010  1.00  0.00     0.084 C 
HETATM   14  C   UNL     1     -42.831 -46.192  10.053  1.00  0.00     0.025 C 
HETATM   15  C   UNL     1     -43.887 -45.354   9.327  1.00  0.00     0.002 C 
HETATM   16  C   UNL     1     -44.924 -46.339   8.802  1.00  0.00     0.002 C 
HETATM   17  C   UNL     1     -44.836 -47.512   9.763  1.00  0.00     0.025 C 
ENDBRANCH  11  13
ENDBRANCH   7   9
ENDBRANCH   1   7
BRANCH   4  18
HETATM   18  C   UNL     1     -44.429 -53.009  12.738  1.00  0.00     0.152 A 
HETATM   19  N   UNL     1     -45.423 -52.461  12.080  1.00  0.00    -0.346 N 
HETATM   20  C   UNL     1     -46.564 -52.522  12.854  1.00  0.00     0.097 A 
ATOM     21  HN  UNL     1     -45.362 -52.055  11.147  1.00  0.00     0.167 HD
HETATM   22  C   UNL     1     -46.398 -53.062  14.112  1.00  0.00     0.070 A 
HETATM   23  S   UNL     1     -44.772 -53.588  14.303  1.00  0.00    -0.064 SA
ENDBRANCH   4  18
TORSDOF 4
ENDMDL
MODEL 4
REMARK VINA RESULT:      -5.6      3.284      4.259
REMARK  4 active torsions:
REMARK  status: ('A' for Active; 'I' for Inactive)
REMARK    1  A    between atoms: C_2  and  N_3 
REMARK    2  A    between atoms: C_2  and  C_13 
REMARK       I    between atoms: N_3  and  C_4 
REMARK       I    between atoms: C_4  and  N_6 
REMARK    3  A    between atoms: N_6  and  C_7 
REMARK       I    between atoms: C_13  and  N_15 
REMARK    4  A    between atoms: N_15  and  C_16 
ROOT
HETATM    1  N   UNL     1     -40.530 -51.466  13.001  1.00  0.00    -0.330 N 
HETATM    2  C   UNL     1     -39.250 -51.251  12.600  1.00  0.00     0.322 C 
HETATM    3  O   UNL     1     -38.319 -51.970  12.957  1.00  0.00    -0.247 OA
HETATM    4  N   UNL     1     -39.049 -50.230  11.715  1.00  0.00    -0.289 N 
HETATM    5  H   UNL     1     -41.181 -50.696  12.867  1.00  0.00     0.165 HD
HETATM    6  H   UNL     1     -38.130 -50.162  11.300  1.00  0.00     0.172 HD
ENDROOT
BRANCH   1   7
HETATM    7  C   UNL     1     -40.944 -52.565  13.856  1.00  0.00     0.174 C 
HETATM    8  C   UNL     1     -41.301 -53.773  12.996  1.00  0.00     0.042 C 
BRANCH   7   9
HETATM    9  C   UNL     1     -42.156 -52.143  14.707  1.00  0.00     0.240 C 
HETATM   10  O   UNL     1     -42.060 -51.445  15.714  1.00  0.00    -0.271 OA
HETATM   11  N   UNL     1     -43.359 -52.650  14.253  1.00  0.00    -0.355 N 
HETATM   12  H   UNL     1     -43.308 -53.469  13.649  1.00  0.00     0.162 HD
BRANCH  11  13
HETATM   13  C   UNL     1     -44.606 -52.326  14.908  1.00  0.00     0.084 C 
HETATM   14  C   UNL     1     -45.560 -53.518  15.022  1.00  0.00     0.025 C 
HETATM   15  C   UNL     1     -46.969 -52.949  14.833  1.00  0.00     0.002 C 
HETATM   16  C   UNL     1     -46.805 -51.439  14.711  1.00  0.00     0.002 C 
HETATM   17  C   UNL     1     -45.401 -51.266  14.156  1.00  0.00     0.025 C 
ENDBRANCH  11  13
ENDBRANCH   7   9
ENDBRANCH   1   7
BRANCH   4  18
HETATM   18  C   UNL     1     -39.991 -49.306  11.364  1.00  0.00     0.152 A 
HETATM   19  N   UNL     1     -40.902 -49.417  10.426  1.00  0.00    -0.346 N 
HETATM   20  C   UNL     1     -41.683 -48.280  10.419  1.00  0.00     0.097 A 
ATOM     21  HN  UNL     1     -41.014 -50.216   9.803  1.00  0.00     0.167 HD
HETATM   22  C   UNL     1     -41.310 -47.299  11.313  1.00  0.00     0.070 A 
HETATM   23  S   UNL     1     -39.982 -47.854  12.255  1.00  0.00    -0.064 SA
ENDBRANCH   4  18
TORSDOF 4
ENDMDL
MODEL 5
REMARK VINA RESULT:      -5.4      3.822      5.288
REMARK  4 active torsions:
REMARK  status: ('A' for Active; 'I' for Inactive)
REMARK    1  A    between atoms: C_2  and  N_3 
REMARK    2  A    between atoms: C_2  and  C_13 
REMARK       I    between atoms: N_3  and  C_4 
REMARK       I    between atoms: C_4  and  N_6 
REMARK    3  A    between atoms: N_6  and  C_7 
REMARK       I    between atoms: C_13  and  N_15 
REMARK    4  A    between atoms: N_15  and  C_16 
ROOT
HETATM    1  N   UNL     1     -42.305 -51.242  12.385  1.00  0.00    -0.330 N 
HETATM    2  C   UNL     1     -41.142 -51.689  11.843  1.00  0.00     0.322 C 
HETATM    3  O   UNL     1     -40.787 -52.863  11.922  1.00  0.00    -0.247 OA
HETATM    4  N   UNL     1     -40.407 -50.779  11.138  1.00  0.00    -0.289 N 
HETATM    5  H   UNL     1     -42.398 -50.235  12.491  1.00  0.00     0.165 HD
HETATM    6  H   UNL     1     -39.624 -51.138  10.609  1.00  0.00     0.172 HD
ENDROOT
BRANCH   1   7
HETATM    7  C   UNL     1     -43.260 -52.089  13.080  1.00  0.00     0.174 C 
HETATM    8  C   UNL     1     -44.573 -51.335  13.259  1.00  0.00     0.042 C 
BRANCH   7   9
HETATM    9  C   UNL     1     -42.695 -52.504  14.451  1.00  0.00     0.240 C 
HETATM   10  O   UNL     1     -42.629 -51.739  15.411  1.00  0.00    -0.271 OA
HETATM   11  N   UNL     1     -42.236 -53.807  14.493  1.00  0.00    -0.355 N 
HETATM   12  H   UNL     1     -42.013 -54.240  13.598  1.00  0.00     0.162 HD
BRANCH  11  13
HETATM   13  C   UNL     1     -41.706 -54.380  15.710  1.00  0.00     0.084 C 
HETATM   14  C   UNL     1     -40.206 -54.675  15.640  1.00  0.00     0.025 C 
HETATM   15  C   UNL     1     -39.994 -55.967  16.434  1.00  0.00     0.002 C 
HETATM   16  C   UNL     1     -41.352 -56.333  17.021  1.00  0.00     0.002 C 
HETATM   17  C   UNL     1     -42.348 -55.719  16.052  1.00  0.00     0.025 C 
ENDBRANCH  11  13
ENDBRANCH   7   9
ENDBRANCH   1   7
BRANCH   4  18
HETATM   18  C   UNL     1     -40.653 -49.436  11.103  1.00  0.00     0.152 A 
HETATM   19  N   UNL     1     -41.434 -48.793  10.268  1.00  0.00    -0.346 N 
HETATM   20  C   UNL     1     -41.439 -47.453  10.597  1.00  0.00     0.097 A 
ATOM     21  HN  UNL     1     -41.953 -49.215   9.499  1.00  0.00     0.167 HD
HETATM   22  C   UNL     1     -40.612 -47.095  11.641  1.00  0.00     0.070 A 
HETATM   23  S   UNL     1     -39.862 -48.502  12.287  1.00  0.00    -0.064 SA
ENDBRANCH   4  18
TORSDOF 4
ENDMDL
MODEL 6
REMARK VINA RESULT:      -5.4      4.408      6.251
REMARK  4 active torsions:
REMARK  status: ('A' for Active; 'I' for Inactive)
REMARK    1  A    between atoms: C_2  and  N_3 
REMARK    2  A    between atoms: C_2  and  C_13 
REMARK       I    between atoms: N_3  and  C_4 
REMARK       I    between atoms: C_4  and  N_6 
REMARK    3  A    between atoms: N_6  and  C_7 
REMARK       I    between atoms: C_13  and  N_15 
REMARK    4  A    between atoms: N_15  and  C_16 
ROOT
HETATM    1  N   UNL     1     -40.726 -47.034  10.536  1.00  0.00    -0.330 N 
HETATM    2  C   UNL     1     -41.605 -48.033  10.263  1.00  0.00     0.322 C 
HETATM    3  O   UNL     1     -42.670 -47.833   9.684  1.00  0.00    -0.247 OA
HETATM    4  N   UNL     1     -41.218 -49.299  10.603  1.00  0.00    -0.289 N 
HETATM    5  H   UNL     1     -40.005 -47.240  11.224  1.00  0.00     0.165 HD
HETATM    6  H   UNL     1     -41.796 -50.057  10.269  1.00  0.00     0.172 HD
ENDROOT
BRANCH   1   7
HETATM    7  C   UNL     1     -40.925 -45.646  10.156  1.00  0.00     0.174 C 
HETATM    8  C   UNL     1     -39.591 -44.909  10.201  1.00  0.00     0.042 C 
BRANCH   7   9
HETATM    9  C   UNL     1     -41.933 -44.978  11.109  1.00  0.00     0.240 C 
HETATM   10  O   UNL     1     -42.767 -44.155  10.738  1.00  0.00    -0.271 OA
HETATM   11  N   UNL     1     -41.791 -45.364  12.429  1.00  0.00    -0.355 N 
HETATM   12  H   UNL     1     -40.890 -45.760  12.692  1.00  0.00     0.162 HD
BRANCH  11  13
HETATM   13  C   UNL     1     -42.676 -44.866  13.457  1.00  0.00     0.084 C 
HETATM   14  C   UNL     1     -41.985 -43.932  14.454  1.00  0.00     0.025 C 
HETATM   15  C   UNL     1     -42.621 -44.225  15.816  1.00  0.00     0.002 C 
HETATM   16  C   UNL     1     -43.723 -45.245  15.560  1.00  0.00     0.002 C 
HETATM   17  C   UNL     1     -43.259 -45.982  14.315  1.00  0.00     0.025 C 
ENDBRANCH  11  13
ENDBRANCH   7   9
ENDBRANCH   1   7
BRANCH   4  18
HETATM   18  C   UNL     1     -40.121 -49.601  11.358  1.00  0.00     0.152 A 
HETATM   19  N   UNL     1     -38.916 -49.893  10.927  1.00  0.00    -0.346 N 
HETATM   20  C   UNL     1     -38.086 -50.096  12.010  1.00  0.00     0.097 A 
ATOM     21  HN  UNL     1     -38.638 -49.959   9.948  1.00  0.00     0.167 HD
HETATM   22  C   UNL     1     -38.694 -50.015  13.246  1.00  0.00     0.070 A 
HETATM   23  S   UNL     1     -40.348 -49.587  13.045  1.00  0.00    -0.064 SA
ENDBRANCH   4  18
TORSDOF 4
ENDMDL
MODEL 7
REMARK VINA RESULT:      -5.4      5.014      7.131
REMARK  4 active torsions:
REMARK  status: ('A' for Active; 'I' for Inactive)
REMARK    1  A    between atoms: C_2  and  N_3 
REMARK    2  A    between atoms: C_2  and  C_13 
REMARK       I    between atoms: N_3  and  C_4 
REMARK       I    between atoms: C_4  and  N_6 
REMARK    3  A    between atoms: N_6  and  C_7 
REMARK       I    between atoms: C_13  and  N_15 
REMARK    4  A    between atoms: N_15  and  C_16 
ROOT
HETATM    1  N   UNL     1     -43.190 -53.655  14.050  1.00  0.00    -0.330 N 
HETATM    2  C   UNL     1     -43.668 -53.671  12.778  1.00  0.00     0.322 C 
HETATM    3  O   UNL     1     -44.597 -54.398  12.433  1.00  0.00    -0.247 OA
HETATM    4  N   UNL     1     -43.111 -52.781  11.904  1.00  0.00    -0.289 N 
HETATM    5  H   UNL     1     -42.280 -53.221  14.186  1.00  0.00     0.165 HD
HETATM    6  H   UNL     1     -43.563 -52.683  11.005  1.00  0.00     0.172 HD
ENDROOT
BRANCH   1   7
HETATM    7  C   UNL     1     -43.729 -54.457  15.135  1.00  0.00     0.174 C 
HETATM    8  C   UNL     1     -44.254 -53.540  16.234  1.00  0.00     0.042 C 
BRANCH   7   9
HETATM    9  C   UNL     1     -42.637 -55.386  15.696  1.00  0.00     0.240 C 
HETATM   10  O   UNL     1     -42.861 -56.530  16.084  1.00  0.00    -0.271 OA
HETATM   11  N   UNL     1     -41.385 -54.802  15.754  1.00  0.00    -0.355 N 
HETATM   12  H   UNL     1     -41.357 -53.784  15.744  1.00  0.00     0.162 HD
BRANCH  11  13
HETATM   13  C   UNL     1     -40.232 -55.540  16.219  1.00  0.00     0.084 C 
HETATM   14  C   UNL     1     -39.862 -55.235  17.673  1.00  0.00     0.025 C 
HETATM   15  C   UNL     1     -38.333 -55.271  17.734  1.00  0.00     0.002 C 
HETATM   16  C   UNL     1     -37.861 -55.686  16.346  1.00  0.00     0.002 C 
HETATM   17  C   UNL     1     -38.973 -55.215  15.424  1.00  0.00     0.025 C 
ENDBRANCH  11  13
ENDBRANCH   7   9
ENDBRANCH   1   7
BRANCH   4  18
HETATM   18  C   UNL     1     -42.000 -52.030  12.158  1.00  0.00     0.152 A 
HETATM   19  N   UNL     1     -40.749 -52.364  11.944  1.00  0.00    -0.346 N 
HETATM   20  C   UNL     1     -39.933 -51.310  12.300  1.00  0.00     0.097 A 
ATOM     21  HN  UNL     1     -40.431 -53.260  11.574  1.00  0.00     0.167 HD
HETATM   22  C   UNL     1     -40.579 -50.215  12.836  1.00  0.00     0.070 A 
HETATM   23  S   UNL     1     -42.278 -50.485  12.818  1.00  0.00    -0.064 SA
ENDBRANCH   4  18
TORSDOF 4
ENDMDL
MODEL 8
REMARK VINA RESULT:      -5.3      4.371      6.508
REMARK  4 active torsions:
REMARK  status: ('A' for Active; 'I' for Inactive)
REMARK    1  A    between atoms: C_2  and  N_3 
REMARK    2  A    between atoms: C_2  and  C_13 
REMARK       I    between atoms: N_3  and  C_4 
REMARK       I    between atoms: C_4  and  N_6 
REMARK    3  A    between atoms: N_6  and  C_7 
REMARK       I    between atoms: C_13  and  N_15 
REMARK    4  A    between atoms: N_15  and  C_16 
ROOT
HETATM    1  N   UNL     1     -44.285 -52.626  13.889  1.00  0.00    -0.330 N 
HETATM    2  C   UNL     1     -44.247 -53.352  12.740  1.00  0.00     0.322 C 
HETATM    3  O   UNL     1     -45.104 -54.186  12.460  1.00  0.00    -0.247 OA
HETATM    4  N   UNL     1     -43.237 -53.060  11.866  1.00  0.00    -0.289 N 
HETATM    5  H   UNL     1     -43.425 -52.152  14.154  1.00  0.00     0.165 HD
HETATM    6  H   UNL     1     -43.291 -53.486  10.951  1.00  0.00     0.172 HD
ENDROOT
BRANCH   1   7
HETATM    7  C   UNL     1     -45.339 -52.729  14.884  1.00  0.00     0.174 C 
HETATM    8  C   UNL     1     -45.548 -51.371  15.545  1.00  0.00     0.042 C 
BRANCH   7   9
HETATM    9  C   UNL     1     -44.963 -53.782  15.942  1.00  0.00     0.240 C 
HETATM   10  O   UNL     1     -45.795 -54.451  16.550  1.00  0.00    -0.271 OA
HETATM   11  N   UNL     1     -43.603 -53.882  16.169  1.00  0.00    -0.355 N 
HETATM   12  H   UNL     1     -43.036 -53.082  15.894  1.00  0.00     0.162 HD
BRANCH  11  13
HETATM   13  C   UNL     1     -43.066 -54.846  17.103  1.00  0.00     0.084 C 
HETATM   14  C   UNL     1     -42.155 -54.222  18.163  1.00  0.00     0.025 C 
HETATM   15  C   UNL     1     -41.043 -55.244  18.415  1.00  0.00     0.002 C 
HETATM   16  C   UNL     1     -41.388 -56.466  17.572  1.00  0.00     0.002 C 
HETATM   17  C   UNL     1     -42.201 -55.899  16.421  1.00  0.00     0.025 C 
ENDBRANCH  11  13
ENDBRANCH   7   9
ENDBRANCH   1   7
BRANCH   4  18
HETATM   18  C   UNL     1     -42.176 -52.248  12.144  1.00  0.00     0.152 A 
HETATM   19  N   UNL     1     -42.085 -50.957  11.927  1.00  0.00    -0.346 N 
HETATM   20  C   UNL     1     -40.864 -50.507  12.387  1.00  0.00     0.097 A 
ATOM     21  HN  UNL     1     -42.801 -50.379  11.488  1.00  0.00     0.167 HD
HETATM   22  C   UNL     1     -40.026 -51.480  12.891  1.00  0.00     0.070 A 
HETATM   23  S   UNL     1     -40.827 -53.001  12.862  1.00  0.00    -0.064 SA
ENDBRANCH   4  18
TORSDOF 4
ENDMDL
MODEL 9
REMARK VINA RESULT:      -5.3      4.894      7.002
REMARK  4 active torsions:
REMARK  status: ('A' for Active; 'I' for Inactive)
REMARK    1  A    between atoms: C_2  and  N_3 
REMARK    2  A    between atoms: C_2  and  C_13 
REMARK       I    between atoms: N_3  and  C_4 
REMARK       I    between atoms: C_4  and  N_6 
REMARK    3  A    between atoms: N_6  and  C_7 
REMARK       I    between atoms: C_13  and  N_15 
REMARK    4  A    between atoms: N_15  and  C_16 
ROOT
HETATM    1  N   UNL     1     -39.588 -50.238  12.022  1.00  0.00    -0.330 N 
HETATM    2  C   UNL     1     -40.822 -50.020  11.496  1.00  0.00     0.322 C 
HETATM    3  O   UNL     1     -41.129 -48.962  10.952  1.00  0.00    -0.247 OA
HETATM    4  N   UNL     1     -41.697 -51.069  11.536  1.00  0.00    -0.289 N 
HETATM    5  H   UNL     1     -39.501 -51.025  12.661  1.00  0.00     0.165 HD
HETATM    6  H   UNL     1     -42.557 -50.964  11.014  1.00  0.00     0.172 HD
ENDROOT
BRANCH   1   7
HETATM    7  C   UNL     1     -38.501 -49.275  11.978  1.00  0.00     0.174 C 
HETATM    8  C   UNL     1     -37.271 -49.924  11.353  1.00  0.00     0.042 C 
BRANCH   7   9
HETATM    9  C   UNL     1     -38.176 -48.782  13.400  1.00  0.00     0.240 C 
HETATM   10  O   UNL     1     -38.458 -47.656  13.802  1.00  0.00    -0.271 OA
HETATM   11  N   UNL     1     -37.505 -49.712  14.172  1.00  0.00    -0.355 N 
HETATM   12  H   UNL     1     -37.020 -50.455  13.670  1.00  0.00     0.162 HD
BRANCH  11  13
HETATM   13  C   UNL     1     -37.152 -49.435  15.546  1.00  0.00     0.084 C 
HETATM   14  C   UNL     1     -35.782 -49.988  15.944  1.00  0.00     0.025 C 
HETATM   15  C   UNL     1     -35.921 -50.452  17.397  1.00  0.00     0.002 C 
HETATM   16  C   UNL     1     -37.331 -50.070  17.832  1.00  0.00     0.002 C 
HETATM   17  C   UNL     1     -38.125 -50.063  16.536  1.00  0.00     0.025 C 
ENDBRANCH  11  13
ENDBRANCH   7   9
ENDBRANCH   1   7
BRANCH   4  18
HETATM   18  C   UNL     1     -41.493 -52.229  12.226  1.00  0.00     0.152 A 
HETATM   19  N   UNL     1     -40.883 -53.310  11.801  1.00  0.00    -0.346 N 
HETATM   20  C   UNL     1     -40.854 -54.241  12.818  1.00  0.00     0.097 A 
ATOM     21  HN  UNL     1     -40.493 -53.441  10.868  1.00  0.00     0.167 HD
HETATM   22  C   UNL     1     -41.498 -53.870  13.980  1.00  0.00     0.070 A 
HETATM   23  S   UNL     1     -42.092 -52.264  13.820  1.00  0.00    -0.064 SA
ENDBRANCH   4  18
TORSDOF 4
ENDMDL
