MODEL 1
REMARK VINA RESULT:      -6.1      0.000      0.000
REMARK  6 active torsions:
REMARK  status: ('A' for Active; 'I' for Inactive)
REMARK    1  A    between atoms: N_7  and  C_8 
REMARK    2  A    between atoms: C_8  and  C_9 
REMARK       I    between atoms: C_9  and  N_11 
REMARK    3  A    between atoms: N_11  and  C_12 
REMARK    4  A    between atoms: C_12  and  C_13 
REMARK    5  A    between atoms: C_13  and  O_15 
REMARK    6  A    between atoms: C_13  and  C_16 
ROOT
HETATM    1  C   UNL     1     -42.505 -51.182  12.715  1.00  0.00     0.236 C 
HETATM    2  O   UNL     1     -42.881 -50.892  13.849  1.00  0.00    -0.272 OA
HETATM    3  N   UNL     1     -42.178 -50.212  11.785  1.00  0.00    -0.357 N 
HETATM    4  H   UNL     1     -41.690 -50.506  10.940  1.00  0.00     0.162 HD
ENDROOT
BRANCH   3   5
HETATM    5  C   UNL     1     -42.220 -48.780  12.104  1.00  0.00     0.160 C 
BRANCH   5   6
HETATM    6  C   UNL     1     -41.908 -47.834  10.894  1.00  0.00     0.074 C 
HETATM    7  C   UNL     1     -40.700 -46.944  11.220  1.00  0.00     0.048 C 
BRANCH   6   8
HETATM    8  O   UNL     1     -41.555 -48.591   9.729  1.00  0.00    -0.388 OA
HETATM    9  H   UNL     1     -40.611 -48.440   9.553  1.00  0.00     0.210 HD
ENDBRANCH   6   8
BRANCH   6  10
HETATM   10  C   UNL     1     -43.141 -46.952  10.531  1.00  0.00     0.021 C 
HETATM   11  C   UNL     1     -44.409 -47.742  10.152  1.00  0.00     0.007 C 
HETATM   12  C   UNL     1     -45.176 -46.890   9.136  1.00  0.00     0.000 C 
HETATM   13  C   UNL     1     -44.356 -45.624   8.939  1.00  0.00     0.000 C 
HETATM   14  C   UNL     1     -42.941 -46.033   9.315  1.00  0.00     0.007 C 
ENDBRANCH   6  10
ENDBRANCH   5   6
ENDBRANCH   3   5
BRANCH   1  15
HETATM   15  C   UNL     1     -42.418 -52.635  12.252  1.00  0.00     0.235 C 
BRANCH  15  16
HETATM   16  N   UNL     1     -43.119 -53.570  13.113  1.00  0.00    -0.303 N 
HETATM   17  C   UNL     1     -42.559 -54.288  14.161  1.00  0.00     0.018 A 
HETATM   18  C   UNL     1     -41.098 -54.289  14.465  1.00  0.00     0.069 C 
HETATM   19  C   UNL     1     -43.469 -54.983  14.863  1.00  0.00     0.080 A 
HETATM   20  S   UNL     1     -45.073 -54.787  14.233  1.00  0.00    -0.039 SA
HETATM   21  C   UNL     1     -44.487 -53.726  12.949  1.00  0.00     0.290 A 
HETATM   22  O   UNL     1     -45.192 -53.231  12.082  1.00  0.00    -0.259 OA
ENDBRANCH  15  16
ENDBRANCH   1  15
TORSDOF 6
ENDMDL
MODEL 2
REMARK VINA RESULT:      -6.0      4.159      6.087
REMARK  6 active torsions:
REMARK  status: ('A' for Active; 'I' for Inactive)
REMARK    1  A    between atoms: N_7  and  C_8 
REMARK    2  A    between atoms: C_8  and  C_9 
REMARK       I    between atoms: C_9  and  N_11 
REMARK    3  A    between atoms: N_11  and  C_12 
REMARK    4  A    between atoms: C_12  and  C_13 
REMARK    5  A    between atoms: C_13  and  O_15 
REMARK    6  A    between atoms: C_13  and  C_16 
ROOT
HETATM    1  C   UNL     1     -42.065 -54.221  13.553  1.00  0.00     0.236 C 
HETATM    2  O   UNL     1     -42.329 -54.739  14.636  1.00  0.00    -0.272 OA
HETATM    3  N   UNL     1     -43.051 -53.895  12.641  1.00  0.00    -0.357 N 
HETATM    4  H   UNL     1     -42.798 -53.296  11.856  1.00  0.00     0.162 HD
ENDROOT
BRANCH   3   5
HETATM    5  C   UNL     1     -44.476 -54.108  12.923  1.00  0.00     0.160 C 
BRANCH   5   6
HETATM    6  C   UNL     1     -45.331 -52.796  12.982  1.00  0.00     0.074 C 
HETATM    7  C   UNL     1     -44.409 -51.568  12.985  1.00  0.00     0.048 C 
BRANCH   6   8
HETATM    8  O   UNL     1     -46.167 -52.676  11.824  1.00  0.00    -0.388 OA
HETATM    9  H   UNL     1     -46.613 -51.813  11.868  1.00  0.00     0.210 HD
ENDBRANCH   6   8
BRANCH   6  10
HETATM   10  C   UNL     1     -46.254 -52.777  14.238  1.00  0.00     0.021 C 
HETATM   11  C   UNL     1     -46.877 -51.404  14.559  1.00  0.00     0.007 C 
HETATM   12  C   UNL     1     -47.043 -51.336  16.080  1.00  0.00     0.000 C 
HETATM   13  C   UNL     1     -46.523 -52.657  16.623  1.00  0.00     0.000 C 
HETATM   14  C   UNL     1     -45.555 -53.144  15.557  1.00  0.00     0.007 C 
ENDBRANCH   6  10
ENDBRANCH   5   6
ENDBRANCH   3   5
BRANCH   1  15
HETATM   15  C   UNL     1     -40.622 -53.946  13.132  1.00  0.00     0.235 C 
BRANCH  15  16
HETATM   16  N   UNL     1     -40.125 -52.647  13.546  1.00  0.00    -0.303 N 
HETATM   17  C   UNL     1     -39.361 -52.390  14.676  1.00  0.00     0.018 A 
HETATM   18  C   UNL     1     -39.051 -53.423  15.708  1.00  0.00     0.069 C 
HETATM   19  C   UNL     1     -38.939 -51.116  14.744  1.00  0.00     0.080 A 
HETATM   20  S   UNL     1     -39.496 -50.169  13.401  1.00  0.00    -0.039 SA
HETATM   21  C   UNL     1     -40.353 -51.555  12.721  1.00  0.00     0.290 A 
HETATM   22  O   UNL     1     -41.021 -51.524  11.698  1.00  0.00    -0.259 OA
ENDBRANCH  15  16
ENDBRANCH   1  15
TORSDOF 6
ENDMDL
MODEL 3
REMARK VINA RESULT:      -6.0      3.643      6.397
REMARK  6 active torsions:
REMARK  status: ('A' for Active; 'I' for Inactive)
REMARK    1  A    between atoms: N_7  and  C_8 
REMARK    2  A    between atoms: C_8  and  C_9 
REMARK       I    between atoms: C_9  and  N_11 
REMARK    3  A    between atoms: N_11  and  C_12 
REMARK    4  A    between atoms: C_12  and  C_13 
REMARK    5  A    between atoms: C_13  and  O_15 
REMARK    6  A    between atoms: C_13  and  C_16 
ROOT
HETATM    1  C   UNL     1     -42.161 -53.246  12.701  1.00  0.00     0.236 C 
HETATM    2  O   UNL     1     -42.031 -53.945  13.704  1.00  0.00    -0.272 OA
HETATM    3  N   UNL     1     -43.396 -53.033  12.116  1.00  0.00    -0.357 N 
HETATM    4  H   UNL     1     -43.472 -52.296  11.415  1.00  0.00     0.162 HD
ENDROOT
BRANCH   3   5
HETATM    5  C   UNL     1     -44.632 -53.592  12.677  1.00  0.00     0.160 C 
BRANCH   5   6
HETATM    6  C   UNL     1     -45.776 -52.545  12.903  1.00  0.00     0.074 C 
HETATM    7  C   UNL     1     -45.215 -51.121  12.781  1.00  0.00     0.048 C 
BRANCH   6   8
HETATM    8  O   UNL     1     -46.791 -52.671  11.899  1.00  0.00    -0.388 OA
HETATM    9  H   UNL     1     -47.477 -52.007  12.086  1.00  0.00     0.210 HD
ENDBRANCH   6   8
BRANCH   6  10
HETATM   10  C   UNL     1     -46.454 -52.737  14.293  1.00  0.00     0.021 C 
HETATM   11  C   UNL     1     -46.989 -51.441  14.934  1.00  0.00     0.007 C 
HETATM   12  C   UNL     1     -46.875 -51.617  16.451  1.00  0.00     0.000 C 
HETATM   13  C   UNL     1     -46.284 -53.000  16.675  1.00  0.00     0.000 C 
HETATM   14  C   UNL     1     -45.533 -53.298  15.388  1.00  0.00     0.007 C 
ENDBRANCH   6  10
ENDBRANCH   5   6
ENDBRANCH   3   5
BRANCH   1  15
HETATM   15  C   UNL     1     -40.956 -52.606  12.014  1.00  0.00     0.235 C 
BRANCH  15  16
HETATM   16  N   UNL     1     -40.306 -51.576  12.805  1.00  0.00    -0.303 N 
HETATM   17  C   UNL     1     -40.701 -50.249  12.894  1.00  0.00     0.018 A 
HETATM   18  C   UNL     1     -41.797 -49.663  12.068  1.00  0.00     0.069 C 
HETATM   19  C   UNL     1     -39.991 -49.551  13.795  1.00  0.00     0.080 A 
HETATM   20  S   UNL     1     -38.775 -50.521  14.565  1.00  0.00    -0.039 SA
HETATM   21  C   UNL     1     -39.238 -51.935  13.614  1.00  0.00     0.290 A 
HETATM   22  O   UNL     1     -38.691 -53.026  13.681  1.00  0.00    -0.259 OA
ENDBRANCH  15  16
ENDBRANCH   1  15
TORSDOF 6
ENDMDL
MODEL 4
REMARK VINA RESULT:      -5.9      2.254      3.248
REMARK  6 active torsions:
REMARK  status: ('A' for Active; 'I' for Inactive)
REMARK    1  A    between atoms: N_7  and  C_8 
REMARK    2  A    between atoms: C_8  and  C_9 
REMARK       I    between atoms: C_9  and  N_11 
REMARK    3  A    between atoms: N_11  and  C_12 
REMARK    4  A    between atoms: C_12  and  C_13 
REMARK    5  A    between atoms: C_13  and  O_15 
REMARK    6  A    between atoms: C_13  and  C_16 
ROOT
HETATM    1  C   UNL     1     -42.633 -53.133  12.671  1.00  0.00     0.236 C 
HETATM    2  O   UNL     1     -42.032 -53.422  13.703  1.00  0.00    -0.272 OA
HETATM    3  N   UNL     1     -42.086 -52.294  11.719  1.00  0.00    -0.357 N 
HETATM    4  H   UNL     1     -42.538 -52.247  10.806  1.00  0.00     0.162 HD
ENDROOT
BRANCH   3   5
HETATM    5  C   UNL     1     -40.738 -51.729  11.859  1.00  0.00     0.160 C 
BRANCH   5   6
HETATM    6  C   UNL     1     -40.641 -50.194  11.557  1.00  0.00     0.074 C 
HETATM    7  C   UNL     1     -39.382 -49.609  12.212  1.00  0.00     0.048 C 
BRANCH   6   8
HETATM    8  O   UNL     1     -40.518 -49.955  10.149  1.00  0.00    -0.388 OA
HETATM    9  H   UNL     1     -40.851 -49.059   9.970  1.00  0.00     0.210 HD
ENDBRANCH   6   8
BRANCH   6  10
HETATM   10  C   UNL     1     -41.908 -49.437  12.059  1.00  0.00     0.021 C 
HETATM   11  C   UNL     1     -42.392 -48.306  11.131  1.00  0.00     0.007 C 
HETATM   12  C   UNL     1     -43.031 -47.240  12.026  1.00  0.00     0.000 C 
HETATM   13  C   UNL     1     -42.915 -47.758  13.451  1.00  0.00     0.000 C 
HETATM   14  C   UNL     1     -41.736 -48.717  13.406  1.00  0.00     0.007 C 
ENDBRANCH   6  10
ENDBRANCH   5   6
ENDBRANCH   3   5
BRANCH   1  15
HETATM   15  C   UNL     1     -44.046 -53.651  12.402  1.00  0.00     0.235 C 
BRANCH  15  16
HETATM   16  N   UNL     1     -44.971 -53.437  13.499  1.00  0.00    -0.303 N 
HETATM   17  C   UNL     1     -45.535 -52.223  13.863  1.00  0.00     0.018 A 
HETATM   18  C   UNL     1     -45.156 -50.923  13.237  1.00  0.00     0.069 C 
HETATM   19  C   UNL     1     -46.450 -52.343  14.839  1.00  0.00     0.080 A 
HETATM   20  S   UNL     1     -46.636 -53.986  15.365  1.00  0.00    -0.039 SA
HETATM   21  C   UNL     1     -45.408 -54.537  14.223  1.00  0.00     0.290 A 
HETATM   22  O   UNL     1     -45.032 -55.695  14.113  1.00  0.00    -0.259 OA
ENDBRANCH  15  16
ENDBRANCH   1  15
TORSDOF 6
ENDMDL
MODEL 5
REMARK VINA RESULT:      -5.9      4.759      6.013
REMARK  6 active torsions:
REMARK  status: ('A' for Active; 'I' for Inactive)
REMARK    1  A    between atoms: N_7  and  C_8 
REMARK    2  A    between atoms: C_8  and  C_9 
REMARK       I    between atoms: C_9  and  N_11 
REMARK    3  A    between atoms: N_11  and  C_12 
REMARK    4  A    between atoms: C_12  and  C_13 
REMARK    5  A    between atoms: C_13  and  O_15 
REMARK    6  A    between atoms: C_13  and  C_16 
ROOT
HETATM    1  C   UNL     1     -43.730 -54.766  15.326  1.00  0.00     0.236 C 
HETATM    2  O   UNL     1     -44.447 -54.479  16.282  1.00  0.00    -0.272 OA
HETATM    3  N   UNL     1     -44.195 -54.717  14.025  1.00  0.00    -0.357 N 
HETATM    4  H   UNL     1     -43.512 -54.773  13.270  1.00  0.00     0.162 HD
ENDROOT
BRANCH   3   5
HETATM    5  C   UNL     1     -45.558 -54.279  13.700  1.00  0.00     0.160 C 
BRANCH   5   6
HETATM    6  C   UNL     1     -45.651 -52.839  13.087  1.00  0.00     0.074 C 
HETATM    7  C   UNL     1     -44.263 -52.378  12.620  1.00  0.00     0.048 C 
BRANCH   6   8
HETATM    8  O   UNL     1     -46.497 -52.828  11.930  1.00  0.00    -0.388 OA
HETATM    9  H   UNL     1     -46.379 -53.676  11.469  1.00  0.00     0.210 HD
ENDBRANCH   6   8
BRANCH   6  10
HETATM   10  C   UNL     1     -46.236 -51.823  14.114  1.00  0.00     0.021 C 
HETATM   11  C   UNL     1     -45.182 -51.082  14.959  1.00  0.00     0.007 C 
HETATM   12  C   UNL     1     -45.825 -50.794  16.319  1.00  0.00     0.000 C 
HETATM   13  C   UNL     1     -47.233 -51.363  16.251  1.00  0.00     0.000 C 
HETATM   14  C   UNL     1     -47.150 -52.442  15.184  1.00  0.00     0.007 C 
ENDBRANCH   6  10
ENDBRANCH   5   6
ENDBRANCH   3   5
BRANCH   1  15
HETATM   15  C   UNL     1     -42.290 -55.239  15.524  1.00  0.00     0.235 C 
BRANCH  15  16
HETATM   16  N   UNL     1     -41.299 -54.191  15.362  1.00  0.00    -0.303 N 
HETATM   17  C   UNL     1     -40.722 -53.452  16.386  1.00  0.00     0.018 A 
HETATM   18  C   UNL     1     -41.152 -53.553  17.812  1.00  0.00     0.069 C 
HETATM   19  C   UNL     1     -39.746 -52.636  15.956  1.00  0.00     0.080 A 
HETATM   20  S   UNL     1     -39.514 -52.739  14.240  1.00  0.00    -0.039 SA
HETATM   21  C   UNL     1     -40.807 -53.931  14.091  1.00  0.00     0.290 A 
HETATM   22  O   UNL     1     -41.179 -54.424  13.037  1.00  0.00    -0.259 OA
ENDBRANCH  15  16
ENDBRANCH   1  15
TORSDOF 6
ENDMDL
MODEL 6
REMARK VINA RESULT:      -5.9      3.983      6.313
REMARK  6 active torsions:
REMARK  status: ('A' for Active; 'I' for Inactive)
REMARK    1  A    between atoms: N_7  and  C_8 
REMARK    2  A    between atoms: C_8  and  C_9 
REMARK       I    between atoms: C_9  and  N_11 
REMARK    3  A    between atoms: N_11  and  C_12 
REMARK    4  A    between atoms: C_12  and  C_13 
REMARK    5  A    between atoms: C_13  and  O_15 
REMARK    6  A    between atoms: C_13  and  C_16 
ROOT
HETATM    1  C   UNL     1     -41.006 -51.726  11.917  1.00  0.00     0.236 C 
HETATM    2  O   UNL     1     -40.283 -52.703  12.104  1.00  0.00    -0.272 OA
HETATM    3  N   UNL     1     -42.382 -51.806  12.019  1.00  0.00    -0.357 N 
HETATM    4  H   UNL     1     -42.911 -50.936  12.048  1.00  0.00     0.162 HD
ENDROOT
BRANCH   3   5
HETATM    5  C   UNL     1     -43.065 -53.050  12.397  1.00  0.00     0.160 C 
BRANCH   5   6
HETATM    6  C   UNL     1     -43.487 -53.128  13.904  1.00  0.00     0.074 C 
HETATM    7  C   UNL     1     -43.129 -54.505  14.480  1.00  0.00     0.048 C 
BRANCH   6   8
HETATM    8  O   UNL     1     -42.776 -52.160  14.686  1.00  0.00    -0.388 OA
HETATM    9  H   UNL     1     -42.469 -51.460  14.085  1.00  0.00     0.210 HD
ENDBRANCH   6   8
BRANCH   6  10
HETATM   10  C   UNL     1     -45.012 -52.854  14.080  1.00  0.00     0.021 C 
HETATM   11  C   UNL     1     -45.772 -52.575  12.769  1.00  0.00     0.007 C 
HETATM   12  C   UNL     1     -46.914 -51.615  13.113  1.00  0.00     0.000 C 
HETATM   13  C   UNL     1     -46.810 -51.350  14.607  1.00  0.00     0.000 C 
HETATM   14  C   UNL     1     -45.351 -51.621  14.934  1.00  0.00     0.007 C 
ENDBRANCH   6  10
ENDBRANCH   5   6
ENDBRANCH   3   5
BRANCH   1  15
HETATM   15  C   UNL     1     -40.425 -50.371  11.515  1.00  0.00     0.235 C 
BRANCH  15  16
HETATM   16  N   UNL     1     -39.622 -49.745  12.550  1.00  0.00    -0.303 N 
HETATM   17  C   UNL     1     -38.269 -49.447  12.462  1.00  0.00     0.018 A 
HETATM   18  C   UNL     1     -37.413 -49.859  11.311  1.00  0.00     0.069 C 
HETATM   19  C   UNL     1     -37.816 -48.758  13.521  1.00  0.00     0.080 A 
HETATM   20  S   UNL     1     -39.060 -48.464  14.694  1.00  0.00    -0.039 SA
HETATM   21  C   UNL     1     -40.249 -49.326  13.714  1.00  0.00     0.290 A 
HETATM   22  O   UNL     1     -41.415 -49.503  14.035  1.00  0.00    -0.259 OA
ENDBRANCH  15  16
ENDBRANCH   1  15
TORSDOF 6
ENDMDL
MODEL 7
REMARK VINA RESULT:      -5.8      5.004      8.473
REMARK  6 active torsions:
REMARK  status: ('A' for Active; 'I' for Inactive)
REMARK    1  A    between atoms: N_7  and  C_8 
REMARK    2  A    between atoms: C_8  and  C_9 
REMARK       I    between atoms: C_9  and  N_11 
REMARK    3  A    between atoms: N_11  and  C_12 
REMARK    4  A    between atoms: C_12  and  C_13 
REMARK    5  A    between atoms: C_13  and  O_15 
REMARK    6  A    between atoms: C_13  and  C_16 
ROOT
HETATM    1  C   UNL     1     -41.048 -45.455  10.274  1.00  0.00     0.236 C 
HETATM    2  O   UNL     1     -42.189 -45.294   9.848  1.00  0.00    -0.272 OA
HETATM    3  N   UNL     1     -40.581 -46.699  10.656  1.00  0.00    -0.357 N 
HETATM    4  H   UNL     1     -39.579 -46.806  10.813  1.00  0.00     0.162 HD
ENDROOT
BRANCH   3   5
HETATM    5  C   UNL     1     -41.402 -47.910  10.538  1.00  0.00     0.160 C 
BRANCH   5   6
HETATM    6  C   UNL     1     -40.779 -49.186  11.202  1.00  0.00     0.074 C 
HETATM    7  C   UNL     1     -41.806 -49.848  12.132  1.00  0.00     0.048 C 
BRANCH   6   8
HETATM    8  O   UNL     1     -40.435 -50.164  10.213  1.00  0.00    -0.388 OA
HETATM    9  H   UNL     1     -40.429 -49.720   9.347  1.00  0.00     0.210 HD
ENDBRANCH   6   8
BRANCH   6  10
HETATM   10  C   UNL     1     -39.484 -48.836  11.996  1.00  0.00     0.021 C 
HETATM   11  C   UNL     1     -38.321 -49.829  11.802  1.00  0.00     0.007 C 
HETATM   12  C   UNL     1     -37.525 -49.841  13.110  1.00  0.00     0.000 C 
HETATM   13  C   UNL     1     -38.224 -48.864  14.042  1.00  0.00     0.000 C 
HETATM   14  C   UNL     1     -39.652 -48.810  13.524  1.00  0.00     0.007 C 
ENDBRANCH   6  10
ENDBRANCH   5   6
ENDBRANCH   3   5
BRANCH   1  15
HETATM   15  C   UNL     1     -40.090 -44.278  10.450  1.00  0.00     0.235 C 
BRANCH  15  16
HETATM   16  N   UNL     1     -40.387 -43.443  11.600  1.00  0.00    -0.303 N 
HETATM   17  C   UNL     1     -39.833 -43.574  12.865  1.00  0.00     0.018 A 
HETATM   18  C   UNL     1     -38.931 -44.698  13.253  1.00  0.00     0.069 C 
HETATM   19  C   UNL     1     -40.199 -42.587  13.700  1.00  0.00     0.080 A 
HETATM   20  S   UNL     1     -41.274 -41.454  12.947  1.00  0.00    -0.039 SA
HETATM   21  C   UNL     1     -41.241 -42.362  11.433  1.00  0.00     0.290 A 
HETATM   22  O   UNL     1     -41.873 -42.063  10.430  1.00  0.00    -0.259 OA
ENDBRANCH  15  16
ENDBRANCH   1  15
TORSDOF 6
ENDMDL
MODEL 8
REMARK VINA RESULT:      -5.8      3.902      7.562
REMARK  6 active torsions:
REMARK  status: ('A' for Active; 'I' for Inactive)
REMARK    1  A    between atoms: N_7  and  C_8 
REMARK    2  A    between atoms: C_8  and  C_9 
REMARK       I    between atoms: C_9  and  N_11 
REMARK    3  A    between atoms: N_11  and  C_12 
REMARK    4  A    between atoms: C_12  and  C_13 
REMARK    5  A    between atoms: C_13  and  O_15 
REMARK    6  A    between atoms: C_13  and  C_16 
ROOT
HETATM    1  C   UNL     1     -38.265 -50.767  12.690  1.00  0.00     0.236 C 
HETATM    2  O   UNL     1     -37.435 -51.670  12.603  1.00  0.00    -0.272 OA
HETATM    3  N   UNL     1     -39.560 -51.005  13.112  1.00  0.00    -0.357 N 
HETATM    4  H   UNL     1     -40.140 -50.202  13.352  1.00  0.00     0.162 HD
ENDROOT
BRANCH   3   5
HETATM    5  C   UNL     1     -40.013 -52.340  13.522  1.00  0.00     0.160 C 
BRANCH   5   6
HETATM    6  C   UNL     1     -41.130 -52.956  12.610  1.00  0.00     0.074 C 
HETATM    7  C   UNL     1     -42.160 -51.878  12.241  1.00  0.00     0.048 C 
BRANCH   6   8
HETATM    8  O   UNL     1     -40.579 -53.434  11.376  1.00  0.00    -0.388 OA
HETATM    9  H   UNL     1     -40.015 -52.730  11.011  1.00  0.00     0.210 HD
ENDBRANCH   6   8
BRANCH   6  10
HETATM   10  C   UNL     1     -41.837 -54.155  13.311  1.00  0.00     0.021 C 
HETATM   11  C   UNL     1     -43.376 -54.089  13.304  1.00  0.00     0.007 C 
HETATM   12  C   UNL     1     -43.856 -54.780  14.584  1.00  0.00     0.000 C 
HETATM   13  C   UNL     1     -42.604 -55.239  15.314  1.00  0.00     0.000 C 
HETATM   14  C   UNL     1     -41.513 -54.309  14.806  1.00  0.00     0.007 C 
ENDBRANCH   6  10
ENDBRANCH   5   6
ENDBRANCH   3   5
BRANCH   1  15
HETATM   15  C   UNL     1     -37.924 -49.331  12.293  1.00  0.00     0.235 C 
BRANCH  15  16
HETATM   16  N   UNL     1     -38.539 -48.325  13.139  1.00  0.00    -0.303 N 
HETATM   17  C   UNL     1     -39.687 -47.603  12.843  1.00  0.00     0.018 A 
HETATM   18  C   UNL     1     -40.384 -47.678  11.525  1.00  0.00     0.069 C 
HETATM   19  C   UNL     1     -40.096 -46.830  13.862  1.00  0.00     0.080 A 
HETATM   20  S   UNL     1     -39.051 -46.953  15.240  1.00  0.00    -0.039 SA
HETATM   21  C   UNL     1     -38.000 -48.094  14.396  1.00  0.00     0.290 A 
HETATM   22  O   UNL     1     -36.981 -48.578  14.867  1.00  0.00    -0.259 OA
ENDBRANCH  15  16
ENDBRANCH   1  15
TORSDOF 6
ENDMDL
MODEL 9
REMARK VINA RESULT:      -5.8      4.280      6.070
REMARK  6 active torsions:
REMARK  status: ('A' for Active; 'I' for Inactive)
REMARK    1  A    between atoms: N_7  and  C_8 
REMARK    2  A    between atoms: C_8  and  C_9 
REMARK       I    between atoms: C_9  and  N_11 
REMARK    3  A    between atoms: N_11  and  C_12 
REMARK    4  A    between atoms: C_12  and  C_13 
REMARK    5  A    between atoms: C_13  and  O_15 
REMARK    6  A    between atoms: C_13  and  C_16 
ROOT
HETATM    1  C   UNL     1     -43.203 -53.303  12.814  1.00  0.00     0.236 C 
HETATM    2  O   UNL     1     -43.102 -52.117  12.505  1.00  0.00    -0.272 OA
HETATM    3  N   UNL     1     -42.099 -54.131  12.900  1.00  0.00    -0.357 N 
HETATM    4  H   UNL     1     -42.217 -55.040  13.346  1.00  0.00     0.162 HD
ENDROOT
BRANCH   3   5
HETATM    5  C   UNL     1     -40.736 -53.640  12.668  1.00  0.00     0.160 C 
BRANCH   5   6
HETATM    6  C   UNL     1     -39.722 -53.965  13.818  1.00  0.00     0.074 C 
HETATM    7  C   UNL     1     -40.466 -54.568  15.018  1.00  0.00     0.048 C 
BRANCH   6   8
HETATM    8  O   UNL     1     -38.765 -54.946  13.396  1.00  0.00    -0.388 OA
HETATM    9  H   UNL     1     -38.799 -54.994  12.425  1.00  0.00     0.210 HD
ENDBRANCH   6   8
BRANCH   6  10
HETATM   10  C   UNL     1     -38.937 -52.693  14.258  1.00  0.00     0.021 C 
HETATM   11  C   UNL     1     -39.198 -52.244  15.709  1.00  0.00     0.007 C 
HETATM   12  C   UNL     1     -39.053 -50.720  15.736  1.00  0.00     0.000 C 
HETATM   13  C   UNL     1     -38.709 -50.302  14.315  1.00  0.00     0.000 C 
HETATM   14  C   UNL     1     -39.259 -51.425  13.451  1.00  0.00     0.007 C 
ENDBRANCH   6  10
ENDBRANCH   5   6
ENDBRANCH   3   5
BRANCH   1  15
HETATM   15  C   UNL     1     -44.565 -53.943  13.080  1.00  0.00     0.235 C 
BRANCH  15  16
HETATM   16  N   UNL     1     -45.231 -53.437  14.266  1.00  0.00    -0.303 N 
HETATM   17  C   UNL     1     -46.179 -52.423  14.298  1.00  0.00     0.018 A 
HETATM   18  C   UNL     1     -46.552 -51.614  13.101  1.00  0.00     0.069 C 
HETATM   19  C   UNL     1     -46.716 -52.248  15.516  1.00  0.00     0.080 A 
HETATM   20  S   UNL     1     -46.046 -53.332  16.691  1.00  0.00    -0.039 SA
HETATM   21  C   UNL     1     -44.976 -54.050  15.484  1.00  0.00     0.290 A 
HETATM   22  O   UNL     1     -44.164 -54.934  15.715  1.00  0.00    -0.259 OA
ENDBRANCH  15  16
ENDBRANCH   1  15
TORSDOF 6
ENDMDL
