MODEL 1
REMARK VINA RESULT:      -6.1      0.000      0.000
REMARK  5 active torsions:
REMARK  status: ('A' for Active; 'I' for Inactive)
REMARK       I    between atoms: N_4  and  C_8 
REMARK    1  A    between atoms: C_8  and  C_10 
REMARK    2  A    between atoms: C_10  and  N_11 
REMARK    3  A    between atoms: N_11  and  C_12 
REMARK    4  A    between atoms: C_12  and  C_13 
REMARK    5  A    between atoms: C_13  and  N_14 
ROOT
HETATM    1  N   UNL     1     -42.071 -50.045  11.774  1.00  0.00     0.093 N 
HETATM    2  H   UNL     1     -42.536 -50.264  10.889  1.00  0.00     0.316 HD
ENDROOT
BRANCH   1   3
HETATM    3  C   UNL     1     -42.949 -50.532  12.853  1.00  0.00     0.372 C 
BRANCH   3   4
HETATM    4  C   UNL     1     -42.962 -52.063  12.875  1.00  0.00     0.248 C 
HETATM    5  N   UNL     1     -43.677 -52.699  13.876  1.00  0.00    -0.346 N 
HETATM    6  C   UNL     1     -44.402 -52.054  14.973  1.00  0.00     0.157 C 
HETATM    7  C   UNL     1     -43.926 -54.135  13.791  1.00  0.00     0.152 C 
HETATM    8  C   UNL     1     -45.911 -52.338  14.857  1.00  0.00     0.135 C 
HETATM    9  C   UNL     1     -46.574 -51.569  13.721  1.00  0.00     0.041 C 
HETATM   10  O   UNL     1     -46.165 -53.756  14.749  1.00  0.00    -0.383 OA
HETATM   11  C   UNL     1     -45.435 -54.391  13.683  1.00  0.00     0.188 C 
HETATM   12  O   UNL     1     -42.358 -52.689  12.000  1.00  0.00    -0.271 OA
ENDBRANCH   3   4
ENDBRANCH   1   3
BRANCH   1  13
HETATM   13  C   UNL     1     -41.883 -48.586  11.856  1.00  0.00     0.291 C 
BRANCH  13  14
HETATM   14  C   UNL     1     -41.632 -47.936  10.492  1.00  0.00     0.178 C 
BRANCH  14  15
HETATM   15  N   UNL     1     -42.858 -47.779   9.738  1.00  0.00    -0.302 N 
HETATM   16  C   UNL     1     -44.086 -47.455  10.234  1.00  0.00     0.118 A 
HETATM   17  C   UNL     1     -44.944 -47.432   9.154  1.00  0.00    -0.028 A 
HETATM   18  C   UNL     1     -46.388 -47.120   9.138  1.00  0.00     0.051 C 
HETATM   19  C   UNL     1     -44.123 -47.776   8.056  1.00  0.00     0.115 A 
HETATM   20  N   UNL     1     -42.854 -47.986   8.410  1.00  0.00    -0.310 N 
ATOM     21  HN  UNL     1     -42.067 -48.242   7.813  1.00  0.00     0.186 HD
ENDBRANCH  14  15
ENDBRANCH  13  14
ENDBRANCH   1  13
TORSDOF 5
ENDMDL
MODEL 2
REMARK VINA RESULT:      -5.8      1.207      1.912
REMARK  5 active torsions:
REMARK  status: ('A' for Active; 'I' for Inactive)
REMARK       I    between atoms: N_4  and  C_8 
REMARK    1  A    between atoms: C_8  and  C_10 
REMARK    2  A    between atoms: C_10  and  N_11 
REMARK    3  A    between atoms: N_11  and  C_12 
REMARK    4  A    between atoms: C_12  and  C_13 
REMARK    5  A    between atoms: C_13  and  N_14 
ROOT
HETATM    1  N   UNL     1     -42.025 -50.343  11.746  1.00  0.00     0.093 N 
HETATM    2  H   UNL     1     -42.875 -50.493  11.195  1.00  0.00     0.316 HD
ENDROOT
BRANCH   1   3
HETATM    3  C   UNL     1     -42.205 -51.062  13.020  1.00  0.00     0.372 C 
BRANCH   3   4
HETATM    4  C   UNL     1     -43.641 -50.890  13.526  1.00  0.00     0.248 C 
HETATM    5  N   UNL     1     -44.568 -51.869  13.215  1.00  0.00    -0.346 N 
HETATM    6  C   UNL     1     -44.336 -53.059  12.393  1.00  0.00     0.157 C 
HETATM    7  C   UNL     1     -45.868 -51.878  13.880  1.00  0.00     0.152 C 
HETATM    8  C   UNL     1     -44.506 -54.335  13.239  1.00  0.00     0.135 C 
HETATM    9  C   UNL     1     -43.355 -54.558  14.214  1.00  0.00     0.041 C 
HETATM   10  O   UNL     1     -45.779 -54.341  13.919  1.00  0.00    -0.383 OA
HETATM   11  C   UNL     1     -46.014 -53.160  14.709  1.00  0.00     0.188 C 
HETATM   12  O   UNL     1     -43.931 -49.904  14.208  1.00  0.00    -0.271 OA
ENDBRANCH   3   4
ENDBRANCH   1   3
BRANCH   1  13
HETATM   13  C   UNL     1     -41.859 -48.897  11.967  1.00  0.00     0.291 C 
BRANCH  13  14
HETATM   14  C   UNL     1     -41.542 -48.125  10.683  1.00  0.00     0.178 C 
BRANCH  14  15
HETATM   15  N   UNL     1     -42.733 -47.878   9.897  1.00  0.00    -0.302 N 
HETATM   16  C   UNL     1     -43.969 -47.547  10.368  1.00  0.00     0.118 A 
HETATM   17  C   UNL     1     -44.783 -47.425   9.262  1.00  0.00    -0.028 A 
HETATM   18  C   UNL     1     -46.216 -47.066   9.214  1.00  0.00     0.051 C 
HETATM   19  C   UNL     1     -43.931 -47.721   8.174  1.00  0.00     0.115 A 
HETATM   20  N   UNL     1     -42.683 -47.995   8.559  1.00  0.00    -0.310 N 
ATOM     21  HN  UNL     1     -41.881 -48.236   7.976  1.00  0.00     0.186 HD
ENDBRANCH  14  15
ENDBRANCH  13  14
ENDBRANCH   1  13
TORSDOF 5
ENDMDL
MODEL 3
REMARK VINA RESULT:      -5.6      2.548      3.265
REMARK  5 active torsions:
REMARK  status: ('A' for Active; 'I' for Inactive)
REMARK       I    between atoms: N_4  and  C_8 
REMARK    1  A    between atoms: C_8  and  C_10 
REMARK    2  A    between atoms: C_10  and  N_11 
REMARK    3  A    between atoms: N_11  and  C_12 
REMARK    4  A    between atoms: C_12  and  C_13 
REMARK    5  A    between atoms: C_13  and  N_14 
ROOT
HETATM    1  N   UNL     1     -39.616 -49.473  11.076  1.00  0.00     0.093 N 
HETATM    2  H   UNL     1     -39.219 -50.326  10.668  1.00  0.00     0.316 HD
ENDROOT
BRANCH   1   3
HETATM    3  C   UNL     1     -39.490 -49.597  12.539  1.00  0.00     0.372 C 
BRANCH   3   4
HETATM    4  C   UNL     1     -38.878 -50.953  12.905  1.00  0.00     0.248 C 
HETATM    5  N   UNL     1     -39.574 -51.773  13.776  1.00  0.00    -0.346 N 
HETATM    6  C   UNL     1     -40.840 -51.462  14.442  1.00  0.00     0.157 C 
HETATM    7  C   UNL     1     -39.160 -53.162  13.954  1.00  0.00     0.152 C 
HETATM    8  C   UNL     1     -41.945 -52.423  13.967  1.00  0.00     0.135 C 
HETATM    9  C   UNL     1     -42.410 -52.136  12.544  1.00  0.00     0.041 C 
HETATM   10  O   UNL     1     -41.536 -53.800  14.117  1.00  0.00    -0.383 OA
HETATM   11  C   UNL     1     -40.279 -54.098  13.480  1.00  0.00     0.188 C 
HETATM   12  O   UNL     1     -37.800 -51.288  12.407  1.00  0.00    -0.271 OA
ENDBRANCH   3   4
ENDBRANCH   1   3
BRANCH   1  13
HETATM   13  C   UNL     1     -41.027 -49.373  10.667  1.00  0.00     0.291 C 
BRANCH  13  14
HETATM   14  C   UNL     1     -41.579 -47.947  10.760  1.00  0.00     0.178 C 
BRANCH  14  15
HETATM   15  N   UNL     1     -42.756 -47.772   9.934  1.00  0.00    -0.302 N 
HETATM   16  C   UNL     1     -44.014 -47.460  10.360  1.00  0.00     0.118 A 
HETATM   17  C   UNL     1     -44.802 -47.412   9.229  1.00  0.00    -0.028 A 
HETATM   18  C   UNL     1     -46.243 -47.100   9.131  1.00  0.00     0.051 C 
HETATM   19  C   UNL     1     -43.913 -47.729   8.177  1.00  0.00     0.115 A 
HETATM   20  N   UNL     1     -42.668 -47.947   8.605  1.00  0.00    -0.310 N 
ATOM     21  HN  UNL     1     -41.845 -48.189   8.053  1.00  0.00     0.186 HD
ENDBRANCH  14  15
ENDBRANCH  13  14
ENDBRANCH   1  13
TORSDOF 5
ENDMDL
MODEL 4
REMARK VINA RESULT:      -5.3      2.725      3.556
REMARK  5 active torsions:
REMARK  status: ('A' for Active; 'I' for Inactive)
REMARK       I    between atoms: N_4  and  C_8 
REMARK    1  A    between atoms: C_8  and  C_10 
REMARK    2  A    between atoms: C_10  and  N_11 
REMARK    3  A    between atoms: N_11  and  C_12 
REMARK    4  A    between atoms: C_12  and  C_13 
REMARK    5  A    between atoms: C_13  and  N_14 
ROOT
HETATM    1  N   UNL     1     -40.827 -51.381  11.292  1.00  0.00     0.093 N 
HETATM    2  H   UNL     1     -41.193 -51.341  10.335  1.00  0.00     0.316 HD
ENDROOT
BRANCH   1   3
HETATM    3  C   UNL     1     -41.900 -51.929  12.140  1.00  0.00     0.372 C 
BRANCH   3   4
HETATM    4  C   UNL     1     -41.314 -52.878  13.190  1.00  0.00     0.248 C 
HETATM    5  N   UNL     1     -42.070 -53.160  14.314  1.00  0.00    -0.346 N 
HETATM    6  C   UNL     1     -43.383 -52.602  14.644  1.00  0.00     0.157 C 
HETATM    7  C   UNL     1     -41.668 -54.243  15.208  1.00  0.00     0.152 C 
HETATM    8  C   UNL     1     -44.448 -53.714  14.665  1.00  0.00     0.135 C 
HETATM    9  C   UNL     1     -44.807 -54.218  13.272  1.00  0.00     0.041 C 
HETATM   10  O   UNL     1     -44.048 -54.799  15.529  1.00  0.00    -0.383 OA
HETATM   11  C   UNL     1     -42.747 -55.333  15.216  1.00  0.00     0.188 C 
HETATM   12  O   UNL     1     -40.201 -53.378  13.004  1.00  0.00    -0.271 OA
ENDBRANCH   3   4
ENDBRANCH   1   3
BRANCH   1  13
HETATM   13  C   UNL     1     -40.459 -50.018  11.710  1.00  0.00     0.291 C 
BRANCH  13  14
HETATM   14  C   UNL     1     -41.237 -48.930  10.964  1.00  0.00     0.178 C 
BRANCH  14  15
HETATM   15  N   UNL     1     -40.705 -47.610  11.230  1.00  0.00    -0.302 N 
HETATM   16  C   UNL     1     -40.182 -47.163  12.408  1.00  0.00     0.118 A 
HETATM   17  C   UNL     1     -39.817 -45.850  12.194  1.00  0.00    -0.028 A 
HETATM   18  C   UNL     1     -39.188 -44.909  13.142  1.00  0.00     0.051 C 
HETATM   19  C   UNL     1     -40.184 -45.607  10.851  1.00  0.00     0.115 A 
HETATM   20  N   UNL     1     -40.722 -46.678  10.263  1.00  0.00    -0.310 N 
ATOM     21  HN  UNL     1     -41.065 -46.767   9.307  1.00  0.00     0.186 HD
ENDBRANCH  14  15
ENDBRANCH  13  14
ENDBRANCH   1  13
TORSDOF 5
ENDMDL
MODEL 5
REMARK VINA RESULT:      -5.3      3.904      6.940
REMARK  5 active torsions:
REMARK  status: ('A' for Active; 'I' for Inactive)
REMARK       I    between atoms: N_4  and  C_8 
REMARK    1  A    between atoms: C_8  and  C_10 
REMARK    2  A    between atoms: C_10  and  N_11 
REMARK    3  A    between atoms: N_11  and  C_12 
REMARK    4  A    between atoms: C_12  and  C_13 
REMARK    5  A    between atoms: C_13  and  N_14 
ROOT
HETATM    1  N   UNL     1     -42.374 -52.660  11.627  1.00  0.00     0.093 N 
HETATM    2  H   UNL     1     -42.259 -53.382  10.909  1.00  0.00     0.316 HD
ENDROOT
BRANCH   1   3
HETATM    3  C   UNL     1     -41.040 -52.082  11.873  1.00  0.00     0.372 C 
BRANCH   3   4
HETATM    4  C   UNL     1     -41.174 -50.670  12.452  1.00  0.00     0.248 C 
HETATM    5  N   UNL     1     -40.199 -50.226  13.329  1.00  0.00    -0.346 N 
HETATM    6  C   UNL     1     -39.050 -50.993  13.816  1.00  0.00     0.157 C 
HETATM    7  C   UNL     1     -40.146 -48.816  13.704  1.00  0.00     0.152 C 
HETATM    8  C   UNL     1     -37.736 -50.350  13.334  1.00  0.00     0.135 C 
HETATM    9  C   UNL     1     -37.482 -50.563  11.846  1.00  0.00     0.041 C 
HETATM   10  O   UNL     1     -37.685 -48.950  13.680  1.00  0.00    -0.383 OA
HETATM   11  C   UNL     1     -38.827 -48.202  13.220  1.00  0.00     0.188 C 
HETATM   12  O   UNL     1     -42.125 -49.961  12.114  1.00  0.00    -0.271 OA
ENDBRANCH   3   4
ENDBRANCH   1   3
BRANCH   1  13
HETATM   13  C   UNL     1     -42.914 -53.291  12.842  1.00  0.00     0.291 C 
BRANCH  13  14
HETATM   14  C   UNL     1     -44.240 -54.020  12.602  1.00  0.00     0.178 C 
BRANCH  14  15
HETATM   15  N   UNL     1     -45.271 -53.576  13.517  1.00  0.00    -0.302 N 
HETATM   16  C   UNL     1     -45.443 -52.313  14.003  1.00  0.00     0.118 A 
HETATM   17  C   UNL     1     -46.536 -52.369  14.843  1.00  0.00    -0.028 A 
HETATM   18  C   UNL     1     -47.155 -51.271  15.613  1.00  0.00     0.051 C 
HETATM   19  C   UNL     1     -46.933 -53.724  14.799  1.00  0.00     0.115 A 
HETATM   20  N   UNL     1     -46.165 -54.459  13.991  1.00  0.00    -0.310 N 
ATOM     21  HN  UNL     1     -46.240 -55.455  13.784  1.00  0.00     0.186 HD
ENDBRANCH  14  15
ENDBRANCH  13  14
ENDBRANCH   1  13
TORSDOF 5
ENDMDL
MODEL 6
REMARK VINA RESULT:      -5.2      2.165      2.961
REMARK  5 active torsions:
REMARK  status: ('A' for Active; 'I' for Inactive)
REMARK       I    between atoms: N_4  and  C_8 
REMARK    1  A    between atoms: C_8  and  C_10 
REMARK    2  A    between atoms: C_10  and  N_11 
REMARK    3  A    between atoms: N_11  and  C_12 
REMARK    4  A    between atoms: C_12  and  C_13 
REMARK    5  A    between atoms: C_13  and  N_14 
ROOT
HETATM    1  N   UNL     1     -41.255 -52.602  12.264  1.00  0.00     0.093 N 
HETATM    2  H   UNL     1     -41.161 -52.878  11.282  1.00  0.00     0.316 HD
ENDROOT
BRANCH   1   3
HETATM    3  C   UNL     1     -42.683 -52.326  12.499  1.00  0.00     0.372 C 
BRANCH   3   4
HETATM    4  C   UNL     1     -43.226 -53.243  13.599  1.00  0.00     0.248 C 
HETATM    5  N   UNL     1     -44.248 -52.769  14.404  1.00  0.00    -0.346 N 
HETATM    6  C   UNL     1     -44.851 -51.435  14.352  1.00  0.00     0.157 C 
HETATM    7  C   UNL     1     -44.963 -53.686  15.287  1.00  0.00     0.152 C 
HETATM    8  C   UNL     1     -46.334 -51.534  13.948  1.00  0.00     0.135 C 
HETATM    9  C   UNL     1     -46.527 -51.881  12.476  1.00  0.00     0.041 C 
HETATM   10  O   UNL     1     -47.044 -52.457  14.802  1.00  0.00    -0.383 OA
HETATM   11  C   UNL     1     -46.436 -53.761  14.869  1.00  0.00     0.188 C 
HETATM   12  O   UNL     1     -42.760 -54.378  13.729  1.00  0.00    -0.271 OA
ENDBRANCH   3   4
ENDBRANCH   1   3
BRANCH   1  13
HETATM   13  C   UNL     1     -40.434 -51.401  12.492  1.00  0.00     0.291 C 
BRANCH  13  14
HETATM   14  C   UNL     1     -41.245 -50.206  13.002  1.00  0.00     0.178 C 
BRANCH  14  15
HETATM   15  N   UNL     1     -41.202 -49.093  12.076  1.00  0.00    -0.302 N 
HETATM   16  C   UNL     1     -40.402 -47.992  12.161  1.00  0.00     0.118 A 
HETATM   17  C   UNL     1     -40.717 -47.203  11.073  1.00  0.00    -0.028 A 
HETATM   18  C   UNL     1     -40.130 -45.904  10.684  1.00  0.00     0.051 C 
HETATM   19  C   UNL     1     -41.735 -47.924  10.410  1.00  0.00     0.115 A 
HETATM   20  N   UNL     1     -42.030 -49.075  11.018  1.00  0.00    -0.310 N 
ATOM     21  HN  UNL     1     -42.720 -49.774  10.744  1.00  0.00     0.186 HD
ENDBRANCH  14  15
ENDBRANCH  13  14
ENDBRANCH   1  13
TORSDOF 5
ENDMDL
MODEL 7
REMARK VINA RESULT:      -5.1      3.343      6.176
REMARK  5 active torsions:
REMARK  status: ('A' for Active; 'I' for Inactive)
REMARK       I    between atoms: N_4  and  C_8 
REMARK    1  A    between atoms: C_8  and  C_10 
REMARK    2  A    between atoms: C_10  and  N_11 
REMARK    3  A    between atoms: N_11  and  C_12 
REMARK    4  A    between atoms: C_12  and  C_13 
REMARK    5  A    between atoms: C_13  and  N_14 
ROOT
HETATM    1  N   UNL     1     -41.860 -52.298  13.456  1.00  0.00     0.093 N 
HETATM    2  H   UNL     1     -42.502 -51.529  13.671  1.00  0.00     0.316 HD
ENDROOT
BRANCH   1   3
HETATM    3  C   UNL     1     -41.308 -52.035  12.115  1.00  0.00     0.372 C 
BRANCH   3   4
HETATM    4  C   UNL     1     -40.039 -51.184  12.222  1.00  0.00     0.248 C 
HETATM    5  N   UNL     1     -40.076 -49.887  11.740  1.00  0.00    -0.346 N 
HETATM    6  C   UNL     1     -41.208 -49.235  11.078  1.00  0.00     0.157 C 
HETATM    7  C   UNL     1     -38.985 -48.966  12.046  1.00  0.00     0.152 C 
HETATM    8  C   UNL     1     -41.715 -48.053  11.925  1.00  0.00     0.135 C 
HETATM    9  C   UNL     1     -42.464 -48.498  13.176  1.00  0.00     0.041 C 
HETATM   10  O   UNL     1     -40.638 -47.149  12.252  1.00  0.00    -0.383 OA
HETATM   11  C   UNL     1     -39.517 -47.796  12.883  1.00  0.00     0.188 C 
HETATM   12  O   UNL     1     -39.029 -51.661  12.746  1.00  0.00    -0.271 OA
ENDBRANCH   3   4
ENDBRANCH   1   3
BRANCH   1  13
HETATM   13  C   UNL     1     -42.617 -53.561  13.484  1.00  0.00     0.291 C 
BRANCH  13  14
HETATM   14  C   UNL     1     -43.799 -53.575  12.510  1.00  0.00     0.178 C 
BRANCH  14  15
HETATM   15  N   UNL     1     -44.917 -52.803  13.013  1.00  0.00    -0.302 N 
HETATM   16  C   UNL     1     -45.290 -52.660  14.317  1.00  0.00     0.118 A 
HETATM   17  C   UNL     1     -46.409 -51.853  14.311  1.00  0.00    -0.028 A 
HETATM   18  C   UNL     1     -47.199 -51.375  15.464  1.00  0.00     0.051 C 
HETATM   19  C   UNL     1     -46.629 -51.582  12.941  1.00  0.00     0.115 A 
HETATM   20  N   UNL     1     -45.722 -52.158  12.151  1.00  0.00    -0.310 N 
ATOM     21  HN  UNL     1     -45.655 -52.119  11.134  1.00  0.00     0.186 HD
ENDBRANCH  14  15
ENDBRANCH  13  14
ENDBRANCH   1  13
TORSDOF 5
ENDMDL
MODEL 8
REMARK VINA RESULT:      -5.0      3.208      7.080
REMARK  5 active torsions:
REMARK  status: ('A' for Active; 'I' for Inactive)
REMARK       I    between atoms: N_4  and  C_8 
REMARK    1  A    between atoms: C_8  and  C_10 
REMARK    2  A    between atoms: C_10  and  N_11 
REMARK    3  A    between atoms: N_11  and  C_12 
REMARK    4  A    between atoms: C_12  and  C_13 
REMARK    5  A    between atoms: C_13  and  N_14 
ROOT
HETATM    1  N   UNL     1     -41.879 -50.169  11.613  1.00  0.00     0.093 N 
HETATM    2  H   UNL     1     -40.857 -50.128  11.654  1.00  0.00     0.316 HD
ENDROOT
BRANCH   1   3
HETATM    3  C   UNL     1     -42.380 -48.842  12.015  1.00  0.00     0.372 C 
BRANCH   3   4
HETATM    4  C   UNL     1     -42.096 -47.814  10.915  1.00  0.00     0.248 C 
HETATM    5  N   UNL     1     -41.744 -46.530  11.293  1.00  0.00    -0.346 N 
HETATM    6  C   UNL     1     -41.656 -46.017  12.662  1.00  0.00     0.157 C 
HETATM    7  C   UNL     1     -41.223 -45.596  10.298  1.00  0.00     0.152 C 
HETATM    8  C   UNL     1     -40.205 -45.623  12.993  1.00  0.00     0.135 C 
HETATM    9  C   UNL     1     -39.292 -46.828  13.189  1.00  0.00     0.041 C 
HETATM   10  O   UNL     1     -39.674 -44.717  12.002  1.00  0.00    -0.383 OA
HETATM   11  C   UNL     1     -39.782 -45.214  10.654  1.00  0.00     0.188 C 
HETATM   12  O   UNL     1     -42.169 -48.154   9.731  1.00  0.00    -0.271 OA
ENDBRANCH   3   4
ENDBRANCH   1   3
BRANCH   1  13
HETATM   13  C   UNL     1     -42.342 -51.217  12.538  1.00  0.00     0.291 C 
BRANCH  13  14
HETATM   14  C   UNL     1     -42.904 -50.657  13.848  1.00  0.00     0.178 C 
BRANCH  14  15
HETATM   15  N   UNL     1     -44.307 -50.978  14.012  1.00  0.00    -0.302 N 
HETATM   16  C   UNL     1     -44.981 -51.114  15.190  1.00  0.00     0.118 A 
HETATM   17  C   UNL     1     -46.281 -51.434  14.854  1.00  0.00    -0.028 A 
HETATM   18  C   UNL     1     -47.426 -51.674  15.756  1.00  0.00     0.051 C 
HETATM   19  C   UNL     1     -46.269 -51.480  13.442  1.00  0.00     0.115 A 
HETATM   20  N   UNL     1     -45.070 -51.201  12.928  1.00  0.00    -0.310 N 
ATOM     21  HN  UNL     1     -44.796 -51.165  11.946  1.00  0.00     0.186 HD
ENDBRANCH  14  15
ENDBRANCH  13  14
ENDBRANCH   1  13
TORSDOF 5
ENDMDL
MODEL 9
REMARK VINA RESULT:      -5.0      1.780      2.664
REMARK  5 active torsions:
REMARK  status: ('A' for Active; 'I' for Inactive)
REMARK       I    between atoms: N_4  and  C_8 
REMARK    1  A    between atoms: C_8  and  C_10 
REMARK    2  A    between atoms: C_10  and  N_11 
REMARK    3  A    between atoms: N_11  and  C_12 
REMARK    4  A    between atoms: C_12  and  C_13 
REMARK    5  A    between atoms: C_13  and  N_14 
ROOT
HETATM    1  N   UNL     1     -43.244 -50.270  12.571  1.00  0.00     0.093 N 
HETATM    2  H   UNL     1     -44.184 -49.958  12.833  1.00  0.00     0.316 HD
ENDROOT
BRANCH   1   3
HETATM    3  C   UNL     1     -42.673 -50.952  13.746  1.00  0.00     0.372 C 
BRANCH   3   4
HETATM    4  C   UNL     1     -42.836 -52.469  13.609  1.00  0.00     0.248 C 
HETATM    5  N   UNL     1     -43.763 -53.105  14.416  1.00  0.00    -0.346 N 
HETATM    6  C   UNL     1     -44.595 -52.480  15.448  1.00  0.00     0.157 C 
HETATM    7  C   UNL     1     -44.132 -54.492  14.148  1.00  0.00     0.152 C 
HETATM    8  C   UNL     1     -46.084 -52.584  15.070  1.00  0.00     0.135 C 
HETATM    9  C   UNL     1     -46.474 -51.652  13.929  1.00  0.00     0.041 C 
HETATM   10  O   UNL     1     -46.451 -53.950  14.780  1.00  0.00    -0.383 OA
HETATM   11  C   UNL     1     -45.619 -54.570  13.782  1.00  0.00     0.188 C 
HETATM   12  O   UNL     1     -42.158 -53.081  12.779  1.00  0.00    -0.271 OA
ENDBRANCH   3   4
ENDBRANCH   1   3
BRANCH   1  13
HETATM   13  C   UNL     1     -42.446 -49.089  12.199  1.00  0.00     0.291 C 
BRANCH  13  14
HETATM   14  C   UNL     1     -43.262 -48.019  11.467  1.00  0.00     0.178 C 
BRANCH  14  15
HETATM   15  N   UNL     1     -42.470 -46.840  11.186  1.00  0.00    -0.302 N 
HETATM   16  C   UNL     1     -41.193 -46.807  10.709  1.00  0.00     0.118 A 
HETATM   17  C   UNL     1     -40.852 -45.475  10.612  1.00  0.00    -0.028 A 
HETATM   18  C   UNL     1     -39.583 -44.887  10.135  1.00  0.00     0.051 C 
HETATM   19  C   UNL     1     -41.999 -44.792  11.074  1.00  0.00     0.115 A 
HETATM   20  N   UNL     1     -42.985 -45.621  11.422  1.00  0.00    -0.310 N 
ATOM     21  HN  UNL     1     -43.911 -45.385  11.781  1.00  0.00     0.186 HD
ENDBRANCH  14  15
ENDBRANCH  13  14
ENDBRANCH   1  13
TORSDOF 5
ENDMDL
