MODEL 1
REMARK VINA RESULT:      -5.6      0.000      0.000
REMARK  5 active torsions:
REMARK  status: ('A' for Active; 'I' for Inactive)
REMARK       I    between atoms: C_2  and  N_3 
REMARK       I    between atoms: C_2  and  N_13 
REMARK    1  A    between atoms: N_3  and  C_4 
REMARK    2  A    between atoms: C_4  and  C_5 
REMARK    3  A    between atoms: C_5  and  C_6 
REMARK    4  A    between atoms: N_13  and  C_14 
REMARK    5  A    between atoms: C_14  and  C_15 
ROOT
HETATM    1  O   UNL     1     -44.988 -54.154  12.431  1.00  0.00    -0.247 OA
HETATM    2  C   UNL     1     -44.407 -53.073  12.436  1.00  0.00     0.316 C 
HETATM    3  N   UNL     1     -43.078 -53.016  12.131  1.00  0.00    -0.343 N 
HETATM    4  N   UNL     1     -44.990 -51.880  12.724  1.00  0.00    -0.343 N 
HETATM    5  H   UNL     1     -42.673 -53.930  11.958  1.00  0.00     0.164 HD
HETATM    6  H   UNL     1     -44.395 -51.092  12.902  1.00  0.00     0.164 HD
ENDROOT
BRANCH   3   7
HETATM    7  C   UNL     1     -42.224 -51.845  12.188  1.00  0.00     0.129 C 
BRANCH   7   8
HETATM    8  C   UNL     1     -41.081 -51.968  13.192  1.00  0.00     0.060 C 
BRANCH   8   9
HETATM    9  C   UNL     1     -39.844 -51.296  12.664  1.00  0.00    -0.041 A 
HETATM   10  C   UNL     1     -38.610 -51.433  13.308  1.00  0.00     0.010 A 
HETATM   11  C   UNL     1     -37.494 -50.765  12.813  1.00  0.00     0.018 A 
HETATM   12  C   UNL     1     -37.651 -49.969  11.691  1.00  0.00     0.087 A 
HETATM   13  N   UNL     1     -38.827 -49.798  11.050  1.00  0.00    -0.375 N 
HETATM   14  C   UNL     1     -39.893 -50.464  11.549  1.00  0.00     0.094 A 
ATOM     15  HN  UNL     1     -38.907 -49.198  10.230  1.00  0.00     0.164 HD
ENDBRANCH   8   9
ENDBRANCH   7   8
ENDBRANCH   3   7
BRANCH   4  16
HETATM   16  C   UNL     1     -46.341 -51.768  13.213  1.00  0.00     0.129 C 
BRANCH  16  17
HETATM   17  C   UNL     1     -46.389 -52.101  14.673  1.00  0.00     0.003 A 
HETATM   18  C   UNL     1     -47.303 -51.411  15.662  1.00  0.00     0.007 A 
HETATM   19  C   UNL     1     -45.833 -51.113  15.671  1.00  0.00     0.007 A 
ENDBRANCH  16  17
ENDBRANCH   4  16
TORSDOF 5
ENDMDL
MODEL 2
REMARK VINA RESULT:      -5.3      2.350      2.937
REMARK  5 active torsions:
REMARK  status: ('A' for Active; 'I' for Inactive)
REMARK       I    between atoms: C_2  and  N_3 
REMARK       I    between atoms: C_2  and  N_13 
REMARK    1  A    between atoms: N_3  and  C_4 
REMARK    2  A    between atoms: C_4  and  C_5 
REMARK    3  A    between atoms: C_5  and  C_6 
REMARK    4  A    between atoms: N_13  and  C_14 
REMARK    5  A    between atoms: C_14  and  C_15 
ROOT
HETATM    1  O   UNL     1     -45.744 -55.505  14.027  1.00  0.00    -0.247 OA
HETATM    2  C   UNL     1     -44.892 -54.723  14.438  1.00  0.00     0.316 C 
HETATM    3  N   UNL     1     -43.600 -55.140  14.578  1.00  0.00    -0.343 N 
HETATM    4  N   UNL     1     -45.127 -53.428  14.775  1.00  0.00    -0.343 N 
HETATM    5  H   UNL     1     -43.475 -56.121  14.351  1.00  0.00     0.164 HD
HETATM    6  H   UNL     1     -44.419 -52.937  15.290  1.00  0.00     0.164 HD
ENDROOT
BRANCH   3   7
HETATM    7  C   UNL     1     -42.500 -54.381  15.141  1.00  0.00     0.129 C 
BRANCH   7   8
HETATM    8  C   UNL     1     -41.296 -54.264  14.212  1.00  0.00     0.060 C 
BRANCH   8   9
HETATM    9  C   UNL     1     -41.318 -52.946  13.488  1.00  0.00    -0.041 A 
HETATM   10  C   UNL     1     -41.718 -51.770  14.129  1.00  0.00     0.010 A 
HETATM   11  C   UNL     1     -41.764 -50.576  13.416  1.00  0.00     0.018 A 
HETATM   12  C   UNL     1     -41.414 -50.597  12.077  1.00  0.00     0.087 A 
HETATM   13  N   UNL     1     -41.037 -51.714  11.418  1.00  0.00    -0.375 N 
HETATM   14  C   UNL     1     -40.996 -52.859  12.136  1.00  0.00     0.094 A 
ATOM     15  HN  UNL     1     -40.793 -51.694  10.429  1.00  0.00     0.164 HD
ENDBRANCH   8   9
ENDBRANCH   7   8
ENDBRANCH   3   7
BRANCH   4  16
HETATM   16  C   UNL     1     -46.450 -52.863  14.835  1.00  0.00     0.129 C 
BRANCH  16  17
HETATM   17  C   UNL     1     -46.517 -51.617  14.005  1.00  0.00     0.003 A 
HETATM   18  C   UNL     1     -46.680 -51.618  12.501  1.00  0.00     0.007 A 
HETATM   19  C   UNL     1     -45.353 -51.269  13.108  1.00  0.00     0.007 A 
ENDBRANCH  16  17
ENDBRANCH   4  16
TORSDOF 5
ENDMDL
MODEL 3
REMARK VINA RESULT:      -5.3      2.837      6.437
REMARK  5 active torsions:
REMARK  status: ('A' for Active; 'I' for Inactive)
REMARK       I    between atoms: C_2  and  N_3 
REMARK       I    between atoms: C_2  and  N_13 
REMARK    1  A    between atoms: N_3  and  C_4 
REMARK    2  A    between atoms: C_4  and  C_5 
REMARK    3  A    between atoms: C_5  and  C_6 
REMARK    4  A    between atoms: N_13  and  C_14 
REMARK    5  A    between atoms: C_14  and  C_15 
ROOT
HETATM    1  O   UNL     1     -44.751 -55.706  14.430  1.00  0.00    -0.247 OA
HETATM    2  C   UNL     1     -44.591 -54.592  13.941  1.00  0.00     0.316 C 
HETATM    3  N   UNL     1     -45.623 -53.983  13.289  1.00  0.00    -0.343 N 
HETATM    4  N   UNL     1     -43.435 -53.879  13.999  1.00  0.00    -0.343 N 
HETATM    5  H   UNL     1     -46.455 -54.563  13.237  1.00  0.00     0.164 HD
HETATM    6  H   UNL     1     -43.342 -53.079  13.399  1.00  0.00     0.164 HD
ENDROOT
BRANCH   3   7
HETATM    7  C   UNL     1     -45.575 -52.723  12.573  1.00  0.00     0.129 C 
BRANCH   7   8
HETATM    8  C   UNL     1     -46.564 -51.684  13.092  1.00  0.00     0.060 C 
BRANCH   8   9
HETATM    9  C   UNL     1     -46.265 -51.344  14.527  1.00  0.00    -0.041 A 
HETATM   10  C   UNL     1     -47.240 -51.464  15.521  1.00  0.00     0.010 A 
HETATM   11  C   UNL     1     -46.939 -51.103  16.831  1.00  0.00     0.018 A 
HETATM   12  C   UNL     1     -45.669 -50.623  17.104  1.00  0.00     0.087 A 
HETATM   13  N   UNL     1     -44.705 -50.479  16.169  1.00  0.00    -0.375 N 
HETATM   14  C   UNL     1     -45.023 -50.842  14.906  1.00  0.00     0.094 A 
ATOM     15  HN  UNL     1     -43.782 -50.115  16.405  1.00  0.00     0.164 HD
ENDBRANCH   8   9
ENDBRANCH   7   8
ENDBRANCH   3   7
BRANCH   4  16
HETATM   16  C   UNL     1     -42.205 -54.424  14.512  1.00  0.00     0.129 C 
BRANCH  16  17
HETATM   17  C   UNL     1     -41.104 -54.242  13.512  1.00  0.00     0.003 A 
HETATM   18  C   UNL     1     -39.636 -54.405  13.840  1.00  0.00     0.007 A 
HETATM   19  C   UNL     1     -40.204 -53.034  13.620  1.00  0.00     0.007 A 
ENDBRANCH  16  17
ENDBRANCH   4  16
TORSDOF 5
ENDMDL
MODEL 4
REMARK VINA RESULT:      -5.3      4.150      5.278
REMARK  5 active torsions:
REMARK  status: ('A' for Active; 'I' for Inactive)
REMARK       I    between atoms: C_2  and  N_3 
REMARK       I    between atoms: C_2  and  N_13 
REMARK    1  A    between atoms: N_3  and  C_4 
REMARK    2  A    between atoms: C_4  and  C_5 
REMARK    3  A    between atoms: C_5  and  C_6 
REMARK    4  A    between atoms: N_13  and  C_14 
REMARK    5  A    between atoms: C_14  and  C_15 
ROOT
HETATM    1  O   UNL     1     -42.740 -46.413  11.396  1.00  0.00    -0.247 OA
HETATM    2  C   UNL     1     -42.443 -47.517  10.950  1.00  0.00     0.316 C 
HETATM    3  N   UNL     1     -41.435 -48.233  11.529  1.00  0.00    -0.343 N 
HETATM    4  N   UNL     1     -43.054 -48.118   9.895  1.00  0.00    -0.343 N 
HETATM    5  H   UNL     1     -40.983 -47.735  12.288  1.00  0.00     0.164 HD
HETATM    6  H   UNL     1     -42.609 -48.917   9.483  1.00  0.00     0.164 HD
ENDROOT
BRANCH   3   7
HETATM    7  C   UNL     1     -40.895 -49.498  11.069  1.00  0.00     0.129 C 
BRANCH   7   8
HETATM    8  C   UNL     1     -39.778 -50.046  11.952  1.00  0.00     0.060 C 
BRANCH   8   9
HETATM    9  C   UNL     1     -40.133 -51.416  12.459  1.00  0.00    -0.041 A 
HETATM   10  C   UNL     1     -39.431 -52.006  13.514  1.00  0.00     0.010 A 
HETATM   11  C   UNL     1     -39.763 -53.292  13.931  1.00  0.00     0.018 A 
HETATM   12  C   UNL     1     -40.784 -53.953  13.271  1.00  0.00     0.087 A 
HETATM   13  N   UNL     1     -41.476 -53.423  12.239  1.00  0.00    -0.375 N 
HETATM   14  C   UNL     1     -41.136 -52.171  11.858  1.00  0.00     0.094 A 
ATOM     15  HN  UNL     1     -42.218 -53.942  11.770  1.00  0.00     0.164 HD
ENDBRANCH   8   9
ENDBRANCH   7   8
ENDBRANCH   3   7
BRANCH   4  16
HETATM   16  C   UNL     1     -44.030 -47.450   9.073  1.00  0.00     0.129 C 
BRANCH  16  17
HETATM   17  C   UNL     1     -45.412 -47.750   9.566  1.00  0.00     0.003 A 
HETATM   18  C   UNL     1     -46.492 -48.373   8.709  1.00  0.00     0.007 A 
HETATM   19  C   UNL     1     -46.568 -46.917   9.064  1.00  0.00     0.007 A 
ENDBRANCH  16  17
ENDBRANCH   4  16
TORSDOF 5
ENDMDL
MODEL 5
REMARK VINA RESULT:      -5.1      3.439      6.224
REMARK  5 active torsions:
REMARK  status: ('A' for Active; 'I' for Inactive)
REMARK       I    between atoms: C_2  and  N_3 
REMARK       I    between atoms: C_2  and  N_13 
REMARK    1  A    between atoms: N_3  and  C_4 
REMARK    2  A    between atoms: C_4  and  C_5 
REMARK    3  A    between atoms: C_5  and  C_6 
REMARK    4  A    between atoms: N_13  and  C_14 
REMARK    5  A    between atoms: C_14  and  C_15 
ROOT
HETATM    1  O   UNL     1     -39.028 -49.376  11.411  1.00  0.00    -0.247 OA
HETATM    2  C   UNL     1     -40.113 -49.946  11.466  1.00  0.00     0.316 C 
HETATM    3  N   UNL     1     -40.167 -51.271  11.788  1.00  0.00    -0.343 N 
HETATM    4  N   UNL     1     -41.314 -49.354  11.232  1.00  0.00    -0.343 N 
HETATM    5  H   UNL     1     -39.249 -51.683  11.919  1.00  0.00     0.164 HD
HETATM    6  H   UNL     1     -42.115 -49.943  11.100  1.00  0.00     0.164 HD
ENDROOT
BRANCH   3   7
HETATM    7  C   UNL     1     -41.347 -52.114  11.799  1.00  0.00     0.129 C 
BRANCH   7   8
HETATM    8  C   UNL     1     -41.201 -53.363  12.664  1.00  0.00     0.060 C 
BRANCH   8   9
HETATM    9  C   UNL     1     -42.542 -53.795  13.191  1.00  0.00    -0.041 A 
HETATM   10  C   UNL     1     -42.651 -54.610  14.322  1.00  0.00     0.010 A 
HETATM   11  C   UNL     1     -43.907 -55.023  14.758  1.00  0.00     0.018 A 
HETATM   12  C   UNL     1     -45.017 -54.615  14.039  1.00  0.00     0.087 A 
HETATM   13  N   UNL     1     -44.953 -53.841  12.934  1.00  0.00    -0.375 N 
HETATM   14  C   UNL     1     -43.721 -53.450  12.536  1.00  0.00     0.094 A 
ATOM     15  HN  UNL     1     -45.792 -53.565  12.425  1.00  0.00     0.164 HD
ENDBRANCH   8   9
ENDBRANCH   7   8
ENDBRANCH   3   7
BRANCH   4  16
HETATM   16  C   UNL     1     -41.438 -48.008  10.735  1.00  0.00     0.129 C 
BRANCH  16  17
HETATM   17  C   UNL     1     -42.588 -47.915   9.780  1.00  0.00     0.003 A 
HETATM   18  C   UNL     1     -43.180 -46.607   9.302  1.00  0.00     0.007 A 
HETATM   19  C   UNL     1     -43.932 -47.449  10.290  1.00  0.00     0.007 A 
ENDBRANCH  16  17
ENDBRANCH   4  16
TORSDOF 5
ENDMDL
MODEL 6
REMARK VINA RESULT:      -5.0      2.401      3.419
REMARK  5 active torsions:
REMARK  status: ('A' for Active; 'I' for Inactive)
REMARK       I    between atoms: C_2  and  N_3 
REMARK       I    between atoms: C_2  and  N_13 
REMARK    1  A    between atoms: N_3  and  C_4 
REMARK    2  A    between atoms: C_4  and  C_5 
REMARK    3  A    between atoms: C_5  and  C_6 
REMARK    4  A    between atoms: N_13  and  C_14 
REMARK    5  A    between atoms: C_14  and  C_15 
ROOT
HETATM    1  O   UNL     1     -42.329 -54.428  14.141  1.00  0.00    -0.247 OA
HETATM    2  C   UNL     1     -42.197 -53.511  13.336  1.00  0.00     0.316 C 
HETATM    3  N   UNL     1     -41.037 -52.792  13.311  1.00  0.00    -0.343 N 
HETATM    4  N   UNL     1     -43.136 -53.134  12.428  1.00  0.00    -0.343 N 
HETATM    5  H   UNL     1     -40.378 -53.081  14.027  1.00  0.00     0.164 HD
HETATM    6  H   UNL     1     -43.017 -52.254  11.962  1.00  0.00     0.164 HD
ENDROOT
BRANCH   3   7
HETATM    7  C   UNL     1     -40.758 -51.623  12.500  1.00  0.00     0.129 C 
BRANCH   7   8
HETATM    8  C   UNL     1     -41.185 -50.310  13.148  1.00  0.00     0.060 C 
BRANCH   8   9
HETATM    9  C   UNL     1     -41.729 -49.365  12.113  1.00  0.00    -0.041 A 
HETATM   10  C   UNL     1     -42.923 -48.667  12.319  1.00  0.00     0.010 A 
HETATM   11  C   UNL     1     -43.417 -47.831  11.322  1.00  0.00     0.018 A 
HETATM   12  C   UNL     1     -42.702 -47.727  10.141  1.00  0.00     0.087 A 
HETATM   13  N   UNL     1     -41.554 -48.394   9.897  1.00  0.00    -0.375 N 
HETATM   14  C   UNL     1     -41.095 -49.195  10.885  1.00  0.00     0.094 A 
ATOM     15  HN  UNL     1     -41.058 -48.299   9.012  1.00  0.00     0.164 HD
ENDBRANCH   8   9
ENDBRANCH   7   8
ENDBRANCH   3   7
BRANCH   4  16
HETATM   16  C   UNL     1     -44.470 -53.677  12.413  1.00  0.00     0.129 C 
BRANCH  16  17
HETATM   17  C   UNL     1     -45.381 -52.829  13.246  1.00  0.00     0.003 A 
HETATM   18  C   UNL     1     -46.382 -51.853  12.668  1.00  0.00     0.007 A 
HETATM   19  C   UNL     1     -45.133 -51.341  13.324  1.00  0.00     0.007 A 
ENDBRANCH  16  17
ENDBRANCH   4  16
TORSDOF 5
ENDMDL
MODEL 7
REMARK VINA RESULT:      -5.0      2.833      6.895
REMARK  5 active torsions:
REMARK  status: ('A' for Active; 'I' for Inactive)
REMARK       I    between atoms: C_2  and  N_3 
REMARK       I    between atoms: C_2  and  N_13 
REMARK    1  A    between atoms: N_3  and  C_4 
REMARK    2  A    between atoms: C_4  and  C_5 
REMARK    3  A    between atoms: C_5  and  C_6 
REMARK    4  A    between atoms: N_13  and  C_14 
REMARK    5  A    between atoms: C_14  and  C_15 
ROOT
HETATM    1  O   UNL     1     -41.323 -51.589  12.516  1.00  0.00    -0.247 OA
HETATM    2  C   UNL     1     -42.119 -52.523  12.535  1.00  0.00     0.316 C 
HETATM    3  N   UNL     1     -43.447 -52.285  12.331  1.00  0.00    -0.343 N 
HETATM    4  N   UNL     1     -41.784 -53.823  12.744  1.00  0.00    -0.343 N 
HETATM    5  H   UNL     1     -43.659 -51.300  12.215  1.00  0.00     0.164 HD
HETATM    6  H   UNL     1     -42.520 -54.475  12.945  1.00  0.00     0.164 HD
ENDROOT
BRANCH   3   7
HETATM    7  C   UNL     1     -44.525 -53.252  12.421  1.00  0.00     0.129 C 
BRANCH   7   8
HETATM    8  C   UNL     1     -45.897 -52.622  12.642  1.00  0.00     0.060 C 
BRANCH   8   9
HETATM    9  C   UNL     1     -46.201 -52.529  14.112  1.00  0.00    -0.041 A 
HETATM   10  C   UNL     1     -46.809 -51.395  14.659  1.00  0.00     0.010 A 
HETATM   11  C   UNL     1     -47.039 -51.328  16.030  1.00  0.00     0.018 A 
HETATM   12  C   UNL     1     -46.644 -52.398  16.814  1.00  0.00     0.087 A 
HETATM   13  N   UNL     1     -46.042 -53.503  16.327  1.00  0.00    -0.375 N 
HETATM   14  C   UNL     1     -45.835 -53.544  14.991  1.00  0.00     0.094 A 
ATOM     15  HN  UNL     1     -45.758 -54.270  16.936  1.00  0.00     0.164 HD
ENDBRANCH   8   9
ENDBRANCH   7   8
ENDBRANCH   3   7
BRANCH   4  16
HETATM   16  C   UNL     1     -40.458 -54.238  13.125  1.00  0.00     0.129 C 
BRANCH  16  17
HETATM   17  C   UNL     1     -40.343 -54.288  14.618  1.00  0.00     0.003 A 
HETATM   18  C   UNL     1     -39.271 -53.564  15.402  1.00  0.00     0.007 A 
HETATM   19  C   UNL     1     -39.200 -55.054  15.241  1.00  0.00     0.007 A 
ENDBRANCH  16  17
ENDBRANCH   4  16
TORSDOF 5
ENDMDL
MODEL 8
REMARK VINA RESULT:      -4.9      2.186      6.845
REMARK  5 active torsions:
REMARK  status: ('A' for Active; 'I' for Inactive)
REMARK       I    between atoms: C_2  and  N_3 
REMARK       I    between atoms: C_2  and  N_13 
REMARK    1  A    between atoms: N_3  and  C_4 
REMARK    2  A    between atoms: C_4  and  C_5 
REMARK    3  A    between atoms: C_5  and  C_6 
REMARK    4  A    between atoms: N_13  and  C_14 
REMARK    5  A    between atoms: C_14  and  C_15 
ROOT
HETATM    1  O   UNL     1     -39.988 -52.508  12.411  1.00  0.00    -0.247 OA
HETATM    2  C   UNL     1     -41.159 -52.212  12.195  1.00  0.00     0.316 C 
HETATM    3  N   UNL     1     -42.149 -53.104  12.488  1.00  0.00    -0.343 N 
HETATM    4  N   UNL     1     -41.576 -51.027  11.675  1.00  0.00    -0.343 N 
HETATM    5  H   UNL     1     -41.794 -53.987  12.840  1.00  0.00     0.164 HD
HETATM    6  H   UNL     1     -42.522 -50.961  11.347  1.00  0.00     0.164 HD
ENDROOT
BRANCH   3   7
HETATM    7  C   UNL     1     -43.563 -52.955  12.205  1.00  0.00     0.129 C 
BRANCH   7   8
HETATM    8  C   UNL     1     -44.446 -53.961  12.937  1.00  0.00     0.060 C 
BRANCH   8   9
HETATM    9  C   UNL     1     -45.376 -53.253  13.883  1.00  0.00    -0.041 A 
HETATM   10  C   UNL     1     -45.955 -52.025  13.552  1.00  0.00     0.010 A 
HETATM   11  C   UNL     1     -46.780 -51.380  14.469  1.00  0.00     0.018 A 
HETATM   12  C   UNL     1     -46.992 -51.982  15.697  1.00  0.00     0.087 A 
HETATM   13  N   UNL     1     -46.440 -53.159  16.060  1.00  0.00    -0.375 N 
HETATM   14  C   UNL     1     -45.647 -53.767  15.148  1.00  0.00     0.094 A 
ATOM     15  HN  UNL     1     -46.612 -53.571  16.977  1.00  0.00     0.164 HD
ENDBRANCH   8   9
ENDBRANCH   7   8
ENDBRANCH   3   7
BRANCH   4  16
HETATM   16  C   UNL     1     -40.667 -50.032  11.168  1.00  0.00     0.129 C 
BRANCH  16  17
HETATM   17  C   UNL     1     -40.334 -49.042  12.242  1.00  0.00     0.003 A 
HETATM   18  C   UNL     1     -39.809 -47.651  11.968  1.00  0.00     0.007 A 
HETATM   19  C   UNL     1     -38.886 -48.704  12.506  1.00  0.00     0.007 A 
ENDBRANCH  16  17
ENDBRANCH   4  16
TORSDOF 5
ENDMDL
MODEL 9
REMARK VINA RESULT:      -4.9      3.491      6.813
REMARK  5 active torsions:
REMARK  status: ('A' for Active; 'I' for Inactive)
REMARK       I    between atoms: C_2  and  N_3 
REMARK       I    between atoms: C_2  and  N_13 
REMARK    1  A    between atoms: N_3  and  C_4 
REMARK    2  A    between atoms: C_4  and  C_5 
REMARK    3  A    between atoms: C_5  and  C_6 
REMARK    4  A    between atoms: N_13  and  C_14 
REMARK    5  A    between atoms: C_14  and  C_15 
ROOT
HETATM    1  O   UNL     1     -42.274 -47.694   9.854  1.00  0.00    -0.247 OA
HETATM    2  C   UNL     1     -41.478 -48.215  10.627  1.00  0.00     0.316 C 
HETATM    3  N   UNL     1     -41.690 -49.492  11.060  1.00  0.00    -0.343 N 
HETATM    4  N   UNL     1     -40.356 -47.616  11.107  1.00  0.00    -0.343 N 
HETATM    5  H   UNL     1     -42.554 -49.890  10.707  1.00  0.00     0.164 HD
HETATM    6  H   UNL     1     -39.887 -48.043  11.884  1.00  0.00     0.164 HD
ENDROOT
BRANCH   3   7
HETATM    7  C   UNL     1     -40.908 -50.216  12.044  1.00  0.00     0.129 C 
BRANCH   7   8
HETATM    8  C   UNL     1     -41.672 -50.522  13.329  1.00  0.00     0.060 C 
BRANCH   8   9
HETATM    9  C   UNL     1     -42.925 -51.296  13.024  1.00  0.00    -0.041 A 
HETATM   10  C   UNL     1     -44.183 -50.827  13.414  1.00  0.00     0.010 A 
HETATM   11  C   UNL     1     -45.317 -51.589  13.149  1.00  0.00     0.018 A 
HETATM   12  C   UNL     1     -45.155 -52.805  12.509  1.00  0.00     0.087 A 
HETATM   13  N   UNL     1     -43.957 -53.300  12.130  1.00  0.00    -0.375 N 
HETATM   14  C   UNL     1     -42.873 -52.536  12.394  1.00  0.00     0.094 A 
ATOM     15  HN  UNL     1     -43.874 -54.204  11.666  1.00  0.00     0.164 HD
ENDBRANCH   8   9
ENDBRANCH   7   8
ENDBRANCH   3   7
BRANCH   4  16
HETATM   16  C   UNL     1     -40.055 -46.226  10.880  1.00  0.00     0.129 C 
BRANCH  16  17
HETATM   17  C   UNL     1     -40.205 -45.451  12.153  1.00  0.00     0.003 A 
HETATM   18  C   UNL     1     -39.203 -44.425  12.635  1.00  0.00     0.007 A 
HETATM   19  C   UNL     1     -39.289 -45.760  13.314  1.00  0.00     0.007 A 
ENDBRANCH  16  17
ENDBRANCH   4  16
TORSDOF 5
ENDMDL
