MODEL 1
REMARK VINA RESULT:      -5.9      0.000      0.000
REMARK  4 active torsions:
REMARK  status: ('A' for Active; 'I' for Inactive)
REMARK    1  A    between atoms: C_5  and  N_8 
REMARK       I    between atoms: N_8  and  C_9 
REMARK    2  A    between atoms: C_9  and  C_11 
REMARK    3  A    between atoms: C_11  and  N_12 
REMARK    4  A    between atoms: C_14  and  N_19 
ROOT
HETATM    1  N   UNL     1     -42.181 -54.177  15.062  1.00  0.00    -0.355 N 
HETATM    2  C   UNL     1     -43.303 -54.917  15.300  1.00  0.00     0.236 C 
HETATM    3  O   UNL     1     -43.389 -55.543  16.359  1.00  0.00    -0.272 OA
HETATM    4  H   UNL     1     -41.461 -54.308  15.765  1.00  0.00     0.162 HD
ENDROOT
BRANCH   2   5
HETATM    5  C   UNL     1     -44.463 -54.876  14.302  1.00  0.00     0.234 C 
BRANCH   5   6
HETATM    6  N   UNL     1     -45.244 -53.637  14.382  1.00  0.00    -0.314 N 
HETATM    7  C   UNL     1     -45.806 -53.279  15.607  1.00  0.00     0.130 A 
HETATM    8  C   UNL     1     -46.609 -52.207  15.709  1.00  0.00     0.118 A 
HETATM    9  C   UNL     1     -46.902 -51.404  14.543  1.00  0.00     0.043 A 
HETATM   10  C   UNL     1     -46.358 -51.712  13.357  1.00  0.00     0.077 A 
HETATM   11  C   UNL     1     -45.465 -52.898  13.218  1.00  0.00     0.247 A 
HETATM   12  O   UNL     1     -44.999 -53.165  12.115  1.00  0.00    -0.268 OA
BRANCH   8  13
HETATM   13  N   UNL     1     -47.194 -51.905  17.015  1.00  0.00    -0.114 N 
HETATM   14  O   UNL     1     -46.482 -52.100  18.009  1.00  0.00    -0.532 OA
HETATM   15  O   UNL     1     -48.353 -51.470  17.057  1.00  0.00    -0.532 OA
ENDBRANCH   8  13
ENDBRANCH   5   6
ENDBRANCH   2   5
BRANCH   1  16
HETATM   16  C   UNL     1     -41.836 -53.488  13.825  1.00  0.00     0.084 C 
HETATM   17  C   UNL     1     -40.478 -53.970  13.298  1.00  0.00     0.025 C 
HETATM   18  C   UNL     1     -39.307 -53.409  14.105  1.00  0.00     0.006 C 
HETATM   19  C   UNL     1     -39.349 -51.881  14.222  1.00  0.00    -0.019 C 
HETATM   20  C   UNL     1     -39.033 -51.208  12.883  1.00  0.00     0.010 C 
HETATM   21  C   UNL     1     -40.697 -51.415  14.785  1.00  0.00     0.006 C 
HETATM   22  C   UNL     1     -41.890 -51.970  14.005  1.00  0.00     0.025 C 
ENDBRANCH   1  16
TORSDOF 4
ENDMDL
MODEL 2
REMARK VINA RESULT:      -5.8      3.101      4.633
REMARK  4 active torsions:
REMARK  status: ('A' for Active; 'I' for Inactive)
REMARK    1  A    between atoms: C_5  and  N_8 
REMARK       I    between atoms: N_8  and  C_9 
REMARK    2  A    between atoms: C_9  and  C_11 
REMARK    3  A    between atoms: C_11  and  N_12 
REMARK    4  A    between atoms: C_14  and  N_19 
ROOT
HETATM    1  N   UNL     1     -40.748 -50.707  12.232  1.00  0.00    -0.355 N 
HETATM    2  C   UNL     1     -40.934 -51.988  12.665  1.00  0.00     0.236 C 
HETATM    3  O   UNL     1     -40.445 -52.914  12.014  1.00  0.00    -0.272 OA
HETATM    4  H   UNL     1     -40.295 -50.655  11.325  1.00  0.00     0.162 HD
ENDROOT
BRANCH   2   5
HETATM    5  C   UNL     1     -41.657 -52.241  13.991  1.00  0.00     0.234 C 
BRANCH   5   6
HETATM    6  N   UNL     1     -42.908 -52.989  13.827  1.00  0.00    -0.314 N 
HETATM    7  C   UNL     1     -44.010 -52.336  13.274  1.00  0.00     0.130 A 
HETATM    8  C   UNL     1     -45.204 -52.947  13.194  1.00  0.00     0.118 A 
HETATM    9  C   UNL     1     -45.363 -54.299  13.681  1.00  0.00     0.043 A 
HETATM   10  C   UNL     1     -44.315 -54.958  14.197  1.00  0.00     0.077 A 
HETATM   11  C   UNL     1     -42.981 -54.301  14.299  1.00  0.00     0.247 A 
HETATM   12  O   UNL     1     -42.048 -54.924  14.794  1.00  0.00    -0.268 OA
BRANCH   8  13
HETATM   13  N   UNL     1     -46.327 -52.196  12.635  1.00  0.00    -0.114 N 
HETATM   14  O   UNL     1     -46.838 -51.329  13.357  1.00  0.00    -0.532 OA
HETATM   15  O   UNL     1     -46.700 -52.459  11.483  1.00  0.00    -0.532 OA
ENDBRANCH   8  13
ENDBRANCH   5   6
ENDBRANCH   2   5
BRANCH   1  16
HETATM   16  C   UNL     1     -41.358 -49.503  12.780  1.00  0.00     0.084 C 
HETATM   17  C   UNL     1     -42.419 -48.949  11.820  1.00  0.00     0.025 C 
HETATM   18  C   UNL     1     -41.801 -48.255  10.606  1.00  0.00     0.006 C 
HETATM   19  C   UNL     1     -40.784 -47.176  10.996  1.00  0.00    -0.019 C 
HETATM   20  C   UNL     1     -41.472 -45.957  11.617  1.00  0.00     0.010 C 
HETATM   21  C   UNL     1     -39.709 -47.752  11.925  1.00  0.00     0.006 C 
HETATM   22  C   UNL     1     -40.296 -48.464  13.145  1.00  0.00     0.025 C 
ENDBRANCH   1  16
TORSDOF 4
ENDMDL
MODEL 3
REMARK VINA RESULT:      -5.8      3.710      6.874
REMARK  4 active torsions:
REMARK  status: ('A' for Active; 'I' for Inactive)
REMARK    1  A    between atoms: C_5  and  N_8 
REMARK       I    between atoms: N_8  and  C_9 
REMARK    2  A    between atoms: C_9  and  C_11 
REMARK    3  A    between atoms: C_11  and  N_12 
REMARK    4  A    between atoms: C_14  and  N_19 
ROOT
HETATM    1  N   UNL     1     -42.521 -52.677  13.918  1.00  0.00    -0.355 N 
HETATM    2  C   UNL     1     -41.158 -52.744  13.894  1.00  0.00     0.236 C 
HETATM    3  O   UNL     1     -40.557 -53.027  14.933  1.00  0.00    -0.272 OA
HETATM    4  H   UNL     1     -42.908 -52.771  14.852  1.00  0.00     0.162 HD
ENDROOT
BRANCH   2   5
HETATM    5  C   UNL     1     -40.415 -52.562  12.568  1.00  0.00     0.234 C 
BRANCH   5   6
HETATM    6  N   UNL     1     -39.861 -51.213  12.402  1.00  0.00    -0.314 N 
HETATM    7  C   UNL     1     -40.666 -50.226  11.835  1.00  0.00     0.130 A 
HETATM    8  C   UNL     1     -40.175 -49.003  11.573  1.00  0.00     0.118 A 
HETATM    9  C   UNL     1     -38.796 -48.693  11.878  1.00  0.00     0.043 A 
HETATM   10  C   UNL     1     -38.005 -49.617  12.443  1.00  0.00     0.077 A 
HETATM   11  C   UNL     1     -38.528 -50.981  12.742  1.00  0.00     0.247 A 
HETATM   12  O   UNL     1     -37.773 -51.810  13.240  1.00  0.00    -0.268 OA
BRANCH   8  13
HETATM   13  N   UNL     1     -41.061 -48.022  10.948  1.00  0.00    -0.114 N 
HETATM   14  O   UNL     1     -42.171 -48.426  10.573  1.00  0.00    -0.532 OA
HETATM   15  O   UNL     1     -40.663 -46.855  10.832  1.00  0.00    -0.532 OA
ENDBRANCH   8  13
ENDBRANCH   5   6
ENDBRANCH   2   5
BRANCH   1  16
HETATM   16  C   UNL     1     -43.392 -52.226  12.841  1.00  0.00     0.084 C 
HETATM   17  C   UNL     1     -44.092 -50.915  13.224  1.00  0.00     0.025 C 
HETATM   18  C   UNL     1     -45.216 -51.129  14.236  1.00  0.00     0.006 C 
HETATM   19  C   UNL     1     -46.228 -52.188  13.782  1.00  0.00    -0.019 C 
HETATM   20  C   UNL     1     -47.080 -51.683  12.613  1.00  0.00     0.010 C 
HETATM   21  C   UNL     1     -45.520 -53.504  13.438  1.00  0.00     0.006 C 
HETATM   22  C   UNL     1     -44.380 -53.322  12.435  1.00  0.00     0.025 C 
ENDBRANCH   1  16
TORSDOF 4
ENDMDL
MODEL 4
REMARK VINA RESULT:      -5.7      4.135      7.464
REMARK  4 active torsions:
REMARK  status: ('A' for Active; 'I' for Inactive)
REMARK    1  A    between atoms: C_5  and  N_8 
REMARK       I    between atoms: N_8  and  C_9 
REMARK    2  A    between atoms: C_9  and  C_11 
REMARK    3  A    between atoms: C_11  and  N_12 
REMARK    4  A    between atoms: C_14  and  N_19 
ROOT
HETATM    1  N   UNL     1     -43.707 -50.129  12.580  1.00  0.00    -0.355 N 
HETATM    2  C   UNL     1     -42.771 -49.136  12.525  1.00  0.00     0.236 C 
HETATM    3  O   UNL     1     -42.608 -48.529  11.465  1.00  0.00    -0.272 OA
HETATM    4  H   UNL     1     -44.114 -50.342  11.675  1.00  0.00     0.162 HD
ENDROOT
BRANCH   2   5
HETATM    5  C   UNL     1     -42.019 -48.734  13.797  1.00  0.00     0.234 C 
BRANCH   5   6
HETATM    6  N   UNL     1     -40.561 -48.789  13.642  1.00  0.00    -0.314 N 
HETATM    7  C   UNL     1     -39.964 -50.020  13.372  1.00  0.00     0.130 A 
HETATM    8  C   UNL     1     -38.627 -50.140  13.318  1.00  0.00     0.118 A 
HETATM    9  C   UNL     1     -37.784 -48.986  13.539  1.00  0.00     0.043 A 
HETATM   10  C   UNL     1     -38.333 -47.785  13.778  1.00  0.00     0.077 A 
HETATM   11  C   UNL     1     -39.814 -47.629  13.845  1.00  0.00     0.247 A 
HETATM   12  O   UNL     1     -40.283 -46.521  14.086  1.00  0.00    -0.268 OA
BRANCH   8  13
HETATM   13  N   UNL     1     -38.062 -51.465  13.065  1.00  0.00    -0.114 N 
HETATM   14  O   UNL     1     -38.737 -52.441  13.419  1.00  0.00    -0.532 OA
HETATM   15  O   UNL     1     -36.956 -51.540  12.512  1.00  0.00    -0.532 OA
ENDBRANCH   8  13
ENDBRANCH   5   6
ENDBRANCH   2   5
BRANCH   1  16
HETATM   16  C   UNL     1     -43.945 -51.044  13.689  1.00  0.00     0.084 C 
HETATM   17  C   UNL     1     -43.198 -52.366  13.469  1.00  0.00     0.025 C 
HETATM   18  C   UNL     1     -43.867 -53.245  12.413  1.00  0.00     0.006 C 
HETATM   19  C   UNL     1     -45.354 -53.486  12.700  1.00  0.00    -0.019 C 
HETATM   20  C   UNL     1     -45.549 -54.409  13.907  1.00  0.00     0.010 C 
HETATM   21  C   UNL     1     -46.095 -52.156  12.880  1.00  0.00     0.006 C 
HETATM   22  C   UNL     1     -45.443 -51.248  13.923  1.00  0.00     0.025 C 
ENDBRANCH   1  16
TORSDOF 4
ENDMDL
MODEL 5
REMARK VINA RESULT:      -5.6      2.411      5.642
REMARK  4 active torsions:
REMARK  status: ('A' for Active; 'I' for Inactive)
REMARK    1  A    between atoms: C_5  and  N_8 
REMARK       I    between atoms: N_8  and  C_9 
REMARK    2  A    between atoms: C_9  and  C_11 
REMARK    3  A    between atoms: C_11  and  N_12 
REMARK    4  A    between atoms: C_14  and  N_19 
ROOT
HETATM    1  N   UNL     1     -46.125 -53.696  14.743  1.00  0.00    -0.355 N 
HETATM    2  C   UNL     1     -45.519 -54.603  13.922  1.00  0.00     0.236 C 
HETATM    3  O   UNL     1     -45.935 -55.763  13.905  1.00  0.00    -0.272 OA
HETATM    4  H   UNL     1     -46.818 -54.115  15.355  1.00  0.00     0.162 HD
ENDROOT
BRANCH   2   5
HETATM    5  C   UNL     1     -44.407 -54.142  12.975  1.00  0.00     0.234 C 
BRANCH   5   6
HETATM    6  N   UNL     1     -43.080 -54.155  13.600  1.00  0.00    -0.314 N 
HETATM    7  C   UNL     1     -42.874 -54.970  14.713  1.00  0.00     0.130 A 
HETATM    8  C   UNL     1     -41.707 -54.944  15.379  1.00  0.00     0.118 A 
HETATM    9  C   UNL     1     -40.642 -54.066  14.947  1.00  0.00     0.043 A 
HETATM   10  C   UNL     1     -40.806 -53.288  13.867  1.00  0.00     0.077 A 
HETATM   11  C   UNL     1     -42.093 -53.298  13.113  1.00  0.00     0.247 A 
HETATM   12  O   UNL     1     -42.217 -52.559  12.142  1.00  0.00    -0.268 OA
BRANCH   8  13
HETATM   13  N   UNL     1     -41.566 -55.798  16.558  1.00  0.00    -0.114 N 
HETATM   14  O   UNL     1     -40.428 -55.916  17.033  1.00  0.00    -0.532 OA
HETATM   15  O   UNL     1     -42.578 -56.346  17.016  1.00  0.00    -0.532 OA
ENDBRANCH   8  13
ENDBRANCH   5   6
ENDBRANCH   2   5
BRANCH   1  16
HETATM   16  C   UNL     1     -45.693 -52.329  15.003  1.00  0.00     0.084 C 
HETATM   17  C   UNL     1     -44.826 -52.268  16.268  1.00  0.00     0.025 C 
HETATM   18  C   UNL     1     -45.650 -52.404  17.547  1.00  0.00     0.006 C 
HETATM   19  C   UNL     1     -46.806 -51.398  17.615  1.00  0.00    -0.019 C 
HETATM   20  C   UNL     1     -46.294 -49.971  17.836  1.00  0.00     0.010 C 
HETATM   21  C   UNL     1     -47.686 -51.496  16.364  1.00  0.00     0.006 C 
HETATM   22  C   UNL     1     -46.888 -51.375  15.065  1.00  0.00     0.025 C 
ENDBRANCH   1  16
TORSDOF 4
ENDMDL
MODEL 6
REMARK VINA RESULT:      -5.6      2.339      6.096
REMARK  4 active torsions:
REMARK  status: ('A' for Active; 'I' for Inactive)
REMARK    1  A    between atoms: C_5  and  N_8 
REMARK       I    between atoms: N_8  and  C_9 
REMARK    2  A    between atoms: C_9  and  C_11 
REMARK    3  A    between atoms: C_11  and  N_12 
REMARK    4  A    between atoms: C_14  and  N_19 
ROOT
HETATM    1  N   UNL     1     -45.753 -52.384  14.204  1.00  0.00    -0.355 N 
HETATM    2  C   UNL     1     -45.489 -53.201  13.142  1.00  0.00     0.236 C 
HETATM    3  O   UNL     1     -45.850 -52.851  12.017  1.00  0.00    -0.272 OA
HETATM    4  H   UNL     1     -46.334 -51.589  13.959  1.00  0.00     0.162 HD
ENDROOT
BRANCH   2   5
HETATM    5  C   UNL     1     -44.671 -54.478  13.355  1.00  0.00     0.234 C 
BRANCH   5   6
HETATM    6  N   UNL     1     -43.291 -54.210  13.778  1.00  0.00    -0.314 N 
HETATM    7  C   UNL     1     -42.533 -53.297  13.045  1.00  0.00     0.130 A 
HETATM    8  C   UNL     1     -41.237 -53.091  13.332  1.00  0.00     0.118 A 
HETATM    9  C   UNL     1     -40.607 -53.817  14.413  1.00  0.00     0.043 A 
HETATM   10  C   UNL     1     -41.319 -54.684  15.148  1.00  0.00     0.077 A 
HETATM   11  C   UNL     1     -42.758 -54.931  14.847  1.00  0.00     0.247 A 
HETATM   12  O   UNL     1     -43.375 -55.746  15.525  1.00  0.00    -0.268 OA
BRANCH   8  13
HETATM   13  N   UNL     1     -40.488 -52.146  12.504  1.00  0.00    -0.114 N 
HETATM   14  O   UNL     1     -39.273 -52.047  12.724  1.00  0.00    -0.532 OA
HETATM   15  O   UNL     1     -41.099 -51.508  11.636  1.00  0.00    -0.532 OA
ENDBRANCH   8  13
ENDBRANCH   5   6
ENDBRANCH   2   5
BRANCH   1  16
HETATM   16  C   UNL     1     -45.532 -52.684  15.612  1.00  0.00     0.084 C 
HETATM   17  C   UNL     1     -46.840 -52.554  16.404  1.00  0.00     0.025 C 
HETATM   18  C   UNL     1     -47.242 -51.097  16.630  1.00  0.00     0.006 C 
HETATM   19  C   UNL     1     -46.121 -50.266  17.265  1.00  0.00    -0.019 C 
HETATM   20  C   UNL     1     -45.894 -50.658  18.728  1.00  0.00     0.010 C 
HETATM   21  C   UNL     1     -44.831 -50.375  16.444  1.00  0.00     0.006 C 
HETATM   22  C   UNL     1     -44.408 -51.822  16.191  1.00  0.00     0.025 C 
ENDBRANCH   1  16
TORSDOF 4
ENDMDL
MODEL 7
REMARK VINA RESULT:      -5.6      5.274      7.606
REMARK  4 active torsions:
REMARK  status: ('A' for Active; 'I' for Inactive)
REMARK    1  A    between atoms: C_5  and  N_8 
REMARK       I    between atoms: N_8  and  C_9 
REMARK    2  A    between atoms: C_9  and  C_11 
REMARK    3  A    between atoms: C_11  and  N_12 
REMARK    4  A    between atoms: C_14  and  N_19 
ROOT
HETATM    1  N   UNL     1     -43.810 -50.062  14.292  1.00  0.00    -0.355 N 
HETATM    2  C   UNL     1     -43.138 -49.044  13.678  1.00  0.00     0.236 C 
HETATM    3  O   UNL     1     -43.008 -47.972  14.273  1.00  0.00    -0.272 OA
HETATM    4  H   UNL     1     -44.240 -49.784  15.168  1.00  0.00     0.162 HD
ENDROOT
BRANCH   2   5
HETATM    5  C   UNL     1     -42.479 -49.285  12.317  1.00  0.00     0.234 C 
BRANCH   5   6
HETATM    6  N   UNL     1     -42.107 -48.041  11.633  1.00  0.00    -0.314 N 
HETATM    7  C   UNL     1     -43.053 -47.415  10.822  1.00  0.00     0.130 A 
HETATM    8  C   UNL     1     -42.730 -46.329  10.099  1.00  0.00     0.118 A 
HETATM    9  C   UNL     1     -41.389 -45.791  10.155  1.00  0.00     0.043 A 
HETATM   10  C   UNL     1     -40.465 -46.361  10.944  1.00  0.00     0.077 A 
HETATM   11  C   UNL     1     -40.800 -47.567  11.753  1.00  0.00     0.247 A 
HETATM   12  O   UNL     1     -39.927 -48.076  12.449  1.00  0.00    -0.268 OA
BRANCH   8  13
HETATM   13  N   UNL     1     -43.757 -45.740   9.243  1.00  0.00    -0.114 N 
HETATM   14  O   UNL     1     -44.486 -46.523   8.618  1.00  0.00    -0.532 OA
HETATM   15  O   UNL     1     -43.848 -44.505   9.192  1.00  0.00    -0.532 OA
ENDBRANCH   8  13
ENDBRANCH   5   6
ENDBRANCH   2   5
BRANCH   1  16
HETATM   16  C   UNL     1     -44.184 -51.341  13.703  1.00  0.00     0.084 C 
HETATM   17  C   UNL     1     -45.662 -51.337  13.294  1.00  0.00     0.025 C 
HETATM   18  C   UNL     1     -46.600 -51.454  14.495  1.00  0.00     0.006 C 
HETATM   19  C   UNL     1     -46.271 -52.658  15.386  1.00  0.00    -0.019 C 
HETATM   20  C   UNL     1     -46.632 -53.979  14.699  1.00  0.00     0.010 C 
HETATM   21  C   UNL     1     -44.800 -52.630  15.818  1.00  0.00     0.006 C 
HETATM   22  C   UNL     1     -43.836 -52.502  14.638  1.00  0.00     0.025 C 
ENDBRANCH   1  16
TORSDOF 4
ENDMDL
MODEL 8
REMARK VINA RESULT:      -5.4      3.722      5.358
REMARK  4 active torsions:
REMARK  status: ('A' for Active; 'I' for Inactive)
REMARK    1  A    between atoms: C_5  and  N_8 
REMARK       I    between atoms: N_8  and  C_9 
REMARK    2  A    between atoms: C_9  and  C_11 
REMARK    3  A    between atoms: C_11  and  N_12 
REMARK    4  A    between atoms: C_14  and  N_19 
ROOT
HETATM    1  N   UNL     1     -41.822 -50.009  11.613  1.00  0.00    -0.355 N 
HETATM    2  C   UNL     1     -41.753 -51.229  12.223  1.00  0.00     0.236 C 
HETATM    3  O   UNL     1     -41.429 -52.212  11.553  1.00  0.00    -0.272 OA
HETATM    4  H   UNL     1     -41.694 -50.059  10.608  1.00  0.00     0.162 HD
ENDROOT
BRANCH   2   5
HETATM    5  C   UNL     1     -41.983 -51.334  13.733  1.00  0.00     0.234 C 
BRANCH   5   6
HETATM    6  N   UNL     1     -42.321 -52.694  14.167  1.00  0.00    -0.314 N 
HETATM    7  C   UNL     1     -43.641 -53.127  14.045  1.00  0.00     0.130 A 
HETATM    8  C   UNL     1     -44.020 -54.326  14.517  1.00  0.00     0.118 A 
HETATM    9  C   UNL     1     -43.057 -55.191  15.162  1.00  0.00     0.043 A 
HETATM   10  C   UNL     1     -41.776 -54.809  15.274  1.00  0.00     0.077 A 
HETATM   11  C   UNL     1     -41.332 -53.482  14.759  1.00  0.00     0.247 A 
HETATM   12  O   UNL     1     -40.158 -53.155  14.895  1.00  0.00    -0.268 OA
BRANCH   8  13
HETATM   13  N   UNL     1     -45.426 -54.707  14.387  1.00  0.00    -0.114 N 
HETATM   14  O   UNL     1     -45.699 -55.570  13.541  1.00  0.00    -0.532 OA
HETATM   15  O   UNL     1     -46.257 -54.158  15.123  1.00  0.00    -0.532 OA
ENDBRANCH   8  13
ENDBRANCH   5   6
ENDBRANCH   2   5
BRANCH   1  16
HETATM   16  C   UNL     1     -42.315 -48.769  12.197  1.00  0.00     0.084 C 
HETATM   17  C   UNL     1     -43.317 -48.089  11.254  1.00  0.00     0.025 C 
HETATM   18  C   UNL     1     -42.634 -47.423  10.060  1.00  0.00     0.006 C 
HETATM   19  C   UNL     1     -41.519 -46.457  10.479  1.00  0.00    -0.019 C 
HETATM   20  C   UNL     1     -42.089 -45.196  11.135  1.00  0.00     0.010 C 
HETATM   21  C   UNL     1     -40.505 -47.160  11.390  1.00  0.00     0.006 C 
HETATM   22  C   UNL     1     -41.160 -47.846  12.590  1.00  0.00     0.025 C 
ENDBRANCH   1  16
TORSDOF 4
ENDMDL
MODEL 9
REMARK VINA RESULT:      -5.4      2.620      6.376
REMARK  4 active torsions:
REMARK  status: ('A' for Active; 'I' for Inactive)
REMARK    1  A    between atoms: C_5  and  N_8 
REMARK       I    between atoms: N_8  and  C_9 
REMARK    2  A    between atoms: C_9  and  C_11 
REMARK    3  A    between atoms: C_11  and  N_12 
REMARK    4  A    between atoms: C_14  and  N_19 
ROOT
HETATM    1  N   UNL     1     -44.439 -52.808  16.265  1.00  0.00    -0.355 N 
HETATM    2  C   UNL     1     -43.417 -53.314  17.017  1.00  0.00     0.236 C 
HETATM    3  O   UNL     1     -42.938 -52.619  17.916  1.00  0.00    -0.272 OA
HETATM    4  H   UNL     1     -44.635 -51.833  16.465  1.00  0.00     0.162 HD
ENDROOT
BRANCH   2   5
HETATM    5  C   UNL     1     -42.958 -54.757  16.796  1.00  0.00     0.234 C 
BRANCH   5   6
HETATM    6  N   UNL     1     -41.568 -54.851  16.336  1.00  0.00    -0.314 N 
HETATM    7  C   UNL     1     -41.167 -54.070  15.253  1.00  0.00     0.130 A 
HETATM    8  C   UNL     1     -39.934 -54.192  14.734  1.00  0.00     0.118 A 
HETATM    9  C   UNL     1     -38.999 -55.141  15.297  1.00  0.00     0.043 A 
HETATM   10  C   UNL     1     -39.350 -55.889  16.353  1.00  0.00     0.077 A 
HETATM   11  C   UNL     1     -40.714 -55.773  16.944  1.00  0.00     0.247 A 
HETATM   12  O   UNL     1     -41.010 -56.487  17.897  1.00  0.00    -0.268 OA
BRANCH   8  13
HETATM   13  N   UNL     1     -39.587 -53.368  13.577  1.00  0.00    -0.114 N 
HETATM   14  O   UNL     1     -38.542 -52.706  13.651  1.00  0.00    -0.532 OA
HETATM   15  O   UNL     1     -40.342 -53.379  12.595  1.00  0.00    -0.532 OA
ENDBRANCH   8  13
ENDBRANCH   5   6
ENDBRANCH   2   5
BRANCH   1  16
HETATM   16  C   UNL     1     -45.035 -53.415  15.082  1.00  0.00     0.084 C 
HETATM   17  C   UNL     1     -44.297 -52.965  13.814  1.00  0.00     0.025 C 
HETATM   18  C   UNL     1     -44.634 -51.527  13.422  1.00  0.00     0.006 C 
HETATM   19  C   UNL     1     -46.144 -51.285  13.304  1.00  0.00    -0.019 C 
HETATM   20  C   UNL     1     -46.729 -51.988  12.076  1.00  0.00     0.010 C 
HETATM   21  C   UNL     1     -46.864 -51.703  14.592  1.00  0.00     0.006 C 
HETATM   22  C   UNL     1     -46.538 -53.135  15.017  1.00  0.00     0.025 C 
ENDBRANCH   1  16
TORSDOF 4
ENDMDL
