MODEL 1
REMARK VINA RESULT:      -6.4      0.000      0.000
REMARK  4 active torsions:
REMARK  status: ('A' for Active; 'I' for Inactive)
REMARK    1  A    between atoms: O_1  and  C_2 
REMARK    2  A    between atoms: C_2  and  C_3 
REMARK    3  A    between atoms: C_4  and  N_5 
REMARK       I    between atoms: N_5  and  C_6 
REMARK       I    between atoms: C_6  and  N_8 
REMARK    4  A    between atoms: N_8  and  C_9 
ROOT
HETATM    1  N   UNL     1     -43.501 -51.943  12.518  1.00  0.00    -0.337 N 
HETATM    2  C   UNL     1     -42.253 -51.455  12.830  1.00  0.00     0.322 C 
HETATM    3  O   UNL     1     -41.860 -51.359  13.990  1.00  0.00    -0.247 OA
HETATM    4  N   UNL     1     -41.565 -51.042  11.718  1.00  0.00    -0.295 N 
HETATM    5  H   UNL     1     -43.567 -52.436  11.639  1.00  0.00     0.164 HD
HETATM    6  H   UNL     1     -42.138 -50.626  11.000  1.00  0.00     0.172 HD
ENDROOT
BRANCH   1   7
HETATM    7  C   UNL     1     -44.408 -52.311  13.595  1.00  0.00     0.096 C 
HETATM    8  C   UNL     1     -45.330 -53.505  13.241  1.00  0.00     0.036 C 
HETATM    9  C   UNL     1     -46.746 -52.927  13.508  1.00  0.00    -0.006 C 
HETATM   10  C   UNL     1     -46.979 -52.652  15.004  1.00  0.00     0.005 C 
HETATM   11  C   UNL     1     -46.584 -51.502  12.974  1.00  0.00     0.012 C 
HETATM   12  C   UNL     1     -46.032 -51.477  15.292  1.00  0.00     0.007 C 
HETATM   13  C   UNL     1     -45.416 -51.183  13.909  1.00  0.00     0.009 C 
BRANCH   8  14
HETATM   14  C   UNL     1     -44.982 -54.774  14.014  1.00  0.00     0.171 C 
BRANCH  14  15
HETATM   15  O   UNL     1     -46.001 -55.748  13.817  1.00  0.00    -0.400 OA
HETATM   16  H   UNL     1     -46.727 -55.298  13.352  1.00  0.00     0.209 HD
ENDBRANCH  14  15
ENDBRANCH   8  14
ENDBRANCH   1   7
BRANCH   4  17
HETATM   17  C   UNL     1     -40.330 -50.391  11.843  1.00  0.00     0.108 A 
HETATM   18  C   UNL     1     -40.202 -49.019  11.643  1.00  0.00     0.049 A 
HETATM   19  C   UNL     1     -38.931 -48.458  11.647  1.00  0.00     0.005 A 
HETATM   20  C   UNL     1     -37.831 -49.281  11.847  1.00  0.00     0.017 A 
HETATM   21  C   UNL     1     -38.057 -50.628  12.088  1.00  0.00     0.089 A 
HETATM   22  N   UNL     1     -39.285 -51.194  12.124  1.00  0.00    -0.352 N 
ATOM     23  HN  UNL     1     -39.413 -52.180  12.352  1.00  0.00     0.166 HD
ENDBRANCH   4  17
TORSDOF 4
ENDMDL
MODEL 2
REMARK VINA RESULT:      -6.1      3.011      4.091
REMARK  4 active torsions:
REMARK  status: ('A' for Active; 'I' for Inactive)
REMARK    1  A    between atoms: O_1  and  C_2 
REMARK    2  A    between atoms: C_2  and  C_3 
REMARK    3  A    between atoms: C_4  and  N_5 
REMARK       I    between atoms: N_5  and  C_6 
REMARK       I    between atoms: C_6  and  N_8 
REMARK    4  A    between atoms: N_8  and  C_9 
ROOT
HETATM    1  N   UNL     1     -41.419 -51.322  11.887  1.00  0.00    -0.337 N 
HETATM    2  C   UNL     1     -41.271 -49.959  12.005  1.00  0.00     0.322 C 
HETATM    3  O   UNL     1     -41.194 -49.402  13.097  1.00  0.00    -0.247 OA
HETATM    4  N   UNL     1     -41.291 -49.329  10.787  1.00  0.00    -0.295 N 
HETATM    5  H   UNL     1     -40.997 -51.736  11.069  1.00  0.00     0.164 HD
HETATM    6  H   UNL     1     -41.912 -49.744  10.110  1.00  0.00     0.172 HD
ENDROOT
BRANCH   1   7
HETATM    7  C   UNL     1     -41.541 -52.128  13.093  1.00  0.00     0.096 C 
HETATM    8  C   UNL     1     -40.942 -53.549  12.945  1.00  0.00     0.036 C 
HETATM    9  C   UNL     1     -42.135 -54.459  13.344  1.00  0.00    -0.006 C 
HETATM   10  C   UNL     1     -42.493 -54.313  14.833  1.00  0.00     0.005 C 
HETATM   11  C   UNL     1     -43.301 -53.713  12.691  1.00  0.00     0.012 C 
HETATM   12  C   UNL     1     -43.063 -52.889  14.914  1.00  0.00     0.007 C 
HETATM   13  C   UNL     1     -43.017 -52.414  13.448  1.00  0.00     0.009 C 
BRANCH   8  14
HETATM   14  C   UNL     1     -39.666 -53.746  13.759  1.00  0.00     0.171 C 
BRANCH  14  15
HETATM   15  O   UNL     1     -38.981 -54.906  13.302  1.00  0.00    -0.400 OA
HETATM   16  H   UNL     1     -39.162 -55.607  13.951  1.00  0.00     0.209 HD
ENDBRANCH  14  15
ENDBRANCH   8  14
ENDBRANCH   1   7
BRANCH   4  17
HETATM   17  C   UNL     1     -41.289 -47.930  10.706  1.00  0.00     0.108 A 
HETATM   18  C   UNL     1     -42.418 -47.218  10.311  1.00  0.00     0.049 A 
HETATM   19  C   UNL     1     -42.311 -45.846  10.119  1.00  0.00     0.005 A 
HETATM   20  C   UNL     1     -41.085 -45.229  10.326  1.00  0.00     0.017 A 
HETATM   21  C   UNL     1     -40.028 -46.010  10.769  1.00  0.00     0.089 A 
HETATM   22  N   UNL     1     -40.112 -47.340  10.996  1.00  0.00    -0.352 N 
ATOM     23  HN  UNL     1     -39.324 -47.871  11.367  1.00  0.00     0.166 HD
ENDBRANCH   4  17
TORSDOF 4
ENDMDL
MODEL 3
REMARK VINA RESULT:      -6.0      1.927      2.540
REMARK  4 active torsions:
REMARK  status: ('A' for Active; 'I' for Inactive)
REMARK    1  A    between atoms: O_1  and  C_2 
REMARK    2  A    between atoms: C_2  and  C_3 
REMARK    3  A    between atoms: C_4  and  N_5 
REMARK       I    between atoms: N_5  and  C_6 
REMARK       I    between atoms: C_6  and  N_8 
REMARK    4  A    between atoms: N_8  and  C_9 
ROOT
HETATM    1  N   UNL     1     -43.175 -51.365  12.623  1.00  0.00    -0.337 N 
HETATM    2  C   UNL     1     -42.777 -50.051  12.538  1.00  0.00     0.322 C 
HETATM    3  O   UNL     1     -43.207 -49.187  13.297  1.00  0.00    -0.247 OA
HETATM    4  N   UNL     1     -41.924 -49.836  11.485  1.00  0.00    -0.295 N 
HETATM    5  H   UNL     1     -42.481 -52.048  12.355  1.00  0.00     0.164 HD
HETATM    6  H   UNL     1     -42.119 -50.391  10.666  1.00  0.00     0.172 HD
ENDROOT
BRANCH   1   7
HETATM    7  C   UNL     1     -44.176 -51.739  13.612  1.00  0.00     0.096 C 
HETATM    8  C   UNL     1     -44.298 -53.270  13.814  1.00  0.00     0.036 C 
HETATM    9  C   UNL     1     -45.809 -53.522  13.564  1.00  0.00    -0.006 C 
HETATM   10  C   UNL     1     -46.684 -52.889  14.659  1.00  0.00     0.005 C 
HETATM   11  C   UNL     1     -46.074 -52.570  12.395  1.00  0.00     0.012 C 
HETATM   12  C   UNL     1     -46.508 -51.382  14.415  1.00  0.00     0.007 C 
HETATM   13  C   UNL     1     -45.600 -51.338  13.169  1.00  0.00     0.009 C 
BRANCH   8  14
HETATM   14  C   UNL     1     -43.770 -53.736  15.168  1.00  0.00     0.171 C 
BRANCH  14  15
HETATM   15  O   UNL     1     -43.997 -55.133  15.315  1.00  0.00    -0.400 OA
HETATM   16  H   UNL     1     -44.869 -55.314  14.923  1.00  0.00     0.209 HD
ENDBRANCH  14  15
ENDBRANCH   8  14
ENDBRANCH   1   7
BRANCH   4  17
HETATM   17  C   UNL     1     -41.515 -48.538  11.151  1.00  0.00     0.108 A 
HETATM   18  C   UNL     1     -40.273 -48.040  11.535  1.00  0.00     0.049 A 
HETATM   19  C   UNL     1     -39.984 -46.703  11.290  1.00  0.00     0.005 A 
HETATM   20  C   UNL     1     -40.940 -45.907  10.675  1.00  0.00     0.017 A 
HETATM   21  C   UNL     1     -42.130 -46.501  10.282  1.00  0.00     0.089 A 
HETATM   22  N   UNL     1     -42.424 -47.806  10.476  1.00  0.00    -0.352 N 
ATOM     23  HN  UNL     1     -43.291 -48.217  10.129  1.00  0.00     0.166 HD
ENDBRANCH   4  17
TORSDOF 4
ENDMDL
MODEL 4
REMARK VINA RESULT:      -5.9      1.512      1.970
REMARK  4 active torsions:
REMARK  status: ('A' for Active; 'I' for Inactive)
REMARK    1  A    between atoms: O_1  and  C_2 
REMARK    2  A    between atoms: C_2  and  C_3 
REMARK    3  A    between atoms: C_4  and  N_5 
REMARK       I    between atoms: N_5  and  C_6 
REMARK       I    between atoms: C_6  and  N_8 
REMARK    4  A    between atoms: N_8  and  C_9 
ROOT
HETATM    1  N   UNL     1     -43.556 -50.650  13.871  1.00  0.00    -0.337 N 
HETATM    2  C   UNL     1     -42.320 -50.980  13.365  1.00  0.00     0.322 C 
HETATM    3  O   UNL     1     -42.049 -52.119  12.991  1.00  0.00    -0.247 OA
HETATM    4  N   UNL     1     -41.447 -49.923  13.399  1.00  0.00    -0.295 N 
HETATM    5  H   UNL     1     -43.861 -49.705  13.692  1.00  0.00     0.164 HD
HETATM    6  H   UNL     1     -41.554 -49.316  14.197  1.00  0.00     0.172 HD
ENDROOT
BRANCH   1   7
HETATM    7  C   UNL     1     -44.562 -51.692  14.018  1.00  0.00     0.096 C 
HETATM    8  C   UNL     1     -45.966 -51.264  13.523  1.00  0.00     0.036 C 
HETATM    9  C   UNL     1     -46.857 -51.533  14.766  1.00  0.00    -0.006 C 
HETATM   10  C   UNL     1     -46.967 -53.036  15.077  1.00  0.00     0.005 C 
HETATM   11  C   UNL     1     -45.930 -51.072  15.894  1.00  0.00     0.012 C 
HETATM   12  C   UNL     1     -45.549 -53.398  15.545  1.00  0.00     0.007 C 
HETATM   13  C   UNL     1     -44.815 -52.042  15.501  1.00  0.00     0.009 C 
BRANCH   8  14
HETATM   14  C   UNL     1     -46.390 -51.981  12.244  1.00  0.00     0.171 C 
BRANCH  14  15
HETATM   15  O   UNL     1     -45.405 -52.943  11.886  1.00  0.00    -0.400 OA
HETATM   16  H   UNL     1     -44.542 -52.507  11.992  1.00  0.00     0.209 HD
ENDBRANCH  14  15
ENDBRANCH   8  14
ENDBRANCH   1   7
BRANCH   4  17
HETATM   17  C   UNL     1     -40.100 -50.097  13.052  1.00  0.00     0.108 A 
HETATM   18  C   UNL     1     -39.559 -49.518  11.908  1.00  0.00     0.049 A 
HETATM   19  C   UNL     1     -38.256 -49.840  11.548  1.00  0.00     0.005 A 
HETATM   20  C   UNL     1     -37.537 -50.727  12.337  1.00  0.00     0.017 A 
HETATM   21  C   UNL     1     -38.140 -51.214  13.488  1.00  0.00     0.089 A 
HETATM   22  N   UNL     1     -39.393 -50.892  13.880  1.00  0.00    -0.352 N 
ATOM     23  HN  UNL     1     -39.784 -51.234  14.757  1.00  0.00     0.166 HD
ENDBRANCH   4  17
TORSDOF 4
ENDMDL
MODEL 5
REMARK VINA RESULT:      -5.8      1.977      6.976
REMARK  4 active torsions:
REMARK  status: ('A' for Active; 'I' for Inactive)
REMARK    1  A    between atoms: O_1  and  C_2 
REMARK    2  A    between atoms: C_2  and  C_3 
REMARK    3  A    between atoms: C_4  and  N_5 
REMARK       I    between atoms: N_5  and  C_6 
REMARK       I    between atoms: C_6  and  N_8 
REMARK    4  A    between atoms: N_8  and  C_9 
ROOT
HETATM    1  N   UNL     1     -41.082 -50.184  13.692  1.00  0.00    -0.337 N 
HETATM    2  C   UNL     1     -42.235 -50.934  13.671  1.00  0.00     0.322 C 
HETATM    3  O   UNL     1     -42.264 -52.076  13.220  1.00  0.00    -0.247 OA
HETATM    4  N   UNL     1     -43.318 -50.233  14.139  1.00  0.00    -0.295 N 
HETATM    5  H   UNL     1     -41.001 -49.533  14.459  1.00  0.00     0.164 HD
HETATM    6  H   UNL     1     -43.313 -49.251  13.910  1.00  0.00     0.172 HD
ENDROOT
BRANCH   1   7
HETATM    7  C   UNL     1     -39.866 -50.738  13.115  1.00  0.00     0.096 C 
HETATM    8  C   UNL     1     -38.953 -51.431  14.157  1.00  0.00     0.036 C 
HETATM    9  C   UNL     1     -37.598 -50.701  13.954  1.00  0.00    -0.006 C 
HETATM   10  C   UNL     1     -36.977 -51.017  12.583  1.00  0.00     0.005 C 
HETATM   11  C   UNL     1     -38.073 -49.263  13.732  1.00  0.00     0.012 C 
HETATM   12  C   UNL     1     -37.930 -50.320  11.601  1.00  0.00     0.007 C 
HETATM   13  C   UNL     1     -38.950 -49.638  12.536  1.00  0.00     0.009 C 
BRANCH   8  14
HETATM   14  C   UNL     1     -38.911 -52.948  13.996  1.00  0.00     0.171 C 
BRANCH  14  15
HETATM   15  O   UNL     1     -39.688 -53.331  12.867  1.00  0.00    -0.400 OA
HETATM   16  H   UNL     1     -39.542 -54.285  12.742  1.00  0.00     0.209 HD
ENDBRANCH  14  15
ENDBRANCH   8  14
ENDBRANCH   1   7
BRANCH   4  17
HETATM   17  C   UNL     1     -44.607 -50.779  14.071  1.00  0.00     0.108 A 
HETATM   18  C   UNL     1     -45.379 -50.978  15.213  1.00  0.00     0.049 A 
HETATM   19  C   UNL     1     -46.590 -51.647  15.093  1.00  0.00     0.005 A 
HETATM   20  C   UNL     1     -46.991 -52.099  13.843  1.00  0.00     0.017 A 
HETATM   21  C   UNL     1     -46.182 -51.811  12.754  1.00  0.00     0.089 A 
HETATM   22  N   UNL     1     -45.015 -51.132  12.836  1.00  0.00    -0.352 N 
ATOM     23  HN  UNL     1     -44.471 -50.899  12.005  1.00  0.00     0.166 HD
ENDBRANCH   4  17
TORSDOF 4
ENDMDL
MODEL 6
REMARK VINA RESULT:      -5.6      3.097      7.005
REMARK  4 active torsions:
REMARK  status: ('A' for Active; 'I' for Inactive)
REMARK    1  A    between atoms: O_1  and  C_2 
REMARK    2  A    between atoms: C_2  and  C_3 
REMARK    3  A    between atoms: C_4  and  N_5 
REMARK       I    between atoms: N_5  and  C_6 
REMARK       I    between atoms: C_6  and  N_8 
REMARK    4  A    between atoms: N_8  and  C_9 
ROOT
HETATM    1  N   UNL     1     -41.862 -49.171  11.279  1.00  0.00    -0.337 N 
HETATM    2  C   UNL     1     -42.571 -50.066  12.046  1.00  0.00     0.322 C 
HETATM    3  O   UNL     1     -43.452 -49.707  12.824  1.00  0.00    -0.247 OA
HETATM    4  N   UNL     1     -42.128 -51.354  11.883  1.00  0.00    -0.295 N 
HETATM    5  H   UNL     1     -41.555 -49.516  10.381  1.00  0.00     0.164 HD
HETATM    6  H   UNL     1     -41.133 -51.440  11.740  1.00  0.00     0.172 HD
ENDROOT
BRANCH   1   7
HETATM    7  C   UNL     1     -42.127 -47.747  11.426  1.00  0.00     0.096 C 
HETATM    8  C   UNL     1     -41.808 -46.928  10.150  1.00  0.00     0.036 C 
HETATM    9  C   UNL     1     -40.829 -45.846  10.682  1.00  0.00    -0.006 C 
HETATM   10  C   UNL     1     -41.525 -44.866  11.641  1.00  0.00     0.005 C 
HETATM   11  C   UNL     1     -39.993 -46.669  11.666  1.00  0.00     0.012 C 
HETATM   12  C   UNL     1     -41.826 -45.737  12.869  1.00  0.00     0.007 C 
HETATM   13  C   UNL     1     -41.210 -47.098  12.487  1.00  0.00     0.009 C 
BRANCH   8  14
HETATM   14  C   UNL     1     -43.058 -46.397   9.456  1.00  0.00     0.171 C 
BRANCH  14  15
HETATM   15  O   UNL     1     -42.729 -45.972   8.138  1.00  0.00    -0.400 OA
HETATM   16  H   UNL     1     -43.539 -46.068   7.607  1.00  0.00     0.209 HD
ENDBRANCH  14  15
ENDBRANCH   8  14
ENDBRANCH   1   7
BRANCH   4  17
HETATM   17  C   UNL     1     -42.633 -52.390  12.680  1.00  0.00     0.108 A 
HETATM   18  C   UNL     1     -41.842 -53.040  13.624  1.00  0.00     0.049 A 
HETATM   19  C   UNL     1     -42.362 -54.148  14.282  1.00  0.00     0.005 A 
HETATM   20  C   UNL     1     -43.648 -54.572  13.979  1.00  0.00     0.017 A 
HETATM   21  C   UNL     1     -44.380 -53.833  13.062  1.00  0.00     0.089 A 
HETATM   22  N   UNL     1     -43.913 -52.732  12.431  1.00  0.00    -0.352 N 
ATOM     23  HN  UNL     1     -44.499 -52.188  11.799  1.00  0.00     0.166 HD
ENDBRANCH   4  17
TORSDOF 4
ENDMDL
MODEL 7
REMARK VINA RESULT:      -5.5      1.817      7.377
REMARK  4 active torsions:
REMARK  status: ('A' for Active; 'I' for Inactive)
REMARK    1  A    between atoms: O_1  and  C_2 
REMARK    2  A    between atoms: C_2  and  C_3 
REMARK    3  A    between atoms: C_4  and  N_5 
REMARK       I    between atoms: N_5  and  C_6 
REMARK       I    between atoms: C_6  and  N_8 
REMARK    4  A    between atoms: N_8  and  C_9 
ROOT
HETATM    1  N   UNL     1     -40.908 -50.930  12.212  1.00  0.00    -0.337 N 
HETATM    2  C   UNL     1     -42.084 -51.252  12.850  1.00  0.00     0.322 C 
HETATM    3  O   UNL     1     -42.424 -50.718  13.903  1.00  0.00    -0.247 OA
HETATM    4  N   UNL     1     -42.761 -52.259  12.211  1.00  0.00    -0.295 N 
HETATM    5  H   UNL     1     -40.926 -51.001  11.205  1.00  0.00     0.164 HD
HETATM    6  H   UNL     1     -42.171 -52.960  11.790  1.00  0.00     0.172 HD
ENDROOT
BRANCH   1   7
HETATM    7  C   UNL     1     -40.010 -49.963  12.827  1.00  0.00     0.096 C 
HETATM    8  C   UNL     1     -39.316 -49.031  11.803  1.00  0.00     0.036 C 
HETATM    9  C   UNL     1     -37.812 -49.231  12.133  1.00  0.00    -0.006 C 
HETATM   10  C   UNL     1     -37.450 -48.668  13.518  1.00  0.00     0.005 C 
HETATM   11  C   UNL     1     -37.773 -50.736  12.413  1.00  0.00     0.012 C 
HETATM   12  C   UNL     1     -38.176 -49.621  14.480  1.00  0.00     0.007 C 
HETATM   13  C   UNL     1     -38.818 -50.651  13.528  1.00  0.00     0.009 C 
BRANCH   8  14
HETATM   14  C   UNL     1     -39.817 -47.592  11.873  1.00  0.00     0.171 C 
BRANCH  14  15
HETATM   15  O   UNL     1     -40.123 -47.127  10.564  1.00  0.00    -0.400 OA
HETATM   16  H   UNL     1     -39.883 -47.845   9.953  1.00  0.00     0.209 HD
ENDBRANCH  14  15
ENDBRANCH   8  14
ENDBRANCH   1   7
BRANCH   4  17
HETATM   17  C   UNL     1     -43.913 -52.819  12.780  1.00  0.00     0.108 A 
HETATM   18  C   UNL     1     -43.942 -54.138  13.226  1.00  0.00     0.049 A 
HETATM   19  C   UNL     1     -45.151 -54.673  13.653  1.00  0.00     0.005 A 
HETATM   20  C   UNL     1     -46.290 -53.880  13.620  1.00  0.00     0.017 A 
HETATM   21  C   UNL     1     -46.156 -52.561  13.210  1.00  0.00     0.089 A 
HETATM   22  N   UNL     1     -44.986 -52.005  12.821  1.00  0.00    -0.352 N 
ATOM     23  HN  UNL     1     -44.920 -51.018  12.571  1.00  0.00     0.166 HD
ENDBRANCH   4  17
TORSDOF 4
ENDMDL
MODEL 8
REMARK VINA RESULT:      -5.3      2.336      6.864
REMARK  4 active torsions:
REMARK  status: ('A' for Active; 'I' for Inactive)
REMARK    1  A    between atoms: O_1  and  C_2 
REMARK    2  A    between atoms: C_2  and  C_3 
REMARK    3  A    between atoms: C_4  and  N_5 
REMARK       I    between atoms: N_5  and  C_6 
REMARK       I    between atoms: C_6  and  N_8 
REMARK    4  A    between atoms: N_8  and  C_9 
ROOT
HETATM    1  N   UNL     1     -42.420 -49.339  13.327  1.00  0.00    -0.337 N 
HETATM    2  C   UNL     1     -42.689 -50.683  13.208  1.00  0.00     0.322 C 
HETATM    3  O   UNL     1     -42.338 -51.335  12.228  1.00  0.00    -0.247 OA
HETATM    4  N   UNL     1     -43.434 -51.158  14.257  1.00  0.00    -0.295 N 
HETATM    5  H   UNL     1     -42.281 -49.006  14.270  1.00  0.00     0.164 HD
HETATM    6  H   UNL     1     -44.113 -50.505  14.620  1.00  0.00     0.172 HD
ENDROOT
BRANCH   1   7
HETATM    7  C   UNL     1     -41.743 -48.652  12.237  1.00  0.00     0.096 C 
HETATM    8  C   UNL     1     -40.202 -48.616  12.396  1.00  0.00     0.036 C 
HETATM    9  C   UNL     1     -39.891 -47.098  12.299  1.00  0.00    -0.006 C 
HETATM   10  C   UNL     1     -40.175 -46.545  10.892  1.00  0.00     0.005 C 
HETATM   11  C   UNL     1     -41.065 -46.509  13.085  1.00  0.00     0.012 C 
HETATM   12  C   UNL     1     -41.706 -46.621  10.792  1.00  0.00     0.007 C 
HETATM   13  C   UNL     1     -42.116 -47.154  12.180  1.00  0.00     0.009 C 
BRANCH   8  14
HETATM   14  C   UNL     1     -39.478 -49.501  11.386  1.00  0.00     0.171 C 
BRANCH  14  15
HETATM   15  O   UNL     1     -40.402 -49.967  10.410  1.00  0.00    -0.400 OA
HETATM   16  H   UNL     1     -40.613 -49.206   9.843  1.00  0.00     0.209 HD
ENDBRANCH  14  15
ENDBRANCH   8  14
ENDBRANCH   1   7
BRANCH   4  17
HETATM   17  C   UNL     1     -43.923 -52.471  14.251  1.00  0.00     0.108 A 
HETATM   18  C   UNL     1     -43.283 -53.494  14.945  1.00  0.00     0.049 A 
HETATM   19  C   UNL     1     -43.740 -54.797  14.787  1.00  0.00     0.005 A 
HETATM   20  C   UNL     1     -44.815 -55.038  13.943  1.00  0.00     0.017 A 
HETATM   21  C   UNL     1     -45.422 -53.950  13.332  1.00  0.00     0.089 A 
HETATM   22  N   UNL     1     -45.021 -52.669  13.494  1.00  0.00    -0.352 N 
ATOM     23  HN  UNL     1     -45.523 -51.892  13.065  1.00  0.00     0.166 HD
ENDBRANCH   4  17
TORSDOF 4
ENDMDL
MODEL 9
REMARK VINA RESULT:      -5.3     15.969     18.598
REMARK  4 active torsions:
REMARK  status: ('A' for Active; 'I' for Inactive)
REMARK    1  A    between atoms: O_1  and  C_2 
REMARK    2  A    between atoms: C_2  and  C_3 
REMARK    3  A    between atoms: C_4  and  N_5 
REMARK       I    between atoms: N_5  and  C_6 
REMARK       I    between atoms: C_6  and  N_8 
REMARK    4  A    between atoms: N_8  and  C_9 
ROOT
HETATM    1  N   UNL     1     -27.444 -60.651  18.192  1.00  0.00    -0.337 N 
HETATM    2  C   UNL     1     -28.260 -59.746  18.832  1.00  0.00     0.322 C 
HETATM    3  O   UNL     1     -29.480 -59.884  18.877  1.00  0.00    -0.247 OA
HETATM    4  N   UNL     1     -27.558 -58.679  19.331  1.00  0.00    -0.295 N 
HETATM    5  H   UNL     1     -26.522 -60.760  18.588  1.00  0.00     0.164 HD
HETATM    6  H   UNL     1     -26.777 -58.387  18.764  1.00  0.00     0.172 HD
ENDROOT
BRANCH   1   7
HETATM    7  C   UNL     1     -28.046 -61.782  17.500  1.00  0.00     0.096 C 
HETATM    8  C   UNL     1     -27.173 -63.061  17.540  1.00  0.00     0.036 C 
HETATM    9  C   UNL     1     -27.032 -63.418  16.035  1.00  0.00    -0.006 C 
HETATM   10  C   UNL     1     -28.375 -63.851  15.422  1.00  0.00     0.005 C 
HETATM   11  C   UNL     1     -26.868 -62.026  15.420  1.00  0.00     0.012 C 
HETATM   12  C   UNL     1     -29.193 -62.550  15.425  1.00  0.00     0.007 C 
HETATM   13  C   UNL     1     -28.195 -61.516  15.986  1.00  0.00     0.009 C 
BRANCH   8  14
HETATM   14  C   UNL     1     -27.763 -64.157  18.422  1.00  0.00     0.171 C 
BRANCH  14  15
HETATM   15  O   UNL     1     -26.949 -64.333  19.576  1.00  0.00    -0.400 OA
HETATM   16  H   UNL     1     -26.099 -64.686  19.263  1.00  0.00     0.209 HD
ENDBRANCH  14  15
ENDBRANCH   8  14
ENDBRANCH   1   7
BRANCH   4  17
HETATM   17  C   UNL     1     -28.228 -57.586  19.899  1.00  0.00     0.108 A 
HETATM   18  C   UNL     1     -28.034 -57.219  21.228  1.00  0.00     0.049 A 
HETATM   19  C   UNL     1     -28.828 -56.214  21.766  1.00  0.00     0.005 A 
HETATM   20  C   UNL     1     -29.788 -55.610  20.966  1.00  0.00     0.017 A 
HETATM   21  C   UNL     1     -29.875 -56.005  19.640  1.00  0.00     0.089 A 
HETATM   22  N   UNL     1     -29.093 -56.956  19.080  1.00  0.00    -0.352 N 
ATOM     23  HN  UNL     1     -29.155 -57.185  18.088  1.00  0.00     0.166 HD
ENDBRANCH   4  17
TORSDOF 4
ENDMDL
