MODEL 1
REMARK VINA RESULT:      -5.6      0.000      0.000
REMARK  7 active torsions:
REMARK  status: ('A' for Active; 'I' for Inactive)
REMARK    1  A    between atoms: C_2  and  C_3 
REMARK    2  A    between atoms: C_7  and  C_8 
REMARK    3  A    between atoms: C_10  and  C_11 
REMARK    4  A    between atoms: C_11  and  C_12 
REMARK       I    between atoms: C_12  and  N_14 
REMARK    5  A    between atoms: N_14  and  C_15 
REMARK    6  A    between atoms: C_15  and  C_16 
REMARK    7  A    between atoms: C_16  and  O_18 
ROOT
HETATM    1  C   UNL     1     -44.366 -46.843   9.624  1.00  0.00     0.041 A 
HETATM    2  N   UNL     1     -44.230 -45.715   8.913  1.00  0.00    -0.265 N 
ATOM      3  HN  UNL     1     -44.799 -45.420   8.119  1.00  0.00     0.194 HD
HETATM    4  O   UNL     1     -43.172 -45.037   9.468  1.00  0.00    -0.242 OA
HETATM    5  C   UNL     1     -42.668 -45.751  10.502  1.00  0.00     0.084 A 
HETATM    6  C   UNL     1     -43.366 -46.938  10.644  1.00  0.00     0.007 A 
ENDROOT
BRANCH   6   7
HETATM    7  C   UNL     1     -43.112 -47.964  11.699  1.00  0.00     0.146 C 
BRANCH   7   8
HETATM    8  C   UNL     1     -41.965 -48.919  11.444  1.00  0.00     0.222 C 
HETATM    9  O   UNL     1     -41.172 -48.759  10.517  1.00  0.00    -0.273 OA
HETATM   10  N   UNL     1     -41.880 -50.005  12.281  1.00  0.00    -0.351 N 
HETATM   11  H   UNL     1     -42.495 -50.115  13.084  1.00  0.00     0.163 HD
BRANCH  10  12
HETATM   12  C   UNL     1     -40.850 -51.005  12.058  1.00  0.00     0.232 C 
BRANCH  12  13
HETATM   13  C   UNL     1     -41.409 -52.414  11.948  1.00  0.00     0.158 C 
HETATM   14  O   UNL     1     -42.473 -52.771  12.436  1.00  0.00    -0.649 OA
BRANCH  13  15
HETATM   15  O   UNL     1     -40.613 -53.250  11.242  1.00  0.00    -0.775 OA
HETATM   16  H   UNL     1     -39.957 -53.736  11.781  1.00  0.00     0.167 HD
ENDBRANCH  13  15
ENDBRANCH  12  13
ENDBRANCH  10  12
ENDBRANCH   7   8
ENDBRANCH   6   7
BRANCH   1  17
HETATM   17  C   UNL     1     -45.485 -47.759   9.263  1.00  0.00     0.055 C 
HETATM   18  C   UNL     1     -46.809 -47.024   9.119  1.00  0.00     0.011 C 
ENDBRANCH   1  17
BRANCH   5  19
HETATM   19  C   UNL     1     -41.545 -45.109  11.231  1.00  0.00     0.063 C 
HETATM   20  C   UNL     1     -40.225 -45.303  10.506  1.00  0.00     0.012 C 
ENDBRANCH   5  19
TORSDOF 7
ENDMDL
MODEL 2
REMARK VINA RESULT:      -5.5      3.383      6.486
REMARK  7 active torsions:
REMARK  status: ('A' for Active; 'I' for Inactive)
REMARK    1  A    between atoms: C_2  and  C_3 
REMARK    2  A    between atoms: C_7  and  C_8 
REMARK    3  A    between atoms: C_10  and  C_11 
REMARK    4  A    between atoms: C_11  and  C_12 
REMARK       I    between atoms: C_12  and  N_14 
REMARK    5  A    between atoms: N_14  and  C_15 
REMARK    6  A    between atoms: C_15  and  C_16 
REMARK    7  A    between atoms: C_16  and  O_18 
ROOT
HETATM    1  C   UNL     1     -43.333 -53.232  13.116  1.00  0.00     0.041 A 
HETATM    2  N   UNL     1     -44.022 -54.090  12.351  1.00  0.00    -0.265 N 
ATOM      3  HN  UNL     1     -43.689 -54.979  11.976  1.00  0.00     0.194 HD
HETATM    4  O   UNL     1     -45.265 -53.534  12.173  1.00  0.00    -0.242 OA
HETATM    5  C   UNL     1     -45.326 -52.345  12.821  1.00  0.00     0.084 A 
HETATM    6  C   UNL     1     -44.111 -52.072  13.426  1.00  0.00     0.007 A 
ENDROOT
BRANCH   6   7
HETATM    7  C   UNL     1     -43.816 -50.865  14.255  1.00  0.00     0.146 C 
BRANCH   7   8
HETATM    8  C   UNL     1     -43.147 -49.708  13.542  1.00  0.00     0.222 C 
HETATM    9  O   UNL     1     -43.019 -48.601  14.064  1.00  0.00    -0.273 OA
HETATM   10  N   UNL     1     -42.724 -49.948  12.257  1.00  0.00    -0.351 N 
HETATM   11  H   UNL     1     -42.772 -50.874  11.839  1.00  0.00     0.163 HD
BRANCH  10  12
HETATM   12  C   UNL     1     -42.137 -48.870  11.481  1.00  0.00     0.232 C 
BRANCH  12  13
HETATM   13  C   UNL     1     -40.660 -49.084  11.196  1.00  0.00     0.158 C 
HETATM   14  O   UNL     1     -39.755 -48.537  11.813  1.00  0.00    -0.649 OA
BRANCH  13  15
HETATM   15  O   UNL     1     -40.432 -49.956  10.186  1.00  0.00    -0.775 OA
HETATM   16  H   UNL     1     -40.170 -49.538   9.342  1.00  0.00     0.167 HD
ENDBRANCH  13  15
ENDBRANCH  12  13
ENDBRANCH  10  12
ENDBRANCH   7   8
ENDBRANCH   6   7
BRANCH   1  17
HETATM   17  C   UNL     1     -41.946 -53.614  13.510  1.00  0.00     0.055 C 
HETATM   18  C   UNL     1     -40.906 -53.114  12.519  1.00  0.00     0.011 C 
ENDBRANCH   1  17
BRANCH   5  19
HETATM   19  C   UNL     1     -46.637 -51.652  12.756  1.00  0.00     0.063 C 
HETATM   20  C   UNL     1     -47.211 -51.674  11.350  1.00  0.00     0.012 C 
ENDBRANCH   5  19
TORSDOF 7
ENDMDL
MODEL 3
REMARK VINA RESULT:      -5.4      4.117      6.866
REMARK  7 active torsions:
REMARK  status: ('A' for Active; 'I' for Inactive)
REMARK    1  A    between atoms: C_2  and  C_3 
REMARK    2  A    between atoms: C_7  and  C_8 
REMARK    3  A    between atoms: C_10  and  C_11 
REMARK    4  A    between atoms: C_11  and  C_12 
REMARK       I    between atoms: C_12  and  N_14 
REMARK    5  A    between atoms: N_14  and  C_15 
REMARK    6  A    between atoms: C_15  and  C_16 
REMARK    7  A    between atoms: C_16  and  O_18 
ROOT
HETATM    1  C   UNL     1     -46.140 -52.588  13.112  1.00  0.00     0.041 A 
HETATM    2  N   UNL     1     -46.921 -53.128  14.058  1.00  0.00    -0.265 N 
ATOM      3  HN  UNL     1     -47.848 -52.810  14.341  1.00  0.00     0.194 HD
HETATM    4  O   UNL     1     -46.222 -54.193  14.570  1.00  0.00    -0.242 OA
HETATM    5  C   UNL     1     -45.025 -54.294  13.943  1.00  0.00     0.084 A 
HETATM    6  C   UNL     1     -44.890 -53.277  13.013  1.00  0.00     0.007 A 
ENDROOT
BRANCH   6   7
HETATM    7  C   UNL     1     -43.716 -53.089  12.110  1.00  0.00     0.146 C 
BRANCH   7   8
HETATM    8  C   UNL     1     -42.574 -52.260  12.659  1.00  0.00     0.222 C 
HETATM    9  O   UNL     1     -42.592 -51.789  13.796  1.00  0.00    -0.273 OA
HETATM   10  N   UNL     1     -41.527 -52.023  11.802  1.00  0.00    -0.351 N 
HETATM   11  H   UNL     1     -41.476 -52.455  10.883  1.00  0.00     0.163 HD
BRANCH  10  12
HETATM   12  C   UNL     1     -40.426 -51.177  12.229  1.00  0.00     0.232 C 
BRANCH  12  13
HETATM   13  C   UNL     1     -40.391 -49.842  11.503  1.00  0.00     0.158 C 
HETATM   14  O   UNL     1     -40.234 -48.762  12.057  1.00  0.00    -0.649 OA
BRANCH  13  15
HETATM   15  O   UNL     1     -40.541 -49.960  10.163  1.00  0.00    -0.775 OA
HETATM   16  H   UNL     1     -41.368 -50.403   9.886  1.00  0.00     0.167 HD
ENDBRANCH  13  15
ENDBRANCH  12  13
ENDBRANCH  10  12
ENDBRANCH   7   8
ENDBRANCH   6   7
BRANCH   1  17
HETATM   17  C   UNL     1     -46.680 -51.426  12.349  1.00  0.00     0.055 C 
HETATM   18  C   UNL     1     -47.385 -51.852  11.070  1.00  0.00     0.011 C 
ENDBRANCH   1  17
BRANCH   5  19
HETATM   19  C   UNL     1     -44.181 -55.441  14.364  1.00  0.00     0.063 C 
HETATM   20  C   UNL     1     -43.019 -54.990  15.232  1.00  0.00     0.012 C 
ENDBRANCH   5  19
TORSDOF 7
ENDMDL
MODEL 4
REMARK VINA RESULT:      -5.3      3.135      6.725
REMARK  7 active torsions:
REMARK  status: ('A' for Active; 'I' for Inactive)
REMARK    1  A    between atoms: C_2  and  C_3 
REMARK    2  A    between atoms: C_7  and  C_8 
REMARK    3  A    between atoms: C_10  and  C_11 
REMARK    4  A    between atoms: C_11  and  C_12 
REMARK       I    between atoms: C_12  and  N_14 
REMARK    5  A    between atoms: N_14  and  C_15 
REMARK    6  A    between atoms: C_15  and  C_16 
REMARK    7  A    between atoms: C_16  and  O_18 
ROOT
HETATM    1  C   UNL     1     -43.108 -53.248  12.861  1.00  0.00     0.041 A 
HETATM    2  N   UNL     1     -43.970 -54.128  12.333  1.00  0.00    -0.265 N 
ATOM      3  HN  UNL     1     -43.754 -55.061  11.982  1.00  0.00     0.194 HD
HETATM    4  O   UNL     1     -45.202 -53.521  12.358  1.00  0.00    -0.242 OA
HETATM    5  C   UNL     1     -45.085 -52.281  12.892  1.00  0.00     0.084 A 
HETATM    6  C   UNL     1     -43.763 -52.025  13.212  1.00  0.00     0.007 A 
ENDROOT
BRANCH   6   7
HETATM    7  C   UNL     1     -43.260 -50.771  13.849  1.00  0.00     0.146 C 
BRANCH   7   8
HETATM    8  C   UNL     1     -42.090 -50.095  13.167  1.00  0.00     0.222 C 
HETATM    9  O   UNL     1     -41.141 -49.630  13.799  1.00  0.00    -0.273 OA
HETATM   10  N   UNL     1     -42.160 -49.989  11.799  1.00  0.00    -0.351 N 
HETATM   11  H   UNL     1     -42.910 -50.421  11.264  1.00  0.00     0.163 HD
BRANCH  10  12
HETATM   12  C   UNL     1     -41.111 -49.291  11.077  1.00  0.00     0.232 C 
BRANCH  12  13
HETATM   13  C   UNL     1     -41.586 -47.988  10.458  1.00  0.00     0.158 C 
HETATM   14  O   UNL     1     -41.341 -46.879  10.916  1.00  0.00    -0.649 OA
BRANCH  13  15
HETATM   15  O   UNL     1     -42.311 -48.167   9.329  1.00  0.00    -0.775 OA
HETATM   16  H   UNL     1     -41.929 -47.748   8.532  1.00  0.00     0.167 HD
ENDBRANCH  13  15
ENDBRANCH  12  13
ENDBRANCH  10  12
ENDBRANCH   7   8
ENDBRANCH   6   7
BRANCH   1  17
HETATM   17  C   UNL     1     -41.685 -53.671  13.001  1.00  0.00     0.055 C 
HETATM   18  C   UNL     1     -41.379 -54.218  14.387  1.00  0.00     0.011 C 
ENDBRANCH   1  17
BRANCH   5  19
HETATM   19  C   UNL     1     -46.356 -51.525  13.027  1.00  0.00     0.063 C 
HETATM   20  C   UNL     1     -46.810 -51.452  14.475  1.00  0.00     0.012 C 
ENDBRANCH   5  19
TORSDOF 7
ENDMDL
MODEL 5
REMARK VINA RESULT:      -5.2      4.876      7.381
REMARK  7 active torsions:
REMARK  status: ('A' for Active; 'I' for Inactive)
REMARK    1  A    between atoms: C_2  and  C_3 
REMARK    2  A    between atoms: C_7  and  C_8 
REMARK    3  A    between atoms: C_10  and  C_11 
REMARK    4  A    between atoms: C_11  and  C_12 
REMARK       I    between atoms: C_12  and  N_14 
REMARK    5  A    between atoms: N_14  and  C_15 
REMARK    6  A    between atoms: C_15  and  C_16 
REMARK    7  A    between atoms: C_16  and  O_18 
ROOT
HETATM    1  C   UNL     1     -46.421 -52.457  15.703  1.00  0.00     0.041 A 
HETATM    2  N   UNL     1     -46.397 -53.427  16.627  1.00  0.00    -0.265 N 
ATOM      3  HN  UNL     1     -46.917 -53.449  17.505  1.00  0.00     0.194 HD
HETATM    4  O   UNL     1     -45.531 -54.384  16.157  1.00  0.00    -0.242 OA
HETATM    5  C   UNL     1     -45.030 -53.993  14.961  1.00  0.00     0.084 A 
HETATM    6  C   UNL     1     -45.535 -52.750  14.618  1.00  0.00     0.007 A 
ENDROOT
BRANCH   6   7
HETATM    7  C   UNL     1     -45.230 -52.018  13.353  1.00  0.00     0.146 C 
BRANCH   7   8
HETATM    8  C   UNL     1     -43.860 -51.382  13.259  1.00  0.00     0.222 C 
HETATM    9  O   UNL     1     -43.550 -50.390  13.919  1.00  0.00    -0.273 OA
HETATM   10  N   UNL     1     -42.985 -51.947  12.363  1.00  0.00    -0.351 N 
HETATM   11  H   UNL     1     -43.211 -52.800  11.857  1.00  0.00     0.163 HD
BRANCH  10  12
HETATM   12  C   UNL     1     -41.676 -51.352  12.163  1.00  0.00     0.232 C 
BRANCH  12  13
HETATM   13  C   UNL     1     -40.546 -52.361  12.271  1.00  0.00     0.158 C 
HETATM   14  O   UNL     1     -39.627 -52.280  13.077  1.00  0.00    -0.649 OA
BRANCH  13  15
HETATM   15  O   UNL     1     -40.654 -53.381  11.387  1.00  0.00    -0.775 OA
HETATM   16  H   UNL     1     -40.579 -53.113  10.450  1.00  0.00     0.167 HD
ENDBRANCH  13  15
ENDBRANCH  12  13
ENDBRANCH  10  12
ENDBRANCH   7   8
ENDBRANCH   6   7
BRANCH   1  17
HETATM   17  C   UNL     1     -47.329 -51.298  15.939  1.00  0.00     0.055 C 
HETATM   18  C   UNL     1     -47.898 -51.287  17.349  1.00  0.00     0.011 C 
ENDBRANCH   1  17
BRANCH   5  19
HETATM   19  C   UNL     1     -44.113 -54.962  14.309  1.00  0.00     0.063 C 
HETATM   20  C   UNL     1     -42.665 -54.700  14.683  1.00  0.00     0.012 C 
ENDBRANCH   5  19
TORSDOF 7
ENDMDL
MODEL 6
REMARK VINA RESULT:      -5.1      3.230      7.539
REMARK  7 active torsions:
REMARK  status: ('A' for Active; 'I' for Inactive)
REMARK    1  A    between atoms: C_2  and  C_3 
REMARK    2  A    between atoms: C_7  and  C_8 
REMARK    3  A    between atoms: C_10  and  C_11 
REMARK    4  A    between atoms: C_11  and  C_12 
REMARK       I    between atoms: C_12  and  N_14 
REMARK    5  A    between atoms: N_14  and  C_15 
REMARK    6  A    between atoms: C_15  and  C_16 
REMARK    7  A    between atoms: C_16  and  O_18 
ROOT
HETATM    1  C   UNL     1     -42.911 -54.179  13.812  1.00  0.00     0.041 A 
HETATM    2  N   UNL     1     -42.750 -54.883  14.941  1.00  0.00    -0.265 N 
ATOM      3  HN  UNL     1     -43.484 -55.311  15.506  1.00  0.00     0.194 HD
HETATM    4  O   UNL     1     -41.399 -54.913  15.185  1.00  0.00    -0.242 OA
HETATM    5  C   UNL     1     -40.748 -54.226  14.215  1.00  0.00     0.084 A 
HETATM    6  C   UNL     1     -41.658 -53.702  13.313  1.00  0.00     0.007 A 
ENDROOT
BRANCH   6   7
HETATM    7  C   UNL     1     -41.303 -52.914  12.095  1.00  0.00     0.146 C 
BRANCH   7   8
HETATM    8  C   UNL     1     -41.079 -51.430  12.298  1.00  0.00     0.222 C 
HETATM    9  O   UNL     1     -41.255 -50.882  13.385  1.00  0.00    -0.273 OA
HETATM   10  N   UNL     1     -40.705 -50.714  11.186  1.00  0.00    -0.351 N 
HETATM   11  H   UNL     1     -40.501 -51.166  10.298  1.00  0.00     0.163 HD
BRANCH  10  12
HETATM   12  C   UNL     1     -40.539 -49.274  11.282  1.00  0.00     0.232 C 
BRANCH  12  13
HETATM   13  C   UNL     1     -41.760 -48.506  10.805  1.00  0.00     0.158 C 
HETATM   14  O   UNL     1     -42.605 -48.027  11.550  1.00  0.00    -0.649 OA
BRANCH  13  15
HETATM   15  O   UNL     1     -41.824 -48.389   9.458  1.00  0.00    -0.775 OA
HETATM   16  H   UNL     1     -42.703 -48.129   9.116  1.00  0.00     0.167 HD
ENDBRANCH  13  15
ENDBRANCH  12  13
ENDBRANCH  10  12
ENDBRANCH   7   8
ENDBRANCH   6   7
BRANCH   1  17
HETATM   17  C   UNL     1     -44.297 -54.028  13.282  1.00  0.00     0.055 C 
HETATM   18  C   UNL     1     -45.241 -55.092  13.821  1.00  0.00     0.011 C 
ENDBRANCH   1  17
BRANCH   5  19
HETATM   19  C   UNL     1     -39.268 -54.219  14.326  1.00  0.00     0.063 C 
HETATM   20  C   UNL     1     -38.781 -55.204  15.374  1.00  0.00     0.012 C 
ENDBRANCH   5  19
TORSDOF 7
ENDMDL
MODEL 7
REMARK VINA RESULT:      -5.0      4.378      7.175
REMARK  7 active torsions:
REMARK  status: ('A' for Active; 'I' for Inactive)
REMARK    1  A    between atoms: C_2  and  C_3 
REMARK    2  A    between atoms: C_7  and  C_8 
REMARK    3  A    between atoms: C_10  and  C_11 
REMARK    4  A    between atoms: C_11  and  C_12 
REMARK       I    between atoms: C_12  and  N_14 
REMARK    5  A    between atoms: N_14  and  C_15 
REMARK    6  A    between atoms: C_15  and  C_16 
REMARK    7  A    between atoms: C_16  and  O_18 
ROOT
HETATM    1  C   UNL     1     -44.919 -53.499  13.447  1.00  0.00     0.041 A 
HETATM    2  N   UNL     1     -45.232 -54.770  13.730  1.00  0.00    -0.265 N 
ATOM      3  HN  UNL     1     -46.070 -55.274  13.438  1.00  0.00     0.194 HD
HETATM    4  O   UNL     1     -44.200 -55.259  14.494  1.00  0.00    -0.242 OA
HETATM    5  C   UNL     1     -43.272 -54.289  14.676  1.00  0.00     0.084 A 
HETATM    6  C   UNL     1     -43.680 -53.120  14.055  1.00  0.00     0.007 A 
ENDROOT
BRANCH   6   7
HETATM    7  C   UNL     1     -42.896 -51.850  14.017  1.00  0.00     0.146 C 
BRANCH   7   8
HETATM    8  C   UNL     1     -41.794 -51.772  12.981  1.00  0.00     0.222 C 
HETATM    9  O   UNL     1     -41.844 -52.396  11.921  1.00  0.00    -0.273 OA
HETATM   10  N   UNL     1     -40.708 -50.997  13.305  1.00  0.00    -0.351 N 
HETATM   11  H   UNL     1     -40.683 -50.432  14.151  1.00  0.00     0.163 HD
BRANCH  10  12
HETATM   12  C   UNL     1     -39.577 -50.927  12.396  1.00  0.00     0.232 C 
BRANCH  12  13
HETATM   13  C   UNL     1     -39.649 -49.737  11.454  1.00  0.00     0.158 C 
HETATM   14  O   UNL     1     -39.115 -48.657  11.670  1.00  0.00    -0.649 OA
BRANCH  13  15
HETATM   15  O   UNL     1     -40.361 -49.987  10.331  1.00  0.00    -0.775 OA
HETATM   16  H   UNL     1     -41.147 -50.552  10.468  1.00  0.00     0.167 HD
ENDBRANCH  13  15
ENDBRANCH  12  13
ENDBRANCH  10  12
ENDBRANCH   7   8
ENDBRANCH   6   7
BRANCH   1  17
HETATM   17  C   UNL     1     -45.856 -52.732  12.577  1.00  0.00     0.055 C 
HETATM   18  C   UNL     1     -46.551 -51.606  13.329  1.00  0.00     0.011 C 
ENDBRANCH   1  17
BRANCH   5  19
HETATM   19  C   UNL     1     -42.070 -54.696  15.445  1.00  0.00     0.063 C 
HETATM   20  C   UNL     1     -42.261 -56.049  16.107  1.00  0.00     0.012 C 
ENDBRANCH   5  19
TORSDOF 7
ENDMDL
MODEL 8
REMARK VINA RESULT:      -4.9      4.622      8.554
REMARK  7 active torsions:
REMARK  status: ('A' for Active; 'I' for Inactive)
REMARK    1  A    between atoms: C_2  and  C_3 
REMARK    2  A    between atoms: C_7  and  C_8 
REMARK    3  A    between atoms: C_10  and  C_11 
REMARK    4  A    between atoms: C_11  and  C_12 
REMARK       I    between atoms: C_12  and  N_14 
REMARK    5  A    between atoms: N_14  and  C_15 
REMARK    6  A    between atoms: C_15  and  C_16 
REMARK    7  A    between atoms: C_16  and  O_18 
ROOT
HETATM    1  C   UNL     1     -41.468 -54.810  15.532  1.00  0.00     0.041 A 
HETATM    2  N   UNL     1     -42.502 -55.092  16.336  1.00  0.00    -0.265 N 
ATOM      3  HN  UNL     1     -42.458 -55.354  17.321  1.00  0.00     0.194 HD
HETATM    4  O   UNL     1     -43.633 -54.958  15.568  1.00  0.00    -0.242 OA
HETATM    5  C   UNL     1     -43.285 -54.605  14.307  1.00  0.00     0.084 A 
HETATM    6  C   UNL     1     -41.907 -54.519  14.202  1.00  0.00     0.007 A 
ENDROOT
BRANCH   6   7
HETATM    7  C   UNL     1     -41.163 -54.122  12.970  1.00  0.00     0.146 C 
BRANCH   7   8
HETATM    8  C   UNL     1     -40.516 -52.753  12.989  1.00  0.00     0.222 C 
HETATM    9  O   UNL     1     -39.386 -52.567  13.441  1.00  0.00    -0.273 OA
HETATM   10  N   UNL     1     -41.275 -51.714  12.509  1.00  0.00    -0.351 N 
HETATM   11  H   UNL     1     -42.185 -51.866  12.080  1.00  0.00     0.163 HD
BRANCH  10  12
HETATM   12  C   UNL     1     -40.754 -50.359  12.559  1.00  0.00     0.232 C 
BRANCH  12  13
HETATM   13  C   UNL     1     -39.874 -50.021  11.367  1.00  0.00     0.158 C 
HETATM   14  O   UNL     1     -38.665 -49.840  11.435  1.00  0.00    -0.649 OA
BRANCH  13  15
HETATM   15  O   UNL     1     -40.559 -49.946  10.202  1.00  0.00    -0.775 OA
HETATM   16  H   UNL     1     -41.386 -50.468  10.185  1.00  0.00     0.167 HD
ENDBRANCH  13  15
ENDBRANCH  12  13
ENDBRANCH  10  12
ENDBRANCH   7   8
ENDBRANCH   6   7
BRANCH   1  17
HETATM   17  C   UNL     1     -40.101 -54.833  16.128  1.00  0.00     0.055 C 
HETATM   18  C   UNL     1     -39.719 -56.211  16.645  1.00  0.00     0.011 C 
ENDBRANCH   1  17
BRANCH   5  19
HETATM   19  C   UNL     1     -44.418 -54.375  13.376  1.00  0.00     0.063 C 
HETATM   20  C   UNL     1     -45.682 -55.068  13.852  1.00  0.00     0.012 C 
ENDBRANCH   5  19
TORSDOF 7
ENDMDL
MODEL 9
REMARK VINA RESULT:      -4.9      5.445      7.582
REMARK  7 active torsions:
REMARK  status: ('A' for Active; 'I' for Inactive)
REMARK    1  A    between atoms: C_2  and  C_3 
REMARK    2  A    between atoms: C_7  and  C_8 
REMARK    3  A    between atoms: C_10  and  C_11 
REMARK    4  A    between atoms: C_11  and  C_12 
REMARK       I    between atoms: C_12  and  N_14 
REMARK    5  A    between atoms: N_14  and  C_15 
REMARK    6  A    between atoms: C_15  and  C_16 
REMARK    7  A    between atoms: C_16  and  O_18 
ROOT
HETATM    1  C   UNL     1     -45.810 -53.585  15.187  1.00  0.00     0.041 A 
HETATM    2  N   UNL     1     -45.745 -53.972  16.468  1.00  0.00    -0.265 N 
ATOM      3  HN  UNL     1     -46.437 -53.795  17.197  1.00  0.00     0.194 HD
HETATM    4  O   UNL     1     -44.561 -54.654  16.604  1.00  0.00    -0.242 OA
HETATM    5  C   UNL     1     -43.910 -54.675  15.415  1.00  0.00     0.084 A 
HETATM    6  C   UNL     1     -44.640 -53.982  14.464  1.00  0.00     0.007 A 
ENDROOT
BRANCH   6   7
HETATM    7  C   UNL     1     -44.251 -53.822  13.032  1.00  0.00     0.146 C 
BRANCH   7   8
HETATM    8  C   UNL     1     -43.241 -52.735  12.729  1.00  0.00     0.222 C 
HETATM    9  O   UNL     1     -43.482 -51.543  12.917  1.00  0.00    -0.273 OA
HETATM   10  N   UNL     1     -42.046 -53.147  12.189  1.00  0.00    -0.351 N 
HETATM   11  H   UNL     1     -41.815 -54.132  12.084  1.00  0.00     0.163 HD
BRANCH  10  12
HETATM   12  C   UNL     1     -41.052 -52.160  11.804  1.00  0.00     0.232 C 
BRANCH  12  13
HETATM   13  C   UNL     1     -40.105 -51.804  12.937  1.00  0.00     0.158 C 
HETATM   14  O   UNL     1     -39.052 -52.389  13.162  1.00  0.00    -0.649 OA
BRANCH  13  15
HETATM   15  O   UNL     1     -40.532 -50.758  13.682  1.00  0.00    -0.775 OA
HETATM   16  H   UNL     1     -41.306 -50.288  13.313  1.00  0.00     0.167 HD
ENDBRANCH  13  15
ENDBRANCH  12  13
ENDBRANCH  10  12
ENDBRANCH   7   8
ENDBRANCH   6   7
BRANCH   1  17
HETATM   17  C   UNL     1     -47.032 -52.855  14.745  1.00  0.00     0.055 C 
HETATM   18  C   UNL     1     -46.749 -51.395  14.425  1.00  0.00     0.011 C 
ENDBRANCH   1  17
BRANCH   5  19
HETATM   19  C   UNL     1     -42.631 -55.427  15.403  1.00  0.00     0.063 C 
HETATM   20  C   UNL     1     -41.435 -54.497  15.501  1.00  0.00     0.012 C 
ENDBRANCH   5  19
TORSDOF 7
ENDMDL
