MODEL 1
REMARK VINA RESULT:      -5.7      0.000      0.000
REMARK  4 active torsions:
REMARK  status: ('A' for Active; 'I' for Inactive)
REMARK       I    between atoms: C_2  and  N_3 
REMARK       I    between atoms: C_2  and  N_12 
REMARK    1  A    between atoms: N_3  and  C_4 
REMARK    2  A    between atoms: C_4  and  C_5 
REMARK    3  A    between atoms: C_5  and  N_6 
REMARK    4  A    between atoms: N_12  and  C_13 
ROOT
HETATM    1  O   UNL     1     -42.285 -50.917  13.275  1.00  0.00    -0.247 OA
HETATM    2  C   UNL     1     -42.060 -51.540  12.246  1.00  0.00     0.320 C 
HETATM    3  N   UNL     1     -41.106 -51.117  11.336  1.00  0.00    -0.341 N 
HETATM    4  N   UNL     1     -42.715 -52.679  11.839  1.00  0.00    -0.308 N 
HETATM    5  H   UNL     1     -40.601 -51.864  10.879  1.00  0.00     0.164 HD
HETATM    6  H   UNL     1     -42.740 -52.838  10.843  1.00  0.00     0.170 HD
ENDROOT
BRANCH   3   7
HETATM    7  C   UNL     1     -40.336 -49.954  11.757  1.00  0.00     0.154 C 
BRANCH   7   8
HETATM    8  C   UNL     1     -40.598 -48.663  10.969  1.00  0.00     0.292 C 
BRANCH   8   9
HETATM    9  N   UNL     1     -41.659 -47.841  11.585  1.00  0.00     0.094 N 
HETATM   10  C   UNL     1     -42.937 -47.833  10.832  1.00  0.00     0.298 C 
HETATM   11  C   UNL     1     -42.912 -46.986   9.550  1.00  0.00     0.198 C 
HETATM   12  O   UNL     1     -42.499 -45.641   9.819  1.00  0.00    -0.388 OA
HETATM   13  C   UNL     1     -41.222 -45.617  10.465  1.00  0.00     0.198 C 
HETATM   14  C   UNL     1     -41.235 -46.436  11.767  1.00  0.00     0.298 C 
ENDBRANCH   8   9
ENDBRANCH   7   8
ENDBRANCH   3   7
BRANCH   4  15
HETATM   15  C   UNL     1     -43.692 -53.337  12.633  1.00  0.00     0.051 A 
HETATM   16  C   UNL     1     -43.371 -54.301  13.587  1.00  0.00     0.032 A 
HETATM   17  C   UNL     1     -44.367 -54.857  14.386  1.00  0.00     0.019 A 
HETATM   18  C   UNL     1     -45.672 -54.446  14.186  1.00  0.00     0.088 A 
HETATM   19  N   UNL     1     -46.037 -53.555  13.237  1.00  0.00    -0.373 N 
HETATM   20  C   UNL     1     -45.038 -53.025  12.483  1.00  0.00     0.117 A 
ATOM     21  HN  UNL     1     -47.013 -53.294  13.093  1.00  0.00     0.164 HD
ENDBRANCH   4  15
TORSDOF 4
ENDMDL
MODEL 2
REMARK VINA RESULT:      -5.6      1.317      1.631
REMARK  4 active torsions:
REMARK  status: ('A' for Active; 'I' for Inactive)
REMARK       I    between atoms: C_2  and  N_3 
REMARK       I    between atoms: C_2  and  N_12 
REMARK    1  A    between atoms: N_3  and  C_4 
REMARK    2  A    between atoms: C_4  and  C_5 
REMARK    3  A    between atoms: C_5  and  N_6 
REMARK    4  A    between atoms: N_12  and  C_13 
ROOT
HETATM    1  O   UNL     1     -42.044 -51.656  13.532  1.00  0.00    -0.247 OA
HETATM    2  C   UNL     1     -42.090 -52.080  12.385  1.00  0.00     0.320 C 
HETATM    3  N   UNL     1     -41.130 -51.738  11.448  1.00  0.00    -0.341 N 
HETATM    4  N   UNL     1     -43.074 -52.890  11.869  1.00  0.00    -0.308 N 
HETATM    5  H   UNL     1     -40.898 -52.476  10.796  1.00  0.00     0.164 HD
HETATM    6  H   UNL     1     -43.222 -52.819  10.873  1.00  0.00     0.170 HD
ENDROOT
BRANCH   3   7
HETATM    7  C   UNL     1     -40.028 -50.939  11.967  1.00  0.00     0.154 C 
BRANCH   7   8
HETATM    8  C   UNL     1     -39.893 -49.530  11.374  1.00  0.00     0.292 C 
BRANCH   8   9
HETATM    9  N   UNL     1     -40.989 -48.638  11.801  1.00  0.00     0.094 N 
HETATM   10  C   UNL     1     -41.254 -47.512  10.872  1.00  0.00     0.298 C 
HETATM   11  C   UNL     1     -40.208 -46.386  10.928  1.00  0.00     0.198 C 
HETATM   12  O   UNL     1     -40.045 -45.888  12.261  1.00  0.00    -0.388 OA
HETATM   13  C   UNL     1     -39.699 -46.945  13.163  1.00  0.00     0.198 C 
HETATM   14  C   UNL     1     -40.750 -48.067  13.143  1.00  0.00     0.298 C 
ENDBRANCH   8   9
ENDBRANCH   7   8
ENDBRANCH   3   7
BRANCH   4  15
HETATM   15  C   UNL     1     -44.132 -53.421  12.653  1.00  0.00     0.051 A 
HETATM   16  C   UNL     1     -43.988 -54.551  13.457  1.00  0.00     0.032 A 
HETATM   17  C   UNL     1     -45.042 -54.980  14.260  1.00  0.00     0.019 A 
HETATM   18  C   UNL     1     -46.229 -54.273  14.215  1.00  0.00     0.088 A 
HETATM   19  N   UNL     1     -46.432 -53.205  13.411  1.00  0.00    -0.373 N 
HETATM   20  C   UNL     1     -45.379 -52.807  12.650  1.00  0.00     0.117 A 
ATOM     21  HN  UNL     1     -47.330 -52.722  13.379  1.00  0.00     0.164 HD
ENDBRANCH   4  15
TORSDOF 4
ENDMDL
MODEL 3
REMARK VINA RESULT:      -5.5      1.818      7.246
REMARK  4 active torsions:
REMARK  status: ('A' for Active; 'I' for Inactive)
REMARK       I    between atoms: C_2  and  N_3 
REMARK       I    between atoms: C_2  and  N_12 
REMARK    1  A    between atoms: N_3  and  C_4 
REMARK    2  A    between atoms: C_4  and  C_5 
REMARK    3  A    between atoms: C_5  and  N_6 
REMARK    4  A    between atoms: N_12  and  C_13 
ROOT
HETATM    1  O   UNL     1     -41.515 -49.704  12.797  1.00  0.00    -0.247 OA
HETATM    2  C   UNL     1     -41.211 -50.024  11.656  1.00  0.00     0.320 C 
HETATM    3  N   UNL     1     -40.848 -51.323  11.340  1.00  0.00    -0.341 N 
HETATM    4  N   UNL     1     -41.153 -49.177  10.574  1.00  0.00    -0.308 N 
HETATM    5  H   UNL     1     -41.152 -51.634  10.428  1.00  0.00     0.164 HD
HETATM    6  H   UNL     1     -40.517 -49.448   9.839  1.00  0.00     0.170 HD
ENDROOT
BRANCH   3   7
HETATM    7  C   UNL     1     -40.963 -52.272  12.440  1.00  0.00     0.154 C 
BRANCH   7   8
HETATM    8  C   UNL     1     -42.269 -53.076  12.489  1.00  0.00     0.292 C 
BRANCH   8   9
HETATM    9  N   UNL     1     -43.059 -52.782  13.701  1.00  0.00     0.094 N 
HETATM   10  C   UNL     1     -42.624 -53.530  14.906  1.00  0.00     0.298 C 
HETATM   11  C   UNL     1     -43.023 -55.015  14.908  1.00  0.00     0.198 C 
HETATM   12  O   UNL     1     -44.433 -55.179  14.717  1.00  0.00    -0.388 OA
HETATM   13  C   UNL     1     -44.864 -54.541  13.510  1.00  0.00     0.198 C 
HETATM   14  C   UNL     1     -44.500 -53.048  13.502  1.00  0.00     0.298 C 
ENDBRANCH   8   9
ENDBRANCH   7   8
ENDBRANCH   3   7
BRANCH   4  15
HETATM   15  C   UNL     1     -41.540 -47.813  10.636  1.00  0.00     0.051 A 
HETATM   16  C   UNL     1     -40.641 -46.779  10.891  1.00  0.00     0.032 A 
HETATM   17  C   UNL     1     -41.069 -45.453  10.868  1.00  0.00     0.019 A 
HETATM   18  C   UNL     1     -42.404 -45.202  10.612  1.00  0.00     0.088 A 
HETATM   19  N   UNL     1     -43.323 -46.174  10.413  1.00  0.00    -0.373 N 
HETATM   20  C   UNL     1     -42.867 -47.454  10.432  1.00  0.00     0.117 A 
ATOM     21  HN  UNL     1     -44.307 -45.957  10.256  1.00  0.00     0.164 HD
ENDBRANCH   4  15
TORSDOF 4
ENDMDL
MODEL 4
REMARK VINA RESULT:      -5.2      3.291      4.017
REMARK  4 active torsions:
REMARK  status: ('A' for Active; 'I' for Inactive)
REMARK       I    between atoms: C_2  and  N_3 
REMARK       I    between atoms: C_2  and  N_12 
REMARK    1  A    between atoms: N_3  and  C_4 
REMARK    2  A    between atoms: C_4  and  C_5 
REMARK    3  A    between atoms: C_5  and  N_6 
REMARK    4  A    between atoms: N_12  and  C_13 
ROOT
HETATM    1  O   UNL     1     -42.426 -52.144  13.886  1.00  0.00    -0.247 OA
HETATM    2  C   UNL     1     -42.842 -52.235  12.739  1.00  0.00     0.320 C 
HETATM    3  N   UNL     1     -41.986 -52.181  11.651  1.00  0.00    -0.341 N 
HETATM    4  N   UNL     1     -44.162 -52.361  12.372  1.00  0.00    -0.308 N 
HETATM    5  H   UNL     1     -42.250 -52.780  10.880  1.00  0.00     0.164 HD
HETATM    6  H   UNL     1     -44.397 -52.013  11.455  1.00  0.00     0.170 HD
ENDROOT
BRANCH   3   7
HETATM    7  C   UNL     1     -40.571 -52.119  11.993  1.00  0.00     0.154 C 
BRANCH   7   8
HETATM    8  C   UNL     1     -39.935 -50.724  11.934  1.00  0.00     0.292 C 
BRANCH   8   9
HETATM    9  N   UNL     1     -38.489 -50.758  12.233  1.00  0.00     0.094 N 
HETATM   10  C   UNL     1     -38.151 -51.400  13.527  1.00  0.00     0.298 C 
HETATM   11  C   UNL     1     -38.469 -50.541  14.762  1.00  0.00     0.198 C 
HETATM   12  O   UNL     1     -37.844 -49.255  14.680  1.00  0.00    -0.388 OA
HETATM   13  C   UNL     1     -38.227 -48.575  13.479  1.00  0.00     0.198 C 
HETATM   14  C   UNL     1     -37.890 -49.407  12.231  1.00  0.00     0.298 C 
ENDBRANCH   8   9
ENDBRANCH   7   8
ENDBRANCH   3   7
BRANCH   4  15
HETATM   15  C   UNL     1     -45.217 -52.499  13.312  1.00  0.00     0.051 A 
HETATM   16  C   UNL     1     -45.822 -51.412  13.941  1.00  0.00     0.032 A 
HETATM   17  C   UNL     1     -46.902 -51.608  14.799  1.00  0.00     0.019 A 
HETATM   18  C   UNL     1     -47.332 -52.902  15.023  1.00  0.00     0.088 A 
HETATM   19  N   UNL     1     -46.743 -53.991  14.479  1.00  0.00    -0.373 N 
HETATM   20  C   UNL     1     -45.699 -53.761  13.639  1.00  0.00     0.117 A 
ATOM     21  HN  UNL     1     -47.065 -54.935  14.688  1.00  0.00     0.164 HD
ENDBRANCH   4  15
TORSDOF 4
ENDMDL
MODEL 5
REMARK VINA RESULT:      -5.2      2.063      7.073
REMARK  4 active torsions:
REMARK  status: ('A' for Active; 'I' for Inactive)
REMARK       I    between atoms: C_2  and  N_3 
REMARK       I    between atoms: C_2  and  N_12 
REMARK    1  A    between atoms: N_3  and  C_4 
REMARK    2  A    between atoms: C_4  and  C_5 
REMARK    3  A    between atoms: C_5  and  N_6 
REMARK    4  A    between atoms: N_12  and  C_13 
ROOT
HETATM    1  O   UNL     1     -40.557 -48.552  12.574  1.00  0.00    -0.247 OA
HETATM    2  C   UNL     1     -40.665 -48.761  11.373  1.00  0.00     0.320 C 
HETATM    3  N   UNL     1     -40.503 -50.029  10.841  1.00  0.00    -0.341 N 
HETATM    4  N   UNL     1     -40.916 -47.809  10.412  1.00  0.00    -0.308 N 
HETATM    5  H   UNL     1     -41.108 -50.237  10.058  1.00  0.00     0.164 HD
HETATM    6  H   UNL     1     -40.574 -48.020   9.487  1.00  0.00     0.170 HD
ENDROOT
BRANCH   3   7
HETATM    7  C   UNL     1     -40.306 -51.083  11.828  1.00  0.00     0.154 C 
BRANCH   7   8
HETATM    8  C   UNL     1     -41.345 -52.212  11.810  1.00  0.00     0.292 C 
BRANCH   8   9
HETATM    9  N   UNL     1     -41.830 -52.545  13.164  1.00  0.00     0.094 N 
HETATM   10  C   UNL     1     -42.761 -53.698  13.210  1.00  0.00     0.298 C 
HETATM   11  C   UNL     1     -44.175 -53.391  12.691  1.00  0.00     0.198 C 
HETATM   12  O   UNL     1     -44.753 -52.273  13.375  1.00  0.00    -0.388 OA
HETATM   13  C   UNL     1     -43.914 -51.118  13.268  1.00  0.00     0.198 C 
HETATM   14  C   UNL     1     -42.502 -51.398  13.810  1.00  0.00     0.298 C 
ENDBRANCH   8   9
ENDBRANCH   7   8
ENDBRANCH   3   7
BRANCH   4  15
HETATM   15  C   UNL     1     -41.179 -46.448  10.721  1.00  0.00     0.051 A 
HETATM   16  C   UNL     1     -40.184 -45.473  10.767  1.00  0.00     0.032 A 
HETATM   17  C   UNL     1     -40.516 -44.141  11.003  1.00  0.00     0.019 A 
HETATM   18  C   UNL     1     -41.845 -43.826  11.214  1.00  0.00     0.088 A 
HETATM   19  N   UNL     1     -42.837 -44.744  11.232  1.00  0.00    -0.373 N 
HETATM   20  C   UNL     1     -42.478 -46.032  10.987  1.00  0.00     0.117 A 
ATOM     21  HN  UNL     1     -43.805 -44.484  11.420  1.00  0.00     0.164 HD
ENDBRANCH   4  15
TORSDOF 4
ENDMDL
MODEL 6
REMARK VINA RESULT:      -5.1      2.660      3.945
REMARK  4 active torsions:
REMARK  status: ('A' for Active; 'I' for Inactive)
REMARK       I    between atoms: C_2  and  N_3 
REMARK       I    between atoms: C_2  and  N_12 
REMARK    1  A    between atoms: N_3  and  C_4 
REMARK    2  A    between atoms: C_4  and  C_5 
REMARK    3  A    between atoms: C_5  and  N_6 
REMARK    4  A    between atoms: N_12  and  C_13 
ROOT
HETATM    1  O   UNL     1     -42.240 -50.659  12.840  1.00  0.00    -0.247 OA
HETATM    2  C   UNL     1     -41.646 -51.418  12.085  1.00  0.00     0.320 C 
HETATM    3  N   UNL     1     -40.669 -50.959  11.217  1.00  0.00    -0.341 N 
HETATM    4  N   UNL     1     -41.873 -52.769  11.964  1.00  0.00    -0.308 N 
HETATM    5  H   UNL     1     -39.899 -51.598  11.076  1.00  0.00     0.164 HD
HETATM    6  H   UNL     1     -41.643 -53.174  11.068  1.00  0.00     0.170 HD
ENDROOT
BRANCH   3   7
HETATM    7  C   UNL     1     -40.345 -49.545  11.359  1.00  0.00     0.154 C 
BRANCH   7   8
HETATM    8  C   UNL     1     -39.083 -49.232  12.176  1.00  0.00     0.292 C 
BRANCH   8   9
HETATM    9  N   UNL     1     -39.388 -48.990  13.600  1.00  0.00     0.094 N 
HETATM   10  C   UNL     1     -38.800 -47.742  14.143  1.00  0.00     0.298 C 
HETATM   11  C   UNL     1     -37.286 -47.812  14.396  1.00  0.00     0.198 C 
HETATM   12  O   UNL     1     -36.947 -48.917  15.243  1.00  0.00    -0.388 OA
HETATM   13  C   UNL     1     -37.425 -50.149  14.692  1.00  0.00     0.198 C 
HETATM   14  C   UNL     1     -38.945 -50.108  14.460  1.00  0.00     0.298 C 
ENDBRANCH   8   9
ENDBRANCH   7   8
ENDBRANCH   3   7
BRANCH   4  15
HETATM   15  C   UNL     1     -42.783 -53.479  12.791  1.00  0.00     0.051 A 
HETATM   16  C   UNL     1     -44.146 -53.571  12.517  1.00  0.00     0.032 A 
HETATM   17  C   UNL     1     -44.976 -54.343  13.327  1.00  0.00     0.019 A 
HETATM   18  C   UNL     1     -44.413 -54.986  14.414  1.00  0.00     0.088 A 
HETATM   19  N   UNL     1     -43.108 -54.882  14.750  1.00  0.00    -0.373 N 
HETATM   20  C   UNL     1     -42.327 -54.130  13.932  1.00  0.00     0.117 A 
ATOM     21  HN  UNL     1     -42.729 -55.345  15.576  1.00  0.00     0.164 HD
ENDBRANCH   4  15
TORSDOF 4
ENDMDL
MODEL 7
REMARK VINA RESULT:      -5.0      2.026      7.257
REMARK  4 active torsions:
REMARK  status: ('A' for Active; 'I' for Inactive)
REMARK       I    between atoms: C_2  and  N_3 
REMARK       I    between atoms: C_2  and  N_12 
REMARK    1  A    between atoms: N_3  and  C_4 
REMARK    2  A    between atoms: C_4  and  C_5 
REMARK    3  A    between atoms: C_5  and  N_6 
REMARK    4  A    between atoms: N_12  and  C_13 
ROOT
HETATM    1  O   UNL     1     -41.668 -51.137  13.351  1.00  0.00    -0.247 OA
HETATM    2  C   UNL     1     -41.435 -51.600  12.242  1.00  0.00     0.320 C 
HETATM    3  N   UNL     1     -41.636 -52.941  11.960  1.00  0.00    -0.341 N 
HETATM    4  N   UNL     1     -40.928 -50.901  11.171  1.00  0.00    -0.308 N 
HETATM    5  H   UNL     1     -41.965 -53.128  11.022  1.00  0.00     0.164 HD
HETATM    6  H   UNL     1     -40.409 -51.446  10.498  1.00  0.00     0.170 HD
ENDROOT
BRANCH   3   7
HETATM    7  C   UNL     1     -42.239 -53.707  13.042  1.00  0.00     0.154 C 
BRANCH   7   8
HETATM    8  C   UNL     1     -43.762 -53.882  12.964  1.00  0.00     0.292 C 
BRANCH   8   9
HETATM    9  N   UNL     1     -44.277 -54.767  14.028  1.00  0.00     0.094 N 
HETATM   10  C   UNL     1     -45.752 -54.916  14.034  1.00  0.00     0.298 C 
HETATM   11  C   UNL     1     -46.510 -53.692  14.574  1.00  0.00     0.198 C 
HETATM   12  O   UNL     1     -46.054 -53.328  15.882  1.00  0.00    -0.388 OA
HETATM   13  C   UNL     1     -44.642 -53.089  15.883  1.00  0.00     0.198 C 
HETATM   14  C   UNL     1     -43.864 -54.314  15.374  1.00  0.00     0.298 C 
ENDBRANCH   8   9
ENDBRANCH   7   8
ENDBRANCH   3   7
BRANCH   4  15
HETATM   15  C   UNL     1     -40.697 -49.500  11.199  1.00  0.00     0.051 A 
HETATM   16  C   UNL     1     -41.570 -48.575  10.629  1.00  0.00     0.032 A 
HETATM   17  C   UNL     1     -41.326 -47.209  10.754  1.00  0.00     0.019 A 
HETATM   18  C   UNL     1     -40.189 -46.808  11.431  1.00  0.00     0.088 A 
HETATM   19  N   UNL     1     -39.287 -47.668  11.953  1.00  0.00    -0.373 N 
HETATM   20  C   UNL     1     -39.563 -48.992  11.822  1.00  0.00     0.117 A 
ATOM     21  HN  UNL     1     -38.442 -47.341  12.421  1.00  0.00     0.164 HD
ENDBRANCH   4  15
TORSDOF 4
ENDMDL
MODEL 8
REMARK VINA RESULT:      -5.0      3.160      4.306
REMARK  4 active torsions:
REMARK  status: ('A' for Active; 'I' for Inactive)
REMARK       I    between atoms: C_2  and  N_3 
REMARK       I    between atoms: C_2  and  N_12 
REMARK    1  A    between atoms: N_3  and  C_4 
REMARK    2  A    between atoms: C_4  and  C_5 
REMARK    3  A    between atoms: C_5  and  N_6 
REMARK    4  A    between atoms: N_12  and  C_13 
ROOT
HETATM    1  O   UNL     1     -41.984 -48.811  12.073  1.00  0.00    -0.247 OA
HETATM    2  C   UNL     1     -41.411 -49.045  11.017  1.00  0.00     0.320 C 
HETATM    3  N   UNL     1     -41.678 -48.315   9.871  1.00  0.00    -0.341 N 
HETATM    4  N   UNL     1     -40.488 -50.043  10.810  1.00  0.00    -0.308 N 
HETATM    5  H   UNL     1     -40.874 -48.156   9.278  1.00  0.00     0.164 HD
HETATM    6  H   UNL     1     -40.419 -50.387   9.864  1.00  0.00     0.170 HD
ENDROOT
BRANCH   3   7
HETATM    7  C   UNL     1     -42.597 -47.201  10.058  1.00  0.00     0.154 C 
BRANCH   7   8
HETATM    8  C   UNL     1     -41.946 -45.816  10.180  1.00  0.00     0.292 C 
BRANCH   8   9
HETATM    9  N   UNL     1     -42.071 -45.260  11.543  1.00  0.00     0.094 N 
HETATM   10  C   UNL     1     -42.430 -43.822  11.582  1.00  0.00     0.298 C 
HETATM   11  C   UNL     1     -41.279 -42.872  11.212  1.00  0.00     0.198 C 
HETATM   12  O   UNL     1     -40.124 -43.106  12.026  1.00  0.00    -0.388 OA
HETATM   13  C   UNL     1     -39.702 -44.471  11.933  1.00  0.00     0.198 C 
HETATM   14  C   UNL     1     -40.831 -45.436  12.329  1.00  0.00     0.298 C 
ENDBRANCH   8   9
ENDBRANCH   7   8
ENDBRANCH   3   7
BRANCH   4  15
HETATM   15  C   UNL     1     -40.008 -50.882  11.850  1.00  0.00     0.051 A 
HETATM   16  C   UNL     1     -38.854 -50.604  12.580  1.00  0.00     0.032 A 
HETATM   17  C   UNL     1     -38.474 -51.428  13.637  1.00  0.00     0.019 A 
HETATM   18  C   UNL     1     -39.257 -52.532  13.918  1.00  0.00     0.088 A 
HETATM   19  N   UNL     1     -40.353 -52.872  13.205  1.00  0.00    -0.373 N 
HETATM   20  C   UNL     1     -40.699 -52.040  12.188  1.00  0.00     0.117 A 
ATOM     21  HN  UNL     1     -40.893 -53.711  13.418  1.00  0.00     0.164 HD
ENDBRANCH   4  15
TORSDOF 4
ENDMDL
MODEL 9
REMARK VINA RESULT:      -5.0      2.309      7.822
REMARK  4 active torsions:
REMARK  status: ('A' for Active; 'I' for Inactive)
REMARK       I    between atoms: C_2  and  N_3 
REMARK       I    between atoms: C_2  and  N_12 
REMARK    1  A    between atoms: N_3  and  C_4 
REMARK    2  A    between atoms: C_4  and  C_5 
REMARK    3  A    between atoms: C_5  and  N_6 
REMARK    4  A    between atoms: N_12  and  C_13 
ROOT
HETATM    1  O   UNL     1     -40.469 -47.819  12.312  1.00  0.00    -0.247 OA
HETATM    2  C   UNL     1     -40.789 -48.030  11.150  1.00  0.00     0.320 C 
HETATM    3  N   UNL     1     -40.812 -49.312  10.627  1.00  0.00    -0.341 N 
HETATM    4  N   UNL     1     -41.120 -47.071  10.222  1.00  0.00    -0.308 N 
HETATM    5  H   UNL     1     -41.551 -49.480   9.958  1.00  0.00     0.164 HD
HETATM    6  H   UNL     1     -40.952 -47.317   9.258  1.00  0.00     0.170 HD
ENDROOT
BRANCH   3   7
HETATM    7  C   UNL     1     -40.536 -50.369  11.592  1.00  0.00     0.154 C 
BRANCH   7   8
HETATM    8  C   UNL     1     -41.769 -51.063  12.187  1.00  0.00     0.292 C 
BRANCH   8   9
HETATM    9  N   UNL     1     -41.507 -51.606  13.534  1.00  0.00     0.094 N 
HETATM   10  C   UNL     1     -40.478 -52.674  13.570  1.00  0.00     0.298 C 
HETATM   11  C   UNL     1     -40.955 -54.031  13.027  1.00  0.00     0.198 C 
HETATM   12  O   UNL     1     -42.140 -54.476  13.698  1.00  0.00    -0.388 OA
HETATM   13  C   UNL     1     -43.181 -53.498  13.600  1.00  0.00     0.198 C 
HETATM   14  C   UNL     1     -42.732 -52.141  14.165  1.00  0.00     0.298 C 
ENDBRANCH   8   9
ENDBRANCH   7   8
ENDBRANCH   3   7
BRANCH   4  15
HETATM   15  C   UNL     1     -41.226 -45.691  10.538  1.00  0.00     0.051 A 
HETATM   16  C   UNL     1     -42.415 -45.095  10.956  1.00  0.00     0.032 A 
HETATM   17  C   UNL     1     -42.438 -43.752  11.322  1.00  0.00     0.019 A 
HETATM   18  C   UNL     1     -41.262 -43.030  11.234  1.00  0.00     0.088 A 
HETATM   19  N   UNL     1     -40.098 -43.550  10.783  1.00  0.00    -0.373 N 
HETATM   20  C   UNL     1     -40.111 -44.866  10.445  1.00  0.00     0.117 A 
ATOM     21  HN  UNL     1     -39.254 -42.984  10.702  1.00  0.00     0.164 HD
ENDBRANCH   4  15
TORSDOF 4
ENDMDL
