MODEL 1
REMARK VINA RESULT:      -5.5      0.000      0.000
REMARK  3 active torsions:
REMARK  status: ('A' for Active; 'I' for Inactive)
REMARK    1  A    between atoms: C_2  and  N_3 
REMARK    2  A    between atoms: C_2  and  C_13 
REMARK       I    between atoms: N_3  and  C_4 
REMARK       I    between atoms: C_4  and  N_6 
REMARK    3  A    between atoms: N_6  and  C_7 
ROOT
HETATM    1  N   UNL     1     -44.135 -53.314  12.646  1.00  0.00    -0.338 N 
HETATM    2  C   UNL     1     -43.121 -52.394  12.868  1.00  0.00     0.322 C 
HETATM    3  O   UNL     1     -43.031 -51.758  13.909  1.00  0.00    -0.247 OA
HETATM    4  N   UNL     1     -42.242 -52.370  11.810  1.00  0.00    -0.289 N 
HETATM    5  H   UNL     1     -44.449 -53.403  11.691  1.00  0.00     0.164 HD
HETATM    6  H   UNL     1     -42.221 -53.156  11.186  1.00  0.00     0.172 HD
ENDROOT
BRANCH   1   7
HETATM    7  C   UNL     1     -45.121 -53.569  13.683  1.00  0.00     0.086 C 
HETATM    8  C   UNL     1     -45.399 -55.067  13.779  1.00  0.00     0.032 C 
BRANCH   7   9
HETATM    9  C   UNL     1     -46.402 -52.796  13.489  1.00  0.00     0.008 A 
HETATM   10  C   UNL     1     -46.461 -51.536  12.656  1.00  0.00     0.007 A 
HETATM   11  C   UNL     1     -46.707 -51.461  14.136  1.00  0.00     0.007 A 
ENDBRANCH   7   9
ENDBRANCH   1   7
BRANCH   4  12
HETATM   12  C   UNL     1     -41.141 -51.558  11.822  1.00  0.00     0.152 A 
HETATM   13  N   UNL     1     -40.870 -50.516  11.079  1.00  0.00    -0.346 N 
HETATM   14  C   UNL     1     -39.671 -49.965  11.483  1.00  0.00     0.097 A 
ATOM     15  HN  UNL     1     -41.454 -50.166  10.320  1.00  0.00     0.167 HD
HETATM   16  C   UNL     1     -39.039 -50.614  12.522  1.00  0.00     0.070 A 
HETATM   17  S   UNL     1     -39.963 -51.987  12.984  1.00  0.00    -0.064 SA
ENDBRANCH   4  12
TORSDOF 3
ENDMDL
MODEL 2
REMARK VINA RESULT:      -5.4      5.858      7.214
REMARK  3 active torsions:
REMARK  status: ('A' for Active; 'I' for Inactive)
REMARK    1  A    between atoms: C_2  and  N_3 
REMARK    2  A    between atoms: C_2  and  C_13 
REMARK       I    between atoms: N_3  and  C_4 
REMARK       I    between atoms: C_4  and  N_6 
REMARK    3  A    between atoms: N_6  and  C_7 
ROOT
HETATM    1  N   UNL     1     -39.591 -47.916  11.831  1.00  0.00    -0.338 N 
HETATM    2  C   UNL     1     -40.793 -48.168  11.189  1.00  0.00     0.322 C 
HETATM    3  O   UNL     1     -41.460 -49.169  11.416  1.00  0.00    -0.247 OA
HETATM    4  N   UNL     1     -41.129 -47.128  10.354  1.00  0.00    -0.289 N 
HETATM    5  H   UNL     1     -38.896 -47.423  11.291  1.00  0.00     0.164 HD
HETATM    6  H   UNL     1     -40.697 -46.234  10.504  1.00  0.00     0.172 HD
ENDROOT
BRANCH   1   7
HETATM    7  C   UNL     1     -39.097 -48.846  12.834  1.00  0.00     0.086 C 
HETATM    8  C   UNL     1     -39.107 -48.183  14.209  1.00  0.00     0.032 C 
BRANCH   7   9
HETATM    9  C   UNL     1     -37.730 -49.397  12.514  1.00  0.00     0.008 A 
HETATM   10  C   UNL     1     -37.374 -49.911  11.137  1.00  0.00     0.007 A 
HETATM   11  C   UNL     1     -37.423 -50.864  12.295  1.00  0.00     0.007 A 
ENDBRANCH   7   9
ENDBRANCH   1   7
BRANCH   4  12
HETATM   12  C   UNL     1     -42.294 -47.141   9.638  1.00  0.00     0.152 A 
HETATM   13  N   UNL     1     -42.773 -48.068   8.848  1.00  0.00    -0.346 N 
HETATM   14  C   UNL     1     -44.013 -47.680   8.386  1.00  0.00     0.097 A 
ATOM     15  HN  UNL     1     -42.302 -48.941   8.611  1.00  0.00     0.167 HD
HETATM   16  C   UNL     1     -44.450 -46.447   8.822  1.00  0.00     0.070 A 
HETATM   17  S   UNL     1     -43.245 -45.733   9.817  1.00  0.00    -0.064 SA
ENDBRANCH   4  12
TORSDOF 3
ENDMDL
MODEL 3
REMARK VINA RESULT:      -5.1      4.746      5.589
REMARK  3 active torsions:
REMARK  status: ('A' for Active; 'I' for Inactive)
REMARK    1  A    between atoms: C_2  and  N_3 
REMARK    2  A    between atoms: C_2  and  C_13 
REMARK       I    between atoms: N_3  and  C_4 
REMARK       I    between atoms: C_4  and  N_6 
REMARK    3  A    between atoms: N_6  and  C_7 
ROOT
HETATM    1  N   UNL     1     -43.032 -47.967   8.821  1.00  0.00    -0.338 N 
HETATM    2  C   UNL     1     -42.373 -47.954  10.041  1.00  0.00     0.322 C 
HETATM    3  O   UNL     1     -42.715 -47.224  10.961  1.00  0.00    -0.247 OA
HETATM    4  N   UNL     1     -41.371 -48.896  10.066  1.00  0.00    -0.289 N 
HETATM    5  H   UNL     1     -42.460 -48.157   8.012  1.00  0.00     0.164 HD
HETATM    6  H   UNL     1     -41.406 -49.651   9.404  1.00  0.00     0.172 HD
ENDROOT
BRANCH   1   7
HETATM    7  C   UNL     1     -44.190 -47.113   8.614  1.00  0.00     0.086 C 
HETATM    8  C   UNL     1     -43.841 -45.669   8.970  1.00  0.00     0.032 C 
BRANCH   7   9
HETATM    9  C   UNL     1     -45.412 -47.572   9.368  1.00  0.00     0.008 A 
HETATM   10  C   UNL     1     -46.439 -48.492   8.748  1.00  0.00     0.007 A 
HETATM   11  C   UNL     1     -46.820 -47.083   9.103  1.00  0.00     0.007 A 
ENDBRANCH   7   9
ENDBRANCH   1   7
BRANCH   4  12
HETATM   12  C   UNL     1     -40.605 -49.086  11.183  1.00  0.00     0.152 A 
HETATM   13  N   UNL     1     -39.494 -48.494  11.539  1.00  0.00    -0.346 N 
HETATM   14  C   UNL     1     -39.104 -48.958  12.778  1.00  0.00     0.097 A 
ATOM     15  HN  UNL     1     -38.995 -47.797  10.986  1.00  0.00     0.167 HD
HETATM   16  C   UNL     1     -39.922 -49.916  13.338  1.00  0.00     0.070 A 
HETATM   17  S   UNL     1     -41.207 -50.274  12.254  1.00  0.00    -0.064 SA
ENDBRANCH   4  12
TORSDOF 3
ENDMDL
MODEL 4
REMARK VINA RESULT:      -5.1      3.648      6.131
REMARK  3 active torsions:
REMARK  status: ('A' for Active; 'I' for Inactive)
REMARK    1  A    between atoms: C_2  and  N_3 
REMARK    2  A    between atoms: C_2  and  C_13 
REMARK       I    between atoms: N_3  and  C_4 
REMARK       I    between atoms: C_4  and  N_6 
REMARK    3  A    between atoms: N_6  and  C_7 
ROOT
HETATM    1  N   UNL     1     -41.301 -47.951  10.210  1.00  0.00    -0.338 N 
HETATM    2  C   UNL     1     -41.448 -48.968  11.141  1.00  0.00     0.322 C 
HETATM    3  O   UNL     1     -42.248 -48.900  12.064  1.00  0.00    -0.247 OA
HETATM    4  N   UNL     1     -40.641 -50.038  10.829  1.00  0.00    -0.289 N 
HETATM    5  H   UNL     1     -40.373 -47.825   9.836  1.00  0.00     0.164 HD
HETATM    6  H   UNL     1     -40.298 -50.121   9.888  1.00  0.00     0.172 HD
ENDROOT
BRANCH   1   7
HETATM    7  C   UNL     1     -42.134 -46.764  10.297  1.00  0.00     0.086 C 
HETATM    8  C   UNL     1     -43.130 -46.740   9.139  1.00  0.00     0.032 C 
BRANCH   7   9
HETATM    9  C   UNL     1     -41.342 -45.482  10.350  1.00  0.00     0.008 A 
HETATM   10  C   UNL     1     -39.855 -45.468  10.626  1.00  0.00     0.007 A 
HETATM   11  C   UNL     1     -40.801 -44.856  11.619  1.00  0.00     0.007 A 
ENDBRANCH   7   9
ENDBRANCH   1   7
BRANCH   4  12
HETATM   12  C   UNL     1     -40.643 -51.173  11.591  1.00  0.00     0.152 A 
HETATM   13  N   UNL     1     -41.278 -52.301  11.401  1.00  0.00    -0.346 N 
HETATM   14  C   UNL     1     -40.933 -53.195  12.393  1.00  0.00     0.097 A 
ATOM     15  HN  UNL     1     -41.927 -52.490  10.636  1.00  0.00     0.167 HD
HETATM   16  C   UNL     1     -40.048 -52.720  13.338  1.00  0.00     0.070 A 
HETATM   17  S   UNL     1     -39.665 -51.082  12.990  1.00  0.00    -0.064 SA
ENDBRANCH   4  12
TORSDOF 3
ENDMDL
MODEL 5
REMARK VINA RESULT:      -5.0      4.279      6.290
REMARK  3 active torsions:
REMARK  status: ('A' for Active; 'I' for Inactive)
REMARK    1  A    between atoms: C_2  and  N_3 
REMARK    2  A    between atoms: C_2  and  C_13 
REMARK       I    between atoms: N_3  and  C_4 
REMARK       I    between atoms: C_4  and  N_6 
REMARK    3  A    between atoms: N_6  and  C_7 
ROOT
HETATM    1  N   UNL     1     -40.436 -49.719  10.721  1.00  0.00    -0.338 N 
HETATM    2  C   UNL     1     -41.273 -48.617  10.804  1.00  0.00     0.322 C 
HETATM    3  O   UNL     1     -41.366 -47.940  11.819  1.00  0.00    -0.247 OA
HETATM    4  N   UNL     1     -41.891 -48.380   9.599  1.00  0.00    -0.289 N 
HETATM    5  H   UNL     1     -40.755 -50.472  10.131  1.00  0.00     0.164 HD
HETATM    6  H   UNL     1     -41.488 -48.775   8.767  1.00  0.00     0.172 HD
ENDROOT
BRANCH   1   7
HETATM    7  C   UNL     1     -39.610 -50.088  11.859  1.00  0.00     0.086 C 
HETATM    8  C   UNL     1     -38.133 -49.984  11.486  1.00  0.00     0.032 C 
BRANCH   7   9
HETATM    9  C   UNL     1     -39.930 -51.456  12.408  1.00  0.00     0.008 A 
HETATM   10  C   UNL     1     -41.273 -51.781  13.022  1.00  0.00     0.007 A 
HETATM   11  C   UNL     1     -40.042 -51.787  13.882  1.00  0.00     0.007 A 
ENDBRANCH   7   9
ENDBRANCH   1   7
BRANCH   4  12
HETATM   12  C   UNL     1     -42.740 -47.321   9.433  1.00  0.00     0.152 A 
HETATM   13  N   UNL     1     -42.510 -46.041   9.574  1.00  0.00    -0.346 N 
HETATM   14  C   UNL     1     -43.645 -45.331   9.242  1.00  0.00     0.097 A 
ATOM     15  HN  UNL     1     -41.627 -45.632   9.881  1.00  0.00     0.167 HD
HETATM   16  C   UNL     1     -44.733 -46.092   8.869  1.00  0.00     0.070 A 
HETATM   17  S   UNL     1     -44.328 -47.758   8.975  1.00  0.00    -0.064 SA
ENDBRANCH   4  12
TORSDOF 3
ENDMDL
MODEL 6
REMARK VINA RESULT:      -5.0      2.593      3.596
REMARK  3 active torsions:
REMARK  status: ('A' for Active; 'I' for Inactive)
REMARK    1  A    between atoms: C_2  and  N_3 
REMARK    2  A    between atoms: C_2  and  C_13 
REMARK       I    between atoms: N_3  and  C_4 
REMARK       I    between atoms: C_4  and  N_6 
REMARK    3  A    between atoms: N_6  and  C_7 
ROOT
HETATM    1  N   UNL     1     -41.948 -51.853  11.853  1.00  0.00    -0.338 N 
HETATM    2  C   UNL     1     -41.586 -50.545  12.134  1.00  0.00     0.322 C 
HETATM    3  O   UNL     1     -41.336 -50.165  13.270  1.00  0.00    -0.247 OA
HETATM    4  N   UNL     1     -41.488 -49.805  10.979  1.00  0.00    -0.289 N 
HETATM    5  H   UNL     1     -42.592 -51.978  11.086  1.00  0.00     0.164 HD
HETATM    6  H   UNL     1     -41.379 -50.290  10.106  1.00  0.00     0.172 HD
ENDROOT
BRANCH   1   7
HETATM    7  C   UNL     1     -42.015 -52.833  12.925  1.00  0.00     0.086 C 
HETATM    8  C   UNL     1     -40.740 -53.673  12.942  1.00  0.00     0.032 C 
BRANCH   7   9
HETATM    9  C   UNL     1     -43.237 -53.714  12.852  1.00  0.00     0.008 A 
HETATM   10  C   UNL     1     -44.603 -53.164  12.508  1.00  0.00     0.007 A 
HETATM   11  C   UNL     1     -44.351 -53.726  13.878  1.00  0.00     0.007 A 
ENDBRANCH   7   9
ENDBRANCH   1   7
BRANCH   4  12
HETATM   12  C   UNL     1     -41.111 -48.491  11.009  1.00  0.00     0.152 A 
HETATM   13  N   UNL     1     -39.975 -47.961  11.382  1.00  0.00    -0.346 N 
HETATM   14  C   UNL     1     -40.018 -46.596  11.184  1.00  0.00     0.097 A 
ATOM     15  HN  UNL     1     -39.180 -48.476  11.760  1.00  0.00     0.167 HD
HETATM   16  C   UNL     1     -41.203 -46.107  10.677  1.00  0.00     0.070 A 
HETATM   17  S   UNL     1     -42.316 -47.401  10.477  1.00  0.00    -0.064 SA
ENDBRANCH   4  12
TORSDOF 3
ENDMDL
MODEL 7
REMARK VINA RESULT:      -5.0      1.641      6.100
REMARK  3 active torsions:
REMARK  status: ('A' for Active; 'I' for Inactive)
REMARK    1  A    between atoms: C_2  and  N_3 
REMARK    2  A    between atoms: C_2  and  C_13 
REMARK       I    between atoms: N_3  and  C_4 
REMARK       I    between atoms: C_4  and  N_6 
REMARK    3  A    between atoms: N_6  and  C_7 
ROOT
HETATM    1  N   UNL     1     -40.913 -50.875  11.477  1.00  0.00    -0.338 N 
HETATM    2  C   UNL     1     -41.973 -51.262  12.283  1.00  0.00     0.322 C 
HETATM    3  O   UNL     1     -42.374 -50.574  13.212  1.00  0.00    -0.247 OA
HETATM    4  N   UNL     1     -42.515 -52.447  11.844  1.00  0.00    -0.289 N 
HETATM    5  H   UNL     1     -40.338 -51.621  11.116  1.00  0.00     0.164 HD
HETATM    6  H   UNL     1     -42.335 -52.735  10.898  1.00  0.00     0.172 HD
ENDROOT
BRANCH   1   7
HETATM    7  C   UNL     1     -40.256 -49.599  11.707  1.00  0.00     0.086 C 
HETATM    8  C   UNL     1     -40.863 -48.530  10.801  1.00  0.00     0.032 C 
BRANCH   7   9
HETATM    9  C   UNL     1     -38.759 -49.660  11.537  1.00  0.00     0.008 A 
HETATM   10  C   UNL     1     -37.914 -50.705  12.230  1.00  0.00     0.007 A 
HETATM   11  C   UNL     1     -37.756 -49.257  12.597  1.00  0.00     0.007 A 
ENDBRANCH   7   9
ENDBRANCH   1   7
BRANCH   4  12
HETATM   12  C   UNL     1     -43.595 -53.007  12.468  1.00  0.00     0.152 A 
HETATM   13  N   UNL     1     -44.864 -52.710  12.359  1.00  0.00    -0.346 N 
HETATM   14  C   UNL     1     -45.607 -53.580  13.128  1.00  0.00     0.097 A 
ATOM     15  HN  UNL     1     -45.245 -51.952  11.792  1.00  0.00     0.167 HD
HETATM   16  C   UNL     1     -44.882 -54.520  13.829  1.00  0.00     0.070 A 
HETATM   17  S   UNL     1     -43.205 -54.279  13.541  1.00  0.00    -0.064 SA
ENDBRANCH   4  12
TORSDOF 3
ENDMDL
MODEL 8
REMARK VINA RESULT:      -4.7      3.724      5.472
REMARK  3 active torsions:
REMARK  status: ('A' for Active; 'I' for Inactive)
REMARK    1  A    between atoms: C_2  and  N_3 
REMARK    2  A    between atoms: C_2  and  C_13 
REMARK       I    between atoms: N_3  and  C_4 
REMARK       I    between atoms: C_4  and  N_6 
REMARK    3  A    between atoms: N_6  and  C_7 
ROOT
HETATM    1  N   UNL     1     -42.950 -48.208  11.235  1.00  0.00    -0.338 N 
HETATM    2  C   UNL     1     -42.060 -49.263  11.360  1.00  0.00     0.322 C 
HETATM    3  O   UNL     1     -40.915 -49.208  10.933  1.00  0.00    -0.247 OA
HETATM    4  N   UNL     1     -42.625 -50.297  12.070  1.00  0.00    -0.289 N 
HETATM    5  H   UNL     1     -43.921 -48.459  11.126  1.00  0.00     0.164 HD
HETATM    6  H   UNL     1     -43.420 -50.102  12.652  1.00  0.00     0.172 HD
ENDROOT
BRANCH   1   7
HETATM    7  C   UNL     1     -42.522 -46.971  10.600  1.00  0.00     0.086 C 
HETATM    8  C   UNL     1     -42.412 -45.862  11.644  1.00  0.00     0.032 C 
BRANCH   7   9
HETATM    9  C   UNL     1     -43.413 -46.548   9.459  1.00  0.00     0.008 A 
HETATM   10  C   UNL     1     -44.645 -47.333   9.069  1.00  0.00     0.007 A 
HETATM   11  C   UNL     1     -43.485 -47.249   8.119  1.00  0.00     0.007 A 
ENDBRANCH   7   9
ENDBRANCH   1   7
BRANCH   4  12
HETATM   12  C   UNL     1     -41.919 -51.436  12.347  1.00  0.00     0.152 A 
HETATM   13  N   UNL     1     -41.358 -52.286  11.525  1.00  0.00    -0.346 N 
HETATM   14  C   UNL     1     -40.696 -53.255  12.250  1.00  0.00     0.097 A 
ATOM     15  HN  UNL     1     -41.403 -52.238  10.507  1.00  0.00     0.167 HD
HETATM   16  C   UNL     1     -40.782 -53.134  13.621  1.00  0.00     0.070 A 
HETATM   17  S   UNL     1     -41.760 -51.776  14.014  1.00  0.00    -0.064 SA
ENDBRANCH   4  12
TORSDOF 3
ENDMDL
MODEL 9
REMARK VINA RESULT:      -4.6      4.819      6.860
REMARK  3 active torsions:
REMARK  status: ('A' for Active; 'I' for Inactive)
REMARK    1  A    between atoms: C_2  and  N_3 
REMARK    2  A    between atoms: C_2  and  C_13 
REMARK       I    between atoms: N_3  and  C_4 
REMARK       I    between atoms: C_4  and  N_6 
REMARK    3  A    between atoms: N_6  and  C_7 
ROOT
HETATM    1  N   UNL     1     -39.459 -48.829  11.182  1.00  0.00    -0.338 N 
HETATM    2  C   UNL     1     -39.734 -47.554  11.652  1.00  0.00     0.322 C 
HETATM    3  O   UNL     1     -39.459 -47.204  12.791  1.00  0.00    -0.247 OA
HETATM    4  N   UNL     1     -40.270 -46.771  10.657  1.00  0.00    -0.289 N 
HETATM    5  H   UNL     1     -40.109 -49.200  10.505  1.00  0.00     0.164 HD
HETATM    6  H   UNL     1     -40.132 -47.049   9.701  1.00  0.00     0.172 HD
ENDROOT
BRANCH   1   7
HETATM    7  C   UNL     1     -38.797 -49.793  12.046  1.00  0.00     0.086 C 
HETATM    8  C   UNL     1     -37.450 -50.189  11.448  1.00  0.00     0.032 C 
BRANCH   7   9
HETATM    9  C   UNL     1     -39.637 -51.012  12.332  1.00  0.00     0.008 A 
HETATM   10  C   UNL     1     -41.149 -50.963  12.336  1.00  0.00     0.007 A 
HETATM   11  C   UNL     1     -40.410 -51.244  13.613  1.00  0.00     0.007 A 
ENDBRANCH   7   9
ENDBRANCH   1   7
BRANCH   4  12
HETATM   12  C   UNL     1     -40.591 -45.461  10.881  1.00  0.00     0.152 A 
HETATM   13  N   UNL     1     -39.807 -44.418  10.980  1.00  0.00    -0.346 N 
HETATM   14  C   UNL     1     -40.573 -43.283  11.146  1.00  0.00     0.097 A 
ATOM     15  HN  UNL     1     -38.788 -44.441  10.939  1.00  0.00     0.167 HD
HETATM   16  C   UNL     1     -41.936 -43.487  11.190  1.00  0.00     0.070 A 
HETATM   17  S   UNL     1     -42.266 -45.168  11.055  1.00  0.00    -0.064 SA
ENDBRANCH   4  12
TORSDOF 3
ENDMDL
