MODEL 1
REMARK VINA RESULT:      -4.9      0.000      0.000
REMARK  7 active torsions:
REMARK  status: ('A' for Active; 'I' for Inactive)
REMARK    1  A    between atoms: C_2  and  C_3 
REMARK    2  A    between atoms: C_3  and  N_4 
REMARK    3  A    between atoms: C_5  and  N_6 
REMARK    4  A    between atoms: C_7  and  N_8 
REMARK    5  A    between atoms: N_8  and  C_10 
REMARK    6  A    between atoms: C_10  and  C_11 
REMARK    7  A    between atoms: C_11  and  O_12 
ROOT
HETATM    1  N   UNL     1     -44.357 -52.381  12.834  1.00  0.00    -0.288 N 
HETATM    2  C   UNL     1     -43.438 -51.336  12.906  1.00  0.00     0.116 C 
HETATM    3  C   UNL     1     -42.102 -51.567  12.768  1.00  0.00     0.137 C 
HETATM    4  C   UNL     1     -41.660 -52.995  12.602  1.00  0.00     0.279 C 
HETATM    5  O   UNL     1     -40.490 -53.318  12.400  1.00  0.00    -0.265 OA
HETATM    6  N   UNL     1     -42.631 -53.943  12.672  1.00  0.00    -0.273 N 
HETATM    7  C   UNL     1     -43.970 -53.702  12.672  1.00  0.00     0.330 C 
HETATM    8  O   UNL     1     -44.748 -54.640  12.507  1.00  0.00    -0.246 OA
HETATM    9  H   UNL     1     -42.348 -54.897  12.519  1.00  0.00     0.173 HD
ENDROOT
BRANCH   3  10
HETATM   10  N   UNL     1     -41.147 -50.525  12.702  1.00  0.00    -0.376 N 
HETATM   11  C   UNL     1     -40.262 -50.265  13.846  1.00  0.00     0.150 C 
BRANCH  10  12
HETATM   12  C   UNL     1     -40.577 -50.050  11.416  1.00  0.00     0.149 C 
BRANCH  12  13
HETATM   13  C   UNL     1     -40.961 -48.601  11.076  1.00  0.00     0.186 C 
BRANCH  13  14
HETATM   14  O   UNL     1     -42.381 -48.484  10.927  1.00  0.00    -0.394 OA
HETATM   15  C   UNL     1     -42.722 -47.739   9.767  1.00  0.00     0.201 C 
ENDBRANCH  13  14
ENDBRANCH  12  13
ENDBRANCH  10  12
ENDBRANCH   3  10
BRANCH   2  16
HETATM   16  N   UNL     1     -43.857 -50.012  13.054  1.00  0.00    -0.286 NA
HETATM   17  H   UNL     1     -44.475 -49.705  12.316  1.00  0.00     0.125 HD
HETATM   18  H   UNL     1     -43.024 -49.418  13.097  1.00  0.00     0.125 HD
ENDBRANCH   2  16
BRANCH   1  19
HETATM   19  C   UNL     1     -45.799 -52.115  12.798  1.00  0.00     0.135 C 
BRANCH  19  20
HETATM   20  C   UNL     1     -46.481 -52.520  14.113  1.00  0.00     0.016 C 
HETATM   21  C   UNL     1     -46.839 -51.311  14.961  1.00  0.00     0.006 C 
ENDBRANCH  19  20
ENDBRANCH   1  19
TORSDOF 7
ENDMDL
MODEL 2
REMARK VINA RESULT:      -4.5      2.256      4.045
REMARK  7 active torsions:
REMARK  status: ('A' for Active; 'I' for Inactive)
REMARK    1  A    between atoms: C_2  and  C_3 
REMARK    2  A    between atoms: C_3  and  N_4 
REMARK    3  A    between atoms: C_5  and  N_6 
REMARK    4  A    between atoms: C_7  and  N_8 
REMARK    5  A    between atoms: N_8  and  C_10 
REMARK    6  A    between atoms: C_10  and  C_11 
REMARK    7  A    between atoms: C_11  and  O_12 
ROOT
HETATM    1  N   UNL     1     -43.240 -51.968  12.738  1.00  0.00    -0.288 N 
HETATM    2  C   UNL     1     -41.924 -51.810  12.308  1.00  0.00     0.116 C 
HETATM    3  C   UNL     1     -41.151 -50.791  12.778  1.00  0.00     0.137 C 
HETATM    4  C   UNL     1     -41.795 -49.811  13.721  1.00  0.00     0.279 C 
HETATM    5  O   UNL     1     -41.179 -48.893  14.261  1.00  0.00    -0.265 OA
HETATM    6  N   UNL     1     -43.118 -49.991  13.972  1.00  0.00    -0.273 N 
HETATM    7  C   UNL     1     -43.847 -51.082  13.614  1.00  0.00     0.330 C 
HETATM    8  O   UNL     1     -44.970 -51.236  14.093  1.00  0.00    -0.246 OA
HETATM    9  H   UNL     1     -43.545 -49.365  14.635  1.00  0.00     0.173 HD
ENDROOT
BRANCH   3  10
HETATM   10  N   UNL     1     -39.774 -50.669  12.472  1.00  0.00    -0.376 N 
HETATM   11  C   UNL     1     -39.329 -49.701  11.460  1.00  0.00     0.150 C 
BRANCH  10  12
HETATM   12  C   UNL     1     -38.711 -51.008  13.450  1.00  0.00     0.149 C 
BRANCH  12  13
HETATM   13  C   UNL     1     -39.015 -52.271  14.271  1.00  0.00     0.186 C 
BRANCH  13  14
HETATM   14  O   UNL     1     -38.931 -53.436  13.441  1.00  0.00    -0.394 OA
HETATM   15  C   UNL     1     -39.305 -54.607  14.151  1.00  0.00     0.201 C 
ENDBRANCH  13  14
ENDBRANCH  12  13
ENDBRANCH  10  12
ENDBRANCH   3  10
BRANCH   2  16
HETATM   16  N   UNL     1     -41.331 -52.727  11.437  1.00  0.00    -0.286 NA
HETATM   17  H   UNL     1     -40.373 -52.942  11.675  1.00  0.00     0.125 HD
HETATM   18  H   UNL     1     -41.391 -52.348  10.488  1.00  0.00     0.125 HD
ENDBRANCH   2  16
BRANCH   1  19
HETATM   19  C   UNL     1     -44.011 -53.163  12.380  1.00  0.00     0.135 C 
BRANCH  19  20
HETATM   20  C   UNL     1     -43.876 -54.263  13.444  1.00  0.00     0.016 C 
HETATM   21  C   UNL     1     -45.201 -54.954  13.715  1.00  0.00     0.006 C 
ENDBRANCH  19  20
ENDBRANCH   1  19
TORSDOF 7
ENDMDL
MODEL 3
REMARK VINA RESULT:      -4.4      1.504      4.906
REMARK  7 active torsions:
REMARK  status: ('A' for Active; 'I' for Inactive)
REMARK    1  A    between atoms: C_2  and  C_3 
REMARK    2  A    between atoms: C_3  and  N_4 
REMARK    3  A    between atoms: C_5  and  N_6 
REMARK    4  A    between atoms: C_7  and  N_8 
REMARK    5  A    between atoms: N_8  and  C_10 
REMARK    6  A    between atoms: C_10  and  C_11 
REMARK    7  A    between atoms: C_11  and  O_12 
ROOT
HETATM    1  N   UNL     1     -41.477 -49.666  11.969  1.00  0.00    -0.288 N 
HETATM    2  C   UNL     1     -42.440 -50.576  12.402  1.00  0.00     0.116 C 
HETATM    3  C   UNL     1     -42.111 -51.872  12.662  1.00  0.00     0.137 C 
HETATM    4  C   UNL     1     -40.692 -52.294  12.399  1.00  0.00     0.279 C 
HETATM    5  O   UNL     1     -40.264 -53.417  12.661  1.00  0.00    -0.265 OA
HETATM    6  N   UNL     1     -39.871 -51.356  11.859  1.00  0.00    -0.273 N 
HETATM    7  C   UNL     1     -40.161 -50.033  11.731  1.00  0.00     0.330 C 
HETATM    8  O   UNL     1     -39.260 -49.246  11.441  1.00  0.00    -0.246 OA
HETATM    9  H   UNL     1     -38.908 -51.618  11.720  1.00  0.00     0.173 HD
ENDROOT
BRANCH   3  10
HETATM   10  N   UNL     1     -43.024 -52.795  13.229  1.00  0.00    -0.376 N 
HETATM   11  C   UNL     1     -43.246 -52.810  14.681  1.00  0.00     0.150 C 
BRANCH  10  12
HETATM   12  C   UNL     1     -44.170 -53.349  12.466  1.00  0.00     0.149 C 
BRANCH  12  13
HETATM   13  C   UNL     1     -45.501 -53.287  13.232  1.00  0.00     0.186 C 
BRANCH  13  14
HETATM   14  O   UNL     1     -46.175 -52.052  12.962  1.00  0.00    -0.394 OA
HETATM   15  C   UNL     1     -46.712 -51.484  14.147  1.00  0.00     0.201 C 
ENDBRANCH  13  14
ENDBRANCH  12  13
ENDBRANCH  10  12
ENDBRANCH   3  10
BRANCH   2  16
HETATM   16  N   UNL     1     -43.754 -50.175  12.650  1.00  0.00    -0.286 NA
HETATM   17  H   UNL     1     -44.432 -50.652  12.072  1.00  0.00     0.125 HD
HETATM   18  H   UNL     1     -43.810 -49.162  12.509  1.00  0.00     0.125 HD
ENDBRANCH   2  16
BRANCH   1  19
HETATM   19  C   UNL     1     -41.783 -48.236  11.866  1.00  0.00     0.135 C 
BRANCH  19  20
HETATM   20  C   UNL     1     -42.239 -47.856  10.449  1.00  0.00     0.016 C 
HETATM   21  C   UNL     1     -43.675 -47.360  10.431  1.00  0.00     0.006 C 
ENDBRANCH  19  20
ENDBRANCH   1  19
TORSDOF 7
ENDMDL
MODEL 4
REMARK VINA RESULT:      -4.4      4.905      7.122
REMARK  7 active torsions:
REMARK  status: ('A' for Active; 'I' for Inactive)
REMARK    1  A    between atoms: C_2  and  C_3 
REMARK    2  A    between atoms: C_3  and  N_4 
REMARK    3  A    between atoms: C_5  and  N_6 
REMARK    4  A    between atoms: C_7  and  N_8 
REMARK    5  A    between atoms: N_8  and  C_10 
REMARK    6  A    between atoms: C_10  and  C_11 
REMARK    7  A    between atoms: C_11  and  O_12 
ROOT
HETATM    1  N   UNL     1     -42.276 -46.679  11.735  1.00  0.00    -0.288 N 
HETATM    2  C   UNL     1     -42.228 -45.353  12.162  1.00  0.00     0.116 C 
HETATM    3  C   UNL     1     -41.388 -44.457  11.571  1.00  0.00     0.137 C 
HETATM    4  C   UNL     1     -40.475 -44.970  10.491  1.00  0.00     0.279 C 
HETATM    5  O   UNL     1     -39.726 -44.243   9.841  1.00  0.00    -0.265 OA
HETATM    6  N   UNL     1     -40.519 -46.306  10.244  1.00  0.00    -0.273 N 
HETATM    7  C   UNL     1     -41.449 -47.168  10.735  1.00  0.00     0.330 C 
HETATM    8  O   UNL     1     -41.525 -48.302  10.263  1.00  0.00    -0.246 OA
HETATM    9  H   UNL     1     -39.942 -46.650   9.494  1.00  0.00     0.173 HD
ENDROOT
BRANCH   3  10
HETATM   10  N   UNL     1     -41.401 -43.075  11.880  1.00  0.00    -0.376 N 
HETATM   11  C   UNL     1     -40.319 -42.494  12.686  1.00  0.00     0.150 C 
BRANCH  10  12
HETATM   12  C   UNL     1     -42.077 -42.075  11.018  1.00  0.00     0.149 C 
BRANCH  12  13
HETATM   13  C   UNL     1     -43.540 -41.816  11.413  1.00  0.00     0.186 C 
BRANCH  13  14
HETATM   14  O   UNL     1     -43.728 -42.060  12.813  1.00  0.00    -0.394 OA
HETATM   15  C   UNL     1     -43.906 -40.849  13.531  1.00  0.00     0.201 C 
ENDBRANCH  13  14
ENDBRANCH  12  13
ENDBRANCH  10  12
ENDBRANCH   3  10
BRANCH   2  16
HETATM   16  N   UNL     1     -43.083 -44.882  13.160  1.00  0.00    -0.286 NA
HETATM   17  H   UNL     1     -43.590 -45.619  13.631  1.00  0.00     0.125 HD
HETATM   18  H   UNL     1     -43.732 -44.214  12.734  1.00  0.00     0.125 HD
ENDBRANCH   2  16
BRANCH   1  19
HETATM   19  C   UNL     1     -43.302 -47.596  12.240  1.00  0.00     0.135 C 
BRANCH  19  20
HETATM   20  C   UNL     1     -42.788 -48.419  13.431  1.00  0.00     0.016 C 
HETATM   21  C   UNL     1     -43.380 -49.818  13.450  1.00  0.00     0.006 C 
ENDBRANCH  19  20
ENDBRANCH   1  19
TORSDOF 7
ENDMDL
MODEL 5
REMARK VINA RESULT:      -4.3      1.535      2.685
REMARK  7 active torsions:
REMARK  status: ('A' for Active; 'I' for Inactive)
REMARK    1  A    between atoms: C_2  and  C_3 
REMARK    2  A    between atoms: C_3  and  N_4 
REMARK    3  A    between atoms: C_5  and  N_6 
REMARK    4  A    between atoms: C_7  and  N_8 
REMARK    5  A    between atoms: N_8  and  C_10 
REMARK    6  A    between atoms: C_10  and  C_11 
REMARK    7  A    between atoms: C_11  and  O_12 
ROOT
HETATM    1  N   UNL     1     -44.221 -51.866  12.984  1.00  0.00    -0.288 N 
HETATM    2  C   UNL     1     -43.176 -50.945  13.010  1.00  0.00     0.116 C 
HETATM    3  C   UNL     1     -41.906 -51.316  12.685  1.00  0.00     0.137 C 
HETATM    4  C   UNL     1     -41.669 -52.767  12.365  1.00  0.00     0.279 C 
HETATM    5  O   UNL     1     -40.582 -53.205  11.991  1.00  0.00    -0.265 OA
HETATM    6  N   UNL     1     -42.736 -53.598  12.493  1.00  0.00    -0.273 N 
HETATM    7  C   UNL     1     -44.024 -53.205  12.682  1.00  0.00     0.330 C 
HETATM    8  O   UNL     1     -44.928 -54.030  12.553  1.00  0.00    -0.246 OA
HETATM    9  H   UNL     1     -42.595 -54.563  12.239  1.00  0.00     0.173 HD
ENDROOT
BRANCH   3  10
HETATM   10  N   UNL     1     -40.842 -50.390  12.569  1.00  0.00    -0.376 N 
HETATM   11  C   UNL     1     -40.785 -49.477  11.420  1.00  0.00     0.150 C 
BRANCH  10  12
HETATM   12  C   UNL     1     -40.108 -49.872  13.750  1.00  0.00     0.149 C 
BRANCH  12  13
HETATM   13  C   UNL     1     -38.603 -50.183  13.718  1.00  0.00     0.186 C 
BRANCH  13  14
HETATM   14  O   UNL     1     -38.381 -51.588  13.891  1.00  0.00    -0.394 OA
HETATM   15  C   UNL     1     -38.923 -52.052  15.119  1.00  0.00     0.201 C 
ENDBRANCH  13  14
ENDBRANCH  12  13
ENDBRANCH  10  12
ENDBRANCH   3  10
BRANCH   2  16
HETATM   16  N   UNL     1     -43.405 -49.598  13.303  1.00  0.00    -0.286 NA
HETATM   17  H   UNL     1     -42.564 -49.094  13.542  1.00  0.00     0.125 HD
HETATM   18  H   UNL     1     -44.084 -49.551  14.068  1.00  0.00     0.125 HD
ENDBRANCH   2  16
BRANCH   1  19
HETATM   19  C   UNL     1     -45.612 -51.434  13.153  1.00  0.00     0.135 C 
BRANCH  19  20
HETATM   20  C   UNL     1     -46.012 -51.380  14.635  1.00  0.00     0.016 C 
HETATM   21  C   UNL     1     -46.995 -52.480  14.996  1.00  0.00     0.006 C 
ENDBRANCH  19  20
ENDBRANCH   1  19
TORSDOF 7
ENDMDL
MODEL 6
REMARK VINA RESULT:      -4.3      2.306      3.294
REMARK  7 active torsions:
REMARK  status: ('A' for Active; 'I' for Inactive)
REMARK    1  A    between atoms: C_2  and  C_3 
REMARK    2  A    between atoms: C_3  and  N_4 
REMARK    3  A    between atoms: C_5  and  N_6 
REMARK    4  A    between atoms: C_7  and  N_8 
REMARK    5  A    between atoms: N_8  and  C_10 
REMARK    6  A    between atoms: C_10  and  C_11 
REMARK    7  A    between atoms: C_11  and  O_12 
ROOT
HETATM    1  N   UNL     1     -42.045 -51.759  12.427  1.00  0.00    -0.288 N 
HETATM    2  C   UNL     1     -42.329 -50.394  12.418  1.00  0.00     0.116 C 
HETATM    3  C   UNL     1     -41.359 -49.479  12.140  1.00  0.00     0.137 C 
HETATM    4  C   UNL     1     -39.964 -49.994  11.912  1.00  0.00     0.279 C 
HETATM    5  O   UNL     1     -39.024 -49.271  11.586  1.00  0.00    -0.265 OA
HETATM    6  N   UNL     1     -39.779 -51.331  12.068  1.00  0.00    -0.273 N 
HETATM    7  C   UNL     1     -40.769 -52.254  12.209  1.00  0.00     0.330 C 
HETATM    8  O   UNL     1     -40.493 -53.449  12.113  1.00  0.00    -0.246 OA
HETATM    9  H   UNL     1     -38.858 -51.689  11.875  1.00  0.00     0.173 HD
ENDROOT
BRANCH   3  10
HETATM   10  N   UNL     1     -41.629 -48.097  11.990  1.00  0.00    -0.376 N 
HETATM   11  C   UNL     1     -41.284 -47.160  13.068  1.00  0.00     0.150 C 
BRANCH  10  12
HETATM   12  C   UNL     1     -41.702 -47.443  10.661  1.00  0.00     0.149 C 
BRANCH  12  13
HETATM   13  C   UNL     1     -41.975 -45.932  10.737  1.00  0.00     0.186 C 
BRANCH  13  14
HETATM   14  O   UNL     1     -41.094 -45.221   9.859  1.00  0.00    -0.394 OA
HETATM   15  C   UNL     1     -39.946 -44.748  10.548  1.00  0.00     0.201 C 
ENDBRANCH  13  14
ENDBRANCH  12  13
ENDBRANCH  10  12
ENDBRANCH   3  10
BRANCH   2  16
HETATM   16  N   UNL     1     -43.628 -49.923  12.626  1.00  0.00    -0.286 NA
HETATM   17  H   UNL     1     -43.657 -48.969  12.954  1.00  0.00     0.125 HD
HETATM   18  H   UNL     1     -44.089 -50.548  13.292  1.00  0.00     0.125 HD
ENDBRANCH   2  16
BRANCH   1  19
HETATM   19  C   UNL     1     -43.119 -52.751  12.543  1.00  0.00     0.135 C 
BRANCH  19  20
HETATM   20  C   UNL     1     -43.289 -53.233  13.991  1.00  0.00     0.016 C 
HETATM   21  C   UNL     1     -44.113 -54.507  14.070  1.00  0.00     0.006 C 
ENDBRANCH  19  20
ENDBRANCH   1  19
TORSDOF 7
ENDMDL
MODEL 7
REMARK VINA RESULT:      -4.3      2.553      2.848
REMARK  7 active torsions:
REMARK  status: ('A' for Active; 'I' for Inactive)
REMARK    1  A    between atoms: C_2  and  C_3 
REMARK    2  A    between atoms: C_3  and  N_4 
REMARK    3  A    between atoms: C_5  and  N_6 
REMARK    4  A    between atoms: C_7  and  N_8 
REMARK    5  A    between atoms: N_8  and  C_10 
REMARK    6  A    between atoms: C_10  and  C_11 
REMARK    7  A    between atoms: C_11  and  O_12 
ROOT
HETATM    1  N   UNL     1     -44.644 -53.200  13.342  1.00  0.00    -0.288 N 
HETATM    2  C   UNL     1     -43.493 -52.425  13.470  1.00  0.00     0.116 C 
HETATM    3  C   UNL     1     -42.392 -52.906  14.113  1.00  0.00     0.137 C 
HETATM    4  C   UNL     1     -42.494 -54.273  14.734  1.00  0.00     0.279 C 
HETATM    5  O   UNL     1     -41.546 -54.837  15.278  1.00  0.00    -0.265 OA
HETATM    6  N   UNL     1     -43.704 -54.885  14.655  1.00  0.00    -0.273 N 
HETATM    7  C   UNL     1     -44.754 -54.465  13.898  1.00  0.00     0.330 C 
HETATM    8  O   UNL     1     -45.711 -55.219  13.728  1.00  0.00    -0.246 OA
HETATM    9  H   UNL     1     -43.769 -55.817  15.030  1.00  0.00     0.173 HD
ENDROOT
BRANCH   3  10
HETATM   10  N   UNL     1     -41.161 -52.209  14.151  1.00  0.00    -0.376 N 
HETATM   11  C   UNL     1     -40.775 -51.466  15.359  1.00  0.00     0.150 C 
BRANCH  10  12
HETATM   12  C   UNL     1     -39.995 -52.610  13.327  1.00  0.00     0.149 C 
BRANCH  12  13
HETATM   13  C   UNL     1     -38.668 -51.997  13.804  1.00  0.00     0.186 C 
BRANCH  13  14
HETATM   14  O   UNL     1     -37.925 -51.489  12.689  1.00  0.00    -0.394 OA
HETATM   15  C   UNL     1     -38.559 -50.355  12.116  1.00  0.00     0.201 C 
ENDBRANCH  13  14
ENDBRANCH  12  13
ENDBRANCH  10  12
ENDBRANCH   3  10
BRANCH   2  16
HETATM   16  N   UNL     1     -43.404 -51.159  12.886  1.00  0.00    -0.286 NA
HETATM   17  H   UNL     1     -42.453 -50.828  12.796  1.00  0.00     0.125 HD
HETATM   18  H   UNL     1     -43.960 -50.510  13.449  1.00  0.00     0.125 HD
ENDBRANCH   2  16
BRANCH   1  19
HETATM   19  C   UNL     1     -45.758 -52.761  12.496  1.00  0.00     0.135 C 
BRANCH  19  20
HETATM   20  C   UNL     1     -46.470 -51.536  13.091  1.00  0.00     0.016 C 
HETATM   21  C   UNL     1     -46.836 -51.748  14.550  1.00  0.00     0.006 C 
ENDBRANCH  19  20
ENDBRANCH   1  19
TORSDOF 7
ENDMDL
MODEL 8
REMARK VINA RESULT:      -4.2      2.836      4.471
REMARK  7 active torsions:
REMARK  status: ('A' for Active; 'I' for Inactive)
REMARK    1  A    between atoms: C_2  and  C_3 
REMARK    2  A    between atoms: C_3  and  N_4 
REMARK    3  A    between atoms: C_5  and  N_6 
REMARK    4  A    between atoms: C_7  and  N_8 
REMARK    5  A    between atoms: N_8  and  C_10 
REMARK    6  A    between atoms: C_10  and  C_11 
REMARK    7  A    between atoms: C_11  and  O_12 
ROOT
HETATM    1  N   UNL     1     -41.187 -53.015  12.853  1.00  0.00    -0.288 N 
HETATM    2  C   UNL     1     -39.944 -52.401  12.993  1.00  0.00     0.116 C 
HETATM    3  C   UNL     1     -39.761 -51.100  12.632  1.00  0.00     0.137 C 
HETATM    4  C   UNL     1     -40.931 -50.379  12.019  1.00  0.00     0.279 C 
HETATM    5  O   UNL     1     -40.904 -49.187  11.719  1.00  0.00    -0.265 OA
HETATM    6  N   UNL     1     -42.055 -51.113  11.815  1.00  0.00    -0.273 N 
HETATM    7  C   UNL     1     -42.279 -52.365  12.299  1.00  0.00     0.330 C 
HETATM    8  O   UNL     1     -43.415 -52.835  12.245  1.00  0.00    -0.246 OA
HETATM    9  H   UNL     1     -42.856 -50.628  11.444  1.00  0.00     0.173 HD
ENDROOT
BRANCH   3  10
HETATM   10  N   UNL     1     -38.557 -50.398  12.879  1.00  0.00    -0.376 N 
HETATM   11  C   UNL     1     -37.658 -50.066  11.765  1.00  0.00     0.150 C 
BRANCH  10  12
HETATM   12  C   UNL     1     -38.390 -49.490  14.041  1.00  0.00     0.149 C 
BRANCH  12  13
HETATM   13  C   UNL     1     -37.310 -49.955  15.031  1.00  0.00     0.186 C 
BRANCH  13  14
HETATM   14  O   UNL     1     -36.578 -48.831  15.534  1.00  0.00    -0.394 OA
HETATM   15  C   UNL     1     -36.942 -47.633  14.864  1.00  0.00     0.201 C 
ENDBRANCH  13  14
ENDBRANCH  12  13
ENDBRANCH  10  12
ENDBRANCH   3  10
BRANCH   2  16
HETATM   16  N   UNL     1     -38.865 -53.074  13.569  1.00  0.00    -0.286 NA
HETATM   17  H   UNL     1     -37.993 -52.570  13.491  1.00  0.00     0.125 HD
HETATM   18  H   UNL     1     -38.790 -53.994  13.125  1.00  0.00     0.125 HD
ENDBRANCH   2  16
BRANCH   1  19
HETATM   19  C   UNL     1     -41.435 -54.350  13.407  1.00  0.00     0.135 C 
BRANCH  19  20
HETATM   20  C   UNL     1     -41.924 -54.276  14.861  1.00  0.00     0.016 C 
HETATM   21  C   UNL     1     -43.197 -55.078  15.072  1.00  0.00     0.006 C 
ENDBRANCH  19  20
ENDBRANCH   1  19
TORSDOF 7
ENDMDL
MODEL 9
REMARK VINA RESULT:      -4.1      1.981      5.232
REMARK  7 active torsions:
REMARK  status: ('A' for Active; 'I' for Inactive)
REMARK    1  A    between atoms: C_2  and  C_3 
REMARK    2  A    between atoms: C_3  and  N_4 
REMARK    3  A    between atoms: C_5  and  N_6 
REMARK    4  A    between atoms: C_7  and  N_8 
REMARK    5  A    between atoms: N_8  and  C_10 
REMARK    6  A    between atoms: C_10  and  C_11 
REMARK    7  A    between atoms: C_11  and  O_12 
ROOT
HETATM    1  N   UNL     1     -41.984 -51.900  13.401  1.00  0.00    -0.288 N 
HETATM    2  C   UNL     1     -43.307 -51.502  13.584  1.00  0.00     0.116 C 
HETATM    3  C   UNL     1     -44.339 -52.337  13.276  1.00  0.00     0.137 C 
HETATM    4  C   UNL     1     -43.995 -53.671  12.672  1.00  0.00     0.279 C 
HETATM    5  O   UNL     1     -44.836 -54.532  12.419  1.00  0.00    -0.265 OA
HETATM    6  N   UNL     1     -42.680 -53.902  12.423  1.00  0.00    -0.273 N 
HETATM    7  C   UNL     1     -41.647 -53.129  12.855  1.00  0.00     0.330 C 
HETATM    8  O   UNL     1     -40.497 -53.559  12.765  1.00  0.00    -0.246 OA
HETATM    9  H   UNL     1     -42.437 -54.809  12.059  1.00  0.00     0.173 HD
ENDROOT
BRANCH   3  10
HETATM   10  N   UNL     1     -45.689 -52.027  13.569  1.00  0.00    -0.376 N 
HETATM   11  C   UNL     1     -46.601 -51.626  12.489  1.00  0.00     0.150 C 
BRANCH  10  12
HETATM   12  C   UNL     1     -46.400 -52.600  14.738  1.00  0.00     0.149 C 
BRANCH  12  13
HETATM   13  C   UNL     1     -46.887 -51.539  15.738  1.00  0.00     0.186 C 
BRANCH  13  14
HETATM   14  O   UNL     1     -45.796 -50.706  16.150  1.00  0.00    -0.394 OA
HETATM   15  C   UNL     1     -45.980 -50.228  17.474  1.00  0.00     0.201 C 
ENDBRANCH  13  14
ENDBRANCH  12  13
ENDBRANCH  10  12
ENDBRANCH   3  10
BRANCH   2  16
HETATM   16  N   UNL     1     -43.619 -50.264  14.151  1.00  0.00    -0.286 NA
HETATM   17  H   UNL     1     -44.538 -49.930  13.898  1.00  0.00     0.125 HD
HETATM   18  H   UNL     1     -42.900 -49.593  13.865  1.00  0.00     0.125 HD
ENDBRANCH   2  16
BRANCH   1  19
HETATM   19  C   UNL     1     -40.875 -51.082  13.900  1.00  0.00     0.135 C 
BRANCH  19  20
HETATM   20  C   UNL     1     -40.323 -50.151  12.809  1.00  0.00     0.016 C 
HETATM   21  C   UNL     1     -40.412 -48.690  13.214  1.00  0.00     0.006 C 
ENDBRANCH  19  20
ENDBRANCH   1  19
TORSDOF 7
ENDMDL
