MODEL 1
REMARK VINA RESULT:      -5.9      0.000      0.000
REMARK  4 active torsions:
REMARK  status: ('A' for Active; 'I' for Inactive)
REMARK    1  A    between atoms: C_2  and  C_3 
REMARK    2  A    between atoms: C_2  and  N_10 
REMARK    3  A    between atoms: C_3  and  N_4 
REMARK       I    between atoms: N_10  and  C_11 
REMARK    4  A    between atoms: C_11  and  C_13 
REMARK       I    between atoms: N_16  and  C_19 
REMARK       I    between atoms: C_19  and  N_21 
ROOT
HETATM    1  N   UNL     1     -42.669 -49.114  11.970  1.00  0.00    -0.355 N 
HETATM    2  C   UNL     1     -42.511 -50.362  12.529  1.00  0.00     0.222 C 
HETATM    3  O   UNL     1     -41.688 -51.170  12.111  1.00  0.00    -0.273 OA
HETATM    4  H   UNL     1     -43.286 -48.444  12.417  1.00  0.00     0.162 HD
ENDROOT
BRANCH   2   5
HETATM    5  C   UNL     1     -43.493 -50.670  13.661  1.00  0.00     0.081 C 
HETATM    6  C   UNL     1     -42.903 -51.563  14.759  1.00  0.00     0.034 C 
HETATM    7  C   UNL     1     -42.801 -53.031  14.351  1.00  0.00     0.128 C 
HETATM    8  N   UNL     1     -44.056 -53.535  13.795  1.00  0.00    -0.339 N 
HETATM    9  C   UNL     1     -44.633 -52.736  12.717  1.00  0.00     0.128 C 
HETATM   10  C   UNL     1     -44.601 -54.774  14.040  1.00  0.00     0.294 C 
HETATM   11  C   UNL     1     -44.797 -51.277  13.129  1.00  0.00     0.034 C 
HETATM   12  O   UNL     1     -45.628 -55.205  13.524  1.00  0.00    -0.254 OA
HETATM   13  N   UNL     1     -43.952 -55.557  14.936  1.00  0.00    -0.254 NA
HETATM   14  H   UNL     1     -42.948 -55.577  14.885  1.00  0.00     0.128 HD
HETATM   15  H   UNL     1     -44.373 -56.476  15.003  1.00  0.00     0.128 HD
ENDBRANCH   2   5
BRANCH   1  16
HETATM   16  C   UNL     1     -41.830 -48.637  10.870  1.00  0.00     0.100 C 
HETATM   17  C   UNL     1     -42.675 -47.807   9.902  1.00  0.00     0.034 C 
BRANCH  16  18
HETATM   18  C   UNL     1     -40.640 -47.809  11.373  1.00  0.00     0.172 C 
BRANCH  18  19
HETATM   19  N   UNL     1     -39.530 -48.645  11.785  1.00  0.00    -0.302 N 
HETATM   20  C   UNL     1     -38.759 -48.498  12.902  1.00  0.00     0.111 A 
HETATM   21  C   UNL     1     -37.826 -49.506  12.855  1.00  0.00     0.037 A 
HETATM   22  C   UNL     1     -38.120 -50.213  11.675  1.00  0.00     0.108 A 
HETATM   23  N   UNL     1     -39.158 -49.690  11.014  1.00  0.00    -0.310 N 
ATOM     24  HN  UNL     1     -39.570 -50.006  10.136  1.00  0.00     0.186 HD
ENDBRANCH  18  19
ENDBRANCH  16  18
ENDBRANCH   1  16
TORSDOF 4
ENDMDL
MODEL 2
REMARK VINA RESULT:      -5.7      3.205      5.009
REMARK  4 active torsions:
REMARK  status: ('A' for Active; 'I' for Inactive)
REMARK    1  A    between atoms: C_2  and  C_3 
REMARK    2  A    between atoms: C_2  and  N_10 
REMARK    3  A    between atoms: C_3  and  N_4 
REMARK       I    between atoms: N_10  and  C_11 
REMARK    4  A    between atoms: C_11  and  C_13 
REMARK       I    between atoms: N_16  and  C_19 
REMARK       I    between atoms: C_19  and  N_21 
ROOT
HETATM    1  N   UNL     1     -39.720 -46.868  11.945  1.00  0.00    -0.355 N 
HETATM    2  C   UNL     1     -39.690 -47.557  13.136  1.00  0.00     0.222 C 
HETATM    3  O   UNL     1     -40.330 -47.199  14.119  1.00  0.00    -0.273 OA
HETATM    4  H   UNL     1     -39.259 -47.262  11.132  1.00  0.00     0.162 HD
ENDROOT
BRANCH   2   5
HETATM    5  C   UNL     1     -38.740 -48.757  13.142  1.00  0.00     0.081 C 
HETATM    6  C   UNL     1     -38.697 -49.510  11.807  1.00  0.00     0.034 C 
HETATM    7  C   UNL     1     -39.922 -50.391  11.572  1.00  0.00     0.128 C 
HETATM    8  N   UNL     1     -40.211 -51.247  12.721  1.00  0.00    -0.339 N 
HETATM    9  C   UNL     1     -40.303 -50.564  14.009  1.00  0.00     0.128 C 
HETATM   10  C   UNL     1     -40.613 -52.562  12.661  1.00  0.00     0.294 C 
HETATM   11  C   UNL     1     -39.059 -49.726  14.287  1.00  0.00     0.034 C 
HETATM   12  O   UNL     1     -40.904 -53.253  13.631  1.00  0.00    -0.254 OA
HETATM   13  N   UNL     1     -40.666 -53.125  11.428  1.00  0.00    -0.254 NA
HETATM   14  H   UNL     1     -41.048 -52.566  10.685  1.00  0.00     0.128 HD
HETATM   15  H   UNL     1     -41.040 -54.065  11.463  1.00  0.00     0.128 HD
ENDBRANCH   2   5
BRANCH   1  16
HETATM   16  C   UNL     1     -40.560 -45.687  11.745  1.00  0.00     0.100 C 
HETATM   17  C   UNL     1     -39.782 -44.431  12.138  1.00  0.00     0.034 C 
BRANCH  16  18
HETATM   18  C   UNL     1     -41.051 -45.571  10.296  1.00  0.00     0.172 C 
BRANCH  18  19
HETATM   19  N   UNL     1     -42.275 -46.315  10.074  1.00  0.00    -0.302 N 
HETATM   20  C   UNL     1     -43.040 -46.940  11.015  1.00  0.00     0.111 A 
HETATM   21  C   UNL     1     -44.079 -47.526  10.333  1.00  0.00     0.037 A 
HETATM   22  C   UNL     1     -43.857 -47.191   8.985  1.00  0.00     0.108 A 
HETATM   23  N   UNL     1     -42.754 -46.455   8.818  1.00  0.00    -0.310 N 
ATOM     24  HN  UNL     1     -42.367 -46.086   7.949  1.00  0.00     0.186 HD
ENDBRANCH  18  19
ENDBRANCH  16  18
ENDBRANCH   1  16
TORSDOF 4
ENDMDL
MODEL 3
REMARK VINA RESULT:      -5.6      2.029      5.833
REMARK  4 active torsions:
REMARK  status: ('A' for Active; 'I' for Inactive)
REMARK    1  A    between atoms: C_2  and  C_3 
REMARK    2  A    between atoms: C_2  and  N_10 
REMARK    3  A    between atoms: C_3  and  N_4 
REMARK       I    between atoms: N_10  and  C_11 
REMARK    4  A    between atoms: C_11  and  C_13 
REMARK       I    between atoms: N_16  and  C_19 
REMARK       I    between atoms: C_19  and  N_21 
ROOT
HETATM    1  N   UNL     1     -44.266 -50.688  12.841  1.00  0.00    -0.355 N 
HETATM    2  C   UNL     1     -43.379 -50.117  13.726  1.00  0.00     0.222 C 
HETATM    3  O   UNL     1     -43.240 -50.527  14.873  1.00  0.00    -0.273 OA
HETATM    4  H   UNL     1     -44.268 -50.382  11.874  1.00  0.00     0.162 HD
ENDROOT
BRANCH   2   5
HETATM    5  C   UNL     1     -42.645 -48.893  13.175  1.00  0.00     0.081 C 
HETATM    6  C   UNL     1     -42.208 -49.048  11.713  1.00  0.00     0.034 C 
HETATM    7  C   UNL     1     -40.985 -49.946  11.542  1.00  0.00     0.128 C 
HETATM    8  N   UNL     1     -39.898 -49.572  12.445  1.00  0.00    -0.339 N 
HETATM    9  C   UNL     1     -40.261 -49.454  13.855  1.00  0.00     0.128 C 
HETATM   10  C   UNL     1     -38.560 -49.543  12.122  1.00  0.00     0.294 C 
HETATM   11  C   UNL     1     -41.445 -48.511  14.049  1.00  0.00     0.034 C 
HETATM   12  O   UNL     1     -37.653 -49.278  12.904  1.00  0.00    -0.254 OA
HETATM   13  N   UNL     1     -38.242 -49.811  10.831  1.00  0.00    -0.254 NA
HETATM   14  H   UNL     1     -38.735 -50.565  10.384  1.00  0.00     0.128 HD
HETATM   15  H   UNL     1     -37.239 -49.843  10.693  1.00  0.00     0.128 HD
ENDBRANCH   2   5
BRANCH   1  16
HETATM   16  C   UNL     1     -45.068 -51.862  13.185  1.00  0.00     0.100 C 
HETATM   17  C   UNL     1     -46.531 -51.610  12.817  1.00  0.00     0.034 C 
BRANCH  16  18
HETATM   18  C   UNL     1     -44.561 -53.130  12.484  1.00  0.00     0.172 C 
BRANCH  18  19
HETATM   19  N   UNL     1     -43.261 -53.541  12.978  1.00  0.00    -0.302 N 
HETATM   20  C   UNL     1     -42.980 -54.095  14.193  1.00  0.00     0.111 A 
HETATM   21  C   UNL     1     -41.620 -54.293  14.216  1.00  0.00     0.037 A 
HETATM   22  C   UNL     1     -41.170 -53.833  12.965  1.00  0.00     0.108 A 
HETATM   23  N   UNL     1     -42.167 -53.368  12.205  1.00  0.00    -0.310 N 
ATOM     24  HN  UNL     1     -42.113 -52.977  11.264  1.00  0.00     0.186 HD
ENDBRANCH  18  19
ENDBRANCH  16  18
ENDBRANCH   1  16
TORSDOF 4
ENDMDL
MODEL 4
REMARK VINA RESULT:      -5.6      2.384      6.904
REMARK  4 active torsions:
REMARK  status: ('A' for Active; 'I' for Inactive)
REMARK    1  A    between atoms: C_2  and  C_3 
REMARK    2  A    between atoms: C_2  and  N_10 
REMARK    3  A    between atoms: C_3  and  N_4 
REMARK       I    between atoms: N_10  and  C_11 
REMARK    4  A    between atoms: C_11  and  C_13 
REMARK       I    between atoms: N_16  and  C_19 
REMARK       I    between atoms: C_19  and  N_21 
ROOT
HETATM    1  N   UNL     1     -42.579 -53.005  14.713  1.00  0.00    -0.355 N 
HETATM    2  C   UNL     1     -42.445 -52.091  13.693  1.00  0.00     0.222 C 
HETATM    3  O   UNL     1     -42.972 -52.248  12.596  1.00  0.00    -0.273 OA
HETATM    4  H   UNL     1     -42.213 -52.779  15.632  1.00  0.00     0.162 HD
ENDROOT
BRANCH   2   5
HETATM    5  C   UNL     1     -41.531 -50.910  14.025  1.00  0.00     0.081 C 
HETATM    6  C   UNL     1     -41.283 -49.974  12.836  1.00  0.00     0.034 C 
HETATM    7  C   UNL     1     -40.298 -50.542  11.816  1.00  0.00     0.128 C 
HETATM    8  N   UNL     1     -39.072 -51.027  12.448  1.00  0.00    -0.339 N 
HETATM    9  C   UNL     1     -39.261 -51.955  13.559  1.00  0.00     0.128 C 
HETATM   10  C   UNL     1     -37.798 -50.864  11.955  1.00  0.00     0.294 C 
HETATM   11  C   UNL     1     -40.196 -51.377  14.618  1.00  0.00     0.034 C 
HETATM   12  O   UNL     1     -36.782 -51.322  12.468  1.00  0.00    -0.254 OA
HETATM   13  N   UNL     1     -37.673 -50.120  10.828  1.00  0.00    -0.254 NA
HETATM   14  H   UNL     1     -38.355 -50.268  10.104  1.00  0.00     0.128 HD
HETATM   15  H   UNL     1     -36.718 -50.111  10.491  1.00  0.00     0.128 HD
ENDBRANCH   2   5
BRANCH   1  16
HETATM   16  C   UNL     1     -43.405 -54.205  14.586  1.00  0.00     0.100 C 
HETATM   17  C   UNL     1     -42.725 -55.375  15.299  1.00  0.00     0.034 C 
BRANCH  16  18
HETATM   18  C   UNL     1     -44.816 -53.994  15.150  1.00  0.00     0.172 C 
BRANCH  18  19
HETATM   19  N   UNL     1     -45.586 -53.058  14.354  1.00  0.00    -0.302 N 
HETATM   20  C   UNL     1     -46.152 -51.890  14.777  1.00  0.00     0.111 A 
HETATM   21  C   UNL     1     -46.794 -51.362  13.683  1.00  0.00     0.037 A 
HETATM   22  C   UNL     1     -46.552 -52.281  12.646  1.00  0.00     0.108 A 
HETATM   23  N   UNL     1     -45.818 -53.322  13.050  1.00  0.00    -0.310 N 
ATOM     24  HN  UNL     1     -45.507 -54.125  12.503  1.00  0.00     0.186 HD
ENDBRANCH  18  19
ENDBRANCH  16  18
ENDBRANCH   1  16
TORSDOF 4
ENDMDL
MODEL 5
REMARK VINA RESULT:      -5.6      1.945      3.551
REMARK  4 active torsions:
REMARK  status: ('A' for Active; 'I' for Inactive)
REMARK    1  A    between atoms: C_2  and  C_3 
REMARK    2  A    between atoms: C_2  and  N_10 
REMARK    3  A    between atoms: C_3  and  N_4 
REMARK       I    between atoms: N_10  and  C_11 
REMARK    4  A    between atoms: C_11  and  C_13 
REMARK       I    between atoms: N_16  and  C_19 
REMARK       I    between atoms: C_19  and  N_21 
ROOT
HETATM    1  N   UNL     1     -39.664 -51.919  13.097  1.00  0.00    -0.355 N 
HETATM    2  C   UNL     1     -40.160 -52.408  14.285  1.00  0.00     0.222 C 
HETATM    3  O   UNL     1     -40.180 -51.740  15.313  1.00  0.00    -0.273 OA
HETATM    4  H   UNL     1     -39.767 -52.471  12.252  1.00  0.00     0.162 HD
ENDROOT
BRANCH   2   5
HETATM    5  C   UNL     1     -40.610 -53.869  14.222  1.00  0.00     0.081 C 
HETATM    6  C   UNL     1     -41.413 -54.208  12.960  1.00  0.00     0.034 C 
HETATM    7  C   UNL     1     -42.850 -53.693  13.005  1.00  0.00     0.128 C 
HETATM    8  N   UNL     1     -43.526 -54.058  14.248  1.00  0.00    -0.339 N 
HETATM    9  C   UNL     1     -42.814 -53.715  15.476  1.00  0.00     0.128 C 
HETATM   10  C   UNL     1     -44.832 -54.478  14.358  1.00  0.00     0.294 C 
HETATM   11  C   UNL     1     -41.395 -54.274  15.475  1.00  0.00     0.034 C 
HETATM   12  O   UNL     1     -45.403 -54.730  15.414  1.00  0.00    -0.254 OA
HETATM   13  N   UNL     1     -45.517 -54.640  13.199  1.00  0.00    -0.254 NA
HETATM   14  H   UNL     1     -45.392 -53.937  12.491  1.00  0.00     0.128 HD
HETATM   15  H   UNL     1     -46.487 -54.877  13.369  1.00  0.00     0.128 HD
ENDBRANCH   2   5
BRANCH   1  16
HETATM   16  C   UNL     1     -39.177 -50.547  12.958  1.00  0.00     0.100 C 
HETATM   17  C   UNL     1     -37.679 -50.501  13.262  1.00  0.00     0.034 C 
BRANCH  16  18
HETATM   18  C   UNL     1     -39.447 -49.980  11.558  1.00  0.00     0.172 C 
BRANCH  18  19
HETATM   19  N   UNL     1     -40.668 -49.199  11.513  1.00  0.00    -0.302 N 
HETATM   20  C   UNL     1     -41.376 -48.717  12.576  1.00  0.00     0.111 A 
HETATM   21  C   UNL     1     -42.462 -48.063  12.045  1.00  0.00     0.037 A 
HETATM   22  C   UNL     1     -42.317 -48.200  10.653  1.00  0.00     0.108 A 
HETATM   23  N   UNL     1     -41.225 -48.896  10.321  1.00  0.00    -0.310 N 
ATOM     24  HN  UNL     1     -40.892 -49.141   9.388  1.00  0.00     0.186 HD
ENDBRANCH  18  19
ENDBRANCH  16  18
ENDBRANCH   1  16
TORSDOF 4
ENDMDL
MODEL 6
REMARK VINA RESULT:      -5.6      2.065      3.931
REMARK  4 active torsions:
REMARK  status: ('A' for Active; 'I' for Inactive)
REMARK    1  A    between atoms: C_2  and  C_3 
REMARK    2  A    between atoms: C_2  and  N_10 
REMARK    3  A    between atoms: C_3  and  N_4 
REMARK       I    between atoms: N_10  and  C_11 
REMARK    4  A    between atoms: C_11  and  C_13 
REMARK       I    between atoms: N_16  and  C_19 
REMARK       I    between atoms: C_19  and  N_21 
ROOT
HETATM    1  N   UNL     1     -42.116 -50.070  11.883  1.00  0.00    -0.355 N 
HETATM    2  C   UNL     1     -42.850 -50.694  12.866  1.00  0.00     0.222 C 
HETATM    3  O   UNL     1     -43.541 -50.071  13.665  1.00  0.00    -0.273 OA
HETATM    4  H   UNL     1     -41.647 -50.633  11.182  1.00  0.00     0.162 HD
ENDROOT
BRANCH   2   5
HETATM    5  C   UNL     1     -42.670 -52.212  12.913  1.00  0.00     0.081 C 
HETATM    6  C   UNL     1     -43.803 -52.985  12.227  1.00  0.00     0.034 C 
HETATM    7  C   UNL     1     -45.084 -53.040  13.056  1.00  0.00     0.128 C 
HETATM    8  N   UNL     1     -44.831 -53.466  14.431  1.00  0.00    -0.339 N 
HETATM    9  C   UNL     1     -43.787 -52.728  15.138  1.00  0.00     0.128 C 
HETATM   10  C   UNL     1     -45.620 -54.323  15.164  1.00  0.00     0.294 C 
HETATM   11  C   UNL     1     -42.481 -52.716  14.350  1.00  0.00     0.034 C 
HETATM   12  O   UNL     1     -45.424 -54.631  16.335  1.00  0.00    -0.254 OA
HETATM   13  N   UNL     1     -46.677 -54.876  14.519  1.00  0.00    -0.254 NA
HETATM   14  H   UNL     1     -47.212 -54.274  13.915  1.00  0.00     0.128 HD
HETATM   15  H   UNL     1     -47.247 -55.432  15.145  1.00  0.00     0.128 HD
ENDBRANCH   2   5
BRANCH   1  16
HETATM   16  C   UNL     1     -42.148 -48.621  11.682  1.00  0.00     0.100 C 
HETATM   17  C   UNL     1     -40.997 -47.971  12.453  1.00  0.00     0.034 C 
BRANCH  16  18
HETATM   18  C   UNL     1     -42.065 -48.245  10.197  1.00  0.00     0.172 C 
BRANCH  18  19
HETATM   19  N   UNL     1     -43.259 -47.560   9.742  1.00  0.00    -0.302 N 
HETATM   20  C   UNL     1     -43.318 -46.435   8.971  1.00  0.00     0.111 A 
HETATM   21  C   UNL     1     -44.654 -46.149   8.819  1.00  0.00     0.037 A 
HETATM   22  C   UNL     1     -45.321 -47.163   9.530  1.00  0.00     0.108 A 
HETATM   23  N   UNL     1     -44.475 -48.026  10.100  1.00  0.00    -0.310 N 
ATOM     24  HN  UNL     1     -44.695 -48.843  10.670  1.00  0.00     0.186 HD
ENDBRANCH  18  19
ENDBRANCH  16  18
ENDBRANCH   1  16
TORSDOF 4
ENDMDL
MODEL 7
REMARK VINA RESULT:      -5.5      2.584      4.237
REMARK  4 active torsions:
REMARK  status: ('A' for Active; 'I' for Inactive)
REMARK    1  A    between atoms: C_2  and  C_3 
REMARK    2  A    between atoms: C_2  and  N_10 
REMARK    3  A    between atoms: C_3  and  N_4 
REMARK       I    between atoms: N_10  and  C_11 
REMARK    4  A    between atoms: C_11  and  C_13 
REMARK       I    between atoms: N_16  and  C_19 
REMARK       I    between atoms: C_19  and  N_21 
ROOT
HETATM    1  N   UNL     1     -41.890 -50.509  11.885  1.00  0.00    -0.355 N 
HETATM    2  C   UNL     1     -42.539 -51.297  12.809  1.00  0.00     0.222 C 
HETATM    3  O   UNL     1     -43.091 -50.830  13.799  1.00  0.00    -0.273 OA
HETATM    4  H   UNL     1     -41.543 -50.931  11.030  1.00  0.00     0.162 HD
ENDROOT
BRANCH   2   5
HETATM    5  C   UNL     1     -42.447 -52.798  12.526  1.00  0.00     0.081 C 
HETATM    6  C   UNL     1     -43.070 -53.667  13.626  1.00  0.00     0.034 C 
HETATM    7  C   UNL     1     -42.198 -53.777  14.874  1.00  0.00     0.128 C 
HETATM    8  N   UNL     1     -40.818 -54.136  14.551  1.00  0.00    -0.339 N 
HETATM    9  C   UNL     1     -40.171 -53.307  13.537  1.00  0.00     0.128 C 
HETATM   10  C   UNL     1     -40.032 -55.017  15.258  1.00  0.00     0.294 C 
HETATM   11  C   UNL     1     -41.002 -53.237  12.260  1.00  0.00     0.034 C 
HETATM   12  O   UNL     1     -38.859 -55.270  15.007  1.00  0.00    -0.254 OA
HETATM   13  N   UNL     1     -40.623 -55.660  16.296  1.00  0.00    -0.254 NA
HETATM   14  H   UNL     1     -41.229 -55.116  16.887  1.00  0.00     0.128 HD
HETATM   15  H   UNL     1     -39.961 -56.230  16.807  1.00  0.00     0.128 HD
ENDBRANCH   2   5
BRANCH   1  16
HETATM   16  C   UNL     1     -41.858 -49.050  11.986  1.00  0.00     0.100 C 
HETATM   17  C   UNL     1     -40.846 -48.632  13.053  1.00  0.00     0.034 C 
BRANCH  16  18
HETATM   18  C   UNL     1     -41.512 -48.389  10.645  1.00  0.00     0.172 C 
BRANCH  18  19
HETATM   19  N   UNL     1     -42.696 -47.955   9.930  1.00  0.00    -0.302 N 
HETATM   20  C   UNL     1     -43.852 -47.470  10.471  1.00  0.00     0.111 A 
HETATM   21  C   UNL     1     -44.690 -47.215   9.411  1.00  0.00     0.037 A 
HETATM   22  C   UNL     1     -43.946 -47.573   8.272  1.00  0.00     0.108 A 
HETATM   23  N   UNL     1     -42.729 -48.030   8.582  1.00  0.00    -0.310 N 
ATOM     24  HN  UNL     1     -41.998 -48.357   7.949  1.00  0.00     0.186 HD
ENDBRANCH  18  19
ENDBRANCH  16  18
ENDBRANCH   1  16
TORSDOF 4
ENDMDL
MODEL 8
REMARK VINA RESULT:      -5.4      1.964      3.037
REMARK  4 active torsions:
REMARK  status: ('A' for Active; 'I' for Inactive)
REMARK    1  A    between atoms: C_2  and  C_3 
REMARK    2  A    between atoms: C_2  and  N_10 
REMARK    3  A    between atoms: C_3  and  N_4 
REMARK       I    between atoms: N_10  and  C_11 
REMARK    4  A    between atoms: C_11  and  C_13 
REMARK       I    between atoms: N_16  and  C_19 
REMARK       I    between atoms: C_19  and  N_21 
ROOT
HETATM    1  N   UNL     1     -41.691 -51.249  12.062  1.00  0.00    -0.355 N 
HETATM    2  C   UNL     1     -41.638 -52.116  13.131  1.00  0.00     0.222 C 
HETATM    3  O   UNL     1     -41.022 -51.856  14.158  1.00  0.00    -0.273 OA
HETATM    4  H   UNL     1     -42.299 -51.463  11.280  1.00  0.00     0.162 HD
ENDROOT
BRANCH   2   5
HETATM    5  C   UNL     1     -42.351 -53.448  12.892  1.00  0.00     0.081 C 
HETATM    6  C   UNL     1     -43.720 -53.298  12.215  1.00  0.00     0.034 C 
HETATM    7  C   UNL     1     -44.810 -52.804  13.164  1.00  0.00     0.128 C 
HETATM    8  N   UNL     1     -44.848 -53.575  14.406  1.00  0.00    -0.339 N 
HETATM    9  C   UNL     1     -43.573 -53.708  15.105  1.00  0.00     0.128 C 
HETATM   10  C   UNL     1     -45.988 -53.979  15.063  1.00  0.00     0.294 C 
HETATM   11  C   UNL     1     -42.487 -54.259  14.187  1.00  0.00     0.034 C 
HETATM   12  O   UNL     1     -46.006 -54.580  16.132  1.00  0.00    -0.254 OA
HETATM   13  N   UNL     1     -47.169 -53.702  14.457  1.00  0.00    -0.254 NA
HETATM   14  H   UNL     1     -47.265 -52.795  14.033  1.00  0.00     0.128 HD
HETATM   15  H   UNL     1     -47.957 -53.964  15.038  1.00  0.00     0.128 HD
ENDBRANCH   2   5
BRANCH   1  16
HETATM   16  C   UNL     1     -41.062 -49.929  12.094  1.00  0.00     0.100 C 
HETATM   17  C   UNL     1     -39.673 -50.006  11.457  1.00  0.00     0.034 C 
BRANCH  16  18
HETATM   18  C   UNL     1     -41.911 -48.871  11.377  1.00  0.00     0.172 C 
BRANCH  18  19
HETATM   19  N   UNL     1     -41.300 -47.557  11.428  1.00  0.00    -0.302 N 
HETATM   20  C   UNL     1     -41.022 -46.821  12.543  1.00  0.00     0.111 A 
HETATM   21  C   UNL     1     -40.471 -45.644  12.095  1.00  0.00     0.037 A 
HETATM   22  C   UNL     1     -40.452 -45.768  10.694  1.00  0.00     0.108 A 
HETATM   23  N   UNL     1     -40.961 -46.932  10.279  1.00  0.00    -0.310 N 
ATOM     24  HN  UNL     1     -41.067 -47.269   9.322  1.00  0.00     0.186 HD
ENDBRANCH  18  19
ENDBRANCH  16  18
ENDBRANCH   1  16
TORSDOF 4
ENDMDL
MODEL 9
REMARK VINA RESULT:      -5.3      5.405      8.717
REMARK  4 active torsions:
REMARK  status: ('A' for Active; 'I' for Inactive)
REMARK    1  A    between atoms: C_2  and  C_3 
REMARK    2  A    between atoms: C_2  and  N_10 
REMARK    3  A    between atoms: C_3  and  N_4 
REMARK       I    between atoms: N_10  and  C_11 
REMARK    4  A    between atoms: C_11  and  C_13 
REMARK       I    between atoms: N_16  and  C_19 
REMARK       I    between atoms: C_19  and  N_21 
ROOT
HETATM    1  N   UNL     1     -40.594 -46.012  11.970  1.00  0.00    -0.355 N 
HETATM    2  C   UNL     1     -40.532 -44.794  11.329  1.00  0.00     0.222 C 
HETATM    3  O   UNL     1     -40.582 -44.691  10.108  1.00  0.00    -0.273 OA
HETATM    4  H   UNL     1     -40.656 -46.037  12.982  1.00  0.00     0.162 HD
ENDROOT
BRANCH   2   5
HETATM    5  C   UNL     1     -40.325 -43.603  12.267  1.00  0.00     0.081 C 
HETATM    6  C   UNL     1     -41.154 -43.686  13.555  1.00  0.00     0.034 C 
HETATM    7  C   UNL     1     -42.630 -43.354  13.344  1.00  0.00     0.128 C 
HETATM    8  N   UNL     1     -42.812 -42.106  12.606  1.00  0.00    -0.339 N 
HETATM    9  C   UNL     1     -42.073 -42.001  11.351  1.00  0.00     0.128 C 
HETATM   10  C   UNL     1     -43.764 -41.148  12.873  1.00  0.00     0.294 C 
HETATM   11  C   UNL     1     -40.585 -42.270  11.555  1.00  0.00     0.034 C 
HETATM   12  O   UNL     1     -43.940 -40.129  12.213  1.00  0.00    -0.254 OA
HETATM   13  N   UNL     1     -44.542 -41.353  13.965  1.00  0.00    -0.254 NA
HETATM   14  H   UNL     1     -44.877 -42.289  14.120  1.00  0.00     0.128 HD
HETATM   15  H   UNL     1     -45.262 -40.645  14.048  1.00  0.00     0.128 HD
ENDBRANCH   2   5
BRANCH   1  16
HETATM   16  C   UNL     1     -40.780 -47.269  11.246  1.00  0.00     0.100 C 
HETATM   17  C   UNL     1     -39.777 -48.306  11.752  1.00  0.00     0.034 C 
BRANCH  16  18
HETATM   18  C   UNL     1     -42.210 -47.807  11.387  1.00  0.00     0.172 C 
BRANCH  18  19
HETATM   19  N   UNL     1     -43.046 -47.432  10.263  1.00  0.00    -0.302 N 
HETATM   20  C   UNL     1     -44.404 -47.536  10.178  1.00  0.00     0.111 A 
HETATM   21  C   UNL     1     -44.742 -47.083   8.925  1.00  0.00     0.037 A 
HETATM   22  C   UNL     1     -43.518 -46.721   8.332  1.00  0.00     0.108 A 
HETATM   23  N   UNL     1     -42.477 -46.936   9.143  1.00  0.00    -0.310 N 
ATOM     24  HN  UNL     1     -41.488 -46.766   8.959  1.00  0.00     0.186 HD
ENDBRANCH  18  19
ENDBRANCH  16  18
ENDBRANCH   1  16
TORSDOF 4
ENDMDL
