MODEL 1
REMARK VINA RESULT:      -6.0      0.000      0.000
REMARK  7 active torsions:
REMARK  status: ('A' for Active; 'I' for Inactive)
REMARK    1  A    between atoms: O_2  and  C_3 
REMARK    2  A    between atoms: C_3  and  C_4 
REMARK    3  A    between atoms: C_4  and  N_5 
REMARK    4  A    between atoms: C_8  and  C_9 
REMARK    5  A    between atoms: C_9  and  N_10 
REMARK       I    between atoms: N_10  and  C_11 
REMARK    6  A    between atoms: C_11  and  C_13 
REMARK    7  A    between atoms: C_13  and  C_14 
ROOT
HETATM    1  N   UNL     1     -42.406 -48.793  10.962  1.00  0.00    -0.360 N 
HETATM    2  C   UNL     1     -42.029 -47.497  10.674  1.00  0.00     0.221 C 
HETATM    3  O   UNL     1     -40.866 -47.098  10.765  1.00  0.00    -0.273 OA
HETATM    4  H   UNL     1     -43.384 -49.043  10.933  1.00  0.00     0.162 HD
ENDROOT
BRANCH   1   5
HETATM    5  C   UNL     1     -41.461 -49.773  11.468  1.00  0.00     0.127 C 
BRANCH   5   6
HETATM    6  C   UNL     1     -41.712 -50.140  12.943  1.00  0.00     0.007 C 
HETATM    7  C   UNL     1     -40.669 -51.126  13.496  1.00  0.00     0.036 C 
HETATM    8  C   UNL     1     -40.872 -52.558  12.988  1.00  0.00     0.273 C 
HETATM    9  N   UNL     1     -42.237 -53.074  13.176  1.00  0.00     0.090 N 
HETATM   10  C   UNL     1     -43.218 -52.156  12.586  1.00  0.00     0.273 C 
HETATM   11  C   UNL     1     -43.121 -50.727  13.121  1.00  0.00     0.036 C 
BRANCH   9  12
HETATM   12  C   UNL     1     -42.503 -53.433  14.586  1.00  0.00     0.298 C 
BRANCH  12  13
HETATM   13  C   UNL     1     -42.923 -54.899  14.783  1.00  0.00     0.197 C 
BRANCH  13  14
HETATM   14  O   UNL     1     -44.313 -54.992  15.104  1.00  0.00    -0.394 OA
HETATM   15  C   UNL     1     -45.092 -55.037  13.912  1.00  0.00     0.201 C 
ENDBRANCH  13  14
ENDBRANCH  12  13
ENDBRANCH   9  12
ENDBRANCH   5   6
ENDBRANCH   1   5
BRANCH   2  16
HETATM   16  C   UNL     1     -43.171 -46.584  10.263  1.00  0.00     0.142 C 
BRANCH  16  17
HETATM   17  C   UNL     1     -44.105 -47.251   9.292  1.00  0.00    -0.034 A 
HETATM   18  C   UNL     1     -45.438 -47.503   9.623  1.00  0.00     0.011 A 
HETATM   19  C   UNL     1     -46.251 -48.209   8.738  1.00  0.00     0.025 A 
HETATM   20  C   UNL     1     -45.712 -48.637   7.530  1.00  0.00     0.005 A 
HETATM   21  C   UNL     1     -46.502 -49.516   6.608  1.00  0.00     0.068 C 
HETATM   22  N   UNL     1     -44.437 -48.362   7.164  1.00  0.00    -0.369 N 
HETATM   23  C   UNL     1     -43.672 -47.673   8.042  1.00  0.00     0.095 A 
ATOM     24  HN  UNL     1     -44.067 -48.663   6.263  1.00  0.00     0.165 HD
ENDBRANCH  16  17
ENDBRANCH   2  16
TORSDOF 7
ENDMDL
MODEL 2
REMARK VINA RESULT:      -6.0      2.889      4.703
REMARK  7 active torsions:
REMARK  status: ('A' for Active; 'I' for Inactive)
REMARK    1  A    between atoms: O_2  and  C_3 
REMARK    2  A    between atoms: C_3  and  C_4 
REMARK    3  A    between atoms: C_4  and  N_5 
REMARK    4  A    between atoms: C_8  and  C_9 
REMARK    5  A    between atoms: C_9  and  N_10 
REMARK       I    between atoms: N_10  and  C_11 
REMARK    6  A    between atoms: C_11  and  C_13 
REMARK    7  A    between atoms: C_13  and  C_14 
ROOT
HETATM    1  N   UNL     1     -39.039 -51.283  13.771  1.00  0.00    -0.360 N 
HETATM    2  C   UNL     1     -37.951 -50.981  12.978  1.00  0.00     0.221 C 
HETATM    3  O   UNL     1     -37.136 -51.827  12.601  1.00  0.00    -0.273 OA
HETATM    4  H   UNL     1     -39.633 -50.537  14.103  1.00  0.00     0.162 HD
ENDROOT
BRANCH   1   5
HETATM    5  C   UNL     1     -39.267 -52.622  14.285  1.00  0.00     0.127 C 
BRANCH   5   6
HETATM    6  C   UNL     1     -40.134 -53.483  13.347  1.00  0.00     0.007 C 
HETATM    7  C   UNL     1     -41.008 -52.639  12.403  1.00  0.00     0.036 C 
HETATM    8  C   UNL     1     -42.209 -52.002  13.113  1.00  0.00     0.273 C 
HETATM    9  N   UNL     1     -43.028 -52.953  13.880  1.00  0.00     0.090 N 
HETATM   10  C   UNL     1     -42.191 -53.706  14.822  1.00  0.00     0.273 C 
HETATM   11  C   UNL     1     -41.024 -54.437  14.158  1.00  0.00     0.036 C 
BRANCH   9  12
HETATM   12  C   UNL     1     -43.869 -53.793  13.000  1.00  0.00     0.298 C 
BRANCH  12  13
HETATM   13  C   UNL     1     -45.379 -53.596  13.217  1.00  0.00     0.197 C 
BRANCH  13  14
HETATM   14  O   UNL     1     -45.971 -52.926  12.101  1.00  0.00    -0.394 OA
HETATM   15  C   UNL     1     -46.544 -51.689  12.517  1.00  0.00     0.201 C 
ENDBRANCH  13  14
ENDBRANCH  12  13
ENDBRANCH   9  12
ENDBRANCH   5   6
ENDBRANCH   1   5
BRANCH   2  16
HETATM   16  C   UNL     1     -37.814 -49.510  12.628  1.00  0.00     0.142 C 
BRANCH  16  17
HETATM   17  C   UNL     1     -39.041 -48.977  11.941  1.00  0.00    -0.034 A 
HETATM   18  C   UNL     1     -39.544 -47.708  12.236  1.00  0.00     0.011 A 
HETATM   19  C   UNL     1     -40.737 -47.283  11.653  1.00  0.00     0.025 A 
HETATM   20  C   UNL     1     -41.394 -48.137  10.774  1.00  0.00     0.005 A 
HETATM   21  C   UNL     1     -42.745 -47.783  10.232  1.00  0.00     0.068 C 
HETATM   22  N   UNL     1     -40.900 -49.352  10.434  1.00  0.00    -0.369 N 
HETATM   23  C   UNL     1     -39.740 -49.736  11.013  1.00  0.00     0.095 A 
ATOM     24  HN  UNL     1     -41.385 -49.953   9.768  1.00  0.00     0.165 HD
ENDBRANCH  16  17
ENDBRANCH   2  16
TORSDOF 7
ENDMDL
MODEL 3
REMARK VINA RESULT:      -5.9      3.251      7.328
REMARK  7 active torsions:
REMARK  status: ('A' for Active; 'I' for Inactive)
REMARK    1  A    between atoms: O_2  and  C_3 
REMARK    2  A    between atoms: C_3  and  C_4 
REMARK    3  A    between atoms: C_4  and  N_5 
REMARK    4  A    between atoms: C_8  and  C_9 
REMARK    5  A    between atoms: C_9  and  N_10 
REMARK       I    between atoms: N_10  and  C_11 
REMARK    6  A    between atoms: C_11  and  C_13 
REMARK    7  A    between atoms: C_13  and  C_14 
ROOT
HETATM    1  N   UNL     1     -42.756 -52.713  12.006  1.00  0.00    -0.360 N 
HETATM    2  C   UNL     1     -43.161 -53.677  12.907  1.00  0.00     0.221 C 
HETATM    3  O   UNL     1     -42.404 -54.180  13.740  1.00  0.00    -0.273 OA
HETATM    4  H   UNL     1     -43.404 -52.387  11.303  1.00  0.00     0.162 HD
ENDROOT
BRANCH   1   5
HETATM    5  C   UNL     1     -41.376 -52.268  11.927  1.00  0.00     0.127 C 
BRANCH   5   6
HETATM    6  C   UNL     1     -41.060 -51.122  12.908  1.00  0.00     0.007 C 
HETATM    7  C   UNL     1     -42.064 -49.961  12.809  1.00  0.00     0.036 C 
HETATM    8  C   UNL     1     -41.857 -49.097  11.559  1.00  0.00     0.273 C 
HETATM    9  N   UNL     1     -40.478 -48.619  11.380  1.00  0.00     0.090 N 
HETATM   10  C   UNL     1     -39.536 -49.744  11.411  1.00  0.00     0.273 C 
HETATM   11  C   UNL     1     -39.636 -50.593  12.679  1.00  0.00     0.036 C 
BRANCH   9  12
HETATM   12  C   UNL     1     -40.150 -47.519  12.313  1.00  0.00     0.298 C 
BRANCH  12  13
HETATM   13  C   UNL     1     -40.780 -46.170  11.924  1.00  0.00     0.197 C 
BRANCH  13  14
HETATM   14  O   UNL     1     -40.687 -45.952  10.514  1.00  0.00    -0.394 OA
HETATM   15  C   UNL     1     -39.670 -44.995  10.230  1.00  0.00     0.201 C 
ENDBRANCH  13  14
ENDBRANCH  12  13
ENDBRANCH   9  12
ENDBRANCH   5   6
ENDBRANCH   1   5
BRANCH   2  16
HETATM   16  C   UNL     1     -44.613 -54.098  12.770  1.00  0.00     0.142 C 
BRANCH  16  17
HETATM   17  C   UNL     1     -45.509 -53.351  13.719  1.00  0.00    -0.034 A 
HETATM   18  C   UNL     1     -46.040 -52.102  13.387  1.00  0.00     0.011 A 
HETATM   19  C   UNL     1     -46.787 -51.394  14.327  1.00  0.00     0.025 A 
HETATM   20  C   UNL     1     -46.997 -51.961  15.579  1.00  0.00     0.005 A 
HETATM   21  C   UNL     1     -47.673 -51.182  16.667  1.00  0.00     0.068 C 
HETATM   22  N   UNL     1     -46.535 -53.191  15.908  1.00  0.00    -0.369 N 
HETATM   23  C   UNL     1     -45.816 -53.856  14.975  1.00  0.00     0.095 A 
ATOM     24  HN  UNL     1     -46.721 -53.599  16.824  1.00  0.00     0.165 HD
ENDBRANCH  16  17
ENDBRANCH   2  16
TORSDOF 7
ENDMDL
MODEL 4
REMARK VINA RESULT:      -5.8      2.514      3.614
REMARK  7 active torsions:
REMARK  status: ('A' for Active; 'I' for Inactive)
REMARK    1  A    between atoms: O_2  and  C_3 
REMARK    2  A    between atoms: C_3  and  C_4 
REMARK    3  A    between atoms: C_4  and  N_5 
REMARK    4  A    between atoms: C_8  and  C_9 
REMARK    5  A    between atoms: C_9  and  N_10 
REMARK       I    between atoms: N_10  and  C_11 
REMARK    6  A    between atoms: C_11  and  C_13 
REMARK    7  A    between atoms: C_13  and  C_14 
ROOT
HETATM    1  N   UNL     1     -39.962 -50.346  13.180  1.00  0.00    -0.360 N 
HETATM    2  C   UNL     1     -39.365 -49.540  12.231  1.00  0.00     0.221 C 
HETATM    3  O   UNL     1     -38.672 -49.982  11.312  1.00  0.00    -0.273 OA
HETATM    4  H   UNL     1     -40.462 -49.921  13.948  1.00  0.00     0.162 HD
ENDROOT
BRANCH   1   5
HETATM    5  C   UNL     1     -39.755 -51.783  13.206  1.00  0.00     0.127 C 
BRANCH   5   6
HETATM    6  C   UNL     1     -40.789 -52.551  12.361  1.00  0.00     0.007 C 
HETATM    7  C   UNL     1     -42.169 -51.870  12.345  1.00  0.00     0.036 C 
HETATM    8  C   UNL     1     -42.940 -52.052  13.658  1.00  0.00     0.273 C 
HETATM    9  N   UNL     1     -43.047 -53.450  14.103  1.00  0.00     0.090 N 
HETATM   10  C   UNL     1     -41.718 -54.069  14.177  1.00  0.00     0.273 C 
HETATM   11  C   UNL     1     -40.934 -53.995  12.866  1.00  0.00     0.036 C 
BRANCH   9  12
HETATM   12  C   UNL     1     -44.034 -54.209  13.305  1.00  0.00     0.298 C 
BRANCH  12  13
HETATM   13  C   UNL     1     -45.466 -53.655  13.402  1.00  0.00     0.197 C 
BRANCH  13  14
HETATM   14  O   UNL     1     -45.856 -53.036  12.173  1.00  0.00    -0.394 OA
HETATM   15  C   UNL     1     -46.528 -51.806  12.433  1.00  0.00     0.201 C 
ENDBRANCH  13  14
ENDBRANCH  12  13
ENDBRANCH   9  12
ENDBRANCH   5   6
ENDBRANCH   1   5
BRANCH   2  16
HETATM   16  C   UNL     1     -39.603 -48.054  12.426  1.00  0.00     0.142 C 
BRANCH  16  17
HETATM   17  C   UNL     1     -40.707 -47.539  11.545  1.00  0.00    -0.034 A 
HETATM   18  C   UNL     1     -41.916 -48.227  11.416  1.00  0.00     0.011 A 
HETATM   19  C   UNL     1     -42.880 -47.773  10.518  1.00  0.00     0.025 A 
HETATM   20  C   UNL     1     -42.616 -46.628   9.775  1.00  0.00     0.005 A 
HETATM   21  C   UNL     1     -43.559 -46.181   8.699  1.00  0.00     0.068 C 
HETATM   22  N   UNL     1     -41.473 -45.915   9.917  1.00  0.00    -0.369 N 
HETATM   23  C   UNL     1     -40.557 -46.378  10.799  1.00  0.00     0.095 A 
ATOM     24  HN  UNL     1     -41.310 -45.064   9.381  1.00  0.00     0.165 HD
ENDBRANCH  16  17
ENDBRANCH   2  16
TORSDOF 7
ENDMDL
MODEL 5
REMARK VINA RESULT:      -5.8      4.161      7.126
REMARK  7 active torsions:
REMARK  status: ('A' for Active; 'I' for Inactive)
REMARK    1  A    between atoms: O_2  and  C_3 
REMARK    2  A    between atoms: C_3  and  C_4 
REMARK    3  A    between atoms: C_4  and  N_5 
REMARK    4  A    between atoms: C_8  and  C_9 
REMARK    5  A    between atoms: C_9  and  N_10 
REMARK       I    between atoms: N_10  and  C_11 
REMARK    6  A    between atoms: C_11  and  C_13 
REMARK    7  A    between atoms: C_13  and  C_14 
ROOT
HETATM    1  N   UNL     1     -42.472 -52.417  11.826  1.00  0.00    -0.360 N 
HETATM    2  C   UNL     1     -42.957 -53.309  12.761  1.00  0.00     0.221 C 
HETATM    3  O   UNL     1     -42.282 -53.730  13.704  1.00  0.00    -0.273 OA
HETATM    4  H   UNL     1     -43.052 -52.161  11.038  1.00  0.00     0.162 HD
ENDROOT
BRANCH   1   5
HETATM    5  C   UNL     1     -41.095 -51.959  11.844  1.00  0.00     0.127 C 
BRANCH   5   6
HETATM    6  C   UNL     1     -40.951 -50.514  12.357  1.00  0.00     0.007 C 
HETATM    7  C   UNL     1     -39.993 -49.670  11.499  1.00  0.00     0.036 C 
HETATM    8  C   UNL     1     -38.518 -50.018  11.732  1.00  0.00     0.273 C 
HETATM    9  N   UNL     1     -38.114 -50.001  13.146  1.00  0.00     0.090 N 
HETATM   10  C   UNL     1     -38.996 -50.862  13.943  1.00  0.00     0.273 C 
HETATM   11  C   UNL     1     -40.477 -50.505  13.819  1.00  0.00     0.036 C 
BRANCH   9  12
HETATM   12  C   UNL     1     -37.970 -48.623  13.663  1.00  0.00     0.298 C 
BRANCH  12  13
HETATM   13  C   UNL     1     -37.463 -48.556  15.114  1.00  0.00     0.197 C 
BRANCH  13  14
HETATM   14  O   UNL     1     -36.246 -47.810  15.194  1.00  0.00    -0.394 OA
HETATM   15  C   UNL     1     -35.675 -47.937  16.494  1.00  0.00     0.201 C 
ENDBRANCH  13  14
ENDBRANCH  12  13
ENDBRANCH   9  12
ENDBRANCH   5   6
ENDBRANCH   1   5
BRANCH   2  16
HETATM   16  C   UNL     1     -44.386 -53.761  12.521  1.00  0.00     0.142 C 
BRANCH  16  17
HETATM   17  C   UNL     1     -45.344 -53.153  13.507  1.00  0.00    -0.034 A 
HETATM   18  C   UNL     1     -45.944 -51.915  13.268  1.00  0.00     0.011 A 
HETATM   19  C   UNL     1     -46.752 -51.335  14.245  1.00  0.00     0.025 A 
HETATM   20  C   UNL     1     -46.951 -52.018  15.439  1.00  0.00     0.005 A 
HETATM   21  C   UNL     1     -47.695 -51.375  16.572  1.00  0.00     0.068 C 
HETATM   22  N   UNL     1     -46.420 -53.241  15.676  1.00  0.00    -0.369 N 
HETATM   23  C   UNL     1     -45.644 -53.780  14.708  1.00  0.00     0.095 A 
ATOM     24  HN  UNL     1     -46.599 -53.736  16.549  1.00  0.00     0.165 HD
ENDBRANCH  16  17
ENDBRANCH   2  16
TORSDOF 7
ENDMDL
MODEL 6
REMARK VINA RESULT:      -5.7      2.787      7.376
REMARK  7 active torsions:
REMARK  status: ('A' for Active; 'I' for Inactive)
REMARK    1  A    between atoms: O_2  and  C_3 
REMARK    2  A    between atoms: C_3  and  C_4 
REMARK    3  A    between atoms: C_4  and  N_5 
REMARK    4  A    between atoms: C_8  and  C_9 
REMARK    5  A    between atoms: C_9  and  N_10 
REMARK       I    between atoms: N_10  and  C_11 
REMARK    6  A    between atoms: C_11  and  C_13 
REMARK    7  A    between atoms: C_13  and  C_14 
ROOT
HETATM    1  N   UNL     1     -43.424 -54.499  14.132  1.00  0.00    -0.360 N 
HETATM    2  C   UNL     1     -44.575 -54.461  13.371  1.00  0.00     0.221 C 
HETATM    3  O   UNL     1     -44.579 -54.173  12.171  1.00  0.00    -0.273 OA
HETATM    4  H   UNL     1     -43.492 -54.676  15.125  1.00  0.00     0.162 HD
ENDROOT
BRANCH   1   5
HETATM    5  C   UNL     1     -42.131 -54.130  13.587  1.00  0.00     0.127 C 
BRANCH   5   6
HETATM    6  C   UNL     1     -41.559 -52.846  14.220  1.00  0.00     0.007 C 
HETATM    7  C   UNL     1     -42.599 -51.716  14.314  1.00  0.00     0.036 C 
HETATM    8  C   UNL     1     -42.887 -51.055  12.961  1.00  0.00     0.273 C 
HETATM    9  N   UNL     1     -41.683 -50.607  12.243  1.00  0.00     0.090 N 
HETATM   10  C   UNL     1     -40.728 -51.712  12.103  1.00  0.00     0.273 C 
HETATM   11  C   UNL     1     -40.335 -52.355  13.433  1.00  0.00     0.036 C 
BRANCH   9  12
HETATM   12  C   UNL     1     -41.115 -49.375  12.834  1.00  0.00     0.298 C 
BRANCH  12  13
HETATM   13  C   UNL     1     -41.105 -48.175  11.871  1.00  0.00     0.197 C 
BRANCH  13  14
HETATM   14  O   UNL     1     -41.450 -48.583  10.544  1.00  0.00    -0.394 OA
HETATM   15  C   UNL     1     -42.537 -47.802  10.057  1.00  0.00     0.201 C 
ENDBRANCH  13  14
ENDBRANCH  12  13
ENDBRANCH   9  12
ENDBRANCH   5   6
ENDBRANCH   1   5
BRANCH   2  16
HETATM   16  C   UNL     1     -45.849 -54.772  14.136  1.00  0.00     0.142 C 
BRANCH  16  17
HETATM   17  C   UNL     1     -46.238 -53.653  15.062  1.00  0.00    -0.034 A 
HETATM   18  C   UNL     1     -46.778 -52.461  14.576  1.00  0.00     0.011 A 
HETATM   19  C   UNL     1     -47.038 -51.409  15.452  1.00  0.00     0.025 A 
HETATM   20  C   UNL     1     -46.762 -51.581  16.804  1.00  0.00     0.005 A 
HETATM   21  C   UNL     1     -46.893 -50.435  17.762  1.00  0.00     0.068 C 
HETATM   22  N   UNL     1     -46.285 -52.744  17.307  1.00  0.00    -0.369 N 
HETATM   23  C   UNL     1     -46.046 -53.749  16.433  1.00  0.00     0.095 A 
ATOM     24  HN  UNL     1     -46.113 -52.858  18.306  1.00  0.00     0.165 HD
ENDBRANCH  16  17
ENDBRANCH   2  16
TORSDOF 7
ENDMDL
MODEL 7
REMARK VINA RESULT:      -5.6      3.911      5.414
REMARK  7 active torsions:
REMARK  status: ('A' for Active; 'I' for Inactive)
REMARK    1  A    between atoms: O_2  and  C_3 
REMARK    2  A    between atoms: C_3  and  C_4 
REMARK    3  A    between atoms: C_4  and  N_5 
REMARK    4  A    between atoms: C_8  and  C_9 
REMARK    5  A    between atoms: C_9  and  N_10 
REMARK       I    between atoms: N_10  and  C_11 
REMARK    6  A    between atoms: C_11  and  C_13 
REMARK    7  A    between atoms: C_13  and  C_14 
ROOT
HETATM    1  N   UNL     1     -40.043 -48.370  11.110  1.00  0.00    -0.360 N 
HETATM    2  C   UNL     1     -40.849 -47.412  11.692  1.00  0.00     0.221 C 
HETATM    3  O   UNL     1     -41.192 -47.448  12.876  1.00  0.00    -0.273 OA
HETATM    4  H   UNL     1     -39.852 -48.323  10.119  1.00  0.00     0.162 HD
ENDROOT
BRANCH   1   5
HETATM    5  C   UNL     1     -39.595 -49.541  11.841  1.00  0.00     0.127 C 
BRANCH   5   6
HETATM    6  C   UNL     1     -38.116 -49.452  12.266  1.00  0.00     0.007 C 
HETATM    7  C   UNL     1     -37.541 -50.809  12.707  1.00  0.00     0.036 C 
HETATM    8  C   UNL     1     -38.029 -51.242  14.094  1.00  0.00     0.273 C 
HETATM    9  N   UNL     1     -37.844 -50.224  15.141  1.00  0.00     0.090 N 
HETATM   10  C   UNL     1     -38.454 -48.953  14.735  1.00  0.00     0.273 C 
HETATM   11  C   UNL     1     -37.940 -48.426  13.395  1.00  0.00     0.036 C 
BRANCH   9  12
HETATM   12  C   UNL     1     -36.431 -50.119  15.564  1.00  0.00     0.298 C 
BRANCH  12  13
HETATM   13  C   UNL     1     -36.209 -49.161  16.747  1.00  0.00     0.197 C 
BRANCH  13  14
HETATM   14  O   UNL     1     -35.041 -48.361  16.543  1.00  0.00    -0.394 OA
HETATM   15  C   UNL     1     -34.960 -47.345  17.540  1.00  0.00     0.201 C 
ENDBRANCH  13  14
ENDBRANCH  12  13
ENDBRANCH   9  12
ENDBRANCH   5   6
ENDBRANCH   1   5
BRANCH   2  16
HETATM   16  C   UNL     1     -41.311 -46.318  10.746  1.00  0.00     0.142 C 
BRANCH  16  17
HETATM   17  C   UNL     1     -42.675 -46.600  10.179  1.00  0.00    -0.034 A 
HETATM   18  C   UNL     1     -43.307 -45.698   9.322  1.00  0.00     0.011 A 
HETATM   19  C   UNL     1     -44.609 -45.945   8.892  1.00  0.00     0.025 A 
HETATM   20  C   UNL     1     -45.247 -47.103   9.321  1.00  0.00     0.005 A 
HETATM   21  C   UNL     1     -46.691 -47.345   9.000  1.00  0.00     0.068 C 
HETATM   22  N   UNL     1     -44.638 -48.018  10.113  1.00  0.00    -0.369 N 
HETATM   23  C   UNL     1     -43.373 -47.753  10.512  1.00  0.00     0.095 A 
ATOM     24  HN  UNL     1     -45.115 -48.874  10.397  1.00  0.00     0.165 HD
ENDBRANCH  16  17
ENDBRANCH   2  16
TORSDOF 7
ENDMDL
MODEL 8
REMARK VINA RESULT:      -5.6      3.041      7.078
REMARK  7 active torsions:
REMARK  status: ('A' for Active; 'I' for Inactive)
REMARK    1  A    between atoms: O_2  and  C_3 
REMARK    2  A    between atoms: C_3  and  C_4 
REMARK    3  A    between atoms: C_4  and  N_5 
REMARK    4  A    between atoms: C_8  and  C_9 
REMARK    5  A    between atoms: C_9  and  N_10 
REMARK       I    between atoms: N_10  and  C_11 
REMARK    6  A    between atoms: C_11  and  C_13 
REMARK    7  A    between atoms: C_13  and  C_14 
ROOT
HETATM    1  N   UNL     1     -40.369 -52.192  14.234  1.00  0.00    -0.360 N 
HETATM    2  C   UNL     1     -40.407 -53.554  14.014  1.00  0.00     0.221 C 
HETATM    3  O   UNL     1     -39.573 -54.149  13.326  1.00  0.00    -0.273 OA
HETATM    4  H   UNL     1     -41.117 -51.752  14.751  1.00  0.00     0.162 HD
ENDROOT
BRANCH   1   5
HETATM    5  C   UNL     1     -39.374 -51.341  13.608  1.00  0.00     0.127 C 
BRANCH   5   6
HETATM    6  C   UNL     1     -39.803 -50.847  12.213  1.00  0.00     0.007 C 
HETATM    7  C   UNL     1     -38.883 -49.742  11.665  1.00  0.00     0.036 C 
HETATM    8  C   UNL     1     -39.113 -48.384  12.340  1.00  0.00     0.273 C 
HETATM    9  N   UNL     1     -40.518 -47.947  12.346  1.00  0.00     0.090 N 
HETATM   10  C   UNL     1     -41.376 -48.984  12.931  1.00  0.00     0.273 C 
HETATM   11  C   UNL     1     -41.254 -50.343  12.241  1.00  0.00     0.036 C 
BRANCH   9  12
HETATM   12  C   UNL     1     -40.954 -47.469  11.016  1.00  0.00     0.298 C 
BRANCH  12  13
HETATM   13  C   UNL     1     -40.491 -46.038  10.691  1.00  0.00     0.197 C 
BRANCH  13  14
HETATM   14  O   UNL     1     -41.512 -45.320   9.992  1.00  0.00    -0.394 OA
HETATM   15  C   UNL     1     -42.692 -46.112   9.894  1.00  0.00     0.201 C 
ENDBRANCH  13  14
ENDBRANCH  12  13
ENDBRANCH   9  12
ENDBRANCH   5   6
ENDBRANCH   1   5
BRANCH   2  16
HETATM   16  C   UNL     1     -41.581 -54.266  14.661  1.00  0.00     0.142 C 
BRANCH  16  17
HETATM   17  C   UNL     1     -42.901 -53.699  14.215  1.00  0.00    -0.034 A 
HETATM   18  C   UNL     1     -43.312 -53.776  12.883  1.00  0.00     0.011 A 
HETATM   19  C   UNL     1     -44.495 -53.156  12.485  1.00  0.00     0.025 A 
HETATM   20  C   UNL     1     -45.250 -52.481  13.438  1.00  0.00     0.005 A 
HETATM   21  C   UNL     1     -46.453 -51.684  13.034  1.00  0.00     0.068 C 
HETATM   22  N   UNL     1     -44.898 -52.434  14.745  1.00  0.00    -0.369 N 
HETATM   23  C   UNL     1     -43.746 -53.047  15.102  1.00  0.00     0.095 A 
ATOM     24  HN  UNL     1     -45.479 -51.955  15.433  1.00  0.00     0.165 HD
ENDBRANCH  16  17
ENDBRANCH   2  16
TORSDOF 7
ENDMDL
MODEL 9
REMARK VINA RESULT:      -5.6      3.149      7.436
REMARK  7 active torsions:
REMARK  status: ('A' for Active; 'I' for Inactive)
REMARK    1  A    between atoms: O_2  and  C_3 
REMARK    2  A    between atoms: C_3  and  C_4 
REMARK    3  A    between atoms: C_4  and  N_5 
REMARK    4  A    between atoms: C_8  and  C_9 
REMARK    5  A    between atoms: C_9  and  N_10 
REMARK       I    between atoms: N_10  and  C_11 
REMARK    6  A    between atoms: C_11  and  C_13 
REMARK    7  A    between atoms: C_13  and  C_14 
ROOT
HETATM    1  N   UNL     1     -42.630 -51.004  12.139  1.00  0.00    -0.360 N 
HETATM    2  C   UNL     1     -42.543 -52.325  12.532  1.00  0.00     0.221 C 
HETATM    3  O   UNL     1     -41.503 -52.834  12.955  1.00  0.00    -0.273 OA
HETATM    4  H   UNL     1     -43.492 -50.662  11.737  1.00  0.00     0.162 HD
ENDROOT
BRANCH   1   5
HETATM    5  C   UNL     1     -41.472 -50.129  12.129  1.00  0.00     0.127 C 
BRANCH   5   6
HETATM    6  C   UNL     1     -41.650 -48.912  11.200  1.00  0.00     0.007 C 
HETATM    7  C   UNL     1     -40.476 -47.922  11.286  1.00  0.00     0.036 C 
HETATM    8  C   UNL     1     -40.494 -47.085  12.571  1.00  0.00     0.273 C 
HETATM    9  N   UNL     1     -41.775 -46.409  12.830  1.00  0.00     0.090 N 
HETATM   10  C   UNL     1     -42.879 -47.376  12.809  1.00  0.00     0.273 C 
HETATM   11  C   UNL     1     -42.965 -48.181  11.513  1.00  0.00     0.036 C 
BRANCH   9  12
HETATM   12  C   UNL     1     -41.969 -45.238  11.949  1.00  0.00     0.298 C 
BRANCH  12  13
HETATM   13  C   UNL     1     -40.703 -44.382  11.768  1.00  0.00     0.197 C 
BRANCH  13  14
HETATM   14  O   UNL     1     -40.513 -44.037  10.393  1.00  0.00    -0.394 OA
HETATM   15  C   UNL     1     -39.373 -44.712   9.870  1.00  0.00     0.201 C 
ENDBRANCH  13  14
ENDBRANCH  12  13
ENDBRANCH   9  12
ENDBRANCH   5   6
ENDBRANCH   1   5
BRANCH   2  16
HETATM   16  C   UNL     1     -43.828 -53.117  12.371  1.00  0.00     0.142 C 
BRANCH  16  17
HETATM   17  C   UNL     1     -44.868 -52.717  13.380  1.00  0.00    -0.034 A 
HETATM   18  C   UNL     1     -45.908 -51.847  13.045  1.00  0.00     0.011 A 
HETATM   19  C   UNL     1     -46.799 -51.421  14.028  1.00  0.00     0.025 A 
HETATM   20  C   UNL     1     -46.635 -51.887  15.328  1.00  0.00     0.005 A 
HETATM   21  C   UNL     1     -47.479 -51.351  16.445  1.00  0.00     0.068 C 
HETATM   22  N   UNL     1     -45.665 -52.769  15.667  1.00  0.00    -0.369 N 
HETATM   23  C   UNL     1     -44.817 -53.168  14.692  1.00  0.00     0.095 A 
ATOM     24  HN  UNL     1     -45.577 -53.119  16.621  1.00  0.00     0.165 HD
ENDBRANCH  16  17
ENDBRANCH   2  16
TORSDOF 7
ENDMDL
