MODEL 1
REMARK VINA RESULT:      -6.9      0.000      0.000
REMARK  5 active torsions:
REMARK  status: ('A' for Active; 'I' for Inactive)
REMARK    1  A    between atoms: C_2  and  C_3 
REMARK    2  A    between atoms: C_3  and  C_4 
REMARK    3  A    between atoms: C_3  and  C_6 
REMARK       I    between atoms: C_6  and  N_8 
REMARK    4  A    between atoms: C_11  and  N_14 
REMARK       I    between atoms: N_14  and  C_15 
REMARK       I    between atoms: C_15  and  N_17 
REMARK    5  A    between atoms: N_17  and  C_18 
ROOT
HETATM    1  N   UNL     1     -42.791 -49.482  11.699  1.00  0.00    -0.338 N 
HETATM    2  C   UNL     1     -43.057 -50.405  12.686  1.00  0.00     0.321 C 
HETATM    3  O   UNL     1     -43.712 -50.152  13.688  1.00  0.00    -0.247 OA
HETATM    4  N   UNL     1     -42.561 -51.643  12.335  1.00  0.00    -0.308 N 
HETATM    5  H   UNL     1     -41.875 -49.571  11.280  1.00  0.00     0.164 HD
HETATM    6  H   UNL     1     -42.530 -51.781  11.334  1.00  0.00     0.170 HD
ENDROOT
BRANCH   1   7
HETATM    7  C   UNL     1     -43.402 -48.158  11.746  1.00  0.00     0.089 C 
HETATM    8  C   UNL     1     -43.276 -47.456  10.392  1.00  0.00     0.045 C 
HETATM    9  C   UNL     1     -41.863 -46.940  10.140  1.00  0.00     0.127 C 
HETATM   10  N   UNL     1     -41.401 -46.125  11.259  1.00  0.00    -0.352 N 
HETATM   11  C   UNL     1     -40.647 -44.990  10.973  1.00  0.00     0.224 C 
HETATM   12  C   UNL     1     -41.446 -46.778  12.566  1.00  0.00     0.127 C 
HETATM   13  O   UNL     1     -40.268 -44.747   9.825  1.00  0.00    -0.273 OA
HETATM   14  C   UNL     1     -42.845 -47.289  12.878  1.00  0.00     0.045 C 
BRANCH  11  15
HETATM   15  C   UNL     1     -40.373 -44.007  12.122  1.00  0.00     0.077 C 
BRANCH  15  16
HETATM   16  C   UNL     1     -38.960 -44.243  12.701  1.00  0.00     0.009 C 
HETATM   17  C   UNL     1     -38.959 -45.005  14.017  1.00  0.00     0.006 C 
ENDBRANCH  15  16
BRANCH  15  18
HETATM   18  C   UNL     1     -40.613 -42.550  11.670  1.00  0.00     0.009 C 
HETATM   19  C   UNL     1     -40.108 -41.488  12.639  1.00  0.00     0.006 C 
ENDBRANCH  15  18
ENDBRANCH  11  15
ENDBRANCH   1   7
BRANCH   4  20
HETATM   20  C   UNL     1     -42.691 -52.767  13.115  1.00  0.00     0.052 A 
HETATM   21  C   UNL     1     -41.753 -53.195  13.976  1.00  0.00     0.121 A 
HETATM   22  N   UNL     1     -41.967 -54.308  14.746  1.00  0.00    -0.331 N 
HETATM   23  C   UNL     1     -43.133 -55.039  14.744  1.00  0.00     0.251 A 
HETATM   24  H   UNL     1     -41.250 -54.624  15.389  1.00  0.00     0.168 HD
HETATM   25  O   UNL     1     -43.282 -56.017  15.462  1.00  0.00    -0.268 OA
HETATM   26  C   UNL     1     -44.200 -54.557  13.811  1.00  0.00     0.008 A 
HETATM   27  C   UNL     1     -45.520 -55.254  13.815  1.00  0.00     0.054 C 
HETATM   28  C   UNL     1     -43.940 -53.499  13.020  1.00  0.00     0.043 A 
ENDBRANCH   4  20
TORSDOF 5
ENDMDL
MODEL 2
REMARK VINA RESULT:      -6.4      2.854      9.364
REMARK  5 active torsions:
REMARK  status: ('A' for Active; 'I' for Inactive)
REMARK    1  A    between atoms: C_2  and  C_3 
REMARK    2  A    between atoms: C_3  and  C_4 
REMARK    3  A    between atoms: C_3  and  C_6 
REMARK       I    between atoms: C_6  and  N_8 
REMARK    4  A    between atoms: C_11  and  N_14 
REMARK       I    between atoms: N_14  and  C_15 
REMARK       I    between atoms: C_15  and  N_17 
REMARK    5  A    between atoms: N_17  and  C_18 
ROOT
HETATM    1  N   UNL     1     -41.195 -50.949  13.307  1.00  0.00    -0.338 N 
HETATM    2  C   UNL     1     -41.181 -50.125  12.202  1.00  0.00     0.321 C 
HETATM    3  O   UNL     1     -40.440 -50.295  11.243  1.00  0.00    -0.247 OA
HETATM    4  N   UNL     1     -42.163 -49.162  12.306  1.00  0.00    -0.308 N 
HETATM    5  H   UNL     1     -41.359 -50.470  14.182  1.00  0.00     0.164 HD
HETATM    6  H   UNL     1     -42.955 -49.470  12.852  1.00  0.00     0.170 HD
ENDROOT
BRANCH   1   7
HETATM    7  C   UNL     1     -40.394 -52.167  13.325  1.00  0.00     0.089 C 
HETATM    8  C   UNL     1     -41.216 -53.362  12.838  1.00  0.00     0.045 C 
HETATM    9  C   UNL     1     -42.212 -53.843  13.889  1.00  0.00     0.127 C 
HETATM   10  N   UNL     1     -41.545 -54.082  15.165  1.00  0.00    -0.352 N 
HETATM   11  C   UNL     1     -41.950 -55.180  15.919  1.00  0.00     0.224 C 
HETATM   12  C   UNL     1     -40.796 -52.945  15.699  1.00  0.00     0.127 C 
HETATM   13  O   UNL     1     -42.926 -55.857  15.588  1.00  0.00    -0.273 OA
HETATM   14  C   UNL     1     -39.768 -52.443  14.696  1.00  0.00     0.045 C 
BRANCH  11  15
HETATM   15  C   UNL     1     -41.090 -55.571  17.131  1.00  0.00     0.077 C 
BRANCH  15  16
HETATM   16  C   UNL     1     -41.982 -56.141  18.257  1.00  0.00     0.009 C 
HETATM   17  C   UNL     1     -41.198 -56.808  19.376  1.00  0.00     0.006 C 
ENDBRANCH  15  16
BRANCH  15  18
HETATM   18  C   UNL     1     -39.948 -56.523  16.713  1.00  0.00     0.009 C 
HETATM   19  C   UNL     1     -38.613 -55.841  16.443  1.00  0.00     0.006 C 
ENDBRANCH  15  18
ENDBRANCH  11  15
ENDBRANCH   1   7
BRANCH   4  20
HETATM   20  C   UNL     1     -42.401 -48.209  11.345  1.00  0.00     0.052 A 
HETATM   21  C   UNL     1     -41.450 -47.417  10.822  1.00  0.00     0.121 A 
HETATM   22  N   UNL     1     -41.758 -46.509   9.842  1.00  0.00    -0.331 N 
HETATM   23  C   UNL     1     -43.010 -46.358   9.292  1.00  0.00     0.251 A 
HETATM   24  H   UNL     1     -41.032 -45.914   9.459  1.00  0.00     0.168 HD
HETATM   25  O   UNL     1     -43.231 -45.544   8.408  1.00  0.00    -0.268 OA
HETATM   26  C   UNL     1     -44.074 -47.254   9.844  1.00  0.00     0.008 A 
HETATM   27  C   UNL     1     -45.437 -47.201   9.237  1.00  0.00     0.054 C 
HETATM   28  C   UNL     1     -43.759 -48.092  10.849  1.00  0.00     0.043 A 
ENDBRANCH   4  20
TORSDOF 5
ENDMDL
MODEL 3
REMARK VINA RESULT:      -6.2      2.635      9.905
REMARK  5 active torsions:
REMARK  status: ('A' for Active; 'I' for Inactive)
REMARK    1  A    between atoms: C_2  and  C_3 
REMARK    2  A    between atoms: C_3  and  C_4 
REMARK    3  A    between atoms: C_3  and  C_6 
REMARK       I    between atoms: C_6  and  N_8 
REMARK    4  A    between atoms: C_11  and  N_14 
REMARK       I    between atoms: N_14  and  C_15 
REMARK       I    between atoms: C_15  and  N_17 
REMARK    5  A    between atoms: N_17  and  C_18 
ROOT
HETATM    1  N   UNL     1     -40.794 -51.403  13.474  1.00  0.00    -0.338 N 
HETATM    2  C   UNL     1     -40.263 -50.372  12.730  1.00  0.00     0.321 C 
HETATM    3  O   UNL     1     -39.165 -50.423  12.193  1.00  0.00    -0.247 OA
HETATM    4  N   UNL     1     -41.174 -49.343  12.614  1.00  0.00    -0.308 N 
HETATM    5  H   UNL     1     -41.339 -51.104  14.271  1.00  0.00     0.164 HD
HETATM    6  H   UNL     1     -42.131 -49.662  12.656  1.00  0.00     0.170 HD
ENDROOT
BRANCH   1   7
HETATM    7  C   UNL     1     -40.102 -52.685  13.552  1.00  0.00     0.089 C 
HETATM    8  C   UNL     1     -40.998 -53.814  13.039  1.00  0.00     0.045 C 
HETATM    9  C   UNL     1     -42.085 -54.189  14.042  1.00  0.00     0.127 C 
HETATM   10  N   UNL     1     -41.508 -54.460  15.354  1.00  0.00    -0.352 N 
HETATM   11  C   UNL     1     -42.045 -55.506  16.101  1.00  0.00     0.224 C 
HETATM   12  C   UNL     1     -40.693 -53.381  15.912  1.00  0.00     0.127 C 
HETATM   13  O   UNL     1     -43.057 -56.103  15.728  1.00  0.00    -0.273 OA
HETATM   14  C   UNL     1     -39.575 -52.988  14.958  1.00  0.00     0.045 C 
BRANCH  11  15
HETATM   15  C   UNL     1     -41.285 -55.946  17.362  1.00  0.00     0.077 C 
BRANCH  15  16
HETATM   16  C   UNL     1     -42.282 -56.364  18.467  1.00  0.00     0.009 C 
HETATM   17  C   UNL     1     -41.623 -56.643  19.809  1.00  0.00     0.006 C 
ENDBRANCH  15  16
BRANCH  15  18
HETATM   18  C   UNL     1     -40.249 -57.041  17.028  1.00  0.00     0.009 C 
HETATM   19  C   UNL     1     -38.794 -56.606  17.157  1.00  0.00     0.006 C 
ENDBRANCH  15  18
ENDBRANCH  11  15
ENDBRANCH   1   7
BRANCH   4  20
HETATM   20  C   UNL     1     -40.932 -48.186  11.912  1.00  0.00     0.052 A 
HETATM   21  C   UNL     1     -41.383 -47.956  10.668  1.00  0.00     0.121 A 
HETATM   22  N   UNL     1     -41.129 -46.762  10.042  1.00  0.00    -0.331 N 
HETATM   23  C   UNL     1     -40.454 -45.713  10.622  1.00  0.00     0.251 A 
HETATM   24  H   UNL     1     -41.471 -46.602   9.102  1.00  0.00     0.168 HD
HETATM   25  O   UNL     1     -40.267 -44.661  10.028  1.00  0.00    -0.268 OA
HETATM   26  C   UNL     1     -39.972 -45.943  12.020  1.00  0.00     0.008 A 
HETATM   27  C   UNL     1     -39.302 -44.818  12.738  1.00  0.00     0.054 C 
HETATM   28  C   UNL     1     -40.179 -47.146  12.587  1.00  0.00     0.043 A 
ENDBRANCH   4  20
TORSDOF 5
ENDMDL
MODEL 4
REMARK VINA RESULT:      -6.2      2.305      3.078
REMARK  5 active torsions:
REMARK  status: ('A' for Active; 'I' for Inactive)
REMARK    1  A    between atoms: C_2  and  C_3 
REMARK    2  A    between atoms: C_3  and  C_4 
REMARK    3  A    between atoms: C_3  and  C_6 
REMARK       I    between atoms: C_6  and  N_8 
REMARK    4  A    between atoms: C_11  and  N_14 
REMARK       I    between atoms: N_14  and  C_15 
REMARK       I    between atoms: C_15  and  N_17 
REMARK    5  A    between atoms: N_17  and  C_18 
ROOT
HETATM    1  N   UNL     1     -42.824 -48.997  12.147  1.00  0.00    -0.338 N 
HETATM    2  C   UNL     1     -43.128 -50.093  12.924  1.00  0.00     0.321 C 
HETATM    3  O   UNL     1     -42.409 -50.502  13.825  1.00  0.00    -0.247 OA
HETATM    4  N   UNL     1     -44.373 -50.587  12.594  1.00  0.00    -0.308 N 
HETATM    5  H   UNL     1     -43.108 -49.079  11.180  1.00  0.00     0.164 HD
HETATM    6  H   UNL     1     -44.995 -49.874  12.240  1.00  0.00     0.170 HD
ENDROOT
BRANCH   1   7
HETATM    7  C   UNL     1     -41.658 -48.177  12.458  1.00  0.00     0.089 C 
HETATM    8  C   UNL     1     -41.890 -47.371  13.738  1.00  0.00     0.045 C 
HETATM    9  C   UNL     1     -42.827 -46.188  13.512  1.00  0.00     0.127 C 
HETATM   10  N   UNL     1     -42.373 -45.373  12.390  1.00  0.00    -0.352 N 
HETATM   11  C   UNL     1     -42.493 -43.990  12.496  1.00  0.00     0.224 C 
HETATM   12  C   UNL     1     -42.197 -46.092  11.129  1.00  0.00     0.127 C 
HETATM   13  O   UNL     1     -43.081 -43.471  13.448  1.00  0.00    -0.273 OA
HETATM   14  C   UNL     1     -41.247 -47.269  11.294  1.00  0.00     0.045 C 
BRANCH  11  15
HETATM   15  C   UNL     1     -41.796 -43.129  11.432  1.00  0.00     0.077 C 
BRANCH  15  16
HETATM   16  C   UNL     1     -42.719 -41.969  10.994  1.00  0.00     0.009 C 
HETATM   17  C   UNL     1     -42.052 -40.604  11.049  1.00  0.00     0.006 C 
ENDBRANCH  15  16
BRANCH  15  18
HETATM   18  C   UNL     1     -40.412 -42.655  11.925  1.00  0.00     0.009 C 
HETATM   19  C   UNL     1     -39.631 -43.688  12.728  1.00  0.00     0.006 C 
ENDBRANCH  15  18
ENDBRANCH  11  15
ENDBRANCH   1   7
BRANCH   4  20
HETATM   20  C   UNL     1     -44.953 -51.669  13.213  1.00  0.00     0.052 A 
HETATM   21  C   UNL     1     -44.678 -52.946  12.904  1.00  0.00     0.121 A 
HETATM   22  N   UNL     1     -45.273 -53.975  13.588  1.00  0.00    -0.331 N 
HETATM   23  C   UNL     1     -46.141 -53.803  14.642  1.00  0.00     0.251 A 
HETATM   24  H   UNL     1     -45.061 -54.935  13.343  1.00  0.00     0.168 HD
HETATM   25  O   UNL     1     -46.634 -54.754  15.232  1.00  0.00    -0.268 OA
HETATM   26  C   UNL     1     -46.434 -52.384  15.018  1.00  0.00     0.008 A 
HETATM   27  C   UNL     1     -47.304 -52.125  16.204  1.00  0.00     0.054 C 
HETATM   28  C   UNL     1     -45.885 -51.394  14.289  1.00  0.00     0.043 A 
ENDBRANCH   4  20
TORSDOF 5
ENDMDL
MODEL 5
REMARK VINA RESULT:      -6.1      2.711      9.298
REMARK  5 active torsions:
REMARK  status: ('A' for Active; 'I' for Inactive)
REMARK    1  A    between atoms: C_2  and  C_3 
REMARK    2  A    between atoms: C_3  and  C_4 
REMARK    3  A    between atoms: C_3  and  C_6 
REMARK       I    between atoms: C_6  and  N_8 
REMARK    4  A    between atoms: C_11  and  N_14 
REMARK       I    between atoms: N_14  and  C_15 
REMARK       I    between atoms: C_15  and  N_17 
REMARK    5  A    between atoms: N_17  and  C_18 
ROOT
HETATM    1  N   UNL     1     -41.776 -51.722  12.332  1.00  0.00    -0.338 N 
HETATM    2  C   UNL     1     -42.076 -50.384  12.196  1.00  0.00     0.321 C 
HETATM    3  O   UNL     1     -42.921 -49.810  12.870  1.00  0.00    -0.247 OA
HETATM    4  N   UNL     1     -41.239 -49.794  11.273  1.00  0.00    -0.308 N 
HETATM    5  H   UNL     1     -41.553 -52.189  11.464  1.00  0.00     0.164 HD
HETATM    6  H   UNL     1     -40.337 -50.246  11.218  1.00  0.00     0.170 HD
ENDROOT
BRANCH   1   7
HETATM    7  C   UNL     1     -42.382 -52.506  13.403  1.00  0.00     0.089 C 
HETATM    8  C   UNL     1     -42.099 -51.869  14.765  1.00  0.00     0.045 C 
HETATM    9  C   UNL     1     -40.664 -52.104  15.224  1.00  0.00     0.127 C 
HETATM   10  N   UNL     1     -40.327 -53.523  15.169  1.00  0.00    -0.352 N 
HETATM   11  C   UNL     1     -39.539 -54.048  16.190  1.00  0.00     0.224 C 
HETATM   12  C   UNL     1     -40.524 -54.160  13.867  1.00  0.00     0.127 C 
HETATM   13  O   UNL     1     -39.031 -53.318  17.045  1.00  0.00    -0.273 OA
HETATM   14  C   UNL     1     -41.952 -53.976  13.375  1.00  0.00     0.045 C 
BRANCH  11  15
HETATM   15  C   UNL     1     -39.392 -55.576  16.264  1.00  0.00     0.077 C 
BRANCH  15  16
HETATM   16  C   UNL     1     -37.929 -55.956  16.584  1.00  0.00     0.009 C 
HETATM   17  C   UNL     1     -37.761 -56.665  17.919  1.00  0.00     0.006 C 
ENDBRANCH  15  16
BRANCH  15  18
HETATM   18  C   UNL     1     -40.412 -56.180  17.254  1.00  0.00     0.009 C 
HETATM   19  C   UNL     1     -41.805 -56.403  16.680  1.00  0.00     0.006 C 
ENDBRANCH  15  18
ENDBRANCH  11  15
ENDBRANCH   1   7
BRANCH   4  20
HETATM   20  C   UNL     1     -41.288 -48.461  10.940  1.00  0.00     0.052 A 
HETATM   21  C   UNL     1     -42.122 -47.949  10.020  1.00  0.00     0.121 A 
HETATM   22  N   UNL     1     -42.138 -46.602   9.763  1.00  0.00    -0.331 N 
HETATM   23  C   UNL     1     -41.364 -45.679  10.427  1.00  0.00     0.251 A 
HETATM   24  H   UNL     1     -42.769 -46.228   9.064  1.00  0.00     0.168 HD
HETATM   25  O   UNL     1     -41.425 -44.485  10.173  1.00  0.00    -0.268 OA
HETATM   26  C   UNL     1     -40.451 -46.231  11.477  1.00  0.00     0.008 A 
HETATM   27  C   UNL     1     -39.641 -45.278  12.292  1.00  0.00     0.054 C 
HETATM   28  C   UNL     1     -40.409 -47.564  11.664  1.00  0.00     0.043 A 
ENDBRANCH   4  20
TORSDOF 5
ENDMDL
MODEL 6
REMARK VINA RESULT:      -5.9      5.786      8.671
REMARK  5 active torsions:
REMARK  status: ('A' for Active; 'I' for Inactive)
REMARK    1  A    between atoms: C_2  and  C_3 
REMARK    2  A    between atoms: C_3  and  C_4 
REMARK    3  A    between atoms: C_3  and  C_6 
REMARK       I    between atoms: C_6  and  N_8 
REMARK    4  A    between atoms: C_11  and  N_14 
REMARK       I    between atoms: N_14  and  C_15 
REMARK       I    between atoms: C_15  and  N_17 
REMARK    5  A    between atoms: N_17  and  C_18 
ROOT
HETATM    1  N   UNL     1     -40.342 -54.289  15.879  1.00  0.00    -0.338 N 
HETATM    2  C   UNL     1     -39.272 -55.144  16.027  1.00  0.00     0.321 C 
HETATM    3  O   UNL     1     -38.806 -55.807  15.110  1.00  0.00    -0.247 OA
HETATM    4  N   UNL     1     -38.770 -55.071  17.309  1.00  0.00    -0.308 N 
HETATM    5  H   UNL     1     -40.963 -54.255  16.676  1.00  0.00     0.164 HD
HETATM    6  H   UNL     1     -38.916 -54.166  17.734  1.00  0.00     0.170 HD
ENDROOT
BRANCH   1   7
HETATM    7  C   UNL     1     -40.902 -54.033  14.556  1.00  0.00     0.089 C 
HETATM    8  C   UNL     1     -40.876 -52.537  14.238  1.00  0.00     0.045 C 
HETATM    9  C   UNL     1     -41.958 -51.769  14.990  1.00  0.00     0.127 C 
HETATM   10  N   UNL     1     -43.267 -52.381  14.783  1.00  0.00    -0.352 N 
HETATM   11  C   UNL     1     -44.366 -51.540  14.634  1.00  0.00     0.224 C 
HETATM   12  C   UNL     1     -43.354 -53.799  15.133  1.00  0.00     0.127 C 
HETATM   13  O   UNL     1     -44.265 -50.322  14.799  1.00  0.00    -0.273 OA
HETATM   14  C   UNL     1     -42.309 -54.615  14.387  1.00  0.00     0.045 C 
BRANCH  11  15
HETATM   15  C   UNL     1     -45.690 -52.170  14.174  1.00  0.00     0.077 C 
BRANCH  15  16
HETATM   16  C   UNL     1     -46.886 -51.348  14.708  1.00  0.00     0.009 C 
HETATM   17  C   UNL     1     -47.225 -51.638  16.161  1.00  0.00     0.006 C 
ENDBRANCH  15  16
BRANCH  15  18
HETATM   18  C   UNL     1     -45.711 -52.354  12.641  1.00  0.00     0.009 C 
HETATM   19  C   UNL     1     -46.891 -51.699  11.934  1.00  0.00     0.006 C 
ENDBRANCH  15  18
ENDBRANCH  11  15
ENDBRANCH   1   7
BRANCH   4  20
HETATM   20  C   UNL     1     -37.689 -55.798  17.748  1.00  0.00     0.052 A 
HETATM   21  C   UNL     1     -36.425 -55.343  17.737  1.00  0.00     0.121 A 
HETATM   22  N   UNL     1     -35.401 -56.115  18.222  1.00  0.00    -0.331 N 
HETATM   23  C   UNL     1     -35.569 -57.360  18.784  1.00  0.00     0.251 A 
HETATM   24  H   UNL     1     -34.451 -55.763  18.205  1.00  0.00     0.168 HD
HETATM   25  O   UNL     1     -34.624 -58.003  19.217  1.00  0.00    -0.268 OA
HETATM   26  C   UNL     1     -36.976 -57.867  18.830  1.00  0.00     0.008 A 
HETATM   27  C   UNL     1     -37.241 -59.176  19.498  1.00  0.00     0.054 C 
HETATM   28  C   UNL     1     -37.954 -57.117  18.289  1.00  0.00     0.043 A 
ENDBRANCH   4  20
TORSDOF 5
ENDMDL
MODEL 7
REMARK VINA RESULT:      -5.8      1.981      9.414
REMARK  5 active torsions:
REMARK  status: ('A' for Active; 'I' for Inactive)
REMARK    1  A    between atoms: C_2  and  C_3 
REMARK    2  A    between atoms: C_3  and  C_4 
REMARK    3  A    between atoms: C_3  and  C_6 
REMARK       I    between atoms: C_6  and  N_8 
REMARK    4  A    between atoms: C_11  and  N_14 
REMARK       I    between atoms: N_14  and  C_15 
REMARK       I    between atoms: C_15  and  N_17 
REMARK    5  A    between atoms: N_17  and  C_18 
ROOT
HETATM    1  N   UNL     1     -43.077 -51.039  12.521  1.00  0.00    -0.338 N 
HETATM    2  C   UNL     1     -42.197 -50.071  12.090  1.00  0.00     0.321 C 
HETATM    3  O   UNL     1     -41.013 -50.286  11.866  1.00  0.00    -0.247 OA
HETATM    4  N   UNL     1     -42.858 -48.880  11.873  1.00  0.00    -0.308 N 
HETATM    5  H   UNL     1     -43.774 -50.708  13.174  1.00  0.00     0.164 HD
HETATM    6  H   UNL     1     -43.825 -49.012  11.613  1.00  0.00     0.170 HD
ENDROOT
BRANCH   1   7
HETATM    7  C   UNL     1     -42.652 -52.431  12.610  1.00  0.00     0.089 C 
HETATM    8  C   UNL     1     -43.864 -53.362  12.684  1.00  0.00     0.045 C 
HETATM    9  C   UNL     1     -44.527 -53.338  14.057  1.00  0.00     0.127 C 
HETATM   10  N   UNL     1     -43.547 -53.582  15.111  1.00  0.00    -0.352 N 
HETATM   11  C   UNL     1     -43.932 -54.368  16.193  1.00  0.00     0.224 C 
HETATM   12  C   UNL     1     -42.400 -52.674  15.116  1.00  0.00     0.127 C 
HETATM   13  O   UNL     1     -45.100 -54.741  16.328  1.00  0.00    -0.273 OA
HETATM   14  C   UNL     1     -41.686 -52.682  13.773  1.00  0.00     0.045 C 
BRANCH  11  15
HETATM   15  C   UNL     1     -42.837 -54.824  17.170  1.00  0.00     0.077 C 
BRANCH  15  16
HETATM   16  C   UNL     1     -43.447 -55.108  18.561  1.00  0.00     0.009 C 
HETATM   17  C   UNL     1     -42.409 -55.274  19.660  1.00  0.00     0.006 C 
ENDBRANCH  15  16
BRANCH  15  18
HETATM   18  C   UNL     1     -42.047 -56.019  16.594  1.00  0.00     0.009 C 
HETATM   19  C   UNL     1     -40.568 -55.748  16.346  1.00  0.00     0.006 C 
ENDBRANCH  15  18
ENDBRANCH  11  15
ENDBRANCH   1   7
BRANCH   4  20
HETATM   20  C   UNL     1     -42.242 -47.737  11.422  1.00  0.00     0.052 A 
HETATM   21  C   UNL     1     -42.124 -47.411  10.124  1.00  0.00     0.121 A 
HETATM   22  N   UNL     1     -41.525 -46.235   9.750  1.00  0.00    -0.331 N 
HETATM   23  C   UNL     1     -41.047 -45.295  10.634  1.00  0.00     0.251 A 
HETATM   24  H   UNL     1     -41.438 -46.002   8.768  1.00  0.00     0.168 HD
HETATM   25  O   UNL     1     -40.534 -44.254  10.251  1.00  0.00    -0.268 OA
HETATM   26  C   UNL     1     -41.198 -45.631  12.085  1.00  0.00     0.008 A 
HETATM   27  C   UNL     1     -40.774 -44.621  13.099  1.00  0.00     0.054 C 
HETATM   28  C   UNL     1     -41.732 -46.820  12.423  1.00  0.00     0.043 A 
ENDBRANCH   4  20
TORSDOF 5
ENDMDL
MODEL 8
REMARK VINA RESULT:      -5.8      3.353      9.286
REMARK  5 active torsions:
REMARK  status: ('A' for Active; 'I' for Inactive)
REMARK    1  A    between atoms: C_2  and  C_3 
REMARK    2  A    between atoms: C_3  and  C_4 
REMARK    3  A    between atoms: C_3  and  C_6 
REMARK       I    between atoms: C_6  and  N_8 
REMARK    4  A    between atoms: C_11  and  N_14 
REMARK       I    between atoms: N_14  and  C_15 
REMARK       I    between atoms: C_15  and  N_17 
REMARK    5  A    between atoms: N_17  and  C_18 
ROOT
HETATM    1  N   UNL     1     -40.804 -50.579  13.530  1.00  0.00    -0.338 N 
HETATM    2  C   UNL     1     -40.999 -49.329  12.985  1.00  0.00     0.321 C 
HETATM    3  O   UNL     1     -40.439 -48.320  13.393  1.00  0.00    -0.247 OA
HETATM    4  N   UNL     1     -41.828 -49.406  11.886  1.00  0.00    -0.308 N 
HETATM    5  H   UNL     1     -41.631 -51.160  13.547  1.00  0.00     0.164 HD
HETATM    6  H   UNL     1     -41.768 -50.297  11.413  1.00  0.00     0.170 HD
ENDROOT
BRANCH   1   7
HETATM    7  C   UNL     1     -39.798 -50.781  14.566  1.00  0.00     0.089 C 
HETATM    8  C   UNL     1     -38.664 -51.671  14.052  1.00  0.00     0.045 C 
HETATM    9  C   UNL     1     -39.072 -53.139  13.977  1.00  0.00     0.127 C 
HETATM   10  N   UNL     1     -39.628 -53.588  15.250  1.00  0.00    -0.352 N 
HETATM   11  C   UNL     1     -39.312 -54.873  15.684  1.00  0.00     0.224 C 
HETATM   12  C   UNL     1     -40.756 -52.802  15.749  1.00  0.00     0.127 C 
HETATM   13  O   UNL     1     -38.690 -55.656  14.962  1.00  0.00    -0.273 OA
HETATM   14  C   UNL     1     -40.390 -51.330  15.868  1.00  0.00     0.045 C 
BRANCH  11  15
HETATM   15  C   UNL     1     -39.690 -55.253  17.124  1.00  0.00     0.077 C 
BRANCH  15  16
HETATM   16  C   UNL     1     -40.612 -56.494  17.124  1.00  0.00     0.009 C 
HETATM   17  C   UNL     1     -42.005 -56.218  16.581  1.00  0.00     0.006 C 
ENDBRANCH  15  16
BRANCH  15  18
HETATM   18  C   UNL     1     -38.429 -55.428  17.998  1.00  0.00     0.009 C 
HETATM   19  C   UNL     1     -38.023 -56.875  18.252  1.00  0.00     0.006 C 
ENDBRANCH  15  18
ENDBRANCH  11  15
ENDBRANCH   1   7
BRANCH   4  20
HETATM   20  C   UNL     1     -42.189 -48.320  11.125  1.00  0.00     0.052 A 
HETATM   21  C   UNL     1     -41.321 -47.403  10.667  1.00  0.00     0.121 A 
HETATM   22  N   UNL     1     -41.751 -46.362   9.885  1.00  0.00    -0.331 N 
HETATM   23  C   UNL     1     -43.052 -46.189   9.475  1.00  0.00     0.251 A 
HETATM   24  H   UNL     1     -41.087 -45.674   9.548  1.00  0.00     0.168 HD
HETATM   25  O   UNL     1     -43.384 -45.252   8.763  1.00  0.00    -0.268 OA
HETATM   26  C   UNL     1     -44.027 -47.219   9.953  1.00  0.00     0.008 A 
HETATM   27  C   UNL     1     -45.441 -47.138   9.480  1.00  0.00     0.054 C 
HETATM   28  C   UNL     1     -43.590 -48.195  10.771  1.00  0.00     0.043 A 
ENDBRANCH   4  20
TORSDOF 5
ENDMDL
MODEL 9
REMARK VINA RESULT:      -5.7      2.245      9.557
REMARK  5 active torsions:
REMARK  status: ('A' for Active; 'I' for Inactive)
REMARK    1  A    between atoms: C_2  and  C_3 
REMARK    2  A    between atoms: C_3  and  C_4 
REMARK    3  A    between atoms: C_3  and  C_6 
REMARK       I    between atoms: C_6  and  N_8 
REMARK    4  A    between atoms: C_11  and  N_14 
REMARK       I    between atoms: N_14  and  C_15 
REMARK       I    between atoms: C_15  and  N_17 
REMARK    5  A    between atoms: N_17  and  C_18 
ROOT
HETATM    1  N   UNL     1     -40.403 -47.763  13.018  1.00  0.00    -0.338 N 
HETATM    2  C   UNL     1     -40.379 -46.600  12.279  1.00  0.00     0.321 C 
HETATM    3  O   UNL     1     -39.766 -46.482  11.227  1.00  0.00    -0.247 OA
HETATM    4  N   UNL     1     -41.200 -45.650  12.849  1.00  0.00    -0.308 N 
HETATM    5  H   UNL     1     -40.412 -47.621  14.018  1.00  0.00     0.164 HD
HETATM    6  H   UNL     1     -41.972 -46.056  13.359  1.00  0.00     0.170 HD
ENDROOT
BRANCH   1   7
HETATM    7  C   UNL     1     -39.784 -48.977  12.498  1.00  0.00     0.089 C 
HETATM    8  C   UNL     1     -40.665 -49.615  11.421  1.00  0.00     0.045 C 
HETATM    9  C   UNL     1     -41.876 -50.327  12.015  1.00  0.00     0.127 C 
HETATM   10  N   UNL     1     -41.467 -51.265  13.056  1.00  0.00    -0.352 N 
HETATM   11  C   UNL     1     -42.133 -52.485  13.136  1.00  0.00     0.224 C 
HETATM   12  C   UNL     1     -40.673 -50.685  14.140  1.00  0.00     0.127 C 
HETATM   13  O   UNL     1     -43.122 -52.719  12.438  1.00  0.00    -0.273 OA
HETATM   14  C   UNL     1     -39.436 -49.983  13.600  1.00  0.00     0.045 C 
BRANCH  11  15
HETATM   15  C   UNL     1     -41.544 -53.560  14.063  1.00  0.00     0.077 C 
BRANCH  15  16
HETATM   16  C   UNL     1     -42.624 -54.606  14.420  1.00  0.00     0.009 C 
HETATM   17  C   UNL     1     -42.389 -55.294  15.756  1.00  0.00     0.006 C 
ENDBRANCH  15  16
BRANCH  15  18
HETATM   18  C   UNL     1     -40.271 -54.181  13.449  1.00  0.00     0.009 C 
HETATM   19  C   UNL     1     -39.061 -54.208  14.375  1.00  0.00     0.006 C 
ENDBRANCH  15  18
ENDBRANCH  11  15
ENDBRANCH   1   7
BRANCH   4  20
HETATM   20  C   UNL     1     -41.392 -44.394  12.324  1.00  0.00     0.052 A 
HETATM   21  C   UNL     1     -42.397 -44.075  11.492  1.00  0.00     0.121 A 
HETATM   22  N   UNL     1     -42.544 -42.791  11.034  1.00  0.00    -0.331 N 
HETATM   23  C   UNL     1     -41.735 -41.740  11.403  1.00  0.00     0.251 A 
HETATM   24  H   UNL     1     -43.303 -42.563  10.403  1.00  0.00     0.168 HD
HETATM   25  O   UNL     1     -41.917 -40.608  10.979  1.00  0.00    -0.268 OA
HETATM   26  C   UNL     1     -40.629 -42.075  12.354  1.00  0.00     0.008 A 
HETATM   27  C   UNL     1     -39.763 -40.968  12.859  1.00  0.00     0.054 C 
HETATM   28  C   UNL     1     -40.469 -43.355  12.738  1.00  0.00     0.043 A 
ENDBRANCH   4  20
TORSDOF 5
ENDMDL
