MODEL 1
REMARK VINA RESULT:      -6.3      0.000      0.000
REMARK  5 active torsions:
REMARK  status: ('A' for Active; 'I' for Inactive)
REMARK    1  A    between atoms: C_2  and  N_3 
REMARK    2  A    between atoms: C_2  and  C_19 
REMARK       I    between atoms: N_3  and  C_4 
REMARK    3  A    between atoms: C_4  and  C_6 
REMARK    4  A    between atoms: C_6  and  N_7 
REMARK    5  A    between atoms: C_9  and  N_14 
ROOT
HETATM    1  C   UNL     1     -43.503 -52.007  14.881  1.00  0.00     0.055 C 
HETATM    2  C   UNL     1     -43.939 -52.007  13.404  1.00  0.00     0.122 C 
HETATM    3  C   UNL     1     -44.423 -53.362  13.012  1.00  0.00     0.091 C 
HETATM    4  N   UNL     1     -44.824 -54.405  12.692  1.00  0.00    -0.195 NA
ENDROOT
BRANCH   2   5
HETATM    5  N   UNL     1     -42.870 -51.532  12.521  1.00  0.00    -0.338 N 
HETATM    6  C   UNL     1     -42.287 -50.292  12.637  1.00  0.00     0.237 C 
HETATM    7  O   UNL     1     -42.589 -49.473  13.500  1.00  0.00    -0.272 OA
HETATM    8  H   UNL     1     -42.649 -52.071  11.695  1.00  0.00     0.164 HD
BRANCH   6   9
HETATM    9  C   UNL     1     -41.290 -49.949  11.530  1.00  0.00     0.234 C 
BRANCH   9  10
HETATM   10  N   UNL     1     -41.390 -48.536  11.168  1.00  0.00    -0.314 N 
HETATM   11  C   UNL     1     -42.444 -48.098  10.367  1.00  0.00     0.130 C 
HETATM   12  C   UNL     1     -42.572 -46.797  10.051  1.00  0.00     0.118 C 
HETATM   13  C   UNL     1     -41.642 -45.826  10.590  1.00  0.00     0.043 C 
HETATM   14  C   UNL     1     -40.587 -46.231  11.313  1.00  0.00     0.077 C 
HETATM   15  C   UNL     1     -40.373 -47.681  11.589  1.00  0.00     0.247 C 
HETATM   16  O   UNL     1     -39.355 -48.056  12.164  1.00  0.00    -0.268 OA
BRANCH  12  17
HETATM   17  N   UNL     1     -43.661 -46.395   9.164  1.00  0.00    -0.114 N 
HETATM   18  O   UNL     1     -43.695 -45.209   8.811  1.00  0.00    -0.532 OA
HETATM   19  O   UNL     1     -44.482 -47.256   8.811  1.00  0.00    -0.532 OA
ENDBRANCH  12  17
ENDBRANCH   9  10
ENDBRANCH   6   9
ENDBRANCH   2   5
BRANCH   2  20
HETATM   20  C   UNL     1     -45.201 -51.140  13.289  1.00  0.00     0.028 A 
HETATM   21  C   UNL     1     -46.522 -51.460  13.962  1.00  0.00     0.009 A 
HETATM   22  C   UNL     1     -46.423 -51.505  12.461  1.00  0.00     0.009 A 
ENDBRANCH   2  20
TORSDOF 5
ENDMDL
MODEL 2
REMARK VINA RESULT:      -6.2      3.252      7.371
REMARK  5 active torsions:
REMARK  status: ('A' for Active; 'I' for Inactive)
REMARK    1  A    between atoms: C_2  and  N_3 
REMARK    2  A    between atoms: C_2  and  C_19 
REMARK       I    between atoms: N_3  and  C_4 
REMARK    3  A    between atoms: C_4  and  C_6 
REMARK    4  A    between atoms: C_6  and  N_7 
REMARK    5  A    between atoms: C_9  and  N_14 
ROOT
HETATM    1  C   UNL     1     -39.797 -49.470  14.075  1.00  0.00     0.055 C 
HETATM    2  C   UNL     1     -39.548 -49.680  12.569  1.00  0.00     0.122 C 
HETATM    3  C   UNL     1     -40.090 -48.528  11.794  1.00  0.00     0.091 C 
HETATM    4  N   UNL     1     -40.488 -47.630  11.172  1.00  0.00    -0.195 NA
ENDROOT
BRANCH   2   5
HETATM    5  N   UNL     1     -40.091 -50.958  12.102  1.00  0.00    -0.338 N 
HETATM    6  C   UNL     1     -41.426 -51.282  12.162  1.00  0.00     0.237 C 
HETATM    7  O   UNL     1     -42.293 -50.526  12.591  1.00  0.00    -0.272 OA
HETATM    8  H   UNL     1     -39.446 -51.700  11.865  1.00  0.00     0.164 HD
BRANCH   6   9
HETATM    9  C   UNL     1     -41.754 -52.717  11.749  1.00  0.00     0.234 C 
BRANCH   9  10
HETATM   10  N   UNL     1     -42.258 -53.478  12.892  1.00  0.00    -0.314 N 
HETATM   11  C   UNL     1     -43.617 -53.775  12.983  1.00  0.00     0.130 C 
HETATM   12  C   UNL     1     -44.094 -54.502  14.008  1.00  0.00     0.118 C 
HETATM   13  C   UNL     1     -43.186 -55.034  15.003  1.00  0.00     0.043 C 
HETATM   14  C   UNL     1     -41.884 -54.712  14.969  1.00  0.00     0.077 C 
HETATM   15  C   UNL     1     -41.354 -53.823  13.895  1.00  0.00     0.247 C 
HETATM   16  O   UNL     1     -40.184 -53.451  13.923  1.00  0.00    -0.268 OA
BRANCH  12  17
HETATM   17  N   UNL     1     -45.533 -54.740  14.090  1.00  0.00    -0.114 N 
HETATM   18  O   UNL     1     -46.252 -53.774  14.376  1.00  0.00    -0.532 OA
HETATM   19  O   UNL     1     -45.955 -55.885  13.863  1.00  0.00    -0.532 OA
ENDBRANCH  12  17
ENDBRANCH   9  10
ENDBRANCH   6   9
ENDBRANCH   2   5
BRANCH   2  20
HETATM   20  C   UNL     1     -38.035 -49.581  12.328  1.00  0.00     0.028 A 
HETATM   21  C   UNL     1     -37.352 -49.956  11.026  1.00  0.00     0.009 A 
HETATM   22  C   UNL     1     -37.095 -50.774  12.263  1.00  0.00     0.009 A 
ENDBRANCH   2  20
TORSDOF 5
ENDMDL
MODEL 3
REMARK VINA RESULT:      -6.0      2.248      3.046
REMARK  5 active torsions:
REMARK  status: ('A' for Active; 'I' for Inactive)
REMARK    1  A    between atoms: C_2  and  N_3 
REMARK    2  A    between atoms: C_2  and  C_19 
REMARK       I    between atoms: N_3  and  C_4 
REMARK    3  A    between atoms: C_4  and  C_6 
REMARK    4  A    between atoms: C_6  and  N_7 
REMARK    5  A    between atoms: C_9  and  N_14 
ROOT
HETATM    1  C   UNL     1     -43.767 -52.117  15.006  1.00  0.00     0.055 C 
HETATM    2  C   UNL     1     -44.241 -52.340  13.557  1.00  0.00     0.122 C 
HETATM    3  C   UNL     1     -44.886 -53.677  13.428  1.00  0.00     0.091 C 
HETATM    4  N   UNL     1     -45.411 -54.707  13.310  1.00  0.00    -0.195 NA
ENDROOT
BRANCH   2   5
HETATM    5  N   UNL     1     -43.149 -52.164  12.596  1.00  0.00    -0.338 N 
HETATM    6  C   UNL     1     -41.958 -52.849  12.667  1.00  0.00     0.237 C 
HETATM    7  O   UNL     1     -41.703 -53.688  13.526  1.00  0.00    -0.272 OA
HETATM    8  H   UNL     1     -43.202 -51.398  11.938  1.00  0.00     0.164 HD
BRANCH   6   9
HETATM    9  C   UNL     1     -40.908 -52.412  11.645  1.00  0.00     0.234 C 
BRANCH   9  10
HETATM   10  N   UNL     1     -40.288 -51.152  12.053  1.00  0.00    -0.314 N 
HETATM   11  C   UNL     1     -40.722 -49.952  11.492  1.00  0.00     0.130 C 
HETATM   12  C   UNL     1     -40.187 -48.780  11.878  1.00  0.00     0.118 C 
HETATM   13  C   UNL     1     -39.190 -48.750  12.927  1.00  0.00     0.043 C 
HETATM   14  C   UNL     1     -38.716 -49.895  13.440  1.00  0.00     0.077 C 
HETATM   15  C   UNL     1     -39.224 -51.209  12.952  1.00  0.00     0.247 C 
HETATM   16  O   UNL     1     -38.718 -52.254  13.350  1.00  0.00    -0.268 OA
BRANCH  12  17
HETATM   17  N   UNL     1     -40.635 -47.555  11.221  1.00  0.00    -0.114 N 
HETATM   18  O   UNL     1     -41.545 -47.658  10.387  1.00  0.00    -0.532 OA
HETATM   19  O   UNL     1     -40.090 -46.484  11.534  1.00  0.00    -0.532 OA
ENDBRANCH  12  17
ENDBRANCH   9  10
ENDBRANCH   6   9
ENDBRANCH   2   5
BRANCH   2  20
HETATM   20  C   UNL     1     -45.398 -51.367  13.290  1.00  0.00     0.028 A 
HETATM   21  C   UNL     1     -46.765 -51.466  13.940  1.00  0.00     0.009 A 
HETATM   22  C   UNL     1     -46.627 -51.701  12.460  1.00  0.00     0.009 A 
ENDBRANCH   2  20
TORSDOF 5
ENDMDL
MODEL 4
REMARK VINA RESULT:      -6.0      3.580      7.935
REMARK  5 active torsions:
REMARK  status: ('A' for Active; 'I' for Inactive)
REMARK    1  A    between atoms: C_2  and  N_3 
REMARK    2  A    between atoms: C_2  and  C_19 
REMARK       I    between atoms: N_3  and  C_4 
REMARK    3  A    between atoms: C_4  and  C_6 
REMARK    4  A    between atoms: C_6  and  N_7 
REMARK    5  A    between atoms: C_9  and  N_14 
ROOT
HETATM    1  C   UNL     1     -39.862 -49.462  14.080  1.00  0.00     0.055 C 
HETATM    2  C   UNL     1     -39.588 -49.681  12.579  1.00  0.00     0.122 C 
HETATM    3  C   UNL     1     -40.085 -48.518  11.792  1.00  0.00     0.091 C 
HETATM    4  N   UNL     1     -40.446 -47.611  11.161  1.00  0.00    -0.195 NA
ENDROOT
BRANCH   2   5
HETATM    5  N   UNL     1     -40.155 -50.946  12.103  1.00  0.00    -0.338 N 
HETATM    6  C   UNL     1     -41.483 -51.279  12.236  1.00  0.00     0.237 C 
HETATM    7  O   UNL     1     -42.325 -50.543  12.743  1.00  0.00    -0.272 OA
HETATM    8  H   UNL     1     -39.524 -51.676  11.801  1.00  0.00     0.164 HD
BRANCH   6   9
HETATM    9  C   UNL     1     -41.832 -52.700  11.795  1.00  0.00     0.234 C 
BRANCH   9  10
HETATM   10  N   UNL     1     -42.137 -53.538  12.954  1.00  0.00    -0.314 N 
HETATM   11  C   UNL     1     -41.115 -53.922  13.821  1.00  0.00     0.130 C 
HETATM   12  C   UNL     1     -41.380 -54.663  14.910  1.00  0.00     0.118 C 
HETATM   13  C   UNL     1     -42.746 -55.024  15.226  1.00  0.00     0.043 C 
HETATM   14  C   UNL     1     -43.738 -54.716  14.377  1.00  0.00     0.077 C 
HETATM   15  C   UNL     1     -43.449 -53.981  13.111  1.00  0.00     0.247 C 
HETATM   16  O   UNL     1     -44.342 -53.790  12.291  1.00  0.00    -0.268 OA
BRANCH  12  17
HETATM   17  N   UNL     1     -40.268 -55.087  15.758  1.00  0.00    -0.114 N 
HETATM   18  O   UNL     1     -39.240 -55.481  15.190  1.00  0.00    -0.532 OA
HETATM   19  O   UNL     1     -40.409 -55.026  16.990  1.00  0.00    -0.532 OA
ENDBRANCH  12  17
ENDBRANCH   9  10
ENDBRANCH   6   9
ENDBRANCH   2   5
BRANCH   2  20
HETATM   20  C   UNL     1     -38.069 -49.623  12.368  1.00  0.00     0.028 A 
HETATM   21  C   UNL     1     -37.374 -49.976  11.066  1.00  0.00     0.009 A 
HETATM   22  C   UNL     1     -37.166 -50.842  12.279  1.00  0.00     0.009 A 
ENDBRANCH   2  20
TORSDOF 5
ENDMDL
MODEL 5
REMARK VINA RESULT:      -6.0      4.472      6.999
REMARK  5 active torsions:
REMARK  status: ('A' for Active; 'I' for Inactive)
REMARK    1  A    between atoms: C_2  and  N_3 
REMARK    2  A    between atoms: C_2  and  C_19 
REMARK       I    between atoms: N_3  and  C_4 
REMARK    3  A    between atoms: C_4  and  C_6 
REMARK    4  A    between atoms: C_6  and  N_7 
REMARK    5  A    between atoms: C_9  and  N_14 
ROOT
HETATM    1  C   UNL     1     -46.430 -52.310  12.522  1.00  0.00     0.055 C 
HETATM    2  C   UNL     1     -45.574 -51.918  13.742  1.00  0.00     0.122 C 
HETATM    3  C   UNL     1     -44.579 -50.877  13.358  1.00  0.00     0.091 C 
HETATM    4  N   UNL     1     -43.810 -50.050  13.084  1.00  0.00    -0.195 NA
ENDROOT
BRANCH   2   5
HETATM    5  N   UNL     1     -44.936 -53.086  14.354  1.00  0.00    -0.338 N 
HETATM    6  C   UNL     1     -44.419 -54.135  13.629  1.00  0.00     0.237 C 
HETATM    7  O   UNL     1     -44.423 -54.185  12.402  1.00  0.00    -0.272 OA
HETATM    8  H   UNL     1     -45.008 -53.208  15.355  1.00  0.00     0.164 HD
BRANCH   6   9
HETATM    9  C   UNL     1     -43.923 -55.310  14.471  1.00  0.00     0.234 C 
BRANCH   9  10
HETATM   10  N   UNL     1     -42.567 -55.057  14.957  1.00  0.00    -0.314 N 
HETATM   11  C   UNL     1     -41.717 -54.220  14.237  1.00  0.00     0.130 C 
HETATM   12  C   UNL     1     -40.479 -53.948  14.685  1.00  0.00     0.118 C 
HETATM   13  C   UNL     1     -40.035 -54.482  15.955  1.00  0.00     0.043 C 
HETATM   14  C   UNL     1     -40.812 -55.337  16.637  1.00  0.00     0.077 C 
HETATM   15  C   UNL     1     -42.150 -55.729  16.105  1.00  0.00     0.247 C 
HETATM   16  O   UNL     1     -42.815 -56.586  16.679  1.00  0.00    -0.268 OA
BRANCH  12  17
HETATM   17  N   UNL     1     -39.605 -53.110  13.867  1.00  0.00    -0.114 N 
HETATM   18  O   UNL     1     -40.012 -51.976  13.582  1.00  0.00    -0.532 OA
HETATM   19  O   UNL     1     -38.509 -53.572  13.510  1.00  0.00    -0.532 OA
ENDBRANCH  12  17
ENDBRANCH   9  10
ENDBRANCH   6   9
ENDBRANCH   2   5
BRANCH   2  20
HETATM   20  C   UNL     1     -46.485 -51.181  14.734  1.00  0.00     0.028 A 
HETATM   21  C   UNL     1     -46.167 -50.991  16.205  1.00  0.00     0.009 A 
HETATM   22  C   UNL     1     -47.324 -51.864  15.801  1.00  0.00     0.009 A 
ENDBRANCH   2  20
TORSDOF 5
ENDMDL
MODEL 6
REMARK VINA RESULT:      -6.0      3.152      4.662
REMARK  5 active torsions:
REMARK  status: ('A' for Active; 'I' for Inactive)
REMARK    1  A    between atoms: C_2  and  N_3 
REMARK    2  A    between atoms: C_2  and  C_19 
REMARK       I    between atoms: N_3  and  C_4 
REMARK    3  A    between atoms: C_4  and  C_6 
REMARK    4  A    between atoms: C_6  and  N_7 
REMARK    5  A    between atoms: C_9  and  N_14 
ROOT
HETATM    1  C   UNL     1     -44.352 -52.776  15.515  1.00  0.00     0.055 C 
HETATM    2  C   UNL     1     -44.877 -53.196  14.129  1.00  0.00     0.122 C 
HETATM    3  C   UNL     1     -45.092 -54.670  14.085  1.00  0.00     0.091 C 
HETATM    4  N   UNL     1     -45.286 -55.815  14.037  1.00  0.00    -0.195 NA
ENDROOT
BRANCH   2   5
HETATM    5  N   UNL     1     -43.993 -52.739  13.053  1.00  0.00    -0.338 N 
HETATM    6  C   UNL     1     -42.665 -53.085  12.966  1.00  0.00     0.237 C 
HETATM    7  O   UNL     1     -42.097 -53.824  13.765  1.00  0.00    -0.272 OA
HETATM    8  H   UNL     1     -44.324 -52.017  12.428  1.00  0.00     0.164 HD
BRANCH   6   9
HETATM    9  C   UNL     1     -41.897 -52.389  11.842  1.00  0.00     0.234 C 
BRANCH   9  10
HETATM   10  N   UNL     1     -41.057 -51.319  12.380  1.00  0.00    -0.314 N 
HETATM   11  C   UNL     1     -39.701 -51.548  12.605  1.00  0.00     0.130 C 
HETATM   12  C   UNL     1     -38.906 -50.567  13.067  1.00  0.00     0.118 C 
HETATM   13  C   UNL     1     -39.444 -49.240  13.284  1.00  0.00     0.043 C 
HETATM   14  C   UNL     1     -40.757 -49.012  13.131  1.00  0.00     0.077 C 
HETATM   15  C   UNL     1     -41.672 -50.114  12.716  1.00  0.00     0.247 C 
HETATM   16  O   UNL     1     -42.885 -49.926  12.674  1.00  0.00    -0.268 OA
BRANCH  12  17
HETATM   17  N   UNL     1     -37.503 -50.871  13.340  1.00  0.00    -0.114 N 
HETATM   18  O   UNL     1     -37.024 -50.439  14.396  1.00  0.00    -0.532 OA
HETATM   19  O   UNL     1     -36.873 -51.544  12.508  1.00  0.00    -0.532 OA
ENDBRANCH  12  17
ENDBRANCH   9  10
ENDBRANCH   6   9
ENDBRANCH   2   5
BRANCH   2  20
HETATM   20  C   UNL     1     -46.297 -52.632  13.977  1.00  0.00     0.028 A 
HETATM   21  C   UNL     1     -46.694 -51.582  12.957  1.00  0.00     0.009 A 
HETATM   22  C   UNL     1     -46.722 -51.242  14.423  1.00  0.00     0.009 A 
ENDBRANCH   2  20
TORSDOF 5
ENDMDL
MODEL 7
REMARK VINA RESULT:      -5.9      2.785      6.580
REMARK  5 active torsions:
REMARK  status: ('A' for Active; 'I' for Inactive)
REMARK    1  A    between atoms: C_2  and  N_3 
REMARK    2  A    between atoms: C_2  and  C_19 
REMARK       I    between atoms: N_3  and  C_4 
REMARK    3  A    between atoms: C_4  and  C_6 
REMARK    4  A    between atoms: C_6  and  N_7 
REMARK    5  A    between atoms: C_9  and  N_14 
ROOT
HETATM    1  C   UNL     1     -42.766 -47.890  12.812  1.00  0.00     0.055 C 
HETATM    2  C   UNL     1     -42.116 -48.236  11.459  1.00  0.00     0.122 C 
HETATM    3  C   UNL     1     -42.968 -47.743  10.339  1.00  0.00     0.091 C 
HETATM    4  N   UNL     1     -43.606 -47.348   9.452  1.00  0.00    -0.195 NA
ENDROOT
BRANCH   2   5
HETATM    5  N   UNL     1     -41.835 -49.669  11.342  1.00  0.00    -0.338 N 
HETATM    6  C   UNL     1     -41.086 -50.372  12.257  1.00  0.00     0.237 C 
HETATM    7  O   UNL     1     -40.600 -49.874  13.269  1.00  0.00    -0.272 OA
HETATM    8  H   UNL     1     -42.068 -50.139  10.478  1.00  0.00     0.164 HD
BRANCH   6   9
HETATM    9  C   UNL     1     -40.803 -51.823  11.870  1.00  0.00     0.234 C 
BRANCH   9  10
HETATM   10  N   UNL     1     -41.552 -52.739  12.729  1.00  0.00    -0.314 N 
HETATM   11  C   UNL     1     -42.900 -52.986  12.471  1.00  0.00     0.130 C 
HETATM   12  C   UNL     1     -43.597 -53.850  13.228  1.00  0.00     0.118 C 
HETATM   13  C   UNL     1     -42.936 -54.580  14.290  1.00  0.00     0.043 C 
HETATM   14  C   UNL     1     -41.657 -54.316  14.594  1.00  0.00     0.077 C 
HETATM   15  C   UNL     1     -40.895 -53.286  13.830  1.00  0.00     0.247 C 
HETATM   16  O   UNL     1     -39.758 -52.977  14.174  1.00  0.00    -0.268 OA
BRANCH  12  17
HETATM   17  N   UNL     1     -45.021 -54.033  12.954  1.00  0.00    -0.114 N 
HETATM   18  O   UNL     1     -45.591 -53.148  12.304  1.00  0.00    -0.532 OA
HETATM   19  O   UNL     1     -45.575 -55.060  13.378  1.00  0.00    -0.532 OA
ENDBRANCH  12  17
ENDBRANCH   9  10
ENDBRANCH   6   9
ENDBRANCH   2   5
BRANCH   2  20
HETATM   20  C   UNL     1     -40.840 -47.392  11.324  1.00  0.00     0.028 A 
HETATM   21  C   UNL     1     -40.336 -46.432  12.385  1.00  0.00     0.009 A 
HETATM   22  C   UNL     1     -40.824 -45.894  11.067  1.00  0.00     0.009 A 
ENDBRANCH   2  20
TORSDOF 5
ENDMDL
MODEL 8
REMARK VINA RESULT:      -5.8      2.778      6.032
REMARK  5 active torsions:
REMARK  status: ('A' for Active; 'I' for Inactive)
REMARK    1  A    between atoms: C_2  and  N_3 
REMARK    2  A    between atoms: C_2  and  C_19 
REMARK       I    between atoms: N_3  and  C_4 
REMARK    3  A    between atoms: C_4  and  C_6 
REMARK    4  A    between atoms: C_6  and  N_7 
REMARK    5  A    between atoms: C_9  and  N_14 
ROOT
HETATM    1  C   UNL     1     -40.782 -45.840  10.475  1.00  0.00     0.055 C 
HETATM    2  C   UNL     1     -41.889 -46.885  10.715  1.00  0.00     0.122 C 
HETATM    3  C   UNL     1     -42.551 -46.638  12.027  1.00  0.00     0.091 C 
HETATM    4  N   UNL     1     -43.096 -46.450  13.037  1.00  0.00    -0.195 NA
ENDROOT
BRANCH   2   5
HETATM    5  N   UNL     1     -41.375 -48.254  10.611  1.00  0.00    -0.338 N 
HETATM    6  C   UNL     1     -40.574 -48.837  11.564  1.00  0.00     0.237 C 
HETATM    7  O   UNL     1     -40.229 -48.280  12.601  1.00  0.00    -0.272 OA
HETATM    8  H   UNL     1     -41.483 -48.745   9.734  1.00  0.00     0.164 HD
BRANCH   6   9
HETATM    9  C   UNL     1     -40.041 -50.220  11.189  1.00  0.00     0.234 C 
BRANCH   9  10
HETATM   10  N   UNL     1     -40.578 -51.239  12.091  1.00  0.00    -0.314 N 
HETATM   11  C   UNL     1     -41.948 -51.497  12.110  1.00  0.00     0.130 C 
HETATM   12  C   UNL     1     -42.456 -52.452  12.908  1.00  0.00     0.118 C 
HETATM   13  C   UNL     1     -41.573 -53.265  13.718  1.00  0.00     0.043 C 
HETATM   14  C   UNL     1     -40.259 -52.996  13.761  1.00  0.00     0.077 C 
HETATM   15  C   UNL     1     -39.691 -51.874  12.959  1.00  0.00     0.247 C 
HETATM   16  O   UNL     1     -38.508 -51.568  13.077  1.00  0.00    -0.268 OA
BRANCH  12  17
HETATM   17  N   UNL     1     -43.904 -52.647  12.934  1.00  0.00    -0.114 N 
HETATM   18  O   UNL     1     -44.378 -53.475  12.145  1.00  0.00    -0.532 OA
HETATM   19  O   UNL     1     -44.574 -51.984  13.742  1.00  0.00    -0.532 OA
ENDBRANCH  12  17
ENDBRANCH   9  10
ENDBRANCH   6   9
ENDBRANCH   2   5
BRANCH   2  20
HETATM   20  C   UNL     1     -43.011 -46.618   9.702  1.00  0.00     0.028 A 
HETATM   21  C   UNL     1     -44.334 -47.359   9.679  1.00  0.00     0.009 A 
HETATM   22  C   UNL     1     -43.361 -47.540   8.545  1.00  0.00     0.009 A 
ENDBRANCH   2  20
TORSDOF 5
ENDMDL
MODEL 9
REMARK VINA RESULT:      -5.8      3.543      4.708
REMARK  5 active torsions:
REMARK  status: ('A' for Active; 'I' for Inactive)
REMARK    1  A    between atoms: C_2  and  N_3 
REMARK    2  A    between atoms: C_2  and  C_19 
REMARK       I    between atoms: N_3  and  C_4 
REMARK    3  A    between atoms: C_4  and  C_6 
REMARK    4  A    between atoms: C_6  and  N_7 
REMARK    5  A    between atoms: C_9  and  N_14 
ROOT
HETATM    1  C   UNL     1     -43.936 -52.554  16.276  1.00  0.00     0.055 C 
HETATM    2  C   UNL     1     -44.530 -52.813  14.878  1.00  0.00     0.122 C 
HETATM    3  C   UNL     1     -45.542 -53.905  14.944  1.00  0.00     0.091 C 
HETATM    4  N   UNL     1     -46.350 -54.740  14.978  1.00  0.00    -0.195 NA
ENDROOT
BRANCH   2   5
HETATM    5  N   UNL     1     -43.487 -53.093  13.888  1.00  0.00    -0.338 N 
HETATM    6  C   UNL     1     -42.616 -54.153  13.984  1.00  0.00     0.237 C 
HETATM    7  O   UNL     1     -42.642 -54.978  14.892  1.00  0.00    -0.272 OA
HETATM    8  H   UNL     1     -43.291 -52.398  13.181  1.00  0.00     0.164 HD
BRANCH   6   9
HETATM    9  C   UNL     1     -41.522 -54.179  12.916  1.00  0.00     0.234 C 
BRANCH   9  10
HETATM   10  N   UNL     1     -40.544 -53.119  13.158  1.00  0.00    -0.314 N 
HETATM   11  C   UNL     1     -40.628 -51.922  12.449  1.00  0.00     0.130 C 
HETATM   12  C   UNL     1     -39.758 -50.924  12.682  1.00  0.00     0.118 C 
HETATM   13  C   UNL     1     -38.755 -51.063  13.717  1.00  0.00     0.043 C 
HETATM   14  C   UNL     1     -38.618 -52.226  14.371  1.00  0.00     0.077 C 
HETATM   15  C   UNL     1     -39.509 -53.380  14.055  1.00  0.00     0.247 C 
HETATM   16  O   UNL     1     -39.315 -54.471  14.583  1.00  0.00    -0.268 OA
BRANCH  12  17
HETATM   17  N   UNL     1     -39.853 -49.709  11.875  1.00  0.00    -0.114 N 
HETATM   18  O   UNL     1     -40.551 -49.760  10.854  1.00  0.00    -0.532 OA
HETATM   19  O   UNL     1     -39.238 -48.700  12.255  1.00  0.00    -0.532 OA
ENDBRANCH  12  17
ENDBRANCH   9  10
ENDBRANCH   6   9
ENDBRANCH   2   5
BRANCH   2  20
HETATM   20  C   UNL     1     -45.367 -51.585  14.492  1.00  0.00     0.028 A 
HETATM   21  C   UNL     1     -46.840 -51.419  14.815  1.00  0.00     0.009 A 
HETATM   22  C   UNL     1     -46.405 -51.567  13.382  1.00  0.00     0.009 A 
ENDBRANCH   2  20
TORSDOF 5
ENDMDL
