MODEL 1
REMARK VINA RESULT:      -6.8      0.000      0.000
REMARK  5 active torsions:
REMARK  status: ('A' for Active; 'I' for Inactive)
REMARK    1  A    between atoms: C_2  and  C_3 
REMARK       I    between atoms: C_2  and  N_13 
REMARK    2  A    between atoms: C_3  and  N_4 
REMARK    3  A    between atoms: N_4  and  C_5 
REMARK    4  A    between atoms: C_5  and  C_6 
REMARK    5  A    between atoms: C_6  and  N_7 
ROOT
HETATM    1  O   UNL     1     -42.555 -50.184  12.291  1.00  0.00    -0.271 OA
HETATM    2  C   UNL     1     -41.442 -49.822  11.913  1.00  0.00     0.248 C 
HETATM    3  N   UNL     1     -40.272 -50.597  12.036  1.00  0.00    -0.346 N 
HETATM    4  C   UNL     1     -38.937 -50.057  11.735  1.00  0.00     0.126 C 
HETATM    5  C   UNL     1     -38.046 -50.091  12.969  1.00  0.00     0.020 C 
HETATM    6  C   UNL     1     -37.937 -51.509  13.507  1.00  0.00     0.008 C 
HETATM    7  C   UNL     1     -39.328 -52.105  13.779  1.00  0.00     0.009 C 
HETATM    8  C   UNL     1     -39.169 -53.557  14.251  1.00  0.00     0.007 C 
HETATM    9  C   UNL     1     -40.516 -54.230  14.475  1.00  0.00     0.001 C 
HETATM   10  C   UNL     1     -41.376 -54.160  13.218  1.00  0.00     0.002 C 
HETATM   11  C   UNL     1     -41.578 -52.714  12.761  1.00  0.00     0.026 C 
HETATM   12  C   UNL     1     -40.239 -51.999  12.526  1.00  0.00     0.091 C 
ENDROOT
BRANCH   2  13
HETATM   13  C   UNL     1     -41.229 -48.449  11.255  1.00  0.00     0.372 C 
BRANCH  13  14
HETATM   14  N   UNL     1     -41.673 -48.362   9.851  1.00  0.00     0.093 N 
HETATM   15  H   UNL     1     -41.955 -49.298   9.550  1.00  0.00     0.316 HD
BRANCH  14  16
HETATM   16  C   UNL     1     -42.804 -47.417   9.729  1.00  0.00     0.291 C 
BRANCH  16  17
HETATM   17  C   UNL     1     -43.453 -47.438   8.337  1.00  0.00     0.178 C 
BRANCH  17  18
HETATM   18  N   UNL     1     -44.859 -47.782   8.368  1.00  0.00    -0.302 N 
HETATM   19  C   UNL     1     -45.770 -47.406   9.313  1.00  0.00     0.111 A 
HETATM   20  C   UNL     1     -46.919 -48.106   9.032  1.00  0.00     0.037 A 
HETATM   21  C   UNL     1     -46.599 -48.878   7.900  1.00  0.00     0.108 A 
HETATM   22  N   UNL     1     -45.348 -48.674   7.483  1.00  0.00    -0.310 N 
ATOM     23  HN  UNL     1     -44.873 -49.093   6.683  1.00  0.00     0.186 HD
ENDBRANCH  17  18
ENDBRANCH  16  17
ENDBRANCH  14  16
ENDBRANCH  13  14
ENDBRANCH   2  13
TORSDOF 5
ENDMDL
MODEL 2
REMARK VINA RESULT:      -6.5      1.674      2.407
REMARK  5 active torsions:
REMARK  status: ('A' for Active; 'I' for Inactive)
REMARK    1  A    between atoms: C_2  and  C_3 
REMARK       I    between atoms: C_2  and  N_13 
REMARK    2  A    between atoms: C_3  and  N_4 
REMARK    3  A    between atoms: N_4  and  C_5 
REMARK    4  A    between atoms: C_5  and  C_6 
REMARK    5  A    between atoms: C_6  and  N_7 
ROOT
HETATM    1  O   UNL     1     -43.754 -49.934  12.885  1.00  0.00    -0.271 OA
HETATM    2  C   UNL     1     -42.642 -50.281  12.489  1.00  0.00     0.248 C 
HETATM    3  N   UNL     1     -42.174 -51.609  12.505  1.00  0.00    -0.346 N 
HETATM    4  C   UNL     1     -40.779 -51.955  12.190  1.00  0.00     0.126 C 
HETATM    5  C   UNL     1     -40.103 -52.621  13.381  1.00  0.00     0.020 C 
HETATM    6  C   UNL     1     -40.875 -53.861  13.805  1.00  0.00     0.008 C 
HETATM    7  C   UNL     1     -42.347 -53.523  14.090  1.00  0.00     0.009 C 
HETATM    8  C   UNL     1     -43.099 -54.814  14.444  1.00  0.00     0.007 C 
HETATM    9  C   UNL     1     -44.582 -54.561  14.673  1.00  0.00     0.001 C 
HETATM   10  C   UNL     1     -45.212 -53.883  13.461  1.00  0.00     0.002 C 
HETATM   11  C   UNL     1     -44.499 -52.572  13.122  1.00  0.00     0.026 C 
HETATM   12  C   UNL     1     -42.997 -52.786  12.887  1.00  0.00     0.091 C 
ENDROOT
BRANCH   2  13
HETATM   13  C   UNL     1     -41.639 -49.260  11.927  1.00  0.00     0.372 C 
BRANCH  13  14
HETATM   14  N   UNL     1     -41.851 -48.901  10.513  1.00  0.00     0.093 N 
HETATM   15  H   UNL     1     -42.244 -49.715  10.035  1.00  0.00     0.316 HD
BRANCH  14  16
HETATM   16  C   UNL     1     -42.770 -47.746  10.410  1.00  0.00     0.291 C 
BRANCH  16  17
HETATM   17  C   UNL     1     -43.184 -47.439   8.964  1.00  0.00     0.178 C 
BRANCH  17  18
HETATM   18  N   UNL     1     -44.581 -47.712   8.699  1.00  0.00    -0.302 N 
HETATM   19  C   UNL     1     -45.636 -47.430   9.517  1.00  0.00     0.111 A 
HETATM   20  C   UNL     1     -46.733 -48.024   8.941  1.00  0.00     0.037 A 
HETATM   21  C   UNL     1     -46.235 -48.642   7.779  1.00  0.00     0.108 A 
HETATM   22  N   UNL     1     -44.925 -48.444   7.619  1.00  0.00    -0.310 N 
ATOM     23  HN  UNL     1     -44.326 -48.768   6.860  1.00  0.00     0.186 HD
ENDBRANCH  17  18
ENDBRANCH  16  17
ENDBRANCH  14  16
ENDBRANCH  13  14
ENDBRANCH   2  13
TORSDOF 5
ENDMDL
MODEL 3
REMARK VINA RESULT:      -6.5      2.828      4.970
REMARK  5 active torsions:
REMARK  status: ('A' for Active; 'I' for Inactive)
REMARK    1  A    between atoms: C_2  and  C_3 
REMARK       I    between atoms: C_2  and  N_13 
REMARK    2  A    between atoms: C_3  and  N_4 
REMARK    3  A    between atoms: N_4  and  C_5 
REMARK    4  A    between atoms: C_5  and  C_6 
REMARK    5  A    between atoms: C_6  and  N_7 
ROOT
HETATM    1  O   UNL     1     -42.753 -50.271  12.718  1.00  0.00    -0.271 OA
HETATM    2  C   UNL     1     -42.304 -51.414  12.647  1.00  0.00     0.248 C 
HETATM    3  N   UNL     1     -43.024 -52.572  12.998  1.00  0.00    -0.346 N 
HETATM    4  C   UNL     1     -42.393 -53.899  13.067  1.00  0.00     0.126 C 
HETATM    5  C   UNL     1     -42.483 -54.470  14.477  1.00  0.00     0.020 C 
HETATM    6  C   UNL     1     -43.934 -54.547  14.927  1.00  0.00     0.008 C 
HETATM    7  C   UNL     1     -44.621 -53.177  14.812  1.00  0.00     0.009 C 
HETATM    8  C   UNL     1     -46.097 -53.319  15.209  1.00  0.00     0.007 C 
HETATM    9  C   UNL     1     -46.854 -52.009  15.053  1.00  0.00     0.001 C 
HETATM   10  C   UNL     1     -46.726 -51.471  13.632  1.00  0.00     0.002 C 
HETATM   11  C   UNL     1     -45.259 -51.283  13.238  1.00  0.00     0.026 C 
HETATM   12  C   UNL     1     -44.459 -52.586  13.385  1.00  0.00     0.091 C 
ENDROOT
BRANCH   2  13
HETATM   13  C   UNL     1     -40.871 -51.681  12.155  1.00  0.00     0.372 C 
BRANCH  13  14
HETATM   14  N   UNL     1     -39.866 -50.711  12.628  1.00  0.00     0.093 N 
HETATM   15  H   UNL     1     -39.061 -51.235  12.979  1.00  0.00     0.316 HD
BRANCH  14  16
HETATM   16  C   UNL     1     -39.458 -49.817  11.522  1.00  0.00     0.291 C 
BRANCH  16  17
HETATM   17  C   UNL     1     -39.753 -48.337  11.811  1.00  0.00     0.178 C 
BRANCH  17  18
HETATM   18  N   UNL     1     -40.804 -47.791  10.978  1.00  0.00    -0.302 N 
HETATM   19  C   UNL     1     -41.213 -46.489  10.931  1.00  0.00     0.111 A 
HETATM   20  C   UNL     1     -42.340 -46.475  10.145  1.00  0.00     0.037 A 
HETATM   21  C   UNL     1     -42.530 -47.816   9.766  1.00  0.00     0.108 A 
HETATM   22  N   UNL     1     -41.588 -48.622  10.261  1.00  0.00    -0.310 N 
ATOM     23  HN  UNL     1     -41.484 -49.628  10.128  1.00  0.00     0.186 HD
ENDBRANCH  17  18
ENDBRANCH  16  17
ENDBRANCH  14  16
ENDBRANCH  13  14
ENDBRANCH   2  13
TORSDOF 5
ENDMDL
MODEL 4
REMARK VINA RESULT:      -6.3      3.175      5.232
REMARK  5 active torsions:
REMARK  status: ('A' for Active; 'I' for Inactive)
REMARK    1  A    between atoms: C_2  and  C_3 
REMARK       I    between atoms: C_2  and  N_13 
REMARK    2  A    between atoms: C_3  and  N_4 
REMARK    3  A    between atoms: N_4  and  C_5 
REMARK    4  A    between atoms: C_5  and  C_6 
REMARK    5  A    between atoms: C_6  and  N_7 
ROOT
HETATM    1  O   UNL     1     -42.931 -50.092  13.274  1.00  0.00    -0.271 OA
HETATM    2  C   UNL     1     -42.457 -51.198  13.019  1.00  0.00     0.248 C 
HETATM    3  N   UNL     1     -43.139 -52.416  13.206  1.00  0.00    -0.346 N 
HETATM    4  C   UNL     1     -42.475 -53.720  13.057  1.00  0.00     0.126 C 
HETATM    5  C   UNL     1     -42.512 -54.500  14.365  1.00  0.00     0.020 C 
HETATM    6  C   UNL     1     -43.948 -54.685  14.832  1.00  0.00     0.008 C 
HETATM    7  C   UNL     1     -44.670 -53.333  14.944  1.00  0.00     0.009 C 
HETATM    8  C   UNL     1     -46.131 -53.575  15.349  1.00  0.00     0.007 C 
HETATM    9  C   UNL     1     -46.924 -52.278  15.412  1.00  0.00     0.001 C 
HETATM   10  C   UNL     1     -46.848 -51.528  14.087  1.00  0.00     0.002 C 
HETATM   11  C   UNL     1     -45.397 -51.241  13.692  1.00  0.00     0.026 C 
HETATM   12  C   UNL     1     -44.562 -52.528  13.620  1.00  0.00     0.091 C 
ENDROOT
BRANCH   2  13
HETATM   13  C   UNL     1     -41.032 -51.347  12.458  1.00  0.00     0.372 C 
BRANCH  13  14
HETATM   14  N   UNL     1     -40.833 -50.765  11.118  1.00  0.00     0.093 N 
HETATM   15  H   UNL     1     -41.718 -50.831  10.610  1.00  0.00     0.316 HD
BRANCH  14  16
HETATM   16  C   UNL     1     -40.405 -49.354  11.231  1.00  0.00     0.291 C 
BRANCH  16  17
HETATM   17  C   UNL     1     -41.407 -48.374  10.603  1.00  0.00     0.178 C 
BRANCH  17  18
HETATM   18  N   UNL     1     -41.087 -46.986  10.862  1.00  0.00    -0.302 N 
HETATM   19  C   UNL     1     -41.913 -46.046  11.406  1.00  0.00     0.111 A 
HETATM   20  C   UNL     1     -41.251 -44.847  11.294  1.00  0.00     0.037 A 
HETATM   21  C   UNL     1     -40.033 -45.169  10.666  1.00  0.00     0.108 A 
HETATM   22  N   UNL     1     -39.922 -46.475  10.413  1.00  0.00    -0.310 N 
ATOM     23  HN  UNL     1     -39.141 -46.969   9.981  1.00  0.00     0.186 HD
ENDBRANCH  17  18
ENDBRANCH  16  17
ENDBRANCH  14  16
ENDBRANCH  13  14
ENDBRANCH   2  13
TORSDOF 5
ENDMDL
MODEL 5
REMARK VINA RESULT:      -6.0      3.619      6.818
REMARK  5 active torsions:
REMARK  status: ('A' for Active; 'I' for Inactive)
REMARK    1  A    between atoms: C_2  and  C_3 
REMARK       I    between atoms: C_2  and  N_13 
REMARK    2  A    between atoms: C_3  and  N_4 
REMARK    3  A    between atoms: N_4  and  C_5 
REMARK    4  A    between atoms: C_5  and  C_6 
REMARK    5  A    between atoms: C_6  and  N_7 
ROOT
HETATM    1  O   UNL     1     -42.801 -50.223  12.903  1.00  0.00    -0.271 OA
HETATM    2  C   UNL     1     -42.371 -51.364  12.743  1.00  0.00     0.248 C 
HETATM    3  N   UNL     1     -43.094 -52.534  13.047  1.00  0.00    -0.346 N 
HETATM    4  C   UNL     1     -42.479 -53.870  13.007  1.00  0.00     0.126 C 
HETATM    5  C   UNL     1     -42.525 -54.529  14.380  1.00  0.00     0.020 C 
HETATM    6  C   UNL     1     -43.959 -54.618  14.878  1.00  0.00     0.008 C 
HETATM    7  C   UNL     1     -44.631 -53.235  14.877  1.00  0.00     0.009 C 
HETATM    8  C   UNL     1     -46.093 -53.385  15.320  1.00  0.00     0.007 C 
HETATM    9  C   UNL     1     -46.837 -52.059  15.276  1.00  0.00     0.001 C 
HETATM   10  C   UNL     1     -46.754 -51.433  13.888  1.00  0.00     0.002 C 
HETATM   11  C   UNL     1     -45.300 -51.236  13.452  1.00  0.00     0.026 C 
HETATM   12  C   UNL     1     -44.513 -52.555  13.486  1.00  0.00     0.091 C 
ENDROOT
BRANCH   2  13
HETATM   13  C   UNL     1     -40.961 -51.615  12.181  1.00  0.00     0.372 C 
BRANCH  13  14
HETATM   14  N   UNL     1     -40.560 -50.706  11.091  1.00  0.00     0.093 N 
HETATM   15  H   UNL     1     -41.383 -50.168  10.809  1.00  0.00     0.316 HD
BRANCH  14  16
HETATM   16  C   UNL     1     -39.483 -49.802  11.549  1.00  0.00     0.291 C 
BRANCH  16  17
HETATM   17  C   UNL     1     -38.388 -50.532  12.342  1.00  0.00     0.178 C 
BRANCH  17  18
HETATM   18  N   UNL     1     -37.957 -49.808  13.519  1.00  0.00    -0.302 N 
HETATM   19  C   UNL     1     -37.874 -48.452  13.658  1.00  0.00     0.111 A 
HETATM   20  C   UNL     1     -37.252 -48.232  14.864  1.00  0.00     0.037 A 
HETATM   21  C   UNL     1     -36.998 -49.518  15.376  1.00  0.00     0.108 A 
HETATM   22  N   UNL     1     -37.438 -50.483  14.565  1.00  0.00    -0.310 N 
ATOM     23  HN  UNL     1     -37.394 -51.493  14.704  1.00  0.00     0.186 HD
ENDBRANCH  17  18
ENDBRANCH  16  17
ENDBRANCH  14  16
ENDBRANCH  13  14
ENDBRANCH   2  13
TORSDOF 5
ENDMDL
MODEL 6
REMARK VINA RESULT:      -5.9      3.204      5.796
REMARK  5 active torsions:
REMARK  status: ('A' for Active; 'I' for Inactive)
REMARK    1  A    between atoms: C_2  and  C_3 
REMARK       I    between atoms: C_2  and  N_13 
REMARK    2  A    between atoms: C_3  and  N_4 
REMARK    3  A    between atoms: N_4  and  C_5 
REMARK    4  A    between atoms: C_5  and  C_6 
REMARK    5  A    between atoms: C_6  and  N_7 
ROOT
HETATM    1  O   UNL     1     -41.552 -51.867  12.600  1.00  0.00    -0.271 OA
HETATM    2  C   UNL     1     -41.488 -51.816  13.827  1.00  0.00     0.248 C 
HETATM    3  N   UNL     1     -42.603 -51.907  14.684  1.00  0.00    -0.346 N 
HETATM    4  C   UNL     1     -42.503 -51.664  16.131  1.00  0.00     0.126 C 
HETATM    5  C   UNL     1     -43.377 -50.487  16.545  1.00  0.00     0.020 C 
HETATM    6  C   UNL     1     -44.824 -50.734  16.146  1.00  0.00     0.008 C 
HETATM    7  C   UNL     1     -44.937 -51.040  14.643  1.00  0.00     0.009 C 
HETATM    8  C   UNL     1     -46.401 -51.350  14.302  1.00  0.00     0.007 C 
HETATM    9  C   UNL     1     -46.574 -51.729  12.839  1.00  0.00     0.001 C 
HETATM   10  C   UNL     1     -45.672 -52.901  12.469  1.00  0.00     0.002 C 
HETATM   11  C   UNL     1     -44.203 -52.589  12.763  1.00  0.00     0.026 C 
HETATM   12  C   UNL     1     -43.988 -52.199  14.233  1.00  0.00     0.091 C 
ENDROOT
BRANCH   2  13
HETATM   13  C   UNL     1     -40.143 -51.639  14.550  1.00  0.00     0.372 C 
BRANCH  13  14
HETATM   14  N   UNL     1     -38.958 -51.985  13.742  1.00  0.00     0.093 N 
HETATM   15  H   UNL     1     -39.282 -52.437  12.884  1.00  0.00     0.316 HD
BRANCH  14  16
HETATM   16  C   UNL     1     -38.182 -50.767  13.426  1.00  0.00     0.291 C 
BRANCH  16  17
HETATM   17  C   UNL     1     -38.204 -50.417  11.930  1.00  0.00     0.178 C 
BRANCH  17  18
HETATM   18  N   UNL     1     -39.263 -49.496  11.575  1.00  0.00    -0.302 N 
HETATM   19  C   UNL     1     -39.483 -48.259  12.112  1.00  0.00     0.111 A 
HETATM   20  C   UNL     1     -40.687 -47.835  11.605  1.00  0.00     0.037 A 
HETATM   21  C   UNL     1     -41.116 -48.885  10.774  1.00  0.00     0.108 A 
HETATM   22  N   UNL     1     -40.245 -49.896  10.741  1.00  0.00    -0.310 N 
ATOM     23  HN  UNL     1     -40.306 -50.765  10.211  1.00  0.00     0.186 HD
ENDBRANCH  17  18
ENDBRANCH  16  17
ENDBRANCH  14  16
ENDBRANCH  13  14
ENDBRANCH   2  13
TORSDOF 5
ENDMDL
MODEL 7
REMARK VINA RESULT:      -5.8      2.262      3.875
REMARK  5 active torsions:
REMARK  status: ('A' for Active; 'I' for Inactive)
REMARK    1  A    between atoms: C_2  and  C_3 
REMARK       I    between atoms: C_2  and  N_13 
REMARK    2  A    between atoms: C_3  and  N_4 
REMARK    3  A    between atoms: N_4  and  C_5 
REMARK    4  A    between atoms: C_5  and  C_6 
REMARK    5  A    between atoms: C_6  and  N_7 
ROOT
HETATM    1  O   UNL     1     -41.818 -51.190  12.176  1.00  0.00    -0.271 OA
HETATM    2  C   UNL     1     -40.809 -51.794  12.538  1.00  0.00     0.248 C 
HETATM    3  N   UNL     1     -40.820 -53.064  13.147  1.00  0.00    -0.346 N 
HETATM    4  C   UNL     1     -39.610 -53.669  13.724  1.00  0.00     0.126 C 
HETATM    5  C   UNL     1     -39.784 -53.913  15.217  1.00  0.00     0.020 C 
HETATM    6  C   UNL     1     -40.995 -54.797  15.473  1.00  0.00     0.008 C 
HETATM    7  C   UNL     1     -42.259 -54.202  14.832  1.00  0.00     0.009 C 
HETATM    8  C   UNL     1     -43.436 -55.161  15.056  1.00  0.00     0.007 C 
HETATM    9  C   UNL     1     -44.708 -54.662  14.386  1.00  0.00     0.001 C 
HETATM   10  C   UNL     1     -44.482 -54.421  12.898  1.00  0.00     0.002 C 
HETATM   11  C   UNL     1     -43.339 -53.432  12.661  1.00  0.00     0.026 C 
HETATM   12  C   UNL     1     -42.035 -53.900  13.325  1.00  0.00     0.091 C 
ENDROOT
BRANCH   2  13
HETATM   13  C   UNL     1     -39.407 -51.190  12.352  1.00  0.00     0.372 C 
BRANCH  13  14
HETATM   14  N   UNL     1     -39.359 -49.998  11.485  1.00  0.00     0.093 N 
HETATM   15  H   UNL     1     -40.155 -50.040  10.845  1.00  0.00     0.316 HD
BRANCH  14  16
HETATM   16  C   UNL     1     -39.417 -48.767  12.304  1.00  0.00     0.291 C 
BRANCH  16  17
HETATM   17  C   UNL     1     -39.834 -47.531  11.494  1.00  0.00     0.178 C 
BRANCH  17  18
HETATM   18  N   UNL     1     -41.238 -47.528  11.138  1.00  0.00    -0.302 N 
HETATM   19  C   UNL     1     -42.292 -47.747  11.977  1.00  0.00     0.111 A 
HETATM   20  C   UNL     1     -43.405 -47.827  11.175  1.00  0.00     0.037 A 
HETATM   21  C   UNL     1     -42.918 -47.644   9.868  1.00  0.00     0.108 A 
HETATM   22  N   UNL     1     -41.598 -47.448   9.841  1.00  0.00    -0.310 N 
ATOM     23  HN  UNL     1     -41.002 -47.277   9.031  1.00  0.00     0.186 HD
ENDBRANCH  17  18
ENDBRANCH  16  17
ENDBRANCH  14  16
ENDBRANCH  13  14
ENDBRANCH   2  13
TORSDOF 5
ENDMDL
MODEL 8
REMARK VINA RESULT:      -5.8      3.165      5.541
REMARK  5 active torsions:
REMARK  status: ('A' for Active; 'I' for Inactive)
REMARK    1  A    between atoms: C_2  and  C_3 
REMARK       I    between atoms: C_2  and  N_13 
REMARK    2  A    between atoms: C_3  and  N_4 
REMARK    3  A    between atoms: N_4  and  C_5 
REMARK    4  A    between atoms: C_5  and  C_6 
REMARK    5  A    between atoms: C_6  and  N_7 
ROOT
HETATM    1  O   UNL     1     -42.563 -51.645  12.158  1.00  0.00    -0.271 OA
HETATM    2  C   UNL     1     -41.502 -51.848  12.745  1.00  0.00     0.248 C 
HETATM    3  N   UNL     1     -40.536 -50.856  13.005  1.00  0.00    -0.346 N 
HETATM    4  C   UNL     1     -39.208 -51.176  13.551  1.00  0.00     0.126 C 
HETATM    5  C   UNL     1     -38.109 -50.761  12.581  1.00  0.00     0.020 C 
HETATM    6  C   UNL     1     -38.211 -49.276  12.267  1.00  0.00     0.008 C 
HETATM    7  C   UNL     1     -39.611 -48.918  11.743  1.00  0.00     0.009 C 
HETATM    8  C   UNL     1     -39.688 -47.403  11.507  1.00  0.00     0.007 C 
HETATM    9  C   UNL     1     -41.073 -46.971  11.050  1.00  0.00     0.001 C 
HETATM   10  C   UNL     1     -42.139 -47.418  12.044  1.00  0.00     0.002 C 
HETATM   11  C   UNL     1     -42.103 -48.933  12.256  1.00  0.00     0.026 C 
HETATM   12  C   UNL     1     -40.717 -49.410  12.716  1.00  0.00     0.091 C 
ENDROOT
BRANCH   2  13
HETATM   13  C   UNL     1     -41.128 -53.249  13.259  1.00  0.00     0.372 C 
BRANCH  13  14
HETATM   14  N   UNL     1     -42.099 -54.307  12.925  1.00  0.00     0.093 N 
HETATM   15  H   UNL     1     -41.588 -55.188  12.831  1.00  0.00     0.316 HD
BRANCH  14  16
HETATM   16  C   UNL     1     -43.124 -54.415  13.986  1.00  0.00     0.291 C 
BRANCH  16  17
HETATM   17  C   UNL     1     -44.554 -54.492  13.429  1.00  0.00     0.178 C 
BRANCH  17  18
HETATM   18  N   UNL     1     -45.241 -53.218  13.443  1.00  0.00    -0.302 N 
HETATM   19  C   UNL     1     -45.827 -52.619  14.521  1.00  0.00     0.111 A 
HETATM   20  C   UNL     1     -46.503 -51.529  14.029  1.00  0.00     0.037 A 
HETATM   21  C   UNL     1     -46.265 -51.556  12.643  1.00  0.00     0.108 A 
HETATM   22  N   UNL     1     -45.484 -52.577  12.282  1.00  0.00    -0.310 N 
ATOM     23  HN  UNL     1     -45.150 -52.816  11.348  1.00  0.00     0.186 HD
ENDBRANCH  17  18
ENDBRANCH  16  17
ENDBRANCH  14  16
ENDBRANCH  13  14
ENDBRANCH   2  13
TORSDOF 5
ENDMDL
MODEL 9
REMARK VINA RESULT:      -5.6      4.973      7.713
REMARK  5 active torsions:
REMARK  status: ('A' for Active; 'I' for Inactive)
REMARK    1  A    between atoms: C_2  and  C_3 
REMARK       I    between atoms: C_2  and  N_13 
REMARK    2  A    between atoms: C_3  and  N_4 
REMARK    3  A    between atoms: N_4  and  C_5 
REMARK    4  A    between atoms: C_5  and  C_6 
REMARK    5  A    between atoms: C_6  and  N_7 
ROOT
HETATM    1  O   UNL     1     -44.364 -54.822  16.899  1.00  0.00    -0.271 OA
HETATM    2  C   UNL     1     -44.155 -54.186  15.867  1.00  0.00     0.248 C 
HETATM    3  N   UNL     1     -44.746 -52.942  15.569  1.00  0.00    -0.346 N 
HETATM    4  C   UNL     1     -44.607 -52.303  14.251  1.00  0.00     0.126 C 
HETATM    5  C   UNL     1     -45.967 -52.127  13.587  1.00  0.00     0.020 C 
HETATM    6  C   UNL     1     -46.892 -51.313  14.479  1.00  0.00     0.008 C 
HETATM    7  C   UNL     1     -47.007 -51.943  15.877  1.00  0.00     0.009 C 
HETATM    8  C   UNL     1     -47.891 -51.051  16.759  1.00  0.00     0.007 C 
HETATM    9  C   UNL     1     -47.992 -51.584  18.181  1.00  0.00     0.001 C 
HETATM   10  C   UNL     1     -46.609 -51.754  18.799  1.00  0.00     0.002 C 
HETATM   11  C   UNL     1     -45.730 -52.676  17.951  1.00  0.00     0.026 C 
HETATM   12  C   UNL     1     -45.605 -52.173  16.505  1.00  0.00     0.091 C 
ENDROOT
BRANCH   2  13
HETATM   13  C   UNL     1     -43.201 -54.713  14.782  1.00  0.00     0.372 C 
BRANCH  13  14
HETATM   14  N   UNL     1     -41.836 -55.015  15.255  1.00  0.00     0.093 N 
HETATM   15  H   UNL     1     -41.683 -56.021  15.157  1.00  0.00     0.316 HD
BRANCH  14  16
HETATM   16  C   UNL     1     -40.842 -54.261  14.460  1.00  0.00     0.291 C 
BRANCH  16  17
HETATM   17  C   UNL     1     -41.408 -53.748  13.128  1.00  0.00     0.178 C 
BRANCH  17  18
HETATM   18  N   UNL     1     -40.935 -52.424  12.779  1.00  0.00    -0.302 N 
HETATM   19  C   UNL     1     -40.448 -51.480  13.637  1.00  0.00     0.111 A 
HETATM   20  C   UNL     1     -40.296 -50.334  12.893  1.00  0.00     0.037 A 
HETATM   21  C   UNL     1     -40.720 -50.689  11.599  1.00  0.00     0.108 A 
HETATM   22  N   UNL     1     -41.098 -51.967  11.521  1.00  0.00    -0.310 N 
ATOM     23  HN  UNL     1     -41.432 -52.477  10.703  1.00  0.00     0.186 HD
ENDBRANCH  17  18
ENDBRANCH  16  17
ENDBRANCH  14  16
ENDBRANCH  13  14
ENDBRANCH   2  13
TORSDOF 5
ENDMDL
