MODEL 1
REMARK VINA RESULT:      -6.0      0.000      0.000
REMARK  7 active torsions:
REMARK  status: ('A' for Active; 'I' for Inactive)
REMARK    1  A    between atoms: N_6  and  C_7 
REMARK    2  A    between atoms: C_7  and  C_8 
REMARK       I    between atoms: C_8  and  N_10 
REMARK    3  A    between atoms: N_10  and  C_11 
REMARK    4  A    between atoms: C_11  and  C_12 
REMARK    5  A    between atoms: C_12  and  C_13 
REMARK    6  A    between atoms: C_13  and  O_14 
REMARK    7  A    between atoms: O_14  and  C_15 
ROOT
HETATM    1  C   UNL     1     -42.635 -53.669  14.716  1.00  0.00     0.235 C 
HETATM    2  O   UNL     1     -42.016 -52.762  15.269  1.00  0.00    -0.272 OA
HETATM    3  N   UNL     1     -42.147 -54.363  13.627  1.00  0.00    -0.360 N 
HETATM    4  H   UNL     1     -42.636 -55.200  13.326  1.00  0.00     0.162 HD
ENDROOT
BRANCH   3   5
HETATM    5  C   UNL     1     -40.809 -54.127  13.143  1.00  0.00     0.125 C 
BRANCH   5   6
HETATM    6  C   UNL     1     -39.709 -54.639  14.078  1.00  0.00     0.046 C 
BRANCH   6   7
HETATM    7  C   UNL     1     -38.728 -53.491  14.276  1.00  0.00     0.169 C 
BRANCH   7   8
HETATM    8  O   UNL     1     -38.705 -52.533  13.211  1.00  0.00    -0.386 OA
BRANCH   8   9
HETATM    9  C   UNL     1     -38.618 -51.194  13.745  1.00  0.00     0.121 C 
HETATM   10  C   UNL     1     -39.944 -50.427  13.595  1.00  0.00     0.032 C 
HETATM   11  C   UNL     1     -40.155 -49.862  12.197  1.00  0.00     0.002 C 
HETATM   12  C   UNL     1     -39.005 -48.933  11.847  1.00  0.00     0.000 C 
HETATM   13  C   UNL     1     -37.702 -49.721  11.814  1.00  0.00     0.002 C 
HETATM   14  C   UNL     1     -37.423 -50.439  13.134  1.00  0.00     0.032 C 
ENDBRANCH   8   9
ENDBRANCH   7   8
ENDBRANCH   6   7
ENDBRANCH   5   6
ENDBRANCH   3   5
BRANCH   1  15
HETATM   15  C   UNL     1     -43.972 -54.178  15.244  1.00  0.00     0.234 C 
BRANCH  15  16
HETATM   16  N   UNL     1     -45.078 -53.267  14.949  1.00  0.00    -0.315 N 
HETATM   17  C   UNL     1     -45.584 -52.454  15.951  1.00  0.00     0.095 C 
HETATM   18  C   UNL     1     -46.535 -51.549  15.691  1.00  0.00     0.018 C 
HETATM   19  C   UNL     1     -46.957 -51.329  14.335  1.00  0.00     0.013 C 
HETATM   20  C   UNL     1     -46.514 -52.106  13.335  1.00  0.00     0.006 C 
HETATM   21  C   UNL     1     -46.784 -51.852  11.887  1.00  0.00     0.054 C 
HETATM   22  C   UNL     1     -45.603 -53.255  13.659  1.00  0.00     0.253 C 
HETATM   23  O   UNL     1     -45.323 -54.090  12.801  1.00  0.00    -0.267 OA
ENDBRANCH  15  16
ENDBRANCH   1  15
TORSDOF 7
ENDMDL
MODEL 2
REMARK VINA RESULT:      -5.9      1.485      2.097
REMARK  7 active torsions:
REMARK  status: ('A' for Active; 'I' for Inactive)
REMARK    1  A    between atoms: N_6  and  C_7 
REMARK    2  A    between atoms: C_7  and  C_8 
REMARK       I    between atoms: C_8  and  N_10 
REMARK    3  A    between atoms: N_10  and  C_11 
REMARK    4  A    between atoms: C_11  and  C_12 
REMARK    5  A    between atoms: C_12  and  C_13 
REMARK    6  A    between atoms: C_13  and  O_14 
REMARK    7  A    between atoms: O_14  and  C_15 
ROOT
HETATM    1  C   UNL     1     -43.497 -55.094  14.777  1.00  0.00     0.235 C 
HETATM    2  O   UNL     1     -43.265 -55.867  15.704  1.00  0.00    -0.272 OA
HETATM    3  N   UNL     1     -42.537 -54.272  14.220  1.00  0.00    -0.360 N 
HETATM    4  H   UNL     1     -42.757 -53.783  13.358  1.00  0.00     0.162 HD
ENDROOT
BRANCH   3   5
HETATM    5  C   UNL     1     -41.160 -54.361  14.637  1.00  0.00     0.125 C 
BRANCH   5   6
HETATM    6  C   UNL     1     -40.152 -54.056  13.525  1.00  0.00     0.046 C 
BRANCH   6   7
HETATM    7  C   UNL     1     -40.811 -53.044  12.597  1.00  0.00     0.169 C 
BRANCH   7   8
HETATM    8  O   UNL     1     -39.964 -51.961  12.195  1.00  0.00    -0.386 OA
BRANCH   8   9
HETATM    9  C   UNL     1     -39.218 -51.463  13.329  1.00  0.00     0.121 C 
HETATM   10  C   UNL     1     -39.972 -50.342  14.066  1.00  0.00     0.032 C 
HETATM   11  C   UNL     1     -39.848 -48.987  13.382  1.00  0.00     0.002 C 
HETATM   12  C   UNL     1     -38.382 -48.606  13.272  1.00  0.00     0.000 C 
HETATM   13  C   UNL     1     -37.656 -49.614  12.390  1.00  0.00     0.002 C 
HETATM   14  C   UNL     1     -37.798 -51.046  12.906  1.00  0.00     0.032 C 
ENDBRANCH   8   9
ENDBRANCH   7   8
ENDBRANCH   6   7
ENDBRANCH   5   6
ENDBRANCH   3   5
BRANCH   1  15
HETATM   15  C   UNL     1     -44.856 -55.038  14.087  1.00  0.00     0.234 C 
BRANCH  15  16
HETATM   16  N   UNL     1     -45.435 -53.695  14.089  1.00  0.00    -0.315 N 
HETATM   17  C   UNL     1     -45.476 -52.963  12.914  1.00  0.00     0.095 C 
HETATM   18  C   UNL     1     -46.078 -51.769  12.866  1.00  0.00     0.018 C 
HETATM   19  C   UNL     1     -46.796 -51.286  14.013  1.00  0.00     0.013 C 
HETATM   20  C   UNL     1     -46.765 -51.947  15.180  1.00  0.00     0.006 C 
HETATM   21  C   UNL     1     -47.598 -51.597  16.370  1.00  0.00     0.054 C 
HETATM   22  C   UNL     1     -45.919 -53.184  15.291  1.00  0.00     0.253 C 
HETATM   23  O   UNL     1     -45.725 -53.710  16.385  1.00  0.00    -0.267 OA
ENDBRANCH  15  16
ENDBRANCH   1  15
TORSDOF 7
ENDMDL
MODEL 3
REMARK VINA RESULT:      -5.9      1.673      2.864
REMARK  7 active torsions:
REMARK  status: ('A' for Active; 'I' for Inactive)
REMARK    1  A    between atoms: N_6  and  C_7 
REMARK    2  A    between atoms: C_7  and  C_8 
REMARK       I    between atoms: C_8  and  N_10 
REMARK    3  A    between atoms: N_10  and  C_11 
REMARK    4  A    between atoms: C_11  and  C_12 
REMARK    5  A    between atoms: C_12  and  C_13 
REMARK    6  A    between atoms: C_13  and  O_14 
REMARK    7  A    between atoms: O_14  and  C_15 
ROOT
HETATM    1  C   UNL     1     -44.794 -54.662  13.719  1.00  0.00     0.235 C 
HETATM    2  O   UNL     1     -44.731 -54.498  12.502  1.00  0.00    -0.272 OA
HETATM    3  N   UNL     1     -43.680 -54.727  14.532  1.00  0.00    -0.360 N 
HETATM    4  H   UNL     1     -43.811 -54.700  15.538  1.00  0.00     0.162 HD
ENDROOT
BRANCH   3   5
HETATM    5  C   UNL     1     -42.362 -54.491  13.995  1.00  0.00     0.125 C 
BRANCH   5   6
HETATM    6  C   UNL     1     -41.998 -53.009  13.867  1.00  0.00     0.046 C 
BRANCH   6   7
HETATM    7  C   UNL     1     -41.586 -52.778  12.419  1.00  0.00     0.169 C 
BRANCH   7   8
HETATM    8  O   UNL     1     -40.207 -52.436  12.237  1.00  0.00    -0.386 OA
BRANCH   8   9
HETATM    9  C   UNL     1     -39.822 -51.401  13.169  1.00  0.00     0.121 C 
HETATM   10  C   UNL     1     -40.082 -49.993  12.604  1.00  0.00     0.032 C 
HETATM   11  C   UNL     1     -39.005 -49.528  11.633  1.00  0.00     0.002 C 
HETATM   12  C   UNL     1     -37.655 -49.539  12.330  1.00  0.00     0.000 C 
HETATM   13  C   UNL     1     -37.299 -50.963  12.736  1.00  0.00     0.002 C 
HETATM   14  C   UNL     1     -38.366 -51.596  13.630  1.00  0.00     0.032 C 
ENDBRANCH   8   9
ENDBRANCH   7   8
ENDBRANCH   6   7
ENDBRANCH   5   6
ENDBRANCH   3   5
BRANCH   1  15
HETATM   15  C   UNL     1     -46.125 -54.716  14.463  1.00  0.00     0.234 C 
BRANCH  15  16
HETATM   16  N   UNL     1     -46.364 -53.524  15.277  1.00  0.00    -0.315 N 
HETATM   17  C   UNL     1     -46.814 -52.361  14.675  1.00  0.00     0.095 C 
HETATM   18  C   UNL     1     -47.125 -51.282  15.405  1.00  0.00     0.018 C 
HETATM   19  C   UNL     1     -47.108 -51.364  16.839  1.00  0.00     0.013 C 
HETATM   20  C   UNL     1     -46.657 -52.461  17.467  1.00  0.00     0.006 C 
HETATM   21  C   UNL     1     -46.744 -52.684  18.942  1.00  0.00     0.054 C 
HETATM   22  C   UNL     1     -46.114 -53.595  16.646  1.00  0.00     0.253 C 
HETATM   23  O   UNL     1     -45.532 -54.533  17.186  1.00  0.00    -0.267 OA
ENDBRANCH  15  16
ENDBRANCH   1  15
TORSDOF 7
ENDMDL
MODEL 4
REMARK VINA RESULT:      -5.8      2.032      2.930
REMARK  7 active torsions:
REMARK  status: ('A' for Active; 'I' for Inactive)
REMARK    1  A    between atoms: N_6  and  C_7 
REMARK    2  A    between atoms: C_7  and  C_8 
REMARK       I    between atoms: C_8  and  N_10 
REMARK    3  A    between atoms: N_10  and  C_11 
REMARK    4  A    between atoms: C_11  and  C_12 
REMARK    5  A    between atoms: C_12  and  C_13 
REMARK    6  A    between atoms: C_13  and  O_14 
REMARK    7  A    between atoms: O_14  and  C_15 
ROOT
HETATM    1  C   UNL     1     -42.563 -54.012  14.663  1.00  0.00     0.235 C 
HETATM    2  O   UNL     1     -41.792 -53.696  15.568  1.00  0.00    -0.272 OA
HETATM    3  N   UNL     1     -42.212 -53.985  13.328  1.00  0.00    -0.360 N 
HETATM    4  H   UNL     1     -42.839 -54.411  12.652  1.00  0.00     0.162 HD
ENDROOT
BRANCH   3   5
HETATM    5  C   UNL     1     -40.860 -53.682  12.928  1.00  0.00     0.125 C 
BRANCH   5   6
HETATM    6  C   UNL     1     -40.515 -52.190  12.978  1.00  0.00     0.046 C 
BRANCH   6   7
HETATM    7  C   UNL     1     -41.535 -51.472  12.104  1.00  0.00     0.169 C 
BRANCH   7   8
HETATM    8  O   UNL     1     -41.341 -50.056  12.001  1.00  0.00    -0.386 OA
BRANCH   8   9
HETATM    9  C   UNL     1     -42.574 -49.360  12.287  1.00  0.00     0.121 C 
HETATM   10  C   UNL     1     -42.322 -47.928  12.794  1.00  0.00     0.032 C 
HETATM   11  C   UNL     1     -41.941 -47.872  14.266  1.00  0.00     0.002 C 
HETATM   12  C   UNL     1     -43.043 -48.503  15.100  1.00  0.00     0.000 C 
HETATM   13  C   UNL     1     -43.180 -49.976  14.736  1.00  0.00     0.002 C 
HETATM   14  C   UNL     1     -43.454 -50.183  13.246  1.00  0.00     0.032 C 
ENDBRANCH   8   9
ENDBRANCH   7   8
ENDBRANCH   6   7
ENDBRANCH   5   6
ENDBRANCH   3   5
BRANCH   1  15
HETATM   15  C   UNL     1     -43.960 -54.557  14.940  1.00  0.00     0.234 C 
BRANCH  15  16
HETATM   16  N   UNL     1     -44.999 -53.537  14.808  1.00  0.00    -0.315 N 
HETATM   17  C   UNL     1     -45.377 -52.795  15.915  1.00  0.00     0.095 C 
HETATM   18  C   UNL     1     -46.262 -51.796  15.806  1.00  0.00     0.018 C 
HETATM   19  C   UNL     1     -46.739 -51.406  14.509  1.00  0.00     0.013 C 
HETATM   20  C   UNL     1     -46.421 -52.109  13.411  1.00  0.00     0.006 C 
HETATM   21  C   UNL     1     -46.750 -51.687  12.016  1.00  0.00     0.054 C 
HETATM   22  C   UNL     1     -45.593 -53.353  13.561  1.00  0.00     0.253 C 
HETATM   23  O   UNL     1     -45.433 -54.114  12.610  1.00  0.00    -0.267 OA
ENDBRANCH  15  16
ENDBRANCH   1  15
TORSDOF 7
ENDMDL
MODEL 5
REMARK VINA RESULT:      -5.8      3.215      6.693
REMARK  7 active torsions:
REMARK  status: ('A' for Active; 'I' for Inactive)
REMARK    1  A    between atoms: N_6  and  C_7 
REMARK    2  A    between atoms: C_7  and  C_8 
REMARK       I    between atoms: C_8  and  N_10 
REMARK    3  A    between atoms: N_10  and  C_11 
REMARK    4  A    between atoms: C_11  and  C_12 
REMARK    5  A    between atoms: C_12  and  C_13 
REMARK    6  A    between atoms: C_13  and  O_14 
REMARK    7  A    between atoms: O_14  and  C_15 
ROOT
HETATM    1  C   UNL     1     -40.487 -50.070  12.099  1.00  0.00     0.235 C 
HETATM    2  O   UNL     1     -39.410 -50.251  11.534  1.00  0.00    -0.272 OA
HETATM    3  N   UNL     1     -41.441 -51.057  12.242  1.00  0.00    -0.360 N 
HETATM    4  H   UNL     1     -42.230 -50.884  12.857  1.00  0.00     0.162 HD
ENDROOT
BRANCH   3   5
HETATM    5  C   UNL     1     -41.170 -52.410  11.821  1.00  0.00     0.125 C 
BRANCH   5   6
HETATM    6  C   UNL     1     -41.331 -53.451  12.933  1.00  0.00     0.046 C 
BRANCH   6   7
HETATM    7  C   UNL     1     -42.822 -53.734  13.062  1.00  0.00     0.169 C 
BRANCH   7   8
HETATM    8  O   UNL     1     -43.642 -52.567  13.194  1.00  0.00    -0.386 OA
BRANCH   8   9
HETATM    9  C   UNL     1     -45.005 -52.869  12.822  1.00  0.00     0.121 C 
HETATM   10  C   UNL     1     -45.927 -51.645  12.970  1.00  0.00     0.032 C 
HETATM   11  C   UNL     1     -46.368 -51.398  14.406  1.00  0.00     0.002 C 
HETATM   12  C   UNL     1     -47.089 -52.626  14.934  1.00  0.00     0.000 C 
HETATM   13  C   UNL     1     -46.130 -53.810  14.964  1.00  0.00     0.002 C 
HETATM   14  C   UNL     1     -45.521 -54.098  13.592  1.00  0.00     0.032 C 
ENDBRANCH   8   9
ENDBRANCH   7   8
ENDBRANCH   6   7
ENDBRANCH   5   6
ENDBRANCH   3   5
BRANCH   1  15
HETATM   15  C   UNL     1     -40.832 -48.751  12.783  1.00  0.00     0.234 C 
BRANCH  15  16
HETATM   16  N   UNL     1     -41.447 -47.787  11.871  1.00  0.00    -0.315 N 
HETATM   17  C   UNL     1     -40.683 -46.764  11.336  1.00  0.00     0.095 C 
HETATM   18  C   UNL     1     -41.195 -45.920  10.432  1.00  0.00     0.018 C 
HETATM   19  C   UNL     1     -42.517 -46.145   9.917  1.00  0.00     0.013 C 
HETATM   20  C   UNL     1     -43.304 -47.108  10.421  1.00  0.00     0.006 C 
HETATM   21  C   UNL     1     -44.626 -47.503   9.846  1.00  0.00     0.054 C 
HETATM   22  C   UNL     1     -42.803 -47.923  11.579  1.00  0.00     0.253 C 
HETATM   23  O   UNL     1     -43.557 -48.686  12.178  1.00  0.00    -0.267 OA
ENDBRANCH  15  16
ENDBRANCH   1  15
TORSDOF 7
ENDMDL
MODEL 6
REMARK VINA RESULT:      -5.8      3.704      7.575
REMARK  7 active torsions:
REMARK  status: ('A' for Active; 'I' for Inactive)
REMARK    1  A    between atoms: N_6  and  C_7 
REMARK    2  A    between atoms: C_7  and  C_8 
REMARK       I    between atoms: C_8  and  N_10 
REMARK    3  A    between atoms: N_10  and  C_11 
REMARK    4  A    between atoms: C_11  and  C_12 
REMARK    5  A    between atoms: C_12  and  C_13 
REMARK    6  A    between atoms: C_13  and  O_14 
REMARK    7  A    between atoms: O_14  and  C_15 
ROOT
HETATM    1  C   UNL     1     -41.025 -49.290  11.283  1.00  0.00     0.235 C 
HETATM    2  O   UNL     1     -39.813 -49.442  11.422  1.00  0.00    -0.272 OA
HETATM    3  N   UNL     1     -41.961 -50.163  11.803  1.00  0.00    -0.360 N 
HETATM    4  H   UNL     1     -42.939 -49.890  11.791  1.00  0.00     0.162 HD
ENDROOT
BRANCH   3   5
HETATM    5  C   UNL     1     -41.556 -51.261  12.645  1.00  0.00     0.125 C 
BRANCH   5   6
HETATM    6  C   UNL     1     -41.754 -52.640  12.007  1.00  0.00     0.046 C 
BRANCH   6   7
HETATM    7  C   UNL     1     -43.091 -53.170  12.510  1.00  0.00     0.169 C 
BRANCH   7   8
HETATM    8  O   UNL     1     -44.054 -52.158  12.829  1.00  0.00    -0.386 OA
BRANCH   8   9
HETATM    9  C   UNL     1     -45.393 -52.688  12.711  1.00  0.00     0.121 C 
HETATM   10  C   UNL     1     -46.462 -51.618  12.998  1.00  0.00     0.032 C 
HETATM   11  C   UNL     1     -46.682 -51.374  14.484  1.00  0.00     0.002 C 
HETATM   12  C   UNL     1     -47.092 -52.674  15.156  1.00  0.00     0.000 C 
HETATM   13  C   UNL     1     -45.964 -53.690  15.037  1.00  0.00     0.002 C 
HETATM   14  C   UNL     1     -45.561 -53.944  13.584  1.00  0.00     0.032 C 
ENDBRANCH   8   9
ENDBRANCH   7   8
ENDBRANCH   6   7
ENDBRANCH   5   6
ENDBRANCH   3   5
BRANCH   1  15
HETATM   15  C   UNL     1     -41.616 -48.062  10.599  1.00  0.00     0.234 C 
BRANCH  15  16
HETATM   16  N   UNL     1     -41.651 -46.891  11.475  1.00  0.00    -0.315 N 
HETATM   17  C   UNL     1     -42.723 -46.707  12.333  1.00  0.00     0.095 C 
HETATM   18  C   UNL     1     -42.741 -45.694  13.208  1.00  0.00     0.018 C 
HETATM   19  C   UNL     1     -41.585 -44.852  13.346  1.00  0.00     0.013 C 
HETATM   20  C   UNL     1     -40.533 -44.976  12.522  1.00  0.00     0.006 C 
HETATM   21  C   UNL     1     -39.239 -44.247  12.692  1.00  0.00     0.054 C 
HETATM   22  C   UNL     1     -40.600 -45.980  11.407  1.00  0.00     0.253 C 
HETATM   23  O   UNL     1     -39.738 -45.997  10.531  1.00  0.00    -0.267 OA
ENDBRANCH  15  16
ENDBRANCH   1  15
TORSDOF 7
ENDMDL
MODEL 7
REMARK VINA RESULT:      -5.6      2.080      6.260
REMARK  7 active torsions:
REMARK  status: ('A' for Active; 'I' for Inactive)
REMARK    1  A    between atoms: N_6  and  C_7 
REMARK    2  A    between atoms: C_7  and  C_8 
REMARK       I    between atoms: C_8  and  N_10 
REMARK    3  A    between atoms: N_10  and  C_11 
REMARK    4  A    between atoms: C_11  and  C_12 
REMARK    5  A    between atoms: C_12  and  C_13 
REMARK    6  A    between atoms: C_13  and  O_14 
REMARK    7  A    between atoms: O_14  and  C_15 
ROOT
HETATM    1  C   UNL     1     -40.872 -52.510  12.937  1.00  0.00     0.235 C 
HETATM    2  O   UNL     1     -39.757 -52.990  13.130  1.00  0.00    -0.272 OA
HETATM    3  N   UNL     1     -41.906 -52.610  13.848  1.00  0.00    -0.360 N 
HETATM    4  H   UNL     1     -42.742 -52.055  13.696  1.00  0.00     0.162 HD
ENDROOT
BRANCH   3   5
HETATM    5  C   UNL     1     -41.689 -53.201  15.145  1.00  0.00     0.125 C 
BRANCH   5   6
HETATM    6  C   UNL     1     -42.041 -54.690  15.217  1.00  0.00     0.046 C 
BRANCH   6   7
HETATM    7  C   UNL     1     -43.506 -54.779  15.624  1.00  0.00     0.169 C 
BRANCH   7   8
HETATM    8  O   UNL     1     -44.222 -53.540  15.554  1.00  0.00    -0.386 OA
BRANCH   8   9
HETATM    9  C   UNL     1     -45.531 -53.751  14.979  1.00  0.00     0.121 C 
HETATM   10  C   UNL     1     -45.457 -54.022  13.465  1.00  0.00     0.032 C 
HETATM   11  C   UNL     1     -45.292 -52.755  12.638  1.00  0.00     0.002 C 
HETATM   12  C   UNL     1     -46.451 -51.812  12.915  1.00  0.00     0.000 C 
HETATM   13  C   UNL     1     -46.428 -51.390  14.379  1.00  0.00     0.002 C 
HETATM   14  C   UNL     1     -46.475 -52.587  15.329  1.00  0.00     0.032 C 
ENDBRANCH   8   9
ENDBRANCH   7   8
ENDBRANCH   6   7
ENDBRANCH   5   6
ENDBRANCH   3   5
BRANCH   1  15
HETATM   15  C   UNL     1     -41.193 -51.672  11.704  1.00  0.00     0.234 C 
BRANCH  15  16
HETATM   16  N   UNL     1     -40.939 -50.247  11.910  1.00  0.00    -0.315 N 
HETATM   17  C   UNL     1     -39.661 -49.744  11.728  1.00  0.00     0.095 C 
HETATM   18  C   UNL     1     -39.416 -48.431  11.822  1.00  0.00     0.018 C 
HETATM   19  C   UNL     1     -40.508 -47.514  11.998  1.00  0.00     0.013 C 
HETATM   20  C   UNL     1     -41.759 -47.954  12.203  1.00  0.00     0.006 C 
HETATM   21  C   UNL     1     -42.966 -47.074  12.245  1.00  0.00     0.054 C 
HETATM   22  C   UNL     1     -42.000 -49.433  12.302  1.00  0.00     0.253 C 
HETATM   23  O   UNL     1     -43.092 -49.865  12.665  1.00  0.00    -0.267 OA
ENDBRANCH  15  16
ENDBRANCH   1  15
TORSDOF 7
ENDMDL
MODEL 8
REMARK VINA RESULT:      -5.6      1.747      6.547
REMARK  7 active torsions:
REMARK  status: ('A' for Active; 'I' for Inactive)
REMARK    1  A    between atoms: N_6  and  C_7 
REMARK    2  A    between atoms: C_7  and  C_8 
REMARK       I    between atoms: C_8  and  N_10 
REMARK    3  A    between atoms: N_10  and  C_11 
REMARK    4  A    between atoms: C_11  and  C_12 
REMARK    5  A    between atoms: C_12  and  C_13 
REMARK    6  A    between atoms: C_13  and  O_14 
REMARK    7  A    between atoms: O_14  and  C_15 
ROOT
HETATM    1  C   UNL     1     -39.479 -53.326  14.142  1.00  0.00     0.235 C 
HETATM    2  O   UNL     1     -38.796 -54.267  13.741  1.00  0.00    -0.272 OA
HETATM    3  N   UNL     1     -40.849 -53.402  14.301  1.00  0.00    -0.360 N 
HETATM    4  H   UNL     1     -41.323 -52.647  14.787  1.00  0.00     0.162 HD
ENDROOT
BRANCH   3   5
HETATM    5  C   UNL     1     -41.545 -54.649  14.106  1.00  0.00     0.125 C 
BRANCH   5   6
HETATM    6  C   UNL     1     -42.537 -54.990  15.222  1.00  0.00     0.046 C 
BRANCH   6   7
HETATM    7  C   UNL     1     -43.919 -54.591  14.723  1.00  0.00     0.169 C 
BRANCH   7   8
HETATM    8  O   UNL     1     -44.475 -53.436  15.363  1.00  0.00    -0.386 OA
BRANCH   8   9
HETATM    9  C   UNL     1     -44.332 -52.276  14.512  1.00  0.00     0.121 C 
HETATM   10  C   UNL     1     -45.328 -51.163  14.886  1.00  0.00     0.032 C 
HETATM   11  C   UNL     1     -46.727 -51.402  14.336  1.00  0.00     0.002 C 
HETATM   12  C   UNL     1     -46.665 -51.520  12.823  1.00  0.00     0.000 C 
HETATM   13  C   UNL     1     -45.826 -52.733  12.438  1.00  0.00     0.002 C 
HETATM   14  C   UNL     1     -44.417 -52.675  13.028  1.00  0.00     0.032 C 
ENDBRANCH   8   9
ENDBRANCH   7   8
ENDBRANCH   6   7
ENDBRANCH   5   6
ENDBRANCH   3   5
BRANCH   1  15
HETATM   15  C   UNL     1     -38.860 -52.007  14.592  1.00  0.00     0.234 C 
BRANCH  15  16
HETATM   16  N   UNL     1     -38.689 -51.060  13.491  1.00  0.00    -0.315 N 
HETATM   17  C   UNL     1     -37.468 -50.976  12.842  1.00  0.00     0.095 C 
HETATM   18  C   UNL     1     -37.307 -50.183  11.775  1.00  0.00     0.018 C 
HETATM   19  C   UNL     1     -38.441 -49.499  11.219  1.00  0.00     0.013 C 
HETATM   20  C   UNL     1     -39.637 -49.530  11.826  1.00  0.00     0.006 C 
HETATM   21  C   UNL     1     -40.894 -48.975  11.239  1.00  0.00     0.054 C 
HETATM   22  C   UNL     1     -39.767 -50.253  13.135  1.00  0.00     0.253 C 
HETATM   23  O   UNL     1     -40.794 -50.153  13.804  1.00  0.00    -0.267 OA
ENDBRANCH  15  16
ENDBRANCH   1  15
TORSDOF 7
ENDMDL
MODEL 9
REMARK VINA RESULT:      -5.6      1.257      1.911
REMARK  7 active torsions:
REMARK  status: ('A' for Active; 'I' for Inactive)
REMARK    1  A    between atoms: N_6  and  C_7 
REMARK    2  A    between atoms: C_7  and  C_8 
REMARK       I    between atoms: C_8  and  N_10 
REMARK    3  A    between atoms: N_10  and  C_11 
REMARK    4  A    between atoms: C_11  and  C_12 
REMARK    5  A    between atoms: C_12  and  C_13 
REMARK    6  A    between atoms: C_13  and  O_14 
REMARK    7  A    between atoms: O_14  and  C_15 
ROOT
HETATM    1  C   UNL     1     -42.689 -54.129  14.680  1.00  0.00     0.235 C 
HETATM    2  O   UNL     1     -41.879 -53.841  15.559  1.00  0.00    -0.272 OA
HETATM    3  N   UNL     1     -42.381 -54.111  13.334  1.00  0.00    -0.360 N 
HETATM    4  H   UNL     1     -43.043 -54.515  12.679  1.00  0.00     0.162 HD
ENDROOT
BRANCH   3   5
HETATM    5  C   UNL     1     -41.033 -53.853  12.890  1.00  0.00     0.125 C 
BRANCH   5   6
HETATM    6  C   UNL     1     -40.870 -52.533  12.130  1.00  0.00     0.046 C 
BRANCH   6   7
HETATM    7  C   UNL     1     -40.758 -51.432  13.176  1.00  0.00     0.169 C 
BRANCH   7   8
HETATM    8  O   UNL     1     -39.430 -50.938  13.384  1.00  0.00    -0.386 OA
BRANCH   8   9
HETATM    9  C   UNL     1     -39.194 -49.777  12.556  1.00  0.00     0.121 C 
HETATM   10  C   UNL     1     -37.780 -49.204  12.759  1.00  0.00     0.032 C 
HETATM   11  C   UNL     1     -37.655 -48.345  14.010  1.00  0.00     0.002 C 
HETATM   12  C   UNL     1     -38.647 -47.197  13.939  1.00  0.00     0.000 C 
HETATM   13  C   UNL     1     -40.067 -47.748  13.921  1.00  0.00     0.002 C 
HETATM   14  C   UNL     1     -40.297 -48.724  12.767  1.00  0.00     0.032 C 
ENDBRANCH   8   9
ENDBRANCH   7   8
ENDBRANCH   6   7
ENDBRANCH   5   6
ENDBRANCH   3   5
BRANCH   1  15
HETATM   15  C   UNL     1     -44.093 -54.627  15.002  1.00  0.00     0.234 C 
BRANCH  15  16
HETATM   16  N   UNL     1     -45.109 -53.585  14.856  1.00  0.00    -0.315 N 
HETATM   17  C   UNL     1     -45.507 -52.855  15.963  1.00  0.00     0.095 C 
HETATM   18  C   UNL     1     -46.369 -51.837  15.845  1.00  0.00     0.018 C 
HETATM   19  C   UNL     1     -46.797 -51.415  14.541  1.00  0.00     0.013 C 
HETATM   20  C   UNL     1     -46.458 -52.104  13.441  1.00  0.00     0.006 C 
HETATM   21  C   UNL     1     -46.734 -51.652  12.044  1.00  0.00     0.054 C 
HETATM   22  C   UNL     1     -45.659 -53.367  13.595  1.00  0.00     0.253 C 
HETATM   23  O   UNL     1     -45.484 -54.115  12.635  1.00  0.00    -0.267 OA
ENDBRANCH  15  16
ENDBRANCH   1  15
TORSDOF 7
ENDMDL
