MODEL 1
REMARK VINA RESULT:      -6.1      0.000      0.000
REMARK  7 active torsions:
REMARK  status: ('A' for Active; 'I' for Inactive)
REMARK    1  A    between atoms: O_2  and  C_3 
REMARK    2  A    between atoms: C_3  and  C_4 
REMARK    3  A    between atoms: C_4  and  N_5 
REMARK    4  A    between atoms: C_8  and  C_9 
REMARK    5  A    between atoms: C_9  and  N_10 
REMARK       I    between atoms: N_10  and  C_11 
REMARK    6  A    between atoms: C_11  and  C_13 
REMARK    7  A    between atoms: C_13  and  C_14 
ROOT
HETATM    1  N   UNL     1     -43.242 -52.803  12.132  1.00  0.00    -0.360 N 
HETATM    2  C   UNL     1     -43.517 -53.807  13.034  1.00  0.00     0.222 C 
HETATM    3  O   UNL     1     -42.669 -54.329  13.751  1.00  0.00    -0.273 OA
HETATM    4  H   UNL     1     -43.948 -52.564  11.440  1.00  0.00     0.162 HD
ENDROOT
BRANCH   2   5
HETATM    5  C   UNL     1     -44.964 -54.234  13.093  1.00  0.00     0.149 C 
BRANCH   5   6
HETATM    6  C   UNL     1     -45.668 -53.325  14.046  1.00  0.00     0.041 A 
HETATM    7  C   UNL     1     -46.323 -52.184  13.750  1.00  0.00     0.018 A 
HETATM    8  C   UNL     1     -46.371 -51.585  12.366  1.00  0.00     0.069 C 
HETATM    9  N   UNL     1     -47.002 -51.435  14.685  1.00  0.00    -0.349 N 
HETATM   10  C   UNL     1     -47.006 -51.853  15.907  1.00  0.00     0.080 A 
ATOM     11  HN  UNL     1     -47.486 -50.576  14.421  1.00  0.00     0.167 HD
HETATM   12  C   UNL     1     -47.746 -51.104  16.975  1.00  0.00     0.089 C 
HETATM   13  N   UNL     1     -46.351 -52.971  16.322  1.00  0.00    -0.313 N 
HETATM   14  C   UNL     1     -45.613 -53.731  15.467  1.00  0.00     0.255 A 
HETATM   15  H   UNL     1     -46.324 -53.236  17.297  1.00  0.00     0.170 HD
HETATM   16  O   UNL     1     -44.935 -54.682  15.849  1.00  0.00    -0.268 OA
ENDBRANCH   5   6
ENDBRANCH   2   5
BRANCH   1  17
HETATM   17  C   UNL     1     -41.911 -52.241  12.001  1.00  0.00     0.127 C 
BRANCH  17  18
HETATM   18  C   UNL     1     -41.623 -51.150  13.055  1.00  0.00     0.007 C 
HETATM   19  C   UNL     1     -42.627 -49.989  12.935  1.00  0.00     0.036 C 
HETATM   20  C   UNL     1     -42.339 -49.075  11.733  1.00  0.00     0.273 C 
HETATM   21  N   UNL     1     -40.956 -48.579  11.670  1.00  0.00     0.090 N 
HETATM   22  C   UNL     1     -40.009 -49.699  11.737  1.00  0.00     0.273 C 
HETATM   23  C   UNL     1     -40.199 -50.576  12.976  1.00  0.00     0.036 C 
BRANCH  21  24
HETATM   24  C   UNL     1     -40.700 -47.501  12.641  1.00  0.00     0.298 C 
BRANCH  24  25
HETATM   25  C   UNL     1     -39.867 -46.338  12.074  1.00  0.00     0.197 C 
BRANCH  25  26
HETATM   26  O   UNL     1     -40.050 -46.236  10.659  1.00  0.00    -0.394 OA
HETATM   27  C   UNL     1     -39.658 -44.946  10.201  1.00  0.00     0.201 C 
ENDBRANCH  25  26
ENDBRANCH  24  25
ENDBRANCH  21  24
ENDBRANCH  17  18
ENDBRANCH   1  17
TORSDOF 7
ENDMDL
MODEL 2
REMARK VINA RESULT:      -6.1      1.871      3.018
REMARK  7 active torsions:
REMARK  status: ('A' for Active; 'I' for Inactive)
REMARK    1  A    between atoms: O_2  and  C_3 
REMARK    2  A    between atoms: C_3  and  C_4 
REMARK    3  A    between atoms: C_4  and  N_5 
REMARK    4  A    between atoms: C_8  and  C_9 
REMARK    5  A    between atoms: C_9  and  N_10 
REMARK       I    between atoms: N_10  and  C_11 
REMARK    6  A    between atoms: C_11  and  C_13 
REMARK    7  A    between atoms: C_13  and  C_14 
ROOT
HETATM    1  N   UNL     1     -42.224 -53.442  14.602  1.00  0.00    -0.360 N 
HETATM    2  C   UNL     1     -43.207 -52.903  15.401  1.00  0.00     0.222 C 
HETATM    3  O   UNL     1     -43.046 -51.910  16.104  1.00  0.00    -0.273 OA
HETATM    4  H   UNL     1     -42.370 -54.369  14.210  1.00  0.00     0.162 HD
ENDROOT
BRANCH   2   5
HETATM    5  C   UNL     1     -44.533 -53.623  15.356  1.00  0.00     0.149 C 
BRANCH   5   6
HETATM    6  C   UNL     1     -45.375 -52.959  14.316  1.00  0.00     0.041 A 
HETATM    7  C   UNL     1     -46.246 -51.946  14.497  1.00  0.00     0.018 A 
HETATM    8  C   UNL     1     -46.579 -51.365  15.850  1.00  0.00     0.069 C 
HETATM    9  N   UNL     1     -46.939 -51.347  13.469  1.00  0.00    -0.349 N 
HETATM   10  C   UNL     1     -46.739 -51.785  12.271  1.00  0.00     0.080 A 
ATOM     11  HN  UNL     1     -47.590 -50.582  13.648  1.00  0.00     0.167 HD
HETATM   12  C   UNL     1     -47.437 -51.165  11.097  1.00  0.00     0.089 C 
HETATM   13  N   UNL     1     -45.909 -52.823  11.977  1.00  0.00    -0.313 N 
HETATM   14  C   UNL     1     -45.234 -53.500  12.946  1.00  0.00     0.255 A 
HETATM   15  H   UNL     1     -45.822 -53.180  11.035  1.00  0.00     0.170 HD
HETATM   16  O   UNL     1     -44.563 -54.501  12.704  1.00  0.00    -0.268 OA
ENDBRANCH   5   6
ENDBRANCH   2   5
BRANCH   1  17
HETATM   17  C   UNL     1     -40.914 -52.829  14.490  1.00  0.00     0.127 C 
BRANCH  17  18
HETATM   18  C   UNL     1     -40.546 -52.481  13.031  1.00  0.00     0.007 C 
HETATM   19  C   UNL     1     -39.520 -51.334  12.979  1.00  0.00     0.036 C 
HETATM   20  C   UNL     1     -40.146 -49.963  13.276  1.00  0.00     0.273 C 
HETATM   21  N   UNL     1     -41.325 -49.648  12.455  1.00  0.00     0.090 N 
HETATM   22  C   UNL     1     -42.316 -50.727  12.550  1.00  0.00     0.273 C 
HETATM   23  C   UNL     1     -41.754 -52.096  12.164  1.00  0.00     0.036 C 
BRANCH  21  24
HETATM   24  C   UNL     1     -40.966 -49.264  11.078  1.00  0.00     0.298 C 
BRANCH  24  25
HETATM   25  C   UNL     1     -41.463 -47.866  10.672  1.00  0.00     0.197 C 
BRANCH  25  26
HETATM   26  O   UNL     1     -42.640 -47.520  11.408  1.00  0.00    -0.394 OA
HETATM   27  C   UNL     1     -43.771 -47.479  10.544  1.00  0.00     0.201 C 
ENDBRANCH  25  26
ENDBRANCH  24  25
ENDBRANCH  21  24
ENDBRANCH  17  18
ENDBRANCH   1  17
TORSDOF 7
ENDMDL
MODEL 3
REMARK VINA RESULT:      -6.0      2.279      7.325
REMARK  7 active torsions:
REMARK  status: ('A' for Active; 'I' for Inactive)
REMARK    1  A    between atoms: O_2  and  C_3 
REMARK    2  A    between atoms: C_3  and  C_4 
REMARK    3  A    between atoms: C_4  and  N_5 
REMARK    4  A    between atoms: C_8  and  C_9 
REMARK    5  A    between atoms: C_9  and  N_10 
REMARK       I    between atoms: N_10  and  C_11 
REMARK    6  A    between atoms: C_11  and  C_13 
REMARK    7  A    between atoms: C_13  and  C_14 
ROOT
HETATM    1  N   UNL     1     -40.511 -50.217  13.490  1.00  0.00    -0.360 N 
HETATM    2  C   UNL     1     -39.918 -49.109  12.928  1.00  0.00     0.222 C 
HETATM    3  O   UNL     1     -38.866 -49.145  12.296  1.00  0.00    -0.273 OA
HETATM    4  H   UNL     1     -41.263 -50.079  14.160  1.00  0.00     0.162 HD
ENDROOT
BRANCH   2   5
HETATM    5  C   UNL     1     -40.662 -47.812  13.137  1.00  0.00     0.149 C 
BRANCH   5   6
HETATM    6  C   UNL     1     -41.507 -47.573  11.928  1.00  0.00     0.041 A 
HETATM    7  C   UNL     1     -41.183 -46.850  10.837  1.00  0.00     0.018 A 
HETATM    8  C   UNL     1     -39.898 -46.070  10.705  1.00  0.00     0.069 C 
HETATM    9  N   UNL     1     -41.999 -46.733   9.735  1.00  0.00    -0.349 N 
HETATM   10  C   UNL     1     -43.134 -47.349   9.756  1.00  0.00     0.080 A 
ATOM     11  HN  UNL     1     -41.718 -46.176   8.928  1.00  0.00     0.167 HD
HETATM   12  C   UNL     1     -44.065 -47.290   8.581  1.00  0.00     0.089 C 
HETATM   13  N   UNL     1     -43.576 -48.078  10.816  1.00  0.00    -0.313 N 
HETATM   14  C   UNL     1     -42.849 -48.194  11.962  1.00  0.00     0.255 A 
HETATM   15  H   UNL     1     -44.496 -48.498  10.822  1.00  0.00     0.170 HD
HETATM   16  O   UNL     1     -43.282 -48.763  12.961  1.00  0.00    -0.268 OA
ENDBRANCH   5   6
ENDBRANCH   2   5
BRANCH   1  17
HETATM   17  C   UNL     1     -39.950 -51.545  13.326  1.00  0.00     0.127 C 
BRANCH  17  18
HETATM   18  C   UNL     1     -40.801 -52.436  12.395  1.00  0.00     0.007 C 
HETATM   19  C   UNL     1     -42.238 -51.894  12.275  1.00  0.00     0.036 C 
HETATM   20  C   UNL     1     -43.087 -52.177  13.524  1.00  0.00     0.273 C 
HETATM   21  N   UNL     1     -43.093 -53.587  13.942  1.00  0.00     0.090 N 
HETATM   22  C   UNL     1     -41.720 -54.079  14.099  1.00  0.00     0.273 C 
HETATM   23  C   UNL     1     -40.869 -53.906  12.839  1.00  0.00     0.036 C 
BRANCH  21  24
HETATM   24  C   UNL     1     -43.950 -54.425  13.083  1.00  0.00     0.298 C 
BRANCH  24  25
HETATM   25  C   UNL     1     -45.251 -54.885  13.762  1.00  0.00     0.197 C 
BRANCH  25  26
HETATM   26  O   UNL     1     -45.116 -54.838  15.186  1.00  0.00    -0.394 OA
HETATM   27  C   UNL     1     -46.101 -53.977  15.749  1.00  0.00     0.201 C 
ENDBRANCH  25  26
ENDBRANCH  24  25
ENDBRANCH  21  24
ENDBRANCH  17  18
ENDBRANCH   1  17
TORSDOF 7
ENDMDL
MODEL 4
REMARK VINA RESULT:      -6.0      2.075      3.474
REMARK  7 active torsions:
REMARK  status: ('A' for Active; 'I' for Inactive)
REMARK    1  A    between atoms: O_2  and  C_3 
REMARK    2  A    between atoms: C_3  and  C_4 
REMARK    3  A    between atoms: C_4  and  N_5 
REMARK    4  A    between atoms: C_8  and  C_9 
REMARK    5  A    between atoms: C_9  and  N_10 
REMARK       I    between atoms: N_10  and  C_11 
REMARK    6  A    between atoms: C_11  and  C_13 
REMARK    7  A    between atoms: C_13  and  C_14 
ROOT
HETATM    1  N   UNL     1     -43.025 -54.602  15.618  1.00  0.00    -0.360 N 
HETATM    2  C   UNL     1     -43.687 -53.770  16.492  1.00  0.00     0.222 C 
HETATM    3  O   UNL     1     -43.124 -52.945  17.206  1.00  0.00    -0.273 OA
HETATM    4  H   UNL     1     -43.532 -55.386  15.214  1.00  0.00     0.162 HD
ENDROOT
BRANCH   2   5
HETATM    5  C   UNL     1     -45.188 -53.932  16.517  1.00  0.00     0.149 C 
BRANCH   5   6
HETATM    6  C   UNL     1     -45.738 -53.248  15.308  1.00  0.00     0.041 A 
HETATM    7  C   UNL     1     -46.146 -51.966  15.212  1.00  0.00     0.018 A 
HETATM    8  C   UNL     1     -46.190 -51.015  16.383  1.00  0.00     0.069 C 
HETATM    9  N   UNL     1     -46.584 -51.395  14.038  1.00  0.00    -0.349 N 
HETATM   10  C   UNL     1     -46.602 -52.133  12.978  1.00  0.00     0.080 A 
ATOM     11  HN  UNL     1     -46.884 -50.420  14.007  1.00  0.00     0.167 HD
HETATM   12  C   UNL     1     -47.041 -51.573  11.658  1.00  0.00     0.089 C 
HETATM   13  N   UNL     1     -46.245 -53.446  12.968  1.00  0.00    -0.313 N 
HETATM   14  C   UNL     1     -45.856 -54.094  14.100  1.00  0.00     0.255 A 
HETATM   15  H   UNL     1     -46.330 -54.009  12.133  1.00  0.00     0.170 HD
HETATM   16  O   UNL     1     -45.630 -55.301  14.123  1.00  0.00    -0.268 OA
ENDBRANCH   5   6
ENDBRANCH   2   5
BRANCH   1  17
HETATM   17  C   UNL     1     -41.588 -54.526  15.435  1.00  0.00     0.127 C 
BRANCH  17  18
HETATM   18  C   UNL     1     -41.190 -54.300  13.960  1.00  0.00     0.007 C 
HETATM   19  C   UNL     1     -39.878 -53.500  13.858  1.00  0.00     0.036 C 
HETATM   20  C   UNL     1     -40.068 -52.006  14.163  1.00  0.00     0.273 C 
HETATM   21  N   UNL     1     -41.135 -51.362  13.382  1.00  0.00     0.090 N 
HETATM   22  C   UNL     1     -42.391 -52.106  13.524  1.00  0.00     0.273 C 
HETATM   23  C   UNL     1     -42.267 -53.580  13.133  1.00  0.00     0.036 C 
BRANCH  21  24
HETATM   24  C   UNL     1     -40.732 -51.099  11.988  1.00  0.00     0.298 C 
BRANCH  24  25
HETATM   25  C   UNL     1     -39.579 -50.091  11.853  1.00  0.00     0.197 C 
BRANCH  25  26
HETATM   26  O   UNL     1     -40.090 -48.766  11.682  1.00  0.00    -0.394 OA
HETATM   27  C   UNL     1     -41.290 -48.792  10.917  1.00  0.00     0.201 C 
ENDBRANCH  25  26
ENDBRANCH  24  25
ENDBRANCH  21  24
ENDBRANCH  17  18
ENDBRANCH   1  17
TORSDOF 7
ENDMDL
MODEL 5
REMARK VINA RESULT:      -6.0      2.517      4.002
REMARK  7 active torsions:
REMARK  status: ('A' for Active; 'I' for Inactive)
REMARK    1  A    between atoms: O_2  and  C_3 
REMARK    2  A    between atoms: C_3  and  C_4 
REMARK    3  A    between atoms: C_4  and  N_5 
REMARK    4  A    between atoms: C_8  and  C_9 
REMARK    5  A    between atoms: C_9  and  N_10 
REMARK       I    between atoms: N_10  and  C_11 
REMARK    6  A    between atoms: C_11  and  C_13 
REMARK    7  A    between atoms: C_13  and  C_14 
ROOT
HETATM    1  N   UNL     1     -38.899 -51.955  13.663  1.00  0.00    -0.360 N 
HETATM    2  C   UNL     1     -39.712 -52.757  14.433  1.00  0.00     0.222 C 
HETATM    3  O   UNL     1     -40.011 -52.507  15.597  1.00  0.00    -0.273 OA
HETATM    4  H   UNL     1     -38.539 -52.326  12.788  1.00  0.00     0.162 HD
ENDROOT
BRANCH   2   5
HETATM    5  C   UNL     1     -40.232 -53.993  13.739  1.00  0.00     0.149 C 
BRANCH   5   6
HETATM    6  C   UNL     1     -41.686 -53.782  13.465  1.00  0.00     0.041 A 
HETATM    7  C   UNL     1     -42.727 -54.266  14.173  1.00  0.00     0.018 A 
HETATM    8  C   UNL     1     -42.574 -55.203  15.345  1.00  0.00     0.069 C 
HETATM    9  N   UNL     1     -44.041 -53.970  13.887  1.00  0.00    -0.349 N 
HETATM   10  C   UNL     1     -44.281 -53.188  12.888  1.00  0.00     0.080 A 
ATOM     11  HN  UNL     1     -44.801 -54.356  14.447  1.00  0.00     0.167 HD
HETATM   12  C   UNL     1     -45.685 -52.799  12.533  1.00  0.00     0.089 C 
HETATM   13  N   UNL     1     -43.310 -52.670  12.087  1.00  0.00    -0.313 N 
HETATM   14  C   UNL     1     -41.993 -52.963  12.272  1.00  0.00     0.255 A 
HETATM   15  H   UNL     1     -43.537 -52.111  11.276  1.00  0.00     0.170 HD
HETATM   16  O   UNL     1     -41.119 -52.585  11.496  1.00  0.00    -0.268 OA
ENDBRANCH   5   6
ENDBRANCH   2   5
BRANCH   1  17
HETATM   17  C   UNL     1     -38.369 -50.702  14.168  1.00  0.00     0.127 C 
BRANCH  17  18
HETATM   18  C   UNL     1     -38.001 -49.717  13.037  1.00  0.00     0.007 C 
HETATM   19  C   UNL     1     -38.010 -48.264  13.546  1.00  0.00     0.036 C 
HETATM   20  C   UNL     1     -39.430 -47.708  13.733  1.00  0.00     0.273 C 
HETATM   21  N   UNL     1     -40.295 -47.854  12.553  1.00  0.00     0.090 N 
HETATM   22  C   UNL     1     -40.316 -49.251  12.105  1.00  0.00     0.273 C 
HETATM   23  C   UNL     1     -38.924 -49.812  11.811  1.00  0.00     0.036 C 
BRANCH  21  24
HETATM   24  C   UNL     1     -39.976 -46.877  11.496  1.00  0.00     0.298 C 
BRANCH  24  25
HETATM   25  C   UNL     1     -41.191 -46.449  10.656  1.00  0.00     0.197 C 
BRANCH  25  26
HETATM   26  O   UNL     1     -40.940 -45.194  10.016  1.00  0.00    -0.394 OA
HETATM   27  C   UNL     1     -39.604 -44.768  10.266  1.00  0.00     0.201 C 
ENDBRANCH  25  26
ENDBRANCH  24  25
ENDBRANCH  21  24
ENDBRANCH  17  18
ENDBRANCH   1  17
TORSDOF 7
ENDMDL
MODEL 6
REMARK VINA RESULT:      -5.9      2.109      2.673
REMARK  7 active torsions:
REMARK  status: ('A' for Active; 'I' for Inactive)
REMARK    1  A    between atoms: O_2  and  C_3 
REMARK    2  A    between atoms: C_3  and  C_4 
REMARK    3  A    between atoms: C_4  and  N_5 
REMARK    4  A    between atoms: C_8  and  C_9 
REMARK    5  A    between atoms: C_9  and  N_10 
REMARK       I    between atoms: N_10  and  C_11 
REMARK    6  A    between atoms: C_11  and  C_13 
REMARK    7  A    between atoms: C_13  and  C_14 
ROOT
HETATM    1  N   UNL     1     -43.798 -54.477  14.600  1.00  0.00    -0.360 N 
HETATM    2  C   UNL     1     -44.929 -54.498  13.815  1.00  0.00     0.222 C 
HETATM    3  O   UNL     1     -44.907 -54.501  12.588  1.00  0.00    -0.273 OA
HETATM    4  H   UNL     1     -43.898 -54.274  15.591  1.00  0.00     0.162 HD
ENDROOT
BRANCH   2   5
HETATM    5  C   UNL     1     -46.234 -54.523  14.574  1.00  0.00     0.149 C 
BRANCH   5   6
HETATM    6  C   UNL     1     -46.269 -53.318  15.455  1.00  0.00     0.041 A 
HETATM    7  C   UNL     1     -46.488 -52.041  15.081  1.00  0.00     0.018 A 
HETATM    8  C   UNL     1     -46.651 -51.609  13.644  1.00  0.00     0.069 C 
HETATM    9  N   UNL     1     -46.567 -50.993  15.970  1.00  0.00    -0.349 N 
HETATM   10  C   UNL     1     -46.423 -51.254  17.227  1.00  0.00     0.080 A 
ATOM     11  HN  UNL     1     -46.735 -50.039  15.647  1.00  0.00     0.167 HD
HETATM   12  C   UNL     1     -46.523 -50.168  18.256  1.00  0.00     0.089 C 
HETATM   13  N   UNL     1     -46.165 -52.499  17.712  1.00  0.00    -0.313 N 
HETATM   14  C   UNL     1     -46.017 -53.574  16.891  1.00  0.00     0.255 A 
HETATM   15  H   UNL     1     -45.997 -52.657  18.696  1.00  0.00     0.170 HD
HETATM   16  O   UNL     1     -45.684 -54.681  17.308  1.00  0.00    -0.268 OA
ENDBRANCH   5   6
ENDBRANCH   2   5
BRANCH   1  17
HETATM   17  C   UNL     1     -42.469 -54.512  14.020  1.00  0.00     0.127 C 
BRANCH  17  18
HETATM   18  C   UNL     1     -41.634 -53.263  14.378  1.00  0.00     0.007 C 
HETATM   19  C   UNL     1     -42.517 -52.003  14.421  1.00  0.00     0.036 C 
HETATM   20  C   UNL     1     -42.898 -51.496  13.021  1.00  0.00     0.273 C 
HETATM   21  N   UNL     1     -41.753 -51.303  12.117  1.00  0.00     0.090 N 
HETATM   22  C   UNL     1     -40.946 -52.526  12.048  1.00  0.00     0.273 C 
HETATM   23  C   UNL     1     -40.462 -53.008  13.417  1.00  0.00     0.036 C 
BRANCH  21  24
HETATM   24  C   UNL     1     -40.990 -50.081  12.428  1.00  0.00     0.298 C 
BRANCH  24  25
HETATM   25  C   UNL     1     -39.799 -49.835  11.487  1.00  0.00     0.197 C 
BRANCH  25  26
HETATM   26  O   UNL     1     -38.623 -49.522  12.240  1.00  0.00    -0.394 OA
HETATM   27  C   UNL     1     -37.675 -50.580  12.140  1.00  0.00     0.201 C 
ENDBRANCH  25  26
ENDBRANCH  24  25
ENDBRANCH  21  24
ENDBRANCH  17  18
ENDBRANCH   1  17
TORSDOF 7
ENDMDL
MODEL 7
REMARK VINA RESULT:      -5.9      1.746      2.082
REMARK  7 active torsions:
REMARK  status: ('A' for Active; 'I' for Inactive)
REMARK    1  A    between atoms: O_2  and  C_3 
REMARK    2  A    between atoms: C_3  and  C_4 
REMARK    3  A    between atoms: C_4  and  N_5 
REMARK    4  A    between atoms: C_8  and  C_9 
REMARK    5  A    between atoms: C_9  and  N_10 
REMARK       I    between atoms: N_10  and  C_11 
REMARK    6  A    between atoms: C_11  and  C_13 
REMARK    7  A    between atoms: C_13  and  C_14 
ROOT
HETATM    1  N   UNL     1     -43.352 -52.933  12.160  1.00  0.00    -0.360 N 
HETATM    2  C   UNL     1     -43.625 -53.857  13.144  1.00  0.00     0.222 C 
HETATM    3  O   UNL     1     -42.776 -54.318  13.901  1.00  0.00    -0.273 OA
HETATM    4  H   UNL     1     -44.060 -52.752  11.453  1.00  0.00     0.162 HD
ENDROOT
BRANCH   2   5
HETATM    5  C   UNL     1     -45.073 -54.275  13.244  1.00  0.00     0.149 C 
BRANCH   5   6
HETATM    6  C   UNL     1     -45.756 -53.329  14.177  1.00  0.00     0.041 A 
HETATM    7  C   UNL     1     -46.373 -52.173  13.858  1.00  0.00     0.018 A 
HETATM    8  C   UNL     1     -46.391 -51.594  12.465  1.00  0.00     0.069 C 
HETATM    9  N   UNL     1     -47.035 -51.389  14.776  1.00  0.00    -0.349 N 
HETATM   10  C   UNL     1     -47.062 -51.788  16.004  1.00  0.00     0.080 A 
ATOM     11  HN  UNL     1     -47.490 -50.520  14.494  1.00  0.00     0.167 HD
HETATM   12  C   UNL     1     -47.787 -51.001  17.054  1.00  0.00     0.089 C 
HETATM   13  N   UNL     1     -46.446 -52.920  16.441  1.00  0.00    -0.313 N 
HETATM   14  C   UNL     1     -45.725 -53.715  15.605  1.00  0.00     0.255 A 
HETATM   15  H   UNL     1     -46.436 -53.170  17.421  1.00  0.00     0.170 HD
HETATM   16  O   UNL     1     -45.081 -54.682  16.007  1.00  0.00    -0.268 OA
ENDBRANCH   5   6
ENDBRANCH   2   5
BRANCH   1  17
HETATM   17  C   UNL     1     -42.020 -52.387  11.978  1.00  0.00     0.127 C 
BRANCH  17  18
HETATM   18  C   UNL     1     -41.746 -51.176  12.896  1.00  0.00     0.007 C 
HETATM   19  C   UNL     1     -41.826 -49.856  12.108  1.00  0.00     0.036 C 
HETATM   20  C   UNL     1     -40.593 -49.618  11.222  1.00  0.00     0.273 C 
HETATM   21  N   UNL     1     -39.310 -49.726  11.932  1.00  0.00     0.090 N 
HETATM   22  C   UNL     1     -39.226 -51.008  12.642  1.00  0.00     0.273 C 
HETATM   23  C   UNL     1     -40.387 -51.238  13.611  1.00  0.00     0.036 C 
BRANCH  21  24
HETATM   24  C   UNL     1     -39.027 -48.544  12.766  1.00  0.00     0.298 C 
BRANCH  24  25
HETATM   25  C   UNL     1     -37.736 -48.661  13.594  1.00  0.00     0.197 C 
BRANCH  25  26
HETATM   26  O   UNL     1     -38.003 -48.403  14.976  1.00  0.00    -0.394 OA
HETATM   27  C   UNL     1     -36.815 -47.986  15.641  1.00  0.00     0.201 C 
ENDBRANCH  25  26
ENDBRANCH  24  25
ENDBRANCH  21  24
ENDBRANCH  17  18
ENDBRANCH   1  17
TORSDOF 7
ENDMDL
MODEL 8
REMARK VINA RESULT:      -5.8      1.664      2.364
REMARK  7 active torsions:
REMARK  status: ('A' for Active; 'I' for Inactive)
REMARK    1  A    between atoms: O_2  and  C_3 
REMARK    2  A    between atoms: C_3  and  C_4 
REMARK    3  A    between atoms: C_4  and  N_5 
REMARK    4  A    between atoms: C_8  and  C_9 
REMARK    5  A    between atoms: C_9  and  N_10 
REMARK       I    between atoms: N_10  and  C_11 
REMARK    6  A    between atoms: C_11  and  C_13 
REMARK    7  A    between atoms: C_13  and  C_14 
ROOT
HETATM    1  N   UNL     1     -43.003 -51.270  12.239  1.00  0.00    -0.360 N 
HETATM    2  C   UNL     1     -43.059 -52.581  12.656  1.00  0.00     0.222 C 
HETATM    3  O   UNL     1     -42.105 -53.184  13.138  1.00  0.00    -0.273 OA
HETATM    4  H   UNL     1     -43.766 -50.907  11.673  1.00  0.00     0.162 HD
ENDROOT
BRANCH   2   5
HETATM    5  C   UNL     1     -44.402 -53.249  12.485  1.00  0.00     0.149 C 
BRANCH   5   6
HETATM    6  C   UNL     1     -45.265 -52.836  13.632  1.00  0.00     0.041 A 
HETATM    7  C   UNL     1     -45.261 -53.346  14.880  1.00  0.00     0.018 A 
HETATM    8  C   UNL     1     -44.410 -54.520  15.298  1.00  0.00     0.069 C 
HETATM    9  N   UNL     1     -46.049 -52.862  15.900  1.00  0.00    -0.349 N 
HETATM   10  C   UNL     1     -46.830 -51.867  15.640  1.00  0.00     0.080 A 
ATOM     11  HN  UNL     1     -46.017 -53.276  16.832  1.00  0.00     0.167 HD
HETATM   12  C   UNL     1     -47.697 -51.268  16.707  1.00  0.00     0.089 C 
HETATM   13  N   UNL     1     -46.938 -51.296  14.409  1.00  0.00    -0.313 N 
HETATM   14  C   UNL     1     -46.234 -51.757  13.339  1.00  0.00     0.255 A 
HETATM   15  H   UNL     1     -47.605 -50.559  14.226  1.00  0.00     0.170 HD
HETATM   16  O   UNL     1     -46.400 -51.317  12.203  1.00  0.00    -0.268 OA
ENDBRANCH   5   6
ENDBRANCH   2   5
BRANCH   1  17
HETATM   17  C   UNL     1     -41.800 -50.474  12.393  1.00  0.00     0.127 C 
BRANCH  17  18
HETATM   18  C   UNL     1     -42.106 -49.001  12.744  1.00  0.00     0.007 C 
HETATM   19  C   UNL     1     -42.909 -48.321  11.620  1.00  0.00     0.036 C 
HETATM   20  C   UNL     1     -42.044 -47.977  10.397  1.00  0.00     0.273 C 
HETATM   21  N   UNL     1     -40.831 -47.207  10.714  1.00  0.00     0.090 N 
HETATM   22  C   UNL     1     -40.051 -47.889  11.753  1.00  0.00     0.273 C 
HETATM   23  C   UNL     1     -40.852 -48.161  13.028  1.00  0.00     0.036 C 
BRANCH  21  24
HETATM   24  C   UNL     1     -41.121 -45.790  10.996  1.00  0.00     0.298 C 
BRANCH  24  25
HETATM   25  C   UNL     1     -40.008 -44.826  10.551  1.00  0.00     0.197 C 
BRANCH  25  26
HETATM   26  O   UNL     1     -40.530 -43.506  10.376  1.00  0.00    -0.394 OA
HETATM   27  C   UNL     1     -40.508 -42.795  11.610  1.00  0.00     0.201 C 
ENDBRANCH  25  26
ENDBRANCH  24  25
ENDBRANCH  21  24
ENDBRANCH  17  18
ENDBRANCH   1  17
TORSDOF 7
ENDMDL
MODEL 9
REMARK VINA RESULT:      -5.6      3.256      5.930
REMARK  7 active torsions:
REMARK  status: ('A' for Active; 'I' for Inactive)
REMARK    1  A    between atoms: O_2  and  C_3 
REMARK    2  A    between atoms: C_3  and  C_4 
REMARK    3  A    between atoms: C_4  and  N_5 
REMARK    4  A    between atoms: C_8  and  C_9 
REMARK    5  A    between atoms: C_9  and  N_10 
REMARK       I    between atoms: N_10  and  C_11 
REMARK    6  A    between atoms: C_11  and  C_13 
REMARK    7  A    between atoms: C_13  and  C_14 
ROOT
HETATM    1  N   UNL     1     -46.634 -52.981  14.976  1.00  0.00    -0.360 N 
HETATM    2  C   UNL     1     -46.115 -54.229  15.241  1.00  0.00     0.222 C 
HETATM    3  O   UNL     1     -46.078 -54.728  16.362  1.00  0.00    -0.273 OA
HETATM    4  H   UNL     1     -46.448 -52.560  14.070  1.00  0.00     0.162 HD
ENDROOT
BRANCH   2   5
HETATM    5  C   UNL     1     -45.583 -54.969  14.037  1.00  0.00     0.149 C 
BRANCH   5   6
HETATM    6  C   UNL     1     -44.323 -54.292  13.608  1.00  0.00     0.041 A 
HETATM    7  C   UNL     1     -43.092 -54.451  14.136  1.00  0.00     0.018 A 
HETATM    8  C   UNL     1     -42.807 -55.308  15.345  1.00  0.00     0.069 C 
HETATM    9  N   UNL     1     -41.968 -53.833  13.637  1.00  0.00    -0.349 N 
HETATM   10  C   UNL     1     -42.107 -53.061  12.611  1.00  0.00     0.080 A 
ATOM     11  HN  UNL     1     -41.053 -53.980  14.064  1.00  0.00     0.167 HD
HETATM   12  C   UNL     1     -40.923 -52.375  11.996  1.00  0.00     0.089 C 
HETATM   13  N   UNL     1     -43.306 -52.803  12.020  1.00  0.00    -0.313 N 
HETATM   14  C   UNL     1     -44.468 -53.332  12.491  1.00  0.00     0.255 A 
HETATM   15  H   UNL     1     -43.387 -52.146  11.257  1.00  0.00     0.170 HD
HETATM   16  O   UNL     1     -45.565 -53.026  12.031  1.00  0.00    -0.268 OA
ENDBRANCH   5   6
ENDBRANCH   2   5
BRANCH   1  17
HETATM   17  C   UNL     1     -47.237 -52.171  16.018  1.00  0.00     0.127 C 
BRANCH  17  18
HETATM   18  C   UNL     1     -46.511 -50.823  16.215  1.00  0.00     0.007 C 
HETATM   19  C   UNL     1     -45.042 -50.916  15.760  1.00  0.00     0.036 C 
HETATM   20  C   UNL     1     -44.157 -51.678  16.758  1.00  0.00     0.273 C 
HETATM   21  N   UNL     1     -44.246 -51.185  18.141  1.00  0.00     0.090 N 
HETATM   22  C   UNL     1     -45.646 -51.146  18.580  1.00  0.00     0.273 C 
HETATM   23  C   UNL     1     -46.542 -50.311  17.664  1.00  0.00     0.036 C 
BRANCH  21  24
HETATM   24  C   UNL     1     -43.506 -49.926  18.338  1.00  0.00     0.298 C 
BRANCH  24  25
HETATM   25  C   UNL     1     -41.997 -50.041  18.066  1.00  0.00     0.197 C 
BRANCH  25  26
HETATM   26  O   UNL     1     -41.586 -49.064  17.105  1.00  0.00    -0.394 OA
HETATM   27  C   UNL     1     -41.150 -49.698  15.907  1.00  0.00     0.201 C 
ENDBRANCH  25  26
ENDBRANCH  24  25
ENDBRANCH  21  24
ENDBRANCH  17  18
ENDBRANCH   1  17
TORSDOF 7
ENDMDL
