MODEL 1
REMARK VINA RESULT:      -6.5      0.000      0.000
REMARK  4 active torsions:
REMARK  status: ('A' for Active; 'I' for Inactive)
REMARK       I    between atoms: C_2  and  N_4 
REMARK    1  A    between atoms: N_4  and  C_5 
REMARK    2  A    between atoms: C_5  and  C_6 
REMARK    3  A    between atoms: N_8  and  C_12 
REMARK    4  A    between atoms: C_17  and  C_20 
ROOT
HETATM    1  C   UNL     1     -42.929 -51.129  13.939  1.00  0.00     0.157 C 
HETATM    2  C   UNL     1     -41.945 -49.961  13.737  1.00  0.00     0.158 C 
HETATM    3  N   UNL     1     -41.461 -49.928  12.353  1.00  0.00    -0.363 N 
HETATM    4  C   UNL     1     -40.923 -51.197  11.858  1.00  0.00     0.150 C 
HETATM    5  C   UNL     1     -41.926 -52.332  12.117  1.00  0.00     0.188 C 
HETATM    6  O   UNL     1     -42.373 -52.388  13.478  1.00  0.00    -0.381 OA
ENDROOT
BRANCH   3   7
HETATM    7  C   UNL     1     -41.528 -48.774  11.605  1.00  0.00     0.105 A 
HETATM    8  C   UNL     1     -40.562 -47.791  11.711  1.00  0.00     0.065 A 
HETATM    9  C   UNL     1     -40.656 -46.705  10.879  1.00  0.00     0.093 A 
HETATM   10  N   UNL     1     -41.651 -46.540   9.999  1.00  0.00    -0.355 N 
HETATM   11  C   UNL     1     -42.596 -47.497   9.980  1.00  0.00     0.090 A 
ATOM     12  HN  UNL     1     -41.691 -45.732   9.376  1.00  0.00     0.166 HD
HETATM   13  N   UNL     1     -42.560 -48.608  10.752  1.00  0.00    -0.332 N 
ATOM     14  HN  UNL     1     -43.300 -49.307  10.690  1.00  0.00     0.168 HD
BRANCH  11  15
HETATM   15  C   UNL     1     -43.816 -47.222   9.100  1.00  0.00     0.007 C 
HETATM   16  C   UNL     1     -43.634 -47.886   7.721  1.00  0.00     0.022 C 
HETATM   17  C   UNL     1     -45.124 -47.746   9.721  1.00  0.00     0.022 C 
HETATM   18  C   UNL     1     -43.937 -45.698   8.916  1.00  0.00     0.022 C 
ENDBRANCH  11  15
ENDBRANCH   3   7
BRANCH   1  19
HETATM   19  C   UNL     1     -44.306 -50.838  13.318  1.00  0.00     0.156 C 
BRANCH  19  20
HETATM   20  N   UNL     1     -45.362 -51.527  14.040  1.00  0.00    -0.359 N 
HETATM   21  C   UNL     1     -45.916 -52.698  13.579  1.00  0.00     0.213 C 
HETATM   22  C   UNL     1     -46.921 -53.296  14.526  1.00  0.00     0.117 C 
HETATM   23  O   UNL     1     -45.634 -53.215  12.504  1.00  0.00    -0.274 OA
HETATM   24  H   UNL     1     -45.512 -51.254  15.004  1.00  0.00     0.162 HD
ENDBRANCH  19  20
ENDBRANCH   1  19
TORSDOF 4
ENDMDL
MODEL 2
REMARK VINA RESULT:      -6.2      3.033      4.706
REMARK  4 active torsions:
REMARK  status: ('A' for Active; 'I' for Inactive)
REMARK       I    between atoms: C_2  and  N_4 
REMARK    1  A    between atoms: N_4  and  C_5 
REMARK    2  A    between atoms: C_5  and  C_6 
REMARK    3  A    between atoms: N_8  and  C_12 
REMARK    4  A    between atoms: C_17  and  C_20 
ROOT
HETATM    1  C   UNL     1     -38.681 -50.316  12.449  1.00  0.00     0.157 C 
HETATM    2  C   UNL     1     -39.564 -49.709  11.342  1.00  0.00     0.158 C 
HETATM    3  N   UNL     1     -40.984 -49.929  11.636  1.00  0.00    -0.363 N 
HETATM    4  C   UNL     1     -41.344 -51.317  11.933  1.00  0.00     0.150 C 
HETATM    5  C   UNL     1     -40.411 -51.884  13.014  1.00  0.00     0.188 C 
HETATM    6  O   UNL     1     -39.022 -51.702  12.711  1.00  0.00    -0.381 OA
ENDROOT
BRANCH   3   7
HETATM    7  C   UNL     1     -41.881 -48.883  11.630  1.00  0.00     0.105 A 
HETATM    8  C   UNL     1     -42.182 -48.188  12.786  1.00  0.00     0.065 A 
HETATM    9  C   UNL     1     -43.025 -47.111  12.687  1.00  0.00     0.093 A 
HETATM   10  N   UNL     1     -43.591 -46.726  11.537  1.00  0.00    -0.355 N 
HETATM   11  C   UNL     1     -43.310 -47.474  10.454  1.00  0.00     0.090 A 
ATOM     12  HN  UNL     1     -44.201 -45.910  11.483  1.00  0.00     0.166 HD
HETATM   13  N   UNL     1     -42.470 -48.535  10.467  1.00  0.00    -0.332 N 
ATOM     14  HN  UNL     1     -42.287 -49.062   9.613  1.00  0.00     0.168 HD
BRANCH  11  15
HETATM   15  C   UNL     1     -44.089 -47.138   9.182  1.00  0.00     0.007 C 
HETATM   16  C   UNL     1     -44.094 -45.613   8.952  1.00  0.00     0.022 C 
HETATM   17  C   UNL     1     -43.501 -47.814   7.931  1.00  0.00     0.022 C 
HETATM   18  C   UNL     1     -45.538 -47.625   9.368  1.00  0.00     0.022 C 
ENDBRANCH  11  15
ENDBRANCH   3   7
BRANCH   1  19
HETATM   19  C   UNL     1     -38.691 -49.461  13.728  1.00  0.00     0.156 C 
BRANCH  19  20
HETATM   20  N   UNL     1     -38.620 -48.045  13.411  1.00  0.00    -0.359 N 
HETATM   21  C   UNL     1     -39.018 -47.077  14.303  1.00  0.00     0.213 C 
HETATM   22  C   UNL     1     -38.769 -45.676  13.814  1.00  0.00     0.117 C 
HETATM   23  O   UNL     1     -39.532 -47.315  15.390  1.00  0.00    -0.274 OA
HETATM   24  H   UNL     1     -38.051 -47.782  12.616  1.00  0.00     0.162 HD
ENDBRANCH  19  20
ENDBRANCH   1  19
TORSDOF 4
ENDMDL
MODEL 3
REMARK VINA RESULT:      -6.0      2.131      3.093
REMARK  4 active torsions:
REMARK  status: ('A' for Active; 'I' for Inactive)
REMARK       I    between atoms: C_2  and  N_4 
REMARK    1  A    between atoms: N_4  and  C_5 
REMARK    2  A    between atoms: C_5  and  C_6 
REMARK    3  A    between atoms: N_8  and  C_12 
REMARK    4  A    between atoms: C_17  and  C_20 
ROOT
HETATM    1  C   UNL     1     -42.244 -52.988  14.026  1.00  0.00     0.157 C 
HETATM    2  C   UNL     1     -41.424 -51.724  14.342  1.00  0.00     0.158 C 
HETATM    3  N   UNL     1     -40.108 -51.787  13.697  1.00  0.00    -0.363 N 
HETATM    4  C   UNL     1     -39.354 -53.016  13.954  1.00  0.00     0.150 C 
HETATM    5  C   UNL     1     -40.229 -54.244  13.659  1.00  0.00     0.188 C 
HETATM    6  O   UNL     1     -41.501 -54.200  14.318  1.00  0.00    -0.381 OA
ENDROOT
BRANCH   3   7
HETATM    7  C   UNL     1     -39.653 -50.753  12.909  1.00  0.00     0.105 A 
HETATM    8  C   UNL     1     -38.332 -50.683  12.507  1.00  0.00     0.065 A 
HETATM    9  C   UNL     1     -37.972 -49.665  11.662  1.00  0.00     0.093 A 
HETATM   10  N   UNL     1     -38.825 -48.725  11.238  1.00  0.00    -0.355 N 
HETATM   11  C   UNL     1     -40.084 -48.807  11.709  1.00  0.00     0.090 A 
ATOM     12  HN  UNL     1     -38.539 -47.987  10.595  1.00  0.00     0.166 HD
HETATM   13  N   UNL     1     -40.521 -49.794  12.525  1.00  0.00    -0.332 N 
ATOM     14  HN  UNL     1     -41.490 -49.811  12.844  1.00  0.00     0.168 HD
BRANCH  11  15
HETATM   15  C   UNL     1     -41.009 -47.641  11.363  1.00  0.00     0.007 C 
HETATM   16  C   UNL     1     -40.178 -46.409  10.953  1.00  0.00     0.022 C 
HETATM   17  C   UNL     1     -41.979 -47.975  10.215  1.00  0.00     0.022 C 
HETATM   18  C   UNL     1     -41.835 -47.299  12.618  1.00  0.00     0.022 C 
ENDBRANCH  11  15
ENDBRANCH   3   7
BRANCH   1  19
HETATM   19  C   UNL     1     -42.795 -52.975  12.589  1.00  0.00     0.156 C 
BRANCH  19  20
HETATM   20  N   UNL     1     -44.036 -52.224  12.513  1.00  0.00    -0.359 N 
HETATM   21  C   UNL     1     -45.264 -52.827  12.648  1.00  0.00     0.213 C 
HETATM   22  C   UNL     1     -46.412 -51.855  12.635  1.00  0.00     0.117 C 
HETATM   23  O   UNL     1     -45.426 -54.036  12.764  1.00  0.00    -0.274 OA
HETATM   24  H   UNL     1     -43.967 -51.216  12.595  1.00  0.00     0.162 HD
ENDBRANCH  19  20
ENDBRANCH   1  19
TORSDOF 4
ENDMDL
MODEL 4
REMARK VINA RESULT:      -6.0      2.464      6.380
REMARK  4 active torsions:
REMARK  status: ('A' for Active; 'I' for Inactive)
REMARK       I    between atoms: C_2  and  N_4 
REMARK    1  A    between atoms: N_4  and  C_5 
REMARK    2  A    between atoms: C_5  and  C_6 
REMARK    3  A    between atoms: N_8  and  C_12 
REMARK    4  A    between atoms: C_17  and  C_20 
ROOT
HETATM    1  C   UNL     1     -40.590 -50.895  11.758  1.00  0.00     0.157 C 
HETATM    2  C   UNL     1     -41.219 -52.299  11.834  1.00  0.00     0.158 C 
HETATM    3  N   UNL     1     -41.172 -52.813  13.206  1.00  0.00    -0.363 N 
HETATM    4  C   UNL     1     -39.852 -52.763  13.838  1.00  0.00     0.150 C 
HETATM    5  C   UNL     1     -39.255 -51.354  13.702  1.00  0.00     0.188 C 
HETATM    6  O   UNL     1     -39.268 -50.865  12.355  1.00  0.00    -0.381 OA
ENDROOT
BRANCH   3   7
HETATM    7  C   UNL     1     -42.306 -53.293  13.824  1.00  0.00     0.105 A 
HETATM    8  C   UNL     1     -42.338 -54.555  14.388  1.00  0.00     0.065 A 
HETATM    9  C   UNL     1     -43.477 -54.932  15.052  1.00  0.00     0.093 A 
HETATM   10  N   UNL     1     -44.561 -54.154  15.150  1.00  0.00    -0.355 N 
HETATM   11  C   UNL     1     -44.497 -52.961  14.532  1.00  0.00     0.090 A 
ATOM     12  HN  UNL     1     -45.391 -54.449  15.665  1.00  0.00     0.166 HD
HETATM   13  N   UNL     1     -43.402 -52.508  13.878  1.00  0.00    -0.332 N 
ATOM     14  HN  UNL     1     -43.405 -51.589  13.434  1.00  0.00     0.168 HD
BRANCH  11  15
HETATM   15  C   UNL     1     -45.792 -52.149  14.498  1.00  0.00     0.007 C 
HETATM   16  C   UNL     1     -45.987 -51.521  13.104  1.00  0.00     0.022 C 
HETATM   17  C   UNL     1     -47.033 -52.999  14.825  1.00  0.00     0.022 C 
HETATM   18  C   UNL     1     -45.677 -51.026  15.547  1.00  0.00     0.022 C 
ENDBRANCH  11  15
ENDBRANCH   3   7
BRANCH   1  19
HETATM   19  C   UNL     1     -41.518 -49.815  12.341  1.00  0.00     0.156 C 
BRANCH  19  20
HETATM   20  N   UNL     1     -42.334 -49.211  11.303  1.00  0.00    -0.359 N 
HETATM   21  C   UNL     1     -41.924 -48.097  10.608  1.00  0.00     0.213 C 
HETATM   22  C   UNL     1     -42.873 -47.695   9.512  1.00  0.00     0.117 C 
HETATM   23  O   UNL     1     -40.894 -47.478  10.849  1.00  0.00    -0.274 OA
HETATM   24  H   UNL     1     -43.100 -49.767  10.940  1.00  0.00     0.162 HD
ENDBRANCH  19  20
ENDBRANCH   1  19
TORSDOF 4
ENDMDL
MODEL 5
REMARK VINA RESULT:      -6.0      4.044      6.353
REMARK  4 active torsions:
REMARK  status: ('A' for Active; 'I' for Inactive)
REMARK       I    between atoms: C_2  and  N_4 
REMARK    1  A    between atoms: N_4  and  C_5 
REMARK    2  A    between atoms: C_5  and  C_6 
REMARK    3  A    between atoms: N_8  and  C_12 
REMARK    4  A    between atoms: C_17  and  C_20 
ROOT
HETATM    1  C   UNL     1     -42.056 -45.797  10.291  1.00  0.00     0.157 C 
HETATM    2  C   UNL     1     -40.549 -45.863  10.598  1.00  0.00     0.158 C 
HETATM    3  N   UNL     1     -40.302 -45.626  12.025  1.00  0.00    -0.363 N 
HETATM    4  C   UNL     1     -40.925 -44.416  12.565  1.00  0.00     0.150 C 
HETATM    5  C   UNL     1     -42.416 -44.382  12.199  1.00  0.00     0.188 C 
HETATM    6  O   UNL     1     -42.657 -44.577  10.800  1.00  0.00    -0.381 OA
ENDROOT
BRANCH   3   7
HETATM    7  C   UNL     1     -39.542 -46.502  12.768  1.00  0.00     0.105 A 
HETATM    8  C   UNL     1     -38.987 -46.124  13.977  1.00  0.00     0.065 A 
HETATM    9  C   UNL     1     -38.308 -47.074  14.696  1.00  0.00     0.093 A 
HETATM   10  N   UNL     1     -38.130 -48.330  14.269  1.00  0.00    -0.355 N 
HETATM   11  C   UNL     1     -38.638 -48.625  13.059  1.00  0.00     0.090 A 
ATOM     12  HN  UNL     1     -37.636 -49.024  14.830  1.00  0.00     0.166 HD
HETATM   13  N   UNL     1     -39.341 -47.752  12.301  1.00  0.00    -0.332 N 
ATOM     14  HN  UNL     1     -39.712 -48.033  11.394  1.00  0.00     0.168 HD
BRANCH  11  15
HETATM   15  C   UNL     1     -38.287 -50.004  12.499  1.00  0.00     0.007 C 
HETATM   16  C   UNL     1     -37.485 -49.855  11.191  1.00  0.00     0.022 C 
HETATM   17  C   UNL     1     -37.456 -50.848  13.483  1.00  0.00     0.022 C 
HETATM   18  C   UNL     1     -39.603 -50.748  12.204  1.00  0.00     0.022 C 
ENDBRANCH  11  15
ENDBRANCH   3   7
BRANCH   1  19
HETATM   19  C   UNL     1     -42.799 -47.056  10.770  1.00  0.00     0.156 C 
BRANCH  19  20
HETATM   20  N   UNL     1     -44.214 -46.983  10.447  1.00  0.00    -0.359 N 
HETATM   21  C   UNL     1     -44.706 -47.382   9.227  1.00  0.00     0.213 C 
HETATM   22  C   UNL     1     -46.207 -47.316   9.138  1.00  0.00     0.117 C 
HETATM   23  O   UNL     1     -44.006 -47.753   8.292  1.00  0.00    -0.274 OA
HETATM   24  H   UNL     1     -44.854 -46.856  11.222  1.00  0.00     0.162 HD
ENDBRANCH  19  20
ENDBRANCH   1  19
TORSDOF 4
ENDMDL
MODEL 6
REMARK VINA RESULT:      -5.9      2.841      4.835
REMARK  4 active torsions:
REMARK  status: ('A' for Active; 'I' for Inactive)
REMARK       I    between atoms: C_2  and  N_4 
REMARK    1  A    between atoms: N_4  and  C_5 
REMARK    2  A    between atoms: C_5  and  C_6 
REMARK    3  A    between atoms: N_8  and  C_12 
REMARK    4  A    between atoms: C_17  and  C_20 
ROOT
HETATM    1  C   UNL     1     -39.238 -50.888  13.473  1.00  0.00     0.157 C 
HETATM    2  C   UNL     1     -39.451 -50.425  12.020  1.00  0.00     0.158 C 
HETATM    3  N   UNL     1     -40.829 -49.962  11.822  1.00  0.00    -0.363 N 
HETATM    4  C   UNL     1     -41.863 -50.900  12.263  1.00  0.00     0.150 C 
HETATM    5  C   UNL     1     -41.583 -51.358  13.702  1.00  0.00     0.188 C 
HETATM    6  O   UNL     1     -40.247 -51.844  13.888  1.00  0.00    -0.381 OA
ENDROOT
BRANCH   3   7
HETATM    7  C   UNL     1     -41.090 -48.729  11.268  1.00  0.00     0.105 A 
HETATM    8  C   UNL     1     -40.257 -47.648  11.492  1.00  0.00     0.065 A 
HETATM    9  C   UNL     1     -40.541 -46.473  10.844  1.00  0.00     0.093 A 
HETATM   10  N   UNL     1     -41.598 -46.316  10.038  1.00  0.00    -0.355 N 
HETATM   11  C   UNL     1     -42.409 -47.381   9.905  1.00  0.00     0.090 A 
ATOM     12  HN  UNL     1     -41.779 -45.438   9.553  1.00  0.00     0.166 HD
HETATM   13  N   UNL     1     -42.183 -48.580  10.490  1.00  0.00    -0.332 N 
ATOM     14  HN  UNL     1     -42.828 -49.358  10.347  1.00  0.00     0.168 HD
BRANCH  11  15
HETATM   15  C   UNL     1     -43.704 -47.149   9.125  1.00  0.00     0.007 C 
HETATM   16  C   UNL     1     -44.898 -47.751   9.892  1.00  0.00     0.022 C 
HETATM   17  C   UNL     1     -43.988 -45.656   8.881  1.00  0.00     0.022 C 
HETATM   18  C   UNL     1     -43.571 -47.852   7.761  1.00  0.00     0.022 C 
ENDBRANCH  11  15
ENDBRANCH   3   7
BRANCH   1  19
HETATM   19  C   UNL     1     -39.124 -49.701  14.446  1.00  0.00     0.156 C 
BRANCH  19  20
HETATM   20  N   UNL     1     -37.934 -49.814  15.271  1.00  0.00    -0.359 N 
HETATM   21  C   UNL     1     -36.982 -48.823  15.317  1.00  0.00     0.213 C 
HETATM   22  C   UNL     1     -35.883 -49.097  16.308  1.00  0.00     0.117 C 
HETATM   23  O   UNL     1     -37.007 -47.813  14.624  1.00  0.00    -0.274 OA
HETATM   24  H   UNL     1     -37.941 -50.529  15.989  1.00  0.00     0.162 HD
ENDBRANCH  19  20
ENDBRANCH   1  19
TORSDOF 4
ENDMDL
MODEL 7
REMARK VINA RESULT:      -5.7      1.714      2.525
REMARK  4 active torsions:
REMARK  status: ('A' for Active; 'I' for Inactive)
REMARK       I    between atoms: C_2  and  N_4 
REMARK    1  A    between atoms: N_4  and  C_5 
REMARK    2  A    between atoms: C_5  and  C_6 
REMARK    3  A    between atoms: N_8  and  C_12 
REMARK    4  A    between atoms: C_17  and  C_20 
ROOT
HETATM    1  C   UNL     1     -43.415 -52.287  14.799  1.00  0.00     0.157 C 
HETATM    2  C   UNL     1     -41.977 -52.112  14.274  1.00  0.00     0.158 C 
HETATM    3  N   UNL     1     -41.979 -51.917  12.820  1.00  0.00    -0.363 N 
HETATM    4  C   UNL     1     -42.726 -52.925  12.064  1.00  0.00     0.150 C 
HETATM    5  C   UNL     1     -44.136 -53.087  12.651  1.00  0.00     0.188 C 
HETATM    6  O   UNL     1     -44.134 -53.313  14.067  1.00  0.00    -0.381 OA
ENDROOT
BRANCH   3   7
HETATM    7  C   UNL     1     -41.322 -50.851  12.246  1.00  0.00     0.105 A 
HETATM    8  C   UNL     1     -39.943 -50.820  12.157  1.00  0.00     0.065 A 
HETATM    9  C   UNL     1     -39.365 -49.761  11.504  1.00  0.00     0.093 A 
HETATM   10  N   UNL     1     -40.068 -48.749  10.983  1.00  0.00    -0.355 N 
HETATM   11  C   UNL     1     -41.402 -48.800  11.151  1.00  0.00     0.090 A 
ATOM     12  HN  UNL     1     -39.618 -47.981  10.485  1.00  0.00     0.166 HD
HETATM   13  N   UNL     1     -42.047 -49.821  11.762  1.00  0.00    -0.332 N 
ATOM     14  HN  UNL     1     -43.063 -49.812  11.854  1.00  0.00     0.168 HD
BRANCH  11  15
HETATM   15  C   UNL     1     -42.185 -47.564  10.709  1.00  0.00     0.007 C 
HETATM   16  C   UNL     1     -41.244 -46.346  10.619  1.00  0.00     0.022 C 
HETATM   17  C   UNL     1     -42.866 -47.752   9.341  1.00  0.00     0.022 C 
HETATM   18  C   UNL     1     -43.272 -47.285  11.764  1.00  0.00     0.022 C 
ENDBRANCH  11  15
ENDBRANCH   3   7
BRANCH   1  19
HETATM   19  C   UNL     1     -44.181 -50.954  14.840  1.00  0.00     0.156 C 
BRANCH  19  20
HETATM   20  N   UNL     1     -45.317 -51.032  15.742  1.00  0.00    -0.359 N 
HETATM   21  C   UNL     1     -46.596 -51.255  15.287  1.00  0.00     0.213 C 
HETATM   22  C   UNL     1     -47.606 -51.398  16.393  1.00  0.00     0.117 C 
HETATM   23  O   UNL     1     -46.900 -51.328  14.102  1.00  0.00    -0.274 OA
HETATM   24  H   UNL     1     -45.113 -51.155  16.726  1.00  0.00     0.162 HD
ENDBRANCH  19  20
ENDBRANCH   1  19
TORSDOF 4
ENDMDL
MODEL 8
REMARK VINA RESULT:      -5.6      3.774      5.355
REMARK  4 active torsions:
REMARK  status: ('A' for Active; 'I' for Inactive)
REMARK       I    between atoms: C_2  and  N_4 
REMARK    1  A    between atoms: N_4  and  C_5 
REMARK    2  A    between atoms: C_5  and  C_6 
REMARK    3  A    between atoms: N_8  and  C_12 
REMARK    4  A    between atoms: C_17  and  C_20 
ROOT
HETATM    1  C   UNL     1     -43.933 -53.969  16.242  1.00  0.00     0.157 C 
HETATM    2  C   UNL     1     -42.845 -52.898  16.034  1.00  0.00     0.158 C 
HETATM    3  N   UNL     1     -41.697 -53.461  15.315  1.00  0.00    -0.363 N 
HETATM    4  C   UNL     1     -41.157 -54.696  15.887  1.00  0.00     0.150 C 
HETATM    5  C   UNL     1     -42.286 -55.714  16.107  1.00  0.00     0.188 C 
HETATM    6  O   UNL     1     -43.394 -55.176  16.842  1.00  0.00    -0.381 OA
ENDROOT
BRANCH   3   7
HETATM    7  C   UNL     1     -41.198 -52.849  14.187  1.00  0.00     0.105 A 
HETATM    8  C   UNL     1     -41.700 -53.136  12.931  1.00  0.00     0.065 A 
HETATM    9  C   UNL     1     -41.204 -52.430  11.865  1.00  0.00     0.093 A 
HETATM   10  N   UNL     1     -40.241 -51.509  11.978  1.00  0.00    -0.355 N 
HETATM   11  C   UNL     1     -39.746 -51.313  13.214  1.00  0.00     0.090 A 
ATOM     12  HN  UNL     1     -39.900 -50.984  11.173  1.00  0.00     0.166 HD
HETATM   13  N   UNL     1     -40.199 -51.951  14.319  1.00  0.00    -0.332 N 
ATOM     14  HN  UNL     1     -39.792 -51.757  15.234  1.00  0.00     0.168 HD
BRANCH  11  15
HETATM   15  C   UNL     1     -38.532 -50.389  13.316  1.00  0.00     0.007 C 
HETATM   16  C   UNL     1     -38.818 -49.058  12.591  1.00  0.00     0.022 C 
HETATM   17  C   UNL     1     -38.148 -50.074  14.773  1.00  0.00     0.022 C 
HETATM   18  C   UNL     1     -37.342 -51.090  12.635  1.00  0.00     0.022 C 
ENDBRANCH  11  15
ENDBRANCH   3   7
BRANCH   1  19
HETATM   19  C   UNL     1     -44.711 -54.259  14.947  1.00  0.00     0.156 C 
BRANCH  19  20
HETATM   20  N   UNL     1     -45.402 -53.072  14.475  1.00  0.00    -0.359 N 
HETATM   21  C   UNL     1     -45.615 -52.835  13.137  1.00  0.00     0.213 C 
HETATM   22  C   UNL     1     -46.435 -51.601  12.872  1.00  0.00     0.117 C 
HETATM   23  O   UNL     1     -45.184 -53.546  12.237  1.00  0.00    -0.274 OA
HETATM   24  H   UNL     1     -45.928 -52.545  15.161  1.00  0.00     0.162 HD
ENDBRANCH  19  20
ENDBRANCH   1  19
TORSDOF 4
ENDMDL
MODEL 9
REMARK VINA RESULT:      -5.6      4.337      7.020
REMARK  4 active torsions:
REMARK  status: ('A' for Active; 'I' for Inactive)
REMARK       I    between atoms: C_2  and  N_4 
REMARK    1  A    between atoms: N_4  and  C_5 
REMARK    2  A    between atoms: C_5  and  C_6 
REMARK    3  A    between atoms: N_8  and  C_12 
REMARK    4  A    between atoms: C_17  and  C_20 
ROOT
HETATM    1  C   UNL     1     -40.438 -53.151  12.794  1.00  0.00     0.157 C 
HETATM    2  C   UNL     1     -41.747 -53.744  13.349  1.00  0.00     0.158 C 
HETATM    3  N   UNL     1     -41.734 -53.740  14.815  1.00  0.00    -0.363 N 
HETATM    4  C   UNL     1     -40.549 -54.349  15.423  1.00  0.00     0.150 C 
HETATM    5  C   UNL     1     -39.275 -53.750  14.809  1.00  0.00     0.188 C 
HETATM    6  O   UNL     1     -39.270 -53.785  13.376  1.00  0.00    -0.381 OA
ENDROOT
BRANCH   3   7
HETATM    7  C   UNL     1     -42.774 -53.191  15.533  1.00  0.00     0.105 A 
HETATM    8  C   UNL     1     -42.640 -52.890  16.876  1.00  0.00     0.065 A 
HETATM    9  C   UNL     1     -43.693 -52.275  17.504  1.00  0.00     0.093 A 
HETATM   10  N   UNL     1     -44.846 -51.985  16.889  1.00  0.00    -0.355 N 
HETATM   11  C   UNL     1     -44.943 -52.354  15.599  1.00  0.00     0.090 A 
ATOM     12  HN  UNL     1     -45.609 -51.510  17.372  1.00  0.00     0.166 HD
HETATM   13  N   UNL     1     -43.942 -52.942  14.904  1.00  0.00    -0.332 N 
ATOM     14  HN  UNL     1     -44.067 -53.193  13.924  1.00  0.00     0.168 HD
BRANCH  11  15
HETATM   15  C   UNL     1     -46.316 -52.179  14.950  1.00  0.00     0.007 C 
HETATM   16  C   UNL     1     -46.181 -51.394  13.630  1.00  0.00     0.022 C 
HETATM   17  C   UNL     1     -47.004 -53.522  14.646  1.00  0.00     0.022 C 
HETATM   18  C   UNL     1     -47.205 -51.382  15.923  1.00  0.00     0.022 C 
ENDBRANCH  11  15
ENDBRANCH   3   7
BRANCH   1  19
HETATM   19  C   UNL     1     -40.397 -51.619  12.927  1.00  0.00     0.156 C 
BRANCH  19  20
HETATM   20  N   UNL     1     -39.469 -51.036  11.973  1.00  0.00    -0.359 N 
HETATM   21  C   UNL     1     -38.214 -50.613  12.341  1.00  0.00     0.213 C 
HETATM   22  C   UNL     1     -37.382 -50.134  11.182  1.00  0.00     0.117 C 
HETATM   23  O   UNL     1     -37.799 -50.614  13.494  1.00  0.00    -0.274 OA
HETATM   24  H   UNL     1     -39.680 -51.168  10.991  1.00  0.00     0.162 HD
ENDBRANCH  19  20
ENDBRANCH   1  19
TORSDOF 4
ENDMDL
