MODEL 1
REMARK VINA RESULT:      -6.9      0.000      0.000
REMARK  4 active torsions:
REMARK  status: ('A' for Active; 'I' for Inactive)
REMARK    1  A    between atoms: C_4  and  N_5 
REMARK       I    between atoms: N_5  and  C_6 
REMARK       I    between atoms: C_6  and  N_8 
REMARK    2  A    between atoms: N_8  and  C_9 
REMARK    3  A    between atoms: C_9  and  C_10 
REMARK    4  A    between atoms: C_10  and  N_13 
ROOT
HETATM    1  N   UNL     1     -41.579 -47.720  10.100  1.00  0.00    -0.293 N 
HETATM    2  C   UNL     1     -41.115 -48.609  11.029  1.00  0.00     0.321 C 
HETATM    3  O   UNL     1     -39.983 -48.469  11.481  1.00  0.00    -0.247 OA
HETATM    4  N   UNL     1     -41.957 -49.618  11.378  1.00  0.00    -0.340 N 
HETATM    5  H   UNL     1     -40.915 -47.006   9.843  1.00  0.00     0.172 HD
HETATM    6  H   UNL     1     -42.912 -49.570  11.033  1.00  0.00     0.164 HD
ENDROOT
BRANCH   4   7
HETATM    7  C   UNL     1     -41.634 -50.629  12.355  1.00  0.00     0.165 C 
BRANCH   7   8
HETATM    8  C   UNL     1     -42.553 -50.661  13.630  1.00  0.00     0.168 C 
HETATM    9  C   UNL     1     -41.651 -51.032  14.839  1.00  0.00     0.050 C 
HETATM   10  C   UNL     1     -43.156 -49.268  13.892  1.00  0.00     0.050 C 
BRANCH   8  11
HETATM   11  N   UNL     1     -43.577 -51.734  13.471  1.00  0.00     0.103 N 
HETATM   12  C   UNL     1     -44.963 -51.296  13.189  1.00  0.00     0.299 C 
HETATM   13  C   UNL     1     -45.938 -52.486  13.308  1.00  0.00     0.198 C 
HETATM   14  O   UNL     1     -45.566 -53.583  12.463  1.00  0.00    -0.388 OA
HETATM   15  C   UNL     1     -44.214 -53.974  12.727  1.00  0.00     0.198 C 
HETATM   16  C   UNL     1     -43.257 -52.799  12.495  1.00  0.00     0.299 C 
ENDBRANCH   8  11
ENDBRANCH   7   8
ENDBRANCH   4   7
BRANCH   1  17
HETATM   17  C   UNL     1     -42.816 -47.716   9.487  1.00  0.00     0.132 A 
HETATM   18  C   UNL     1     -44.026 -47.356  10.119  1.00  0.00     0.084 A 
HETATM   19  C   UNL     1     -44.977 -47.489   9.138  1.00  0.00     0.076 A 
HETATM   20  C   UNL     1     -46.430 -47.276   9.062  1.00  0.00     0.079 C 
HETATM   21  O   UNL     1     -44.384 -47.907   7.992  1.00  0.00    -0.241 OA
HETATM   22  N   UNL     1     -43.035 -48.054   8.209  1.00  0.00    -0.245 N 
ATOM     23  HN  UNL     1     -42.338 -48.361   7.531  1.00  0.00     0.196 HD
ENDBRANCH   1  17
TORSDOF 4
ENDMDL
MODEL 2
REMARK VINA RESULT:      -6.6      2.296      2.838
REMARK  4 active torsions:
REMARK  status: ('A' for Active; 'I' for Inactive)
REMARK    1  A    between atoms: C_4  and  N_5 
REMARK       I    between atoms: N_5  and  C_6 
REMARK       I    between atoms: C_6  and  N_8 
REMARK    2  A    between atoms: N_8  and  C_9 
REMARK    3  A    between atoms: C_9  and  C_10 
REMARK    4  A    between atoms: C_10  and  N_13 
ROOT
HETATM    1  N   UNL     1     -41.952 -46.916   9.923  1.00  0.00    -0.293 N 
HETATM    2  C   UNL     1     -41.070 -47.677  10.640  1.00  0.00     0.321 C 
HETATM    3  O   UNL     1     -40.094 -47.139  11.154  1.00  0.00    -0.247 OA
HETATM    4  N   UNL     1     -41.337 -49.008  10.717  1.00  0.00    -0.340 N 
HETATM    5  H   UNL     1     -41.703 -45.941   9.863  1.00  0.00     0.172 HD
HETATM    6  H   UNL     1     -42.234 -49.325  10.357  1.00  0.00     0.164 HD
ENDROOT
BRANCH   4   7
HETATM    7  C   UNL     1     -40.523 -49.947  11.446  1.00  0.00     0.165 C 
BRANCH   7   8
HETATM    8  C   UNL     1     -40.969 -50.227  12.928  1.00  0.00     0.168 C 
HETATM    9  C   UNL     1     -40.133 -49.293  13.845  1.00  0.00     0.050 C 
HETATM   10  C   UNL     1     -42.457 -49.877  13.116  1.00  0.00     0.050 C 
BRANCH   8  11
HETATM   11  N   UNL     1     -40.639 -51.639  13.283  1.00  0.00     0.103 N 
HETATM   12  C   UNL     1     -40.989 -52.675  12.285  1.00  0.00     0.299 C 
HETATM   13  C   UNL     1     -40.828 -54.084  12.895  1.00  0.00     0.198 C 
HETATM   14  O   UNL     1     -39.512 -54.303  13.420  1.00  0.00    -0.388 OA
HETATM   15  C   UNL     1     -39.176 -53.276  14.359  1.00  0.00     0.198 C 
HETATM   16  C   UNL     1     -39.241 -51.895  13.694  1.00  0.00     0.299 C 
ENDBRANCH   8  11
ENDBRANCH   7   8
ENDBRANCH   4   7
BRANCH   1  17
HETATM   17  C   UNL     1     -43.099 -47.341   9.283  1.00  0.00     0.132 A 
HETATM   18  C   UNL     1     -44.389 -47.337   9.855  1.00  0.00     0.084 A 
HETATM   19  C   UNL     1     -45.204 -47.827   8.865  1.00  0.00     0.076 A 
HETATM   20  C   UNL     1     -46.646 -48.086   8.738  1.00  0.00     0.079 C 
HETATM   21  O   UNL     1     -44.457 -48.114   7.771  1.00  0.00    -0.241 OA
HETATM   22  N   UNL     1     -43.141 -47.816   8.031  1.00  0.00    -0.245 N 
ATOM     23  HN  UNL     1     -42.351 -47.934   7.396  1.00  0.00     0.196 HD
ENDBRANCH   1  17
TORSDOF 4
ENDMDL
MODEL 3
REMARK VINA RESULT:      -6.4      1.643      5.536
REMARK  4 active torsions:
REMARK  status: ('A' for Active; 'I' for Inactive)
REMARK    1  A    between atoms: C_4  and  N_5 
REMARK       I    between atoms: N_5  and  C_6 
REMARK       I    between atoms: C_6  and  N_8 
REMARK    2  A    between atoms: N_8  and  C_9 
REMARK    3  A    between atoms: C_9  and  C_10 
REMARK    4  A    between atoms: C_10  and  N_13 
ROOT
HETATM    1  N   UNL     1     -41.794 -52.484  12.678  1.00  0.00    -0.293 N 
HETATM    2  C   UNL     1     -40.983 -51.522  12.144  1.00  0.00     0.321 C 
HETATM    3  O   UNL     1     -39.765 -51.657  12.215  1.00  0.00    -0.247 OA
HETATM    4  N   UNL     1     -41.600 -50.452  11.575  1.00  0.00    -0.340 N 
HETATM    5  H   UNL     1     -41.300 -53.244  13.117  1.00  0.00     0.172 HD
HETATM    6  H   UNL     1     -42.609 -50.500  11.464  1.00  0.00     0.164 HD
ENDROOT
BRANCH   4   7
HETATM    7  C   UNL     1     -40.896 -49.359  10.951  1.00  0.00     0.165 C 
BRANCH   7   8
HETATM    8  C   UNL     1     -41.431 -47.921  11.293  1.00  0.00     0.168 C 
HETATM    9  C   UNL     1     -42.030 -47.980  12.724  1.00  0.00     0.050 C 
HETATM   10  C   UNL     1     -40.273 -46.906  11.301  1.00  0.00     0.050 C 
BRANCH   8  11
HETATM   11  N   UNL     1     -42.529 -47.567  10.347  1.00  0.00     0.103 N 
HETATM   12  C   UNL     1     -43.914 -47.712  10.849  1.00  0.00     0.299 C 
HETATM   13  C   UNL     1     -44.924 -47.561   9.692  1.00  0.00     0.198 C 
HETATM   14  O   UNL     1     -44.763 -46.323   8.986  1.00  0.00    -0.388 OA
HETATM   15  C   UNL     1     -43.412 -46.183   8.535  1.00  0.00     0.198 C 
HETATM   16  C   UNL     1     -42.439 -46.230   9.719  1.00  0.00     0.299 C 
ENDBRANCH   8  11
ENDBRANCH   7   8
ENDBRANCH   4   7
BRANCH   1  17
HETATM   17  C   UNL     1     -43.175 -52.505  12.688  1.00  0.00     0.132 A 
HETATM   18  C   UNL     1     -43.986 -51.712  13.528  1.00  0.00     0.084 A 
HETATM   19  C   UNL     1     -45.271 -52.056  13.188  1.00  0.00     0.076 A 
HETATM   20  C   UNL     1     -46.610 -51.636  13.625  1.00  0.00     0.079 C 
HETATM   21  O   UNL     1     -45.239 -52.998  12.213  1.00  0.00    -0.241 OA
HETATM   22  N   UNL     1     -43.931 -53.284  11.903  1.00  0.00    -0.245 N 
ATOM     23  HN  UNL     1     -43.601 -53.957  11.211  1.00  0.00     0.196 HD
ENDBRANCH   1  17
TORSDOF 4
ENDMDL
MODEL 4
REMARK VINA RESULT:      -6.2      2.496      6.038
REMARK  4 active torsions:
REMARK  status: ('A' for Active; 'I' for Inactive)
REMARK    1  A    between atoms: C_4  and  N_5 
REMARK       I    between atoms: N_5  and  C_6 
REMARK       I    between atoms: C_6  and  N_8 
REMARK    2  A    between atoms: N_8  and  C_9 
REMARK    3  A    between atoms: C_9  and  C_10 
REMARK    4  A    between atoms: C_10  and  N_13 
ROOT
HETATM    1  N   UNL     1     -41.844 -52.887  12.835  1.00  0.00    -0.293 N 
HETATM    2  C   UNL     1     -40.906 -52.026  12.337  1.00  0.00     0.321 C 
HETATM    3  O   UNL     1     -39.715 -52.299  12.462  1.00  0.00    -0.247 OA
HETATM    4  N   UNL     1     -41.371 -50.897  11.740  1.00  0.00    -0.340 N 
HETATM    5  H   UNL     1     -41.460 -53.695  13.297  1.00  0.00     0.172 HD
HETATM    6  H   UNL     1     -42.373 -50.830  11.585  1.00  0.00     0.164 HD
ENDROOT
BRANCH   4   7
HETATM    7  C   UNL     1     -40.520 -49.895  11.147  1.00  0.00     0.165 C 
BRANCH   7   8
HETATM    8  C   UNL     1     -40.305 -48.592  12.000  1.00  0.00     0.168 C 
HETATM    9  C   UNL     1     -41.298 -48.653  13.193  1.00  0.00     0.050 C 
HETATM   10  C   UNL     1     -38.874 -48.555  12.570  1.00  0.00     0.050 C 
BRANCH   8  11
HETATM   11  N   UNL     1     -40.649 -47.399  11.173  1.00  0.00     0.103 N 
HETATM   12  C   UNL     1     -42.086 -47.060  11.060  1.00  0.00     0.299 C 
HETATM   13  C   UNL     1     -42.298 -45.978   9.979  1.00  0.00     0.198 C 
HETATM   14  O   UNL     1     -41.512 -44.804  10.221  1.00  0.00    -0.388 OA
HETATM   15  C   UNL     1     -40.131 -45.153  10.359  1.00  0.00     0.198 C 
HETATM   16  C   UNL     1     -39.938 -46.147  11.510  1.00  0.00     0.299 C 
ENDBRANCH   8  11
ENDBRANCH   7   8
ENDBRANCH   4   7
BRANCH   1  17
HETATM   17  C   UNL     1     -43.217 -52.751  12.784  1.00  0.00     0.132 A 
HETATM   18  C   UNL     1     -43.979 -51.949  13.661  1.00  0.00     0.084 A 
HETATM   19  C   UNL     1     -45.275 -52.111  13.234  1.00  0.00     0.076 A 
HETATM   20  C   UNL     1     -46.581 -51.581  13.651  1.00  0.00     0.079 C 
HETATM   21  O   UNL     1     -45.295 -52.959  12.176  1.00  0.00    -0.241 OA
HETATM   22  N   UNL     1     -44.011 -53.364  11.896  1.00  0.00    -0.245 N 
ATOM     23  HN  UNL     1     -43.721 -54.005  11.158  1.00  0.00     0.196 HD
ENDBRANCH   1  17
TORSDOF 4
ENDMDL
MODEL 5
REMARK VINA RESULT:      -6.2      2.530      3.831
REMARK  4 active torsions:
REMARK  status: ('A' for Active; 'I' for Inactive)
REMARK    1  A    between atoms: C_4  and  N_5 
REMARK       I    between atoms: N_5  and  C_6 
REMARK       I    between atoms: C_6  and  N_8 
REMARK    2  A    between atoms: N_8  and  C_9 
REMARK    3  A    between atoms: C_9  and  C_10 
REMARK    4  A    between atoms: C_10  and  N_13 
ROOT
HETATM    1  N   UNL     1     -41.947 -46.854  10.012  1.00  0.00    -0.293 N 
HETATM    2  C   UNL     1     -41.015 -47.626  10.649  1.00  0.00     0.321 C 
HETATM    3  O   UNL     1     -40.057 -47.083  11.191  1.00  0.00    -0.247 OA
HETATM    4  N   UNL     1     -41.214 -48.970  10.619  1.00  0.00    -0.340 N 
HETATM    5  H   UNL     1     -41.748 -45.867  10.029  1.00  0.00     0.172 HD
HETATM    6  H   UNL     1     -42.100 -49.303  10.248  1.00  0.00     0.164 HD
ENDROOT
BRANCH   4   7
HETATM    7  C   UNL     1     -40.340 -49.924  11.256  1.00  0.00     0.165 C 
BRANCH   7   8
HETATM    8  C   UNL     1     -41.002 -50.818  12.366  1.00  0.00     0.168 C 
HETATM    9  C   UNL     1     -42.386 -50.196  12.695  1.00  0.00     0.050 C 
HETATM   10  C   UNL     1     -41.232 -52.247  11.838  1.00  0.00     0.050 C 
BRANCH   8  11
HETATM   11  N   UNL     1     -40.167 -50.766  13.602  1.00  0.00     0.103 N 
HETATM   12  C   UNL     1     -39.515 -52.029  14.019  1.00  0.00     0.299 C 
HETATM   13  C   UNL     1     -38.910 -51.880  15.431  1.00  0.00     0.198 C 
HETATM   14  O   UNL     1     -37.996 -50.778  15.520  1.00  0.00    -0.388 OA
HETATM   15  C   UNL     1     -38.631 -49.572  15.083  1.00  0.00     0.198 C 
HETATM   16  C   UNL     1     -39.127 -49.715  13.639  1.00  0.00     0.299 C 
ENDBRANCH   8  11
ENDBRANCH   7   8
ENDBRANCH   4   7
BRANCH   1  17
HETATM   17  C   UNL     1     -43.084 -47.284   9.356  1.00  0.00     0.132 A 
HETATM   18  C   UNL     1     -44.365 -47.379   9.943  1.00  0.00     0.084 A 
HETATM   19  C   UNL     1     -45.172 -47.833   8.930  1.00  0.00     0.076 A 
HETATM   20  C   UNL     1     -46.603 -48.147   8.803  1.00  0.00     0.079 C 
HETATM   21  O   UNL     1     -44.430 -48.007   7.809  1.00  0.00    -0.241 OA
HETATM   22  N   UNL     1     -43.125 -47.669   8.074  1.00  0.00    -0.245 N 
ATOM     23  HN  UNL     1     -42.341 -47.704   7.423  1.00  0.00     0.196 HD
ENDBRANCH   1  17
TORSDOF 4
ENDMDL
MODEL 6
REMARK VINA RESULT:      -6.0      2.747      3.685
REMARK  4 active torsions:
REMARK  status: ('A' for Active; 'I' for Inactive)
REMARK    1  A    between atoms: C_4  and  N_5 
REMARK       I    between atoms: N_5  and  C_6 
REMARK       I    between atoms: C_6  and  N_8 
REMARK    2  A    between atoms: N_8  and  C_9 
REMARK    3  A    between atoms: C_9  and  C_10 
REMARK    4  A    between atoms: C_10  and  N_13 
ROOT
HETATM    1  N   UNL     1     -40.386 -50.925  11.484  1.00  0.00    -0.293 N 
HETATM    2  C   UNL     1     -41.151 -51.999  11.846  1.00  0.00     0.321 C 
HETATM    3  O   UNL     1     -40.623 -53.102  11.953  1.00  0.00    -0.247 OA
HETATM    4  N   UNL     1     -42.474 -51.764  12.050  1.00  0.00    -0.340 N 
HETATM    5  H   UNL     1     -39.419 -51.146  11.311  1.00  0.00     0.172 HD
HETATM    6  H   UNL     1     -42.781 -50.795  12.052  1.00  0.00     0.164 HD
ENDROOT
BRANCH   4   7
HETATM    7  C   UNL     1     -43.416 -52.778  12.454  1.00  0.00     0.165 C 
BRANCH   7   8
HETATM    8  C   UNL     1     -44.628 -52.276  13.319  1.00  0.00     0.168 C 
HETATM    9  C   UNL     1     -44.448 -50.747  13.521  1.00  0.00     0.050 C 
HETATM   10  C   UNL     1     -45.954 -52.507  12.570  1.00  0.00     0.050 C 
BRANCH   8  11
HETATM   11  N   UNL     1     -44.579 -52.928  14.660  1.00  0.00     0.103 N 
HETATM   12  C   UNL     1     -45.859 -53.442  15.198  1.00  0.00     0.299 C 
HETATM   13  C   UNL     1     -45.696 -53.847  16.678  1.00  0.00     0.198 C 
HETATM   14  O   UNL     1     -44.641 -54.800  16.870  1.00  0.00    -0.388 OA
HETATM   15  C   UNL     1     -43.419 -54.302  16.317  1.00  0.00     0.198 C 
HETATM   16  C   UNL     1     -43.582 -54.009  14.820  1.00  0.00     0.299 C 
ENDBRANCH   8  11
ENDBRANCH   7   8
ENDBRANCH   4   7
BRANCH   1  17
HETATM   17  C   UNL     1     -40.801 -49.618  11.319  1.00  0.00     0.132 A 
HETATM   18  C   UNL     1     -40.829 -48.647  12.344  1.00  0.00     0.084 A 
HETATM   19  C   UNL     1     -41.294 -47.512  11.727  1.00  0.00     0.076 A 
HETATM   20  C   UNL     1     -41.562 -46.132  12.156  1.00  0.00     0.079 C 
HETATM   21  O   UNL     1     -41.537 -47.780  10.420  1.00  0.00    -0.241 OA
HETATM   22  N   UNL     1     -41.234 -49.096  10.164  1.00  0.00    -0.245 N 
ATOM     23  HN  UNL     1     -41.323 -49.580   9.271  1.00  0.00     0.196 HD
ENDBRANCH   1  17
TORSDOF 4
ENDMDL
MODEL 7
REMARK VINA RESULT:      -5.7      2.779      6.787
REMARK  4 active torsions:
REMARK  status: ('A' for Active; 'I' for Inactive)
REMARK    1  A    between atoms: C_4  and  N_5 
REMARK       I    between atoms: N_5  and  C_6 
REMARK       I    between atoms: C_6  and  N_8 
REMARK    2  A    between atoms: N_8  and  C_9 
REMARK    3  A    between atoms: C_9  and  C_10 
REMARK    4  A    between atoms: C_10  and  N_13 
ROOT
HETATM    1  N   UNL     1     -39.525 -51.188  12.258  1.00  0.00    -0.293 N 
HETATM    2  C   UNL     1     -39.769 -50.006  11.617  1.00  0.00     0.321 C 
HETATM    3  O   UNL     1     -38.841 -49.227  11.421  1.00  0.00    -0.247 OA
HETATM    4  N   UNL     1     -41.057 -49.766  11.250  1.00  0.00    -0.340 N 
HETATM    5  H   UNL     1     -38.567 -51.314  12.542  1.00  0.00     0.172 HD
HETATM    6  H   UNL     1     -41.721 -50.529  11.353  1.00  0.00     0.164 HD
ENDROOT
BRANCH   4   7
HETATM    7  C   UNL     1     -41.483 -48.581  10.550  1.00  0.00     0.165 C 
BRANCH   7   8
HETATM    8  C   UNL     1     -42.378 -47.587  11.376  1.00  0.00     0.168 C 
HETATM    9  C   UNL     1     -43.746 -47.484  10.648  1.00  0.00     0.050 C 
HETATM   10  C   UNL     1     -42.629 -48.141  12.791  1.00  0.00     0.050 C 
BRANCH   8  11
HETATM   11  N   UNL     1     -41.748 -46.234  11.368  1.00  0.00     0.103 N 
HETATM   12  C   UNL     1     -40.420 -46.122  10.724  1.00  0.00     0.299 C 
HETATM   13  C   UNL     1     -39.794 -44.743  11.020  1.00  0.00     0.198 C 
HETATM   14  O   UNL     1     -40.647 -43.660  10.626  1.00  0.00    -0.388 OA
HETATM   15  C   UNL     1     -41.936 -43.800  11.231  1.00  0.00     0.198 C 
HETATM   16  C   UNL     1     -42.579 -45.134  10.831  1.00  0.00     0.299 C 
ENDBRANCH   8  11
ENDBRANCH   7   8
ENDBRANCH   4   7
BRANCH   1  17
HETATM   17  C   UNL     1     -40.436 -52.182  12.561  1.00  0.00     0.132 A 
HETATM   18  C   UNL     1     -41.130 -52.292  13.785  1.00  0.00     0.084 A 
HETATM   19  C   UNL     1     -41.919 -53.405  13.632  1.00  0.00     0.076 A 
HETATM   20  C   UNL     1     -42.901 -54.107  14.470  1.00  0.00     0.079 C 
HETATM   21  O   UNL     1     -41.711 -53.936  12.401  1.00  0.00    -0.241 OA
HETATM   22  N   UNL     1     -40.781 -53.176  11.732  1.00  0.00    -0.245 N 
ATOM     23  HN  UNL     1     -40.424 -53.338  10.791  1.00  0.00     0.196 HD
ENDBRANCH   1  17
TORSDOF 4
ENDMDL
MODEL 8
REMARK VINA RESULT:      -5.6      2.781      6.288
REMARK  4 active torsions:
REMARK  status: ('A' for Active; 'I' for Inactive)
REMARK    1  A    between atoms: C_4  and  N_5 
REMARK       I    between atoms: N_5  and  C_6 
REMARK       I    between atoms: C_6  and  N_8 
REMARK    2  A    between atoms: N_8  and  C_9 
REMARK    3  A    between atoms: C_9  and  C_10 
REMARK    4  A    between atoms: C_10  and  N_13 
ROOT
HETATM    1  N   UNL     1     -40.938 -51.709  11.459  1.00  0.00    -0.293 N 
HETATM    2  C   UNL     1     -40.450 -50.491  11.843  1.00  0.00     0.321 C 
HETATM    3  O   UNL     1     -39.710 -49.875  11.082  1.00  0.00    -0.247 OA
HETATM    4  N   UNL     1     -40.813 -50.051  13.077  1.00  0.00    -0.340 N 
HETATM    5  H   UNL     1     -40.621 -52.015  10.553  1.00  0.00     0.172 HD
HETATM    6  H   UNL     1     -41.523 -50.584  13.572  1.00  0.00     0.164 HD
ENDROOT
BRANCH   4   7
HETATM    7  C   UNL     1     -40.403 -48.783  13.628  1.00  0.00     0.165 C 
BRANCH   7   8
HETATM    8  C   UNL     1     -41.447 -47.615  13.501  1.00  0.00     0.168 C 
HETATM    9  C   UNL     1     -42.862 -48.253  13.566  1.00  0.00     0.050 C 
HETATM   10  C   UNL     1     -41.307 -46.639  14.684  1.00  0.00     0.050 C 
BRANCH   8  11
HETATM   11  N   UNL     1     -41.296 -46.963  12.167  1.00  0.00     0.103 N 
HETATM   12  C   UNL     1     -42.520 -46.393  11.562  1.00  0.00     0.299 C 
HETATM   13  C   UNL     1     -42.258 -45.992  10.094  1.00  0.00     0.198 C 
HETATM   14  O   UNL     1     -41.154 -45.086   9.965  1.00  0.00    -0.388 OA
HETATM   15  C   UNL     1     -39.987 -45.638  10.583  1.00  0.00     0.198 C 
HETATM   16  C   UNL     1     -40.246 -45.926  12.067  1.00  0.00     0.299 C 
ENDBRANCH   8  11
ENDBRANCH   7   8
ENDBRANCH   4   7
BRANCH   1  17
HETATM   17  C   UNL     1     -41.780 -52.538  12.174  1.00  0.00     0.132 A 
HETATM   18  C   UNL     1     -41.384 -53.335  13.270  1.00  0.00     0.084 A 
HETATM   19  C   UNL     1     -42.535 -53.972  13.664  1.00  0.00     0.076 A 
HETATM   20  C   UNL     1     -42.885 -54.924  14.728  1.00  0.00     0.079 C 
HETATM   21  O   UNL     1     -43.556 -53.590  12.857  1.00  0.00    -0.241 OA
HETATM   22  N   UNL     1     -43.086 -52.698  11.923  1.00  0.00    -0.245 N 
ATOM     23  HN  UNL     1     -43.625 -52.248  11.184  1.00  0.00     0.196 HD
ENDBRANCH   1  17
TORSDOF 4
ENDMDL
MODEL 9
REMARK VINA RESULT:      -5.6      3.617      5.772
REMARK  4 active torsions:
REMARK  status: ('A' for Active; 'I' for Inactive)
REMARK    1  A    between atoms: C_4  and  N_5 
REMARK       I    between atoms: N_5  and  C_6 
REMARK       I    between atoms: C_6  and  N_8 
REMARK    2  A    between atoms: N_8  and  C_9 
REMARK    3  A    between atoms: C_9  and  C_10 
REMARK    4  A    between atoms: C_10  and  N_13 
ROOT
HETATM    1  N   UNL     1     -42.885 -52.877  11.775  1.00  0.00    -0.293 N 
HETATM    2  C   UNL     1     -43.869 -53.217  12.661  1.00  0.00     0.321 C 
HETATM    3  O   UNL     1     -44.769 -53.969  12.298  1.00  0.00    -0.247 OA
HETATM    4  N   UNL     1     -43.787 -52.670  13.903  1.00  0.00    -0.340 N 
HETATM    5  H   UNL     1     -42.999 -53.276  10.857  1.00  0.00     0.172 HD
HETATM    6  H   UNL     1     -42.938 -52.159  14.132  1.00  0.00     0.164 HD
ENDROOT
BRANCH   4   7
HETATM    7  C   UNL     1     -44.729 -52.938  14.960  1.00  0.00     0.165 C 
BRANCH   7   8
HETATM    8  C   UNL     1     -45.591 -51.710  15.431  1.00  0.00     0.168 C 
HETATM    9  C   UNL     1     -44.646 -50.480  15.494  1.00  0.00     0.050 C 
HETATM   10  C   UNL     1     -46.701 -51.409  14.405  1.00  0.00     0.050 C 
BRANCH   8  11
HETATM   11  N   UNL     1     -46.106 -51.968  16.807  1.00  0.00     0.103 N 
HETATM   12  C   UNL     1     -47.496 -51.545  17.089  1.00  0.00     0.299 C 
HETATM   13  C   UNL     1     -47.791 -51.640  18.601  1.00  0.00     0.198 C 
HETATM   14  O   UNL     1     -47.539 -52.951  19.125  1.00  0.00    -0.388 OA
HETATM   15  C   UNL     1     -46.202 -53.358  18.816  1.00  0.00     0.198 C 
HETATM   16  C   UNL     1     -45.972 -53.357  17.300  1.00  0.00     0.299 C 
ENDBRANCH   8  11
ENDBRANCH   7   8
ENDBRANCH   4   7
BRANCH   1  17
HETATM   17  C   UNL     1     -41.800 -52.054  12.003  1.00  0.00     0.132 A 
HETATM   18  C   UNL     1     -40.579 -52.473  12.576  1.00  0.00     0.084 A 
HETATM   19  C   UNL     1     -39.805 -51.339  12.598  1.00  0.00     0.076 A 
HETATM   20  C   UNL     1     -38.437 -51.022  13.032  1.00  0.00     0.079 C 
HETATM   21  O   UNL     1     -40.512 -50.304  12.080  1.00  0.00    -0.241 OA
HETATM   22  N   UNL     1     -41.759 -50.747  11.712  1.00  0.00    -0.245 N 
ATOM     23  HN  UNL     1     -42.508 -50.191  11.299  1.00  0.00     0.196 HD
ENDBRANCH   1  17
TORSDOF 4
ENDMDL
