MODEL 1
REMARK VINA RESULT:      -6.3      0.000      0.000
REMARK  4 active torsions:
REMARK  status: ('A' for Active; 'I' for Inactive)
REMARK    1  A    between atoms: C_2  and  C_4 
REMARK    2  A    between atoms: C_8  and  C_9 
REMARK    3  A    between atoms: C_9  and  C_10 
REMARK    4  A    between atoms: C_10  and  N_11 
REMARK       I    between atoms: N_11  and  C_12 
REMARK       I    between atoms: C_12  and  N_14 
ROOT
HETATM    1  C   UNL     1     -40.467 -48.530  11.666  1.00  0.00     0.106 C 
ENDROOT
BRANCH   1   2
HETATM    2  C   UNL     1     -41.675 -48.006  10.981  1.00  0.00     0.149 A 
HETATM    3  O   UNL     1     -42.533 -47.286  11.764  1.00  0.00    -0.223 OA
HETATM    4  N   UNL     1     -43.606 -46.922  10.953  1.00  0.00    -0.247 N 
HETATM    5  C   UNL     1     -43.294 -47.457   9.765  1.00  0.00     0.107 A 
ATOM      6  HN  UNL     1     -44.431 -46.377  11.204  1.00  0.00     0.196 HD
HETATM    7  N   UNL     1     -42.099 -48.143   9.741  1.00  0.00    -0.327 N 
ATOM      8  HN  UNL     1     -41.656 -48.632   8.962  1.00  0.00     0.169 HD
BRANCH   5   9
HETATM    9  C   UNL     1     -44.196 -47.315   8.582  1.00  0.00     0.047 C 
HETATM   10  C   UNL     1     -43.689 -48.116   7.383  1.00  0.00     0.017 C 
HETATM   11  C   UNL     1     -45.637 -47.701   8.915  1.00  0.00     0.017 C 
ENDBRANCH   5   9
ENDBRANCH   1   2
BRANCH   1  12
HETATM   12  C   UNL     1     -40.148 -49.977  11.284  1.00  0.00     0.132 C 
BRANCH  12  13
HETATM   13  N   UNL     1     -41.156 -50.952  11.712  1.00  0.00    -0.343 N 
HETATM   14  C   UNL     1     -40.782 -52.108  12.352  1.00  0.00     0.318 C 
HETATM   15  O   UNL     1     -39.609 -52.314  12.658  1.00  0.00    -0.247 OA
HETATM   16  N   UNL     1     -41.794 -53.002  12.648  1.00  0.00    -0.333 N 
HETATM   17  C   UNL     1     -43.231 -52.838  12.378  1.00  0.00     0.137 C 
HETATM   18  C   UNL     1     -41.422 -54.275  13.285  1.00  0.00     0.137 C 
HETATM   19  C   UNL     1     -44.098 -52.924  13.639  1.00  0.00     0.093 C 
HETATM   20  S   UNL     1     -43.898 -54.507  14.518  1.00  0.00    -0.166 SA
HETATM   21  C   UNL     1     -42.079 -54.477  14.651  1.00  0.00     0.093 C 
HETATM   22  H   UNL     1     -41.904 -51.079  11.049  1.00  0.00     0.164 HD
ENDBRANCH  12  13
ENDBRANCH   1  12
TORSDOF 4
ENDMDL
MODEL 2
REMARK VINA RESULT:      -6.0      4.191      5.775
REMARK  4 active torsions:
REMARK  status: ('A' for Active; 'I' for Inactive)
REMARK    1  A    between atoms: C_2  and  C_4 
REMARK    2  A    between atoms: C_8  and  C_9 
REMARK    3  A    between atoms: C_9  and  C_10 
REMARK    4  A    between atoms: C_10  and  N_11 
REMARK       I    between atoms: N_11  and  C_12 
REMARK       I    between atoms: C_12  and  N_14 
ROOT
HETATM    1  C   UNL     1     -42.660 -54.877  14.858  1.00  0.00     0.106 C 
ENDROOT
BRANCH   1   2
HETATM    2  C   UNL     1     -43.501 -53.973  14.033  1.00  0.00     0.149 A 
HETATM    3  O   UNL     1     -43.175 -53.909  12.708  1.00  0.00    -0.223 OA
HETATM    4  N   UNL     1     -44.046 -52.991  12.125  1.00  0.00    -0.247 N 
HETATM    5  C   UNL     1     -44.808 -52.590  13.151  1.00  0.00     0.107 A 
ATOM      6  HN  UNL     1     -44.092 -52.696  11.149  1.00  0.00     0.196 HD
HETATM    7  N   UNL     1     -44.500 -53.177  14.359  1.00  0.00    -0.327 N 
ATOM      8  HN  UNL     1     -44.933 -53.032  15.271  1.00  0.00     0.169 HD
BRANCH   5   9
HETATM    9  C   UNL     1     -45.892 -51.576  12.971  1.00  0.00     0.047 C 
HETATM   10  C   UNL     1     -46.806 -51.927  11.797  1.00  0.00     0.017 C 
HETATM   11  C   UNL     1     -46.708 -51.383  14.249  1.00  0.00     0.017 C 
ENDBRANCH   5   9
ENDBRANCH   1   2
BRANCH   1  12
HETATM   12  C   UNL     1     -41.172 -54.525  14.796  1.00  0.00     0.132 C 
BRANCH  12  13
HETATM   13  N   UNL     1     -40.894 -53.126  14.456  1.00  0.00    -0.343 N 
HETATM   14  C   UNL     1     -39.671 -52.760  13.953  1.00  0.00     0.318 C 
HETATM   15  O   UNL     1     -38.811 -53.601  13.695  1.00  0.00    -0.247 OA
HETATM   16  N   UNL     1     -39.474 -51.409  13.734  1.00  0.00    -0.333 N 
HETATM   17  C   UNL     1     -40.443 -50.324  13.955  1.00  0.00     0.137 C 
HETATM   18  C   UNL     1     -38.156 -50.977  13.246  1.00  0.00     0.137 C 
HETATM   19  C   UNL     1     -40.732 -49.504  12.692  1.00  0.00     0.093 C 
HETATM   20  S   UNL     1     -39.231 -48.745  11.994  1.00  0.00    -0.166 SA
HETATM   21  C   UNL     1     -38.221 -50.260  11.896  1.00  0.00     0.093 C 
HETATM   22  H   UNL     1     -41.277 -52.465  15.113  1.00  0.00     0.164 HD
ENDBRANCH  12  13
ENDBRANCH   1  12
TORSDOF 4
ENDMDL
MODEL 3
REMARK VINA RESULT:      -5.9      1.887      2.566
REMARK  4 active torsions:
REMARK  status: ('A' for Active; 'I' for Inactive)
REMARK    1  A    between atoms: C_2  and  C_4 
REMARK    2  A    between atoms: C_8  and  C_9 
REMARK    3  A    between atoms: C_9  and  C_10 
REMARK    4  A    between atoms: C_10  and  N_11 
REMARK       I    between atoms: N_11  and  C_12 
REMARK       I    between atoms: C_12  and  N_14 
ROOT
HETATM    1  C   UNL     1     -40.480 -50.938  11.989  1.00  0.00     0.106 C 
ENDROOT
BRANCH   1   2
HETATM    2  C   UNL     1     -41.343 -49.826  11.516  1.00  0.00     0.149 A 
HETATM    3  O   UNL     1     -42.489 -49.622  12.231  1.00  0.00    -0.223 OA
HETATM    4  N   UNL     1     -43.166 -48.574  11.613  1.00  0.00    -0.247 N 
HETATM    5  C   UNL     1     -42.367 -48.249  10.587  1.00  0.00     0.107 A 
ATOM      6  HN  UNL     1     -44.057 -48.154  11.878  1.00  0.00     0.196 HD
HETATM    7  N   UNL     1     -41.220 -49.007  10.491  1.00  0.00    -0.327 N 
ATOM      8  HN  UNL     1     -40.470 -48.949   9.803  1.00  0.00     0.169 HD
BRANCH   5   9
HETATM    9  C   UNL     1     -42.724 -47.155   9.634  1.00  0.00     0.047 C 
HETATM   10  C   UNL     1     -44.171 -47.270   9.156  1.00  0.00     0.017 C 
HETATM   11  C   UNL     1     -42.463 -45.772  10.232  1.00  0.00     0.017 C 
ENDBRANCH   5   9
ENDBRANCH   1   2
BRANCH   1  12
HETATM   12  C   UNL     1     -41.079 -52.317  11.704  1.00  0.00     0.132 C 
BRANCH  12  13
HETATM   13  N   UNL     1     -42.494 -52.448  12.062  1.00  0.00    -0.343 N 
HETATM   14  C   UNL     1     -42.914 -53.462  12.887  1.00  0.00     0.318 C 
HETATM   15  O   UNL     1     -42.109 -54.230  13.412  1.00  0.00    -0.247 OA
HETATM   16  N   UNL     1     -44.276 -53.552  13.106  1.00  0.00    -0.333 N 
HETATM   17  C   UNL     1     -45.322 -52.663  12.576  1.00  0.00     0.137 C 
HETATM   18  C   UNL     1     -44.766 -54.659  13.942  1.00  0.00     0.137 C 
HETATM   19  C   UNL     1     -46.164 -51.998  13.671  1.00  0.00     0.093 C 
HETATM   20  S   UNL     1     -46.991 -53.211  14.750  1.00  0.00    -0.166 SA
HETATM   21  C   UNL     1     -45.514 -54.185  15.189  1.00  0.00     0.093 C 
HETATM   22  H   UNL     1     -43.125 -52.258  11.300  1.00  0.00     0.164 HD
ENDBRANCH  12  13
ENDBRANCH   1  12
TORSDOF 4
ENDMDL
MODEL 4
REMARK VINA RESULT:      -5.8      3.903      6.380
REMARK  4 active torsions:
REMARK  status: ('A' for Active; 'I' for Inactive)
REMARK    1  A    between atoms: C_2  and  C_4 
REMARK    2  A    between atoms: C_8  and  C_9 
REMARK    3  A    between atoms: C_9  and  C_10 
REMARK    4  A    between atoms: C_10  and  N_11 
REMARK       I    between atoms: N_11  and  C_12 
REMARK       I    between atoms: C_12  and  N_14 
ROOT
HETATM    1  C   UNL     1     -42.219 -54.556  14.442  1.00  0.00     0.106 C 
ENDROOT
BRANCH   1   2
HETATM    2  C   UNL     1     -43.654 -54.191  14.331  1.00  0.00     0.149 A 
HETATM    3  O   UNL     1     -44.538 -55.224  14.457  1.00  0.00    -0.223 OA
HETATM    4  N   UNL     1     -45.812 -54.685  14.287  1.00  0.00    -0.247 N 
HETATM    5  C   UNL     1     -45.573 -53.384  14.074  1.00  0.00     0.107 A 
ATOM      6  HN  UNL     1     -46.711 -55.166  14.318  1.00  0.00     0.196 HD
HETATM    7  N   UNL     1     -44.240 -53.035  14.092  1.00  0.00    -0.327 N 
ATOM      8  HN  UNL     1     -43.816 -52.117  13.955  1.00  0.00     0.169 HD
BRANCH   5   9
HETATM    9  C   UNL     1     -46.684 -52.415  13.829  1.00  0.00     0.047 C 
HETATM   10  C   UNL     1     -46.835 -51.423  14.981  1.00  0.00     0.017 C 
HETATM   11  C   UNL     1     -46.511 -51.675  12.502  1.00  0.00     0.017 C 
ENDBRANCH   5   9
ENDBRANCH   1   2
BRANCH   1  12
HETATM   12  C   UNL     1     -41.453 -54.358  13.132  1.00  0.00     0.132 C 
BRANCH  12  13
HETATM   13  N   UNL     1     -40.513 -53.234  13.145  1.00  0.00    -0.343 N 
HETATM   14  C   UNL     1     -40.851 -52.035  12.568  1.00  0.00     0.318 C 
HETATM   15  O   UNL     1     -41.974 -51.846  12.105  1.00  0.00    -0.247 OA
HETATM   16  N   UNL     1     -39.872 -51.058  12.561  1.00  0.00    -0.333 N 
HETATM   17  C   UNL     1     -38.519 -51.153  13.129  1.00  0.00     0.137 C 
HETATM   18  C   UNL     1     -40.183 -49.779  11.903  1.00  0.00     0.137 C 
HETATM   19  C   UNL     1     -38.227 -50.078  14.182  1.00  0.00     0.093 C 
HETATM   20  S   UNL     1     -38.413 -48.388  13.527  1.00  0.00    -0.166 SA
HETATM   21  C   UNL     1     -40.095 -48.580  12.849  1.00  0.00     0.093 C 
HETATM   22  H   UNL     1     -39.555 -53.503  12.988  1.00  0.00     0.164 HD
ENDBRANCH  12  13
ENDBRANCH   1  12
TORSDOF 4
ENDMDL
MODEL 5
REMARK VINA RESULT:      -5.6      3.126      5.897
REMARK  4 active torsions:
REMARK  status: ('A' for Active; 'I' for Inactive)
REMARK    1  A    between atoms: C_2  and  C_4 
REMARK    2  A    between atoms: C_8  and  C_9 
REMARK    3  A    between atoms: C_9  and  C_10 
REMARK    4  A    between atoms: C_10  and  N_11 
REMARK       I    between atoms: N_11  and  C_12 
REMARK       I    between atoms: C_12  and  N_14 
ROOT
HETATM    1  C   UNL     1     -41.748 -53.067  12.542  1.00  0.00     0.106 C 
ENDROOT
BRANCH   1   2
HETATM    2  C   UNL     1     -42.977 -52.389  13.026  1.00  0.00     0.149 A 
HETATM    3  O   UNL     1     -42.798 -51.500  14.048  1.00  0.00    -0.223 OA
HETATM    4  N   UNL     1     -44.059 -51.007  14.377  1.00  0.00    -0.247 N 
HETATM    5  C   UNL     1     -44.874 -51.646  13.526  1.00  0.00     0.107 A 
ATOM      6  HN  UNL     1     -44.303 -50.324  15.093  1.00  0.00     0.196 HD
HETATM    7  N   UNL     1     -44.238 -52.518  12.668  1.00  0.00    -0.327 N 
ATOM      8  HN  UNL     1     -44.642 -53.111  11.943  1.00  0.00     0.169 HD
BRANCH   5   9
HETATM    9  C   UNL     1     -46.351 -51.419  13.538  1.00  0.00     0.047 C 
HETATM   10  C   UNL     1     -46.982 -51.723  12.180  1.00  0.00     0.017 C 
HETATM   11  C   UNL     1     -47.041 -52.219  14.643  1.00  0.00     0.017 C 
ENDBRANCH   5   9
ENDBRANCH   1   2
BRANCH   1  12
HETATM   12  C   UNL     1     -40.860 -52.153  11.695  1.00  0.00     0.132 C 
BRANCH  12  13
HETATM   13  N   UNL     1     -41.391 -50.800  11.505  1.00  0.00    -0.343 N 
HETATM   14  C   UNL     1     -40.627 -49.701  11.813  1.00  0.00     0.318 C 
HETATM   15  O   UNL     1     -39.457 -49.820  12.173  1.00  0.00    -0.247 OA
HETATM   16  N   UNL     1     -41.239 -48.469  11.675  1.00  0.00    -0.333 N 
HETATM   17  C   UNL     1     -42.608 -48.204  11.205  1.00  0.00     0.137 C 
HETATM   18  C   UNL     1     -40.467 -47.273  12.048  1.00  0.00     0.137 C 
HETATM   19  C   UNL     1     -42.661 -47.292   9.975  1.00  0.00     0.093 C 
HETATM   20  S   UNL     1     -41.876 -45.675  10.270  1.00  0.00    -0.166 SA
HETATM   21  C   UNL     1     -40.277 -46.295  10.888  1.00  0.00     0.093 C 
HETATM   22  H   UNL     1     -42.361 -50.704  11.760  1.00  0.00     0.164 HD
ENDBRANCH  12  13
ENDBRANCH   1  12
TORSDOF 4
ENDMDL
MODEL 6
REMARK VINA RESULT:      -5.4      1.970      2.615
REMARK  4 active torsions:
REMARK  status: ('A' for Active; 'I' for Inactive)
REMARK    1  A    between atoms: C_2  and  C_4 
REMARK    2  A    between atoms: C_8  and  C_9 
REMARK    3  A    between atoms: C_9  and  C_10 
REMARK    4  A    between atoms: C_10  and  N_11 
REMARK       I    between atoms: N_11  and  C_12 
REMARK       I    between atoms: C_12  and  N_14 
ROOT
HETATM    1  C   UNL     1     -37.930 -49.598  12.480  1.00  0.00     0.106 C 
ENDROOT
BRANCH   1   2
HETATM    2  C   UNL     1     -39.199 -49.149  11.855  1.00  0.00     0.149 A 
HETATM    3  O   UNL     1     -39.770 -50.028  10.978  1.00  0.00    -0.223 OA
HETATM    4  N   UNL     1     -40.915 -49.411  10.480  1.00  0.00    -0.247 N 
HETATM    5  C   UNL     1     -40.925 -48.224  11.101  1.00  0.00     0.107 A 
ATOM      6  HN  UNL     1     -41.587 -49.777   9.805  1.00  0.00     0.196 HD
HETATM    7  N   UNL     1     -39.871 -48.020  11.966  1.00  0.00    -0.327 N 
ATOM      8  HN  UNL     1     -39.664 -47.205  12.543  1.00  0.00     0.169 HD
BRANCH   5   9
HETATM    9  C   UNL     1     -41.999 -47.217  10.847  1.00  0.00     0.047 C 
HETATM   10  C   UNL     1     -42.868 -47.606   9.652  1.00  0.00     0.017 C 
HETATM   11  C   UNL     1     -42.863 -46.981  12.086  1.00  0.00     0.017 C 
ENDBRANCH   5   9
ENDBRANCH   1   2
BRANCH   1  12
HETATM   12  C   UNL     1     -38.119 -50.795  13.415  1.00  0.00     0.132 C 
BRANCH  12  13
HETATM   13  N   UNL     1     -39.516 -51.182  13.628  1.00  0.00    -0.343 N 
HETATM   14  C   UNL     1     -39.891 -52.501  13.576  1.00  0.00     0.318 C 
HETATM   15  O   UNL     1     -39.057 -53.394  13.435  1.00  0.00    -0.247 OA
HETATM   16  N   UNL     1     -41.242 -52.764  13.712  1.00  0.00    -0.333 N 
HETATM   17  C   UNL     1     -42.318 -51.785  13.936  1.00  0.00     0.137 C 
HETATM   18  C   UNL     1     -41.684 -54.162  13.607  1.00  0.00     0.137 C 
HETATM   19  C   UNL     1     -43.121 -52.050  15.215  1.00  0.00     0.093 C 
HETATM   20  S   UNL     1     -43.889 -53.701  15.229  1.00  0.00    -0.166 SA
HETATM   21  C   UNL     1     -42.385 -54.667  14.870  1.00  0.00     0.093 C 
HETATM   22  H   UNL     1     -40.181 -50.555  13.203  1.00  0.00     0.164 HD
ENDBRANCH  12  13
ENDBRANCH   1  12
TORSDOF 4
ENDMDL
MODEL 7
REMARK VINA RESULT:      -5.3      3.356      6.289
REMARK  4 active torsions:
REMARK  status: ('A' for Active; 'I' for Inactive)
REMARK    1  A    between atoms: C_2  and  C_4 
REMARK    2  A    between atoms: C_8  and  C_9 
REMARK    3  A    between atoms: C_9  and  C_10 
REMARK    4  A    between atoms: C_10  and  N_11 
REMARK       I    between atoms: N_11  and  C_12 
REMARK       I    between atoms: C_12  and  N_14 
ROOT
HETATM    1  C   UNL     1     -39.256 -52.439  13.953  1.00  0.00     0.106 C 
ENDROOT
BRANCH   1   2
HETATM    2  C   UNL     1     -40.567 -52.666  13.294  1.00  0.00     0.149 A 
HETATM    3  O   UNL     1     -40.563 -52.594  11.929  1.00  0.00    -0.223 OA
HETATM    4  N   UNL     1     -41.877 -52.795  11.513  1.00  0.00    -0.247 N 
HETATM    5  C   UNL     1     -42.545 -52.966  12.662  1.00  0.00     0.107 A 
ATOM      6  HN  UNL     1     -42.243 -52.809  10.561  1.00  0.00     0.196 HD
HETATM    7  N   UNL     1     -41.765 -52.892  13.796  1.00  0.00    -0.327 N 
ATOM      8  HN  UNL     1     -42.043 -52.986  14.772  1.00  0.00     0.169 HD
BRANCH   5   9
HETATM    9  C   UNL     1     -44.020 -53.207  12.681  1.00  0.00     0.047 C 
HETATM   10  C   UNL     1     -44.384 -54.422  13.533  1.00  0.00     0.017 C 
HETATM   11  C   UNL     1     -44.792 -51.972  13.146  1.00  0.00     0.017 C 
ENDBRANCH   5   9
ENDBRANCH   1   2
BRANCH   1  12
HETATM   12  C   UNL     1     -38.623 -51.099  13.572  1.00  0.00     0.132 C 
BRANCH  12  13
HETATM   13  N   UNL     1     -39.564 -50.122  13.017  1.00  0.00    -0.343 N 
HETATM   14  C   UNL     1     -39.260 -48.783  13.018  1.00  0.00     0.318 C 
HETATM   15  O   UNL     1     -38.164 -48.379  13.402  1.00  0.00    -0.247 OA
HETATM   16  N   UNL     1     -40.240 -47.929  12.545  1.00  0.00    -0.333 N 
HETATM   17  C   UNL     1     -41.561 -48.301  12.014  1.00  0.00     0.137 C 
HETATM   18  C   UNL     1     -39.968 -46.484  12.582  1.00  0.00     0.137 C 
HETATM   19  C   UNL     1     -41.797 -47.811  10.581  1.00  0.00     0.093 C 
HETATM   20  S   UNL     1     -41.651 -46.002  10.427  1.00  0.00    -0.166 SA
HETATM   21  C   UNL     1     -40.008 -45.830  11.200  1.00  0.00     0.093 C 
HETATM   22  H   UNL     1     -40.528 -50.318  13.232  1.00  0.00     0.164 HD
ENDBRANCH  12  13
ENDBRANCH   1  12
TORSDOF 4
ENDMDL
MODEL 8
REMARK VINA RESULT:      -5.2      4.874      6.186
REMARK  4 active torsions:
REMARK  status: ('A' for Active; 'I' for Inactive)
REMARK    1  A    between atoms: C_2  and  C_4 
REMARK    2  A    between atoms: C_8  and  C_9 
REMARK    3  A    between atoms: C_9  and  C_10 
REMARK    4  A    between atoms: C_10  and  N_11 
REMARK       I    between atoms: N_11  and  C_12 
REMARK       I    between atoms: C_12  and  N_14 
ROOT
HETATM    1  C   UNL     1     -41.532 -54.005  13.170  1.00  0.00     0.106 C 
ENDROOT
BRANCH   1   2
HETATM    2  C   UNL     1     -42.926 -53.521  13.336  1.00  0.00     0.149 A 
HETATM    3  O   UNL     1     -43.812 -54.433  13.835  1.00  0.00    -0.223 OA
HETATM    4  N   UNL     1     -45.054 -53.802  13.879  1.00  0.00    -0.247 N 
HETATM    5  C   UNL     1     -44.798 -52.576  13.402  1.00  0.00     0.107 A 
ATOM      6  HN  UNL     1     -45.945 -54.183  14.198  1.00  0.00     0.196 HD
HETATM    7  N   UNL     1     -43.483 -52.361  13.051  1.00  0.00    -0.327 N 
ATOM      8  HN  UNL     1     -43.051 -51.520  12.667  1.00  0.00     0.169 HD
BRANCH   5   9
HETATM    9  C   UNL     1     -45.875 -51.550  13.263  1.00  0.00     0.047 C 
HETATM   10  C   UNL     1     -46.773 -51.831  12.059  1.00  0.00     0.017 C 
HETATM   11  C   UNL     1     -46.709 -51.424  14.538  1.00  0.00     0.017 C 
ENDBRANCH   5   9
ENDBRANCH   1   2
BRANCH   1  12
HETATM   12  C   UNL     1     -40.668 -53.764  14.409  1.00  0.00     0.132 C 
BRANCH  12  13
HETATM   13  N   UNL     1     -41.004 -54.612  15.556  1.00  0.00    -0.343 N 
HETATM   14  C   UNL     1     -40.140 -55.594  15.974  1.00  0.00     0.318 C 
HETATM   15  O   UNL     1     -39.033 -55.731  15.457  1.00  0.00    -0.247 OA
HETATM   16  N   UNL     1     -40.576 -56.395  17.015  1.00  0.00    -0.333 N 
HETATM   17  C   UNL     1     -41.851 -56.290  17.741  1.00  0.00     0.137 C 
HETATM   18  C   UNL     1     -39.698 -57.491  17.452  1.00  0.00     0.137 C 
HETATM   19  C   UNL     1     -41.674 -56.084  19.250  1.00  0.00     0.093 C 
HETATM   20  S   UNL     1     -40.723 -57.428  20.031  1.00  0.00    -0.166 SA
HETATM   21  C   UNL     1     -39.279 -57.375  18.919  1.00  0.00     0.093 C 
HETATM   22  H   UNL     1     -41.973 -54.884  15.590  1.00  0.00     0.164 HD
ENDBRANCH  12  13
ENDBRANCH   1  12
TORSDOF 4
ENDMDL
MODEL 9
REMARK VINA RESULT:      -5.0      2.603      4.153
REMARK  4 active torsions:
REMARK  status: ('A' for Active; 'I' for Inactive)
REMARK    1  A    between atoms: C_2  and  C_4 
REMARK    2  A    between atoms: C_8  and  C_9 
REMARK    3  A    between atoms: C_9  and  C_10 
REMARK    4  A    between atoms: C_10  and  N_11 
REMARK       I    between atoms: N_11  and  C_12 
REMARK       I    between atoms: C_12  and  N_14 
ROOT
HETATM    1  C   UNL     1     -40.130 -53.208  13.028  1.00  0.00     0.106 C 
ENDROOT
BRANCH   1   2
HETATM    2  C   UNL     1     -40.533 -51.816  12.706  1.00  0.00     0.149 A 
HETATM    3  O   UNL     1     -41.317 -51.197  13.637  1.00  0.00    -0.223 OA
HETATM    4  N   UNL     1     -41.612 -49.931  13.135  1.00  0.00    -0.247 N 
HETATM    5  C   UNL     1     -40.981 -49.910  11.953  1.00  0.00     0.107 A 
ATOM      6  HN  UNL     1     -42.175 -49.196  13.565  1.00  0.00     0.196 HD
HETATM    7  N   UNL     1     -40.297 -51.066  11.647  1.00  0.00    -0.327 N 
ATOM      8  HN  UNL     1     -39.750 -51.286  10.815  1.00  0.00     0.169 HD
BRANCH   5   9
HETATM    9  C   UNL     1     -41.042 -48.716  11.055  1.00  0.00     0.047 C 
HETATM   10  C   UNL     1     -42.469 -48.189  10.910  1.00  0.00     0.017 C 
HETATM   11  C   UNL     1     -40.103 -47.604  11.523  1.00  0.00     0.017 C 
ENDBRANCH   5   9
ENDBRANCH   1   2
BRANCH   1  12
HETATM   12  C   UNL     1     -41.236 -54.227  12.746  1.00  0.00     0.132 C 
BRANCH  12  13
HETATM   13  N   UNL     1     -42.594 -53.719  12.957  1.00  0.00    -0.343 N 
HETATM   14  C   UNL     1     -43.341 -54.145  14.028  1.00  0.00     0.318 C 
HETATM   15  O   UNL     1     -42.862 -54.892  14.880  1.00  0.00    -0.247 OA
HETATM   16  N   UNL     1     -44.638 -53.671  14.102  1.00  0.00    -0.333 N 
HETATM   17  C   UNL     1     -45.296 -52.738  13.175  1.00  0.00     0.137 C 
HETATM   18  C   UNL     1     -45.482 -54.150  15.207  1.00  0.00     0.137 C 
HETATM   19  C   UNL     1     -45.817 -51.469  13.860  1.00  0.00     0.093 C 
HETATM   20  S   UNL     1     -47.010 -51.833  15.188  1.00  0.00    -0.166 SA
HETATM   21  C   UNL     1     -45.983 -53.023  16.112  1.00  0.00     0.093 C 
HETATM   22  H   UNL     1     -43.126 -53.617  12.108  1.00  0.00     0.164 HD
ENDBRANCH  12  13
ENDBRANCH   1  12
TORSDOF 4
ENDMDL
