MODEL 1
REMARK VINA RESULT:      -6.3      0.000      0.000
REMARK  3 active torsions:
REMARK  status: ('A' for Active; 'I' for Inactive)
REMARK    1  A    between atoms: C_7  and  N_8 
REMARK       I    between atoms: N_8  and  C_9 
REMARK    2  A    between atoms: C_9  and  C_11 
REMARK    3  A    between atoms: C_11  and  N_12 
ROOT
HETATM    1  N   UNL     1     -42.082 -48.621  10.298  1.00  0.00    -0.355 N 
HETATM    2  C   UNL     1     -41.703 -49.144  11.522  1.00  0.00     0.237 C 
HETATM    3  O   UNL     1     -41.978 -48.607  12.593  1.00  0.00    -0.272 OA
HETATM    4  H   UNL     1     -41.889 -49.188   9.478  1.00  0.00     0.162 HD
ENDROOT
BRANCH   2   5
HETATM    5  C   UNL     1     -40.771 -50.343  11.427  1.00  0.00     0.255 C 
BRANCH   5   6
HETATM    6  N   UNL     1     -41.248 -51.449  12.256  1.00  0.00    -0.248 N 
HETATM    7  N   UNL     1     -42.612 -51.618  12.355  1.00  0.00    -0.305 N 
HETATM    8  C   UNL     1     -43.018 -52.649  13.025  1.00  0.00     0.133 A 
ATOM      9  HN  UNL     1     -43.267 -50.966  11.924  1.00  0.00     0.186 HD
HETATM   10  C   UNL     1     -42.159 -53.640  13.685  1.00  0.00     0.078 A 
HETATM   11 CL   UNL     1     -42.939 -54.954  14.463  1.00  0.00    -0.081 Cl
HETATM   12  C   UNL     1     -40.844 -53.439  13.624  1.00  0.00     0.126 A 
HETATM   13 CL   UNL     1     -39.694 -54.509  14.344  1.00  0.00    -0.076 Cl
HETATM   14  C   UNL     1     -40.305 -52.260  12.889  1.00  0.00     0.285 A 
HETATM   15  O   UNL     1     -39.096 -52.046  12.837  1.00  0.00    -0.265 OA
ENDBRANCH   5   6
ENDBRANCH   2   5
BRANCH   1  16
HETATM   16  C   UNL     1     -43.002 -47.499  10.207  1.00  0.00     0.088 C 
HETATM   17  C   UNL     1     -44.035 -47.689   9.074  1.00  0.00     0.004 C 
HETATM   18  C   UNL     1     -43.394 -47.879   7.692  1.00  0.00     0.012 C 
HETATM   19  C   UNL     1     -45.012 -46.502   9.070  1.00  0.00     0.006 C 
HETATM   20  C   UNL     1     -44.304 -45.148   8.992  1.00  0.00     0.001 C 
HETATM   21  C   UNL     1     -43.231 -44.993  10.068  1.00  0.00     0.002 C 
HETATM   22  C   UNL     1     -42.253 -46.168  10.088  1.00  0.00     0.025 C 
ENDBRANCH   1  16
TORSDOF 3
ENDMDL
MODEL 2
REMARK VINA RESULT:      -6.3      3.545      5.901
REMARK  3 active torsions:
REMARK  status: ('A' for Active; 'I' for Inactive)
REMARK    1  A    between atoms: C_7  and  N_8 
REMARK       I    between atoms: N_8  and  C_9 
REMARK    2  A    between atoms: C_9  and  C_11 
REMARK    3  A    between atoms: C_11  and  N_12 
ROOT
HETATM    1  N   UNL     1     -43.674 -51.965  12.891  1.00  0.00    -0.355 N 
HETATM    2  C   UNL     1     -42.385 -52.449  13.028  1.00  0.00     0.237 C 
HETATM    3  O   UNL     1     -41.945 -52.888  14.089  1.00  0.00    -0.272 OA
HETATM    4  H   UNL     1     -43.971 -51.714  11.952  1.00  0.00     0.162 HD
ENDROOT
BRANCH   2   5
HETATM    5  C   UNL     1     -41.503 -52.234  11.807  1.00  0.00     0.255 C 
BRANCH   5   6
HETATM    6  N   UNL     1     -40.957 -50.878  11.783  1.00  0.00    -0.248 N 
HETATM    7  N   UNL     1     -41.748 -49.890  11.236  1.00  0.00    -0.305 N 
HETATM    8  C   UNL     1     -41.286 -48.682  11.297  1.00  0.00     0.133 A 
ATOM      9  HN  UNL     1     -42.648 -50.101  10.806  1.00  0.00     0.186 HD
HETATM   10  C   UNL     1     -40.005 -48.278  11.889  1.00  0.00     0.078 A 
HETATM   11 CL   UNL     1     -39.644 -46.602  11.900  1.00  0.00    -0.081 Cl
HETATM   12  C   UNL     1     -39.227 -49.247  12.370  1.00  0.00     0.126 A 
HETATM   13 CL   UNL     1     -37.691 -48.944  13.101  1.00  0.00    -0.076 Cl
HETATM   14  C   UNL     1     -39.684 -50.664  12.313  1.00  0.00     0.285 A 
HETATM   15  O   UNL     1     -38.973 -51.574  12.734  1.00  0.00    -0.265 OA
ENDBRANCH   5   6
ENDBRANCH   2   5
BRANCH   1  16
HETATM   16  C   UNL     1     -44.660 -52.124  13.947  1.00  0.00     0.088 C 
HETATM   17  C   UNL     1     -46.021 -52.608  13.400  1.00  0.00     0.004 C 
HETATM   18  C   UNL     1     -46.620 -51.670  12.342  1.00  0.00     0.012 C 
HETATM   19  C   UNL     1     -46.996 -52.814  14.570  1.00  0.00     0.006 C 
HETATM   20  C   UNL     1     -47.132 -51.576  15.458  1.00  0.00     0.001 C 
HETATM   21  C   UNL     1     -45.778 -51.055  15.936  1.00  0.00     0.002 C 
HETATM   22  C   UNL     1     -44.794 -50.849  14.784  1.00  0.00     0.025 C 
ENDBRANCH   1  16
TORSDOF 3
ENDMDL
MODEL 3
REMARK VINA RESULT:      -6.2      3.760      7.229
REMARK  3 active torsions:
REMARK  status: ('A' for Active; 'I' for Inactive)
REMARK    1  A    between atoms: C_7  and  N_8 
REMARK       I    between atoms: N_8  and  C_9 
REMARK    2  A    between atoms: C_9  and  C_11 
REMARK    3  A    between atoms: C_11  and  N_12 
ROOT
HETATM    1  N   UNL     1     -41.987 -51.517  11.967  1.00  0.00    -0.355 N 
HETATM    2  C   UNL     1     -41.538 -50.243  12.269  1.00  0.00     0.237 C 
HETATM    3  O   UNL     1     -41.862 -49.645  13.293  1.00  0.00    -0.272 OA
HETATM    4  H   UNL     1     -41.586 -51.960  11.145  1.00  0.00     0.162 HD
ENDROOT
BRANCH   2   5
HETATM    5  C   UNL     1     -40.750 -49.577  11.150  1.00  0.00     0.255 C 
BRANCH   5   6
HETATM    6  N   UNL     1     -41.429 -48.374  10.672  1.00  0.00    -0.248 N 
HETATM    7  N   UNL     1     -42.603 -48.551   9.970  1.00  0.00    -0.305 N 
HETATM    8  C   UNL     1     -43.235 -47.475   9.625  1.00  0.00     0.133 A 
ATOM      9  HN  UNL     1     -42.953 -49.479   9.736  1.00  0.00     0.186 HD
HETATM   10  C   UNL     1     -42.813 -46.098   9.909  1.00  0.00     0.078 A 
HETATM   11 CL   UNL     1     -43.858 -44.839   9.395  1.00  0.00    -0.081 Cl
HETATM   12  C   UNL     1     -41.653 -45.939  10.544  1.00  0.00     0.126 A 
HETATM   13 CL   UNL     1     -41.012 -44.389  10.957  1.00  0.00    -0.076 Cl
HETATM   14  C   UNL     1     -40.859 -47.131  10.952  1.00  0.00     0.285 A 
HETATM   15  O   UNL     1     -39.777 -47.006  11.522  1.00  0.00    -0.265 OA
ENDBRANCH   5   6
ENDBRANCH   2   5
BRANCH   1  16
HETATM   16  C   UNL     1     -42.721 -52.312  12.938  1.00  0.00     0.088 C 
HETATM   17  C   UNL     1     -41.782 -53.181  13.801  1.00  0.00     0.004 C 
HETATM   18  C   UNL     1     -40.912 -54.141  12.977  1.00  0.00     0.012 C 
HETATM   19  C   UNL     1     -42.612 -53.948  14.844  1.00  0.00     0.006 C 
HETATM   20  C   UNL     1     -43.749 -54.759  14.221  1.00  0.00     0.001 C 
HETATM   21  C   UNL     1     -44.632 -53.912  13.307  1.00  0.00     0.002 C 
HETATM   22  C   UNL     1     -43.821 -53.139  12.267  1.00  0.00     0.025 C 
ENDBRANCH   1  16
TORSDOF 3
ENDMDL
MODEL 4
REMARK VINA RESULT:      -6.0      1.539      2.191
REMARK  3 active torsions:
REMARK  status: ('A' for Active; 'I' for Inactive)
REMARK    1  A    between atoms: C_7  and  N_8 
REMARK       I    between atoms: N_8  and  C_9 
REMARK    2  A    between atoms: C_9  and  C_11 
REMARK    3  A    between atoms: C_11  and  N_12 
ROOT
HETATM    1  N   UNL     1     -40.462 -47.511  10.900  1.00  0.00    -0.355 N 
HETATM    2  C   UNL     1     -40.703 -48.600  11.718  1.00  0.00     0.237 C 
HETATM    3  O   UNL     1     -40.965 -48.494  12.914  1.00  0.00    -0.272 OA
HETATM    4  H   UNL     1     -40.349 -47.700   9.908  1.00  0.00     0.162 HD
ENDROOT
BRANCH   2   5
HETATM    5  C   UNL     1     -40.448 -49.947  11.056  1.00  0.00     0.255 C 
BRANCH   5   6
HETATM    6  N   UNL     1     -40.914 -51.046  11.901  1.00  0.00    -0.248 N 
HETATM    7  N   UNL     1     -42.276 -51.242  11.984  1.00  0.00    -0.305 N 
HETATM    8  C   UNL     1     -42.670 -52.268  12.669  1.00  0.00     0.133 A 
ATOM      9  HN  UNL     1     -42.938 -50.613  11.531  1.00  0.00     0.186 HD
HETATM   10  C   UNL     1     -41.800 -53.228  13.360  1.00  0.00     0.078 A 
HETATM   11 CL   UNL     1     -42.563 -54.543  14.154  1.00  0.00    -0.081 Cl
HETATM   12  C   UNL     1     -40.488 -53.000  13.314  1.00  0.00     0.126 A 
HETATM   13 CL   UNL     1     -39.327 -54.031  14.071  1.00  0.00    -0.076 Cl
HETATM   14  C   UNL     1     -39.964 -51.825  12.564  1.00  0.00     0.285 A 
HETATM   15  O   UNL     1     -38.759 -51.586  12.525  1.00  0.00    -0.265 OA
ENDBRANCH   5   6
ENDBRANCH   2   5
BRANCH   1  16
HETATM   16  C   UNL     1     -40.694 -46.152  11.360  1.00  0.00     0.088 C 
HETATM   17  C   UNL     1     -42.195 -45.788  11.355  1.00  0.00     0.004 C 
HETATM   18  C   UNL     1     -42.850 -45.930   9.973  1.00  0.00     0.012 C 
HETATM   19  C   UNL     1     -42.376 -44.365  11.908  1.00  0.00     0.006 C 
HETATM   20  C   UNL     1     -41.523 -43.328  11.176  1.00  0.00     0.001 C 
HETATM   21  C   UNL     1     -40.050 -43.728  11.118  1.00  0.00     0.002 C 
HETATM   22  C   UNL     1     -39.852 -45.143  10.574  1.00  0.00     0.025 C 
ENDBRANCH   1  16
TORSDOF 3
ENDMDL
MODEL 5
REMARK VINA RESULT:      -5.7      2.090      2.800
REMARK  3 active torsions:
REMARK  status: ('A' for Active; 'I' for Inactive)
REMARK    1  A    between atoms: C_7  and  N_8 
REMARK       I    between atoms: N_8  and  C_9 
REMARK    2  A    between atoms: C_9  and  C_11 
REMARK    3  A    between atoms: C_11  and  N_12 
ROOT
HETATM    1  N   UNL     1     -41.388 -49.747  11.821  1.00  0.00    -0.355 N 
HETATM    2  C   UNL     1     -40.846 -50.758  12.595  1.00  0.00     0.237 C 
HETATM    3  O   UNL     1     -40.193 -50.543  13.615  1.00  0.00    -0.272 OA
HETATM    4  H   UNL     1     -41.990 -50.032  11.054  1.00  0.00     0.162 HD
ENDROOT
BRANCH   2   5
HETATM    5  C   UNL     1     -40.976 -52.148  11.989  1.00  0.00     0.255 C 
BRANCH   5   6
HETATM    6  N   UNL     1     -42.110 -52.870  12.564  1.00  0.00    -0.248 N 
HETATM    7  N   UNL     1     -43.336 -52.704  11.954  1.00  0.00    -0.305 N 
HETATM    8  C   UNL     1     -44.313 -53.412  12.422  1.00  0.00     0.133 A 
ATOM      9  HN  UNL     1     -43.465 -52.057  11.176  1.00  0.00     0.186 HD
HETATM   10  C   UNL     1     -44.230 -54.363  13.537  1.00  0.00     0.078 A 
HETATM   11 CL   UNL     1     -45.657 -55.228  13.933  1.00  0.00    -0.081 Cl
HETATM   12  C   UNL     1     -43.053 -54.479  14.150  1.00  0.00     0.126 A 
HETATM   13 CL   UNL     1     -42.784 -55.553  15.476  1.00  0.00    -0.076 Cl
HETATM   14  C   UNL     1     -41.889 -53.677  13.680  1.00  0.00     0.285 A 
HETATM   15  O   UNL     1     -40.799 -53.755  14.243  1.00  0.00    -0.265 OA
ENDBRANCH   5   6
ENDBRANCH   2   5
BRANCH   1  16
HETATM   16  C   UNL     1     -41.386 -48.365  12.270  1.00  0.00     0.088 C 
HETATM   17  C   UNL     1     -42.809 -47.765  12.300  1.00  0.00     0.004 C 
HETATM   18  C   UNL     1     -43.517 -47.810  10.938  1.00  0.00     0.012 C 
HETATM   19  C   UNL     1     -42.744 -46.327  12.839  1.00  0.00     0.006 C 
HETATM   20  C   UNL     1     -41.756 -45.446  12.073  1.00  0.00     0.001 C 
HETATM   21  C   UNL     1     -40.369 -46.078  11.981  1.00  0.00     0.002 C 
HETATM   22  C   UNL     1     -40.415 -47.511  11.450  1.00  0.00     0.025 C 
ENDBRANCH   1  16
TORSDOF 3
ENDMDL
MODEL 6
REMARK VINA RESULT:      -5.6      4.124      5.095
REMARK  3 active torsions:
REMARK  status: ('A' for Active; 'I' for Inactive)
REMARK    1  A    between atoms: C_7  and  N_8 
REMARK       I    between atoms: N_8  and  C_9 
REMARK    2  A    between atoms: C_9  and  C_11 
REMARK    3  A    between atoms: C_11  and  N_12 
ROOT
HETATM    1  N   UNL     1     -39.740 -50.783  13.244  1.00  0.00    -0.355 N 
HETATM    2  C   UNL     1     -40.725 -51.023  12.302  1.00  0.00     0.237 C 
HETATM    3  O   UNL     1     -41.507 -50.156  11.917  1.00  0.00    -0.272 OA
HETATM    4  H   UNL     1     -39.085 -51.539  13.424  1.00  0.00     0.162 HD
ENDROOT
BRANCH   2   5
HETATM    5  C   UNL     1     -40.874 -52.486  11.912  1.00  0.00     0.255 C 
BRANCH   5   6
HETATM    6  N   UNL     1     -42.052 -53.082  12.539  1.00  0.00    -0.248 N 
HETATM    7  N   UNL     1     -43.274 -52.822  11.957  1.00  0.00    -0.305 N 
HETATM    8  C   UNL     1     -44.299 -53.423  12.474  1.00  0.00     0.133 A 
ATOM      9  HN  UNL     1     -43.367 -52.191  11.162  1.00  0.00     0.186 HD
HETATM   10  C   UNL     1     -44.271 -54.344  13.617  1.00  0.00     0.078 A 
HETATM   11 CL   UNL     1     -45.759 -55.060  14.079  1.00  0.00    -0.081 Cl
HETATM   12  C   UNL     1     -43.092 -54.548  14.202  1.00  0.00     0.126 A 
HETATM   13 CL   UNL     1     -42.884 -55.602  15.555  1.00  0.00    -0.076 Cl
HETATM   14  C   UNL     1     -41.873 -53.873  13.675  1.00  0.00     0.285 A 
HETATM   15  O   UNL     1     -40.779 -54.033  14.212  1.00  0.00    -0.265 OA
ENDBRANCH   5   6
ENDBRANCH   2   5
BRANCH   1  16
HETATM   16  C   UNL     1     -39.438 -49.436  13.699  1.00  0.00     0.088 C 
HETATM   17  C   UNL     1     -37.917 -49.191  13.808  1.00  0.00     0.004 C 
HETATM   18  C   UNL     1     -37.209 -50.171  14.756  1.00  0.00     0.012 C 
HETATM   19  C   UNL     1     -37.665 -47.735  14.233  1.00  0.00     0.006 C 
HETATM   20  C   UNL     1     -38.412 -47.349  15.511  1.00  0.00     0.001 C 
HETATM   21  C   UNL     1     -39.904 -47.663  15.427  1.00  0.00     0.002 C 
HETATM   22  C   UNL     1     -40.172 -49.107  15.001  1.00  0.00     0.025 C 
ENDBRANCH   1  16
TORSDOF 3
ENDMDL
MODEL 7
REMARK VINA RESULT:      -5.6      4.264      6.706
REMARK  3 active torsions:
REMARK  status: ('A' for Active; 'I' for Inactive)
REMARK    1  A    between atoms: C_7  and  N_8 
REMARK       I    between atoms: N_8  and  C_9 
REMARK    2  A    between atoms: C_9  and  C_11 
REMARK    3  A    between atoms: C_11  and  N_12 
ROOT
HETATM    1  N   UNL     1     -42.360 -51.711  12.427  1.00  0.00    -0.355 N 
HETATM    2  C   UNL     1     -41.063 -51.630  11.952  1.00  0.00     0.237 C 
HETATM    3  O   UNL     1     -40.259 -52.555  12.042  1.00  0.00    -0.272 OA
HETATM    4  H   UNL     1     -42.973 -50.928  12.219  1.00  0.00     0.162 HD
ENDROOT
BRANCH   2   5
HETATM    5  C   UNL     1     -40.661 -50.245  11.465  1.00  0.00     0.255 C 
BRANCH   5   6
HETATM    6  N   UNL     1     -39.758 -49.595  12.414  1.00  0.00    -0.248 N 
HETATM    7  N   UNL     1     -38.763 -50.370  12.968  1.00  0.00    -0.305 N 
HETATM    8  C   UNL     1     -37.922 -49.762  13.742  1.00  0.00     0.133 A 
ATOM      9  HN  UNL     1     -38.693 -51.370  12.779  1.00  0.00     0.186 HD
HETATM   10  C   UNL     1     -37.939 -48.334  14.080  1.00  0.00     0.078 A 
HETATM   11 CL   UNL     1     -36.677 -47.753  15.085  1.00  0.00    -0.081 Cl
HETATM   12  C   UNL     1     -38.935 -47.604  13.579  1.00  0.00     0.126 A 
HETATM   13 CL   UNL     1     -39.102 -45.911  13.875  1.00  0.00    -0.076 Cl
HETATM   14  C   UNL     1     -39.953 -48.242  12.698  1.00  0.00     0.285 A 
HETATM   15  O   UNL     1     -40.890 -47.591  12.240  1.00  0.00    -0.265 OA
ENDBRANCH   5   6
ENDBRANCH   2   5
BRANCH   1  16
HETATM   16  C   UNL     1     -42.919 -52.969  12.892  1.00  0.00     0.088 C 
HETATM   17  C   UNL     1     -44.427 -53.084  12.576  1.00  0.00     0.004 C 
HETATM   18  C   UNL     1     -45.264 -51.949  13.184  1.00  0.00     0.012 C 
HETATM   19  C   UNL     1     -44.941 -54.457  13.037  1.00  0.00     0.006 C 
HETATM   20  C   UNL     1     -44.630 -54.747  14.506  1.00  0.00     0.001 C 
HETATM   21  C   UNL     1     -43.150 -54.559  14.833  1.00  0.00     0.002 C 
HETATM   22  C   UNL     1     -42.621 -53.200  14.377  1.00  0.00     0.025 C 
ENDBRANCH   1  16
TORSDOF 3
ENDMDL
MODEL 8
REMARK VINA RESULT:      -5.6      4.406      7.022
REMARK  3 active torsions:
REMARK  status: ('A' for Active; 'I' for Inactive)
REMARK    1  A    between atoms: C_7  and  N_8 
REMARK       I    between atoms: N_8  and  C_9 
REMARK    2  A    between atoms: C_9  and  C_11 
REMARK    3  A    between atoms: C_11  and  N_12 
ROOT
HETATM    1  N   UNL     1     -43.460 -51.004  12.702  1.00  0.00    -0.355 N 
HETATM    2  C   UNL     1     -42.823 -49.793  12.912  1.00  0.00     0.237 C 
HETATM    3  O   UNL     1     -43.130 -49.024  13.820  1.00  0.00    -0.272 OA
HETATM    4  H   UNL     1     -43.069 -51.608  11.985  1.00  0.00     0.162 HD
ENDROOT
BRANCH   2   5
HETATM    5  C   UNL     1     -41.829 -49.413  11.823  1.00  0.00     0.255 C 
BRANCH   5   6
HETATM    6  N   UNL     1     -41.134 -48.170  12.155  1.00  0.00    -0.248 N 
HETATM    7  N   UNL     1     -40.514 -48.105  13.385  1.00  0.00    -0.305 N 
HETATM    8  C   UNL     1     -39.834 -47.032  13.631  1.00  0.00     0.133 A 
ATOM      9  HN  UNL     1     -40.588 -48.862  14.064  1.00  0.00     0.186 HD
HETATM   10  C   UNL     1     -39.670 -45.888  12.725  1.00  0.00     0.078 A 
HETATM   11 CL   UNL     1     -38.667 -44.605  13.260  1.00  0.00    -0.081 Cl
HETATM   12  C   UNL     1     -40.314 -45.941  11.560  1.00  0.00     0.126 A 
HETATM   13 CL   UNL     1     -40.227 -44.683  10.379  1.00  0.00    -0.076 Cl
HETATM   14  C   UNL     1     -41.135 -47.137  11.218  1.00  0.00     0.285 A 
HETATM   15  O   UNL     1     -41.752 -47.197  10.156  1.00  0.00    -0.265 OA
ENDBRANCH   5   6
ENDBRANCH   2   5
BRANCH   1  16
HETATM   16  C   UNL     1     -44.410 -51.537  13.664  1.00  0.00     0.088 C 
HETATM   17  C   UNL     1     -44.149 -53.029  13.967  1.00  0.00     0.004 C 
HETATM   18  C   UNL     1     -44.202 -53.922  12.719  1.00  0.00     0.012 C 
HETATM   19  C   UNL     1     -45.146 -53.513  15.033  1.00  0.00     0.006 C 
HETATM   20  C   UNL     1     -46.602 -53.240  14.656  1.00  0.00     0.001 C 
HETATM   21  C   UNL     1     -46.840 -51.778  14.283  1.00  0.00     0.002 C 
HETATM   22  C   UNL     1     -45.854 -51.279  13.227  1.00  0.00     0.025 C 
ENDBRANCH   1  16
TORSDOF 3
ENDMDL
MODEL 9
REMARK VINA RESULT:      -5.5      4.711      6.478
REMARK  3 active torsions:
REMARK  status: ('A' for Active; 'I' for Inactive)
REMARK    1  A    between atoms: C_7  and  N_8 
REMARK       I    between atoms: N_8  and  C_9 
REMARK    2  A    between atoms: C_9  and  C_11 
REMARK    3  A    between atoms: C_11  and  N_12 
ROOT
HETATM    1  N   UNL     1     -45.442 -52.323  14.608  1.00  0.00    -0.355 N 
HETATM    2  C   UNL     1     -45.586 -52.216  13.235  1.00  0.00     0.237 C 
HETATM    3  O   UNL     1     -46.357 -51.421  12.703  1.00  0.00    -0.272 OA
HETATM    4  H   UNL     1     -44.711 -52.942  14.945  1.00  0.00     0.162 HD
ENDROOT
BRANCH   2   5
HETATM    5  C   UNL     1     -44.840 -53.282  12.445  1.00  0.00     0.255 C 
BRANCH   5   6
HETATM    6  N   UNL     1     -43.405 -53.238  12.723  1.00  0.00    -0.248 N 
HETATM    7  N   UNL     1     -42.638 -52.399  11.943  1.00  0.00    -0.305 N 
HETATM    8  C   UNL     1     -41.385 -52.308  12.254  1.00  0.00     0.133 A 
ATOM      9  HN  UNL     1     -43.037 -51.879  11.161  1.00  0.00     0.186 HD
HETATM   10  C   UNL     1     -40.717 -53.016  13.353  1.00  0.00     0.078 A 
HETATM   11 CL   UNL     1     -39.053 -52.680  13.601  1.00  0.00    -0.081 Cl
HETATM   12  C   UNL     1     -41.457 -53.860  14.069  1.00  0.00     0.126 A 
HETATM   13 CL   UNL     1     -40.828 -54.770  15.397  1.00  0.00    -0.076 Cl
HETATM   14  C   UNL     1     -42.902 -54.034  13.753  1.00  0.00     0.285 A 
HETATM   15  O   UNL     1     -43.599 -54.822  14.390  1.00  0.00    -0.265 OA
ENDBRANCH   5   6
ENDBRANCH   2   5
BRANCH   1  16
HETATM   16  C   UNL     1     -46.055 -51.362  15.510  1.00  0.00     0.088 C 
HETATM   17  C   UNL     1     -45.082 -50.910  16.620  1.00  0.00     0.004 C 
HETATM   18  C   UNL     1     -44.547 -52.071  17.471  1.00  0.00     0.012 C 
HETATM   19  C   UNL     1     -45.768 -49.852  17.500  1.00  0.00     0.006 C 
HETATM   20  C   UNL     1     -47.112 -50.323  18.059  1.00  0.00     0.001 C 
HETATM   21  C   UNL     1     -48.044 -50.841  16.966  1.00  0.00     0.002 C 
HETATM   22  C   UNL     1     -47.375 -51.890  16.078  1.00  0.00     0.025 C 
ENDBRANCH   1  16
TORSDOF 3
ENDMDL
