MODEL 1
REMARK VINA RESULT:      -6.1      0.000      0.000
REMARK  4 active torsions:
REMARK  status: ('A' for Active; 'I' for Inactive)
REMARK    1  A    between atoms: C_2  and  C_3 
REMARK    2  A    between atoms: C_2  and  N_16 
REMARK    3  A    between atoms: C_3  and  N_4 
REMARK       I    between atoms: N_4  and  C_5 
REMARK       I    between atoms: C_5  and  N_7 
REMARK    4  A    between atoms: N_7  and  C_8 
ROOT
HETATM    1  N   UNL     1     -43.922 -52.500  12.511  1.00  0.00    -0.341 N 
HETATM    2  C   UNL     1     -42.559 -52.364  12.355  1.00  0.00     0.322 C 
HETATM    3  O   UNL     1     -41.795 -53.297  12.575  1.00  0.00    -0.247 OA
HETATM    4  N   UNL     1     -42.219 -51.112  11.918  1.00  0.00    -0.288 N 
HETATM    5  H   UNL     1     -44.507 -51.679  12.507  1.00  0.00     0.164 HD
HETATM    6  H   UNL     1     -42.902 -50.586  11.395  1.00  0.00     0.172 HD
ENDROOT
BRANCH   1   7
HETATM    7  C   UNL     1     -44.496 -53.759  12.966  1.00  0.00     0.159 C 
BRANCH   7   8
HETATM    8  C   UNL     1     -44.510 -53.886  14.521  1.00  0.00     0.236 C 
HETATM    9  C   UNL     1     -43.573 -55.057  14.891  1.00  0.00     0.044 C 
BRANCH   8  10
HETATM   10  N   UNL     1     -45.880 -54.100  15.073  1.00  0.00     0.098 N 
HETATM   11  C   UNL     1     -46.884 -53.141  14.530  1.00  0.00     0.299 C 
HETATM   12  C   UNL     1     -46.695 -51.696  15.024  1.00  0.00     0.198 C 
HETATM   13  O   UNL     1     -46.738 -51.627  16.455  1.00  0.00    -0.388 OA
HETATM   14  C   UNL     1     -45.767 -52.503  17.042  1.00  0.00     0.198 C 
HETATM   15  C   UNL     1     -45.952 -53.951  16.552  1.00  0.00     0.299 C 
ENDBRANCH   8  10
ENDBRANCH   7   8
ENDBRANCH   1   7
BRANCH   4  16
HETATM   16  C   UNL     1     -40.932 -50.655  11.777  1.00  0.00     0.169 A 
HETATM   17  N   UNL     1     -40.431 -50.268  10.623  1.00  0.00    -0.279 N 
HETATM   18  N   UNL     1     -39.121 -49.844  10.741  1.00  0.00    -0.296 N 
ATOM     19  HN  UNL     1     -40.949 -50.279   9.744  1.00  0.00     0.189 HD
HETATM   20  C   UNL     1     -38.703 -49.884  11.990  1.00  0.00     0.066 A 
ATOM     21  HN  UNL     1     -38.546 -49.537   9.956  1.00  0.00     0.187 HD
HETATM   22  C   UNL     1     -37.351 -49.493  12.457  1.00  0.00     0.078 C 
HETATM   23  S   UNL     1     -39.886 -50.427  13.105  1.00  0.00    -0.038 SA
ENDBRANCH   4  16
TORSDOF 4
ENDMDL
MODEL 2
REMARK VINA RESULT:      -6.0      3.068      3.680
REMARK  4 active torsions:
REMARK  status: ('A' for Active; 'I' for Inactive)
REMARK    1  A    between atoms: C_2  and  C_3 
REMARK    2  A    between atoms: C_2  and  N_16 
REMARK    3  A    between atoms: C_3  and  N_4 
REMARK       I    between atoms: N_4  and  C_5 
REMARK       I    between atoms: C_5  and  N_7 
REMARK    4  A    between atoms: N_7  and  C_8 
ROOT
HETATM    1  N   UNL     1     -43.975 -50.168  12.702  1.00  0.00    -0.341 N 
HETATM    2  C   UNL     1     -42.859 -49.359  12.663  1.00  0.00     0.322 C 
HETATM    3  O   UNL     1     -42.106 -49.264  13.624  1.00  0.00    -0.247 OA
HETATM    4  N   UNL     1     -42.721 -48.741  11.449  1.00  0.00    -0.288 N 
HETATM    5  H   UNL     1     -44.673 -50.086  11.978  1.00  0.00     0.164 HD
HETATM    6  H   UNL     1     -43.126 -49.182  10.638  1.00  0.00     0.172 HD
ENDROOT
BRANCH   1   7
HETATM    7  C   UNL     1     -44.305 -50.921  13.904  1.00  0.00     0.159 C 
BRANCH   7   8
HETATM    8  C   UNL     1     -45.211 -52.157  13.610  1.00  0.00     0.236 C 
HETATM    9  C   UNL     1     -46.486 -51.631  12.914  1.00  0.00     0.044 C 
BRANCH   8  10
HETATM   10  N   UNL     1     -45.551 -52.932  14.839  1.00  0.00     0.098 N 
HETATM   11  C   UNL     1     -44.349 -53.406  15.581  1.00  0.00     0.299 C 
HETATM   12  C   UNL     1     -43.568 -54.517  14.856  1.00  0.00     0.198 C 
HETATM   13  O   UNL     1     -44.406 -55.649  14.589  1.00  0.00    -0.388 OA
HETATM   14  C   UNL     1     -45.568 -55.265  13.843  1.00  0.00     0.198 C 
HETATM   15  C   UNL     1     -46.353 -54.155  14.565  1.00  0.00     0.299 C 
ENDBRANCH   8  10
ENDBRANCH   7   8
ENDBRANCH   1   7
BRANCH   4  16
HETATM   16  C   UNL     1     -41.767 -47.798  11.156  1.00  0.00     0.169 A 
HETATM   17  N   UNL     1     -40.508 -48.102  10.916  1.00  0.00    -0.279 N 
HETATM   18  N   UNL     1     -39.747 -46.982  10.639  1.00  0.00    -0.296 N 
ATOM     19  HN  UNL     1     -40.138 -49.053  10.933  1.00  0.00     0.189 HD
HETATM   20  C   UNL     1     -40.473 -45.884  10.634  1.00  0.00     0.066 A 
ATOM     21  HN  UNL     1     -38.743 -47.004  10.460  1.00  0.00     0.187 HD
HETATM   22  C   UNL     1     -39.963 -44.517  10.368  1.00  0.00     0.078 C 
HETATM   23  S   UNL     1     -42.137 -46.146  10.952  1.00  0.00    -0.038 SA
ENDBRANCH   4  16
TORSDOF 4
ENDMDL
MODEL 3
REMARK VINA RESULT:      -6.0      2.441      2.793
REMARK  4 active torsions:
REMARK  status: ('A' for Active; 'I' for Inactive)
REMARK    1  A    between atoms: C_2  and  C_3 
REMARK    2  A    between atoms: C_2  and  N_16 
REMARK    3  A    between atoms: C_3  and  N_4 
REMARK       I    between atoms: N_4  and  C_5 
REMARK       I    between atoms: C_5  and  N_7 
REMARK    4  A    between atoms: N_7  and  C_8 
ROOT
HETATM    1  N   UNL     1     -42.510 -51.803  12.108  1.00  0.00    -0.341 N 
HETATM    2  C   UNL     1     -41.534 -50.835  11.995  1.00  0.00     0.322 C 
HETATM    3  O   UNL     1     -40.398 -51.021  12.414  1.00  0.00    -0.247 OA
HETATM    4  N   UNL     1     -42.000 -49.716  11.356  1.00  0.00    -0.288 N 
HETATM    5  H   UNL     1     -43.473 -51.561  11.929  1.00  0.00     0.164 HD
HETATM    6  H   UNL     1     -42.772 -49.816  10.716  1.00  0.00     0.172 HD
ENDROOT
BRANCH   1   7
HETATM    7  C   UNL     1     -42.221 -53.075  12.755  1.00  0.00     0.159 C 
BRANCH   7   8
HETATM    8  C   UNL     1     -43.368 -53.542  13.704  1.00  0.00     0.236 C 
HETATM    9  C   UNL     1     -42.785 -54.649  14.610  1.00  0.00     0.044 C 
BRANCH   8  10
HETATM   10  N   UNL     1     -44.570 -54.028  12.967  1.00  0.00     0.098 N 
HETATM   11  C   UNL     1     -45.495 -52.929  12.571  1.00  0.00     0.299 C 
HETATM   12  C   UNL     1     -46.237 -52.282  13.754  1.00  0.00     0.198 C 
HETATM   13  O   UNL     1     -46.988 -53.256  14.490  1.00  0.00    -0.388 OA
HETATM   14  C   UNL     1     -46.145 -54.328  14.933  1.00  0.00     0.198 C 
HETATM   15  C   UNL     1     -45.402 -54.979  13.753  1.00  0.00     0.299 C 
ENDBRANCH   8  10
ENDBRANCH   7   8
ENDBRANCH   1   7
BRANCH   4  16
HETATM   16  C   UNL     1     -41.287 -48.554  11.196  1.00  0.00     0.169 A 
HETATM   17  N   UNL     1     -39.971 -48.519  11.157  1.00  0.00    -0.279 N 
HETATM   18  N   UNL     1     -39.490 -47.236  10.980  1.00  0.00    -0.296 N 
ATOM     19  HN  UNL     1     -39.376 -49.343  11.245  1.00  0.00     0.189 HD
HETATM   20  C   UNL     1     -40.465 -46.360  10.846  1.00  0.00     0.066 A 
ATOM     21  HN  UNL     1     -38.499 -46.995  10.957  1.00  0.00     0.187 HD
HETATM   22  C   UNL     1     -40.289 -44.902  10.639  1.00  0.00     0.078 C 
HETATM   23  S   UNL     1     -42.034 -47.048  10.911  1.00  0.00    -0.038 SA
ENDBRANCH   4  16
TORSDOF 4
ENDMDL
MODEL 4
REMARK VINA RESULT:      -5.8      4.521      7.491
REMARK  4 active torsions:
REMARK  status: ('A' for Active; 'I' for Inactive)
REMARK    1  A    between atoms: C_2  and  C_3 
REMARK    2  A    between atoms: C_2  and  N_16 
REMARK    3  A    between atoms: C_3  and  N_4 
REMARK       I    between atoms: N_4  and  C_5 
REMARK       I    between atoms: C_5  and  N_7 
REMARK    4  A    between atoms: N_7  and  C_8 
ROOT
HETATM    1  N   UNL     1     -40.928 -47.887  10.416  1.00  0.00    -0.341 N 
HETATM    2  C   UNL     1     -41.313 -48.995  11.141  1.00  0.00     0.322 C 
HETATM    3  O   UNL     1     -42.309 -48.976  11.855  1.00  0.00    -0.247 OA
HETATM    4  N   UNL     1     -40.476 -50.058  10.930  1.00  0.00    -0.288 N 
HETATM    5  H   UNL     1     -40.014 -47.866   9.990  1.00  0.00     0.164 HD
HETATM    6  H   UNL     1     -39.968 -50.102  10.060  1.00  0.00     0.172 HD
ENDROOT
BRANCH   1   7
HETATM    7  C   UNL     1     -41.688 -46.647  10.495  1.00  0.00     0.159 C 
BRANCH   7   8
HETATM    8  C   UNL     1     -40.866 -45.477  11.121  1.00  0.00     0.236 C 
HETATM    9  C   UNL     1     -39.683 -45.194  10.170  1.00  0.00     0.044 C 
BRANCH   8  10
HETATM   10  N   UNL     1     -40.387 -45.779  12.501  1.00  0.00     0.098 N 
HETATM   11  C   UNL     1     -41.494 -45.896  13.491  1.00  0.00     0.299 C 
HETATM   12  C   UNL     1     -42.189 -44.561  13.811  1.00  0.00     0.198 C 
HETATM   13  O   UNL     1     -41.251 -43.593  14.300  1.00  0.00    -0.388 OA
HETATM   14  C   UNL     1     -40.174 -43.406  13.373  1.00  0.00     0.198 C 
HETATM   15  C   UNL     1     -39.475 -44.739  13.051  1.00  0.00     0.299 C 
ENDBRANCH   8  10
ENDBRANCH   7   8
ENDBRANCH   1   7
BRANCH   4  16
HETATM   16  C   UNL     1     -40.549 -51.255  11.597  1.00  0.00     0.169 A 
HETATM   17  N   UNL     1     -41.120 -52.327  11.087  1.00  0.00    -0.279 N 
HETATM   18  N   UNL     1     -41.058 -53.407  11.947  1.00  0.00    -0.296 N 
ATOM     19  HN  UNL     1     -41.555 -52.357  10.165  1.00  0.00     0.189 HD
HETATM   20  C   UNL     1     -40.402 -53.119  13.051  1.00  0.00     0.066 A 
ATOM     21  HN  UNL     1     -41.472 -54.319  11.749  1.00  0.00     0.187 HD
HETATM   22  C   UNL     1     -40.155 -54.056  14.174  1.00  0.00     0.078 C 
HETATM   23  S   UNL     1     -39.801 -51.514  13.108  1.00  0.00    -0.038 SA
ENDBRANCH   4  16
TORSDOF 4
ENDMDL
MODEL 5
REMARK VINA RESULT:      -5.7      4.242      7.240
REMARK  4 active torsions:
REMARK  status: ('A' for Active; 'I' for Inactive)
REMARK    1  A    between atoms: C_2  and  C_3 
REMARK    2  A    between atoms: C_2  and  N_16 
REMARK    3  A    between atoms: C_3  and  N_4 
REMARK       I    between atoms: N_4  and  C_5 
REMARK       I    between atoms: C_5  and  N_7 
REMARK    4  A    between atoms: N_7  and  C_8 
ROOT
HETATM    1  N   UNL     1     -39.871 -48.272  11.189  1.00  0.00    -0.341 N 
HETATM    2  C   UNL     1     -40.341 -49.308  11.968  1.00  0.00     0.322 C 
HETATM    3  O   UNL     1     -40.910 -49.099  13.033  1.00  0.00    -0.247 OA
HETATM    4  N   UNL     1     -40.111 -50.527  11.387  1.00  0.00    -0.288 N 
HETATM    5  H   UNL     1     -39.248 -48.471  10.420  1.00  0.00     0.164 HD
HETATM    6  H   UNL     1     -40.024 -50.570  10.384  1.00  0.00     0.172 HD
ENDROOT
BRANCH   1   7
HETATM    7  C   UNL     1     -40.018 -46.890  11.624  1.00  0.00     0.159 C 
BRANCH   7   8
HETATM    8  C   UNL     1     -40.791 -46.013  10.592  1.00  0.00     0.236 C 
HETATM    9  C   UNL     1     -39.864 -44.840  10.206  1.00  0.00     0.044 C 
BRANCH   8  10
HETATM   10  N   UNL     1     -42.097 -45.515  11.116  1.00  0.00     0.098 N 
HETATM   11  C   UNL     1     -42.897 -46.576  11.791  1.00  0.00     0.299 C 
HETATM   12  C   UNL     1     -43.461 -47.637  10.829  1.00  0.00     0.198 C 
HETATM   13  O   UNL     1     -44.278 -47.036   9.816  1.00  0.00    -0.388 OA
HETATM   14  C   UNL     1     -43.552 -46.027   9.102  1.00  0.00     0.198 C 
HETATM   15  C   UNL     1     -42.987 -44.962  10.059  1.00  0.00     0.299 C 
ENDBRANCH   8  10
ENDBRANCH   7   8
ENDBRANCH   1   7
BRANCH   4  16
HETATM   16  C   UNL     1     -40.373 -51.737  11.979  1.00  0.00     0.169 A 
HETATM   17  N   UNL     1     -40.998 -52.718  11.361  1.00  0.00    -0.279 N 
HETATM   18  N   UNL     1     -41.134 -53.834  12.164  1.00  0.00    -0.296 N 
ATOM     19  HN  UNL     1     -41.341 -52.660  10.402  1.00  0.00     0.189 HD
HETATM   20  C   UNL     1     -40.562 -53.667  13.339  1.00  0.00     0.066 A 
ATOM     21  HN  UNL     1     -41.618 -54.686  11.880  1.00  0.00     0.187 HD
HETATM   22  C   UNL     1     -40.525 -54.673  14.428  1.00  0.00     0.078 C 
HETATM   23  S   UNL     1     -39.808 -52.140  13.537  1.00  0.00    -0.038 SA
ENDBRANCH   4  16
TORSDOF 4
ENDMDL
MODEL 6
REMARK VINA RESULT:      -5.6      3.701      5.066
REMARK  4 active torsions:
REMARK  status: ('A' for Active; 'I' for Inactive)
REMARK    1  A    between atoms: C_2  and  C_3 
REMARK    2  A    between atoms: C_2  and  N_16 
REMARK    3  A    between atoms: C_3  and  N_4 
REMARK       I    between atoms: N_4  and  C_5 
REMARK       I    between atoms: C_5  and  N_7 
REMARK    4  A    between atoms: N_7  and  C_8 
ROOT
HETATM    1  N   UNL     1     -39.731 -50.241  13.333  1.00  0.00    -0.341 N 
HETATM    2  C   UNL     1     -40.554 -50.096  12.236  1.00  0.00     0.322 C 
HETATM    3  O   UNL     1     -40.752 -51.023  11.459  1.00  0.00    -0.247 OA
HETATM    4  N   UNL     1     -41.100 -48.842  12.171  1.00  0.00    -0.288 N 
HETATM    5  H   UNL     1     -39.437 -49.423  13.845  1.00  0.00     0.164 HD
HETATM    6  H   UNL     1     -41.205 -48.321  13.028  1.00  0.00     0.172 HD
ENDROOT
BRANCH   1   7
HETATM    7  C   UNL     1     -39.051 -51.503  13.589  1.00  0.00     0.159 C 
BRANCH   7   8
HETATM    8  C   UNL     1     -39.772 -52.366  14.672  1.00  0.00     0.236 C 
HETATM    9  C   UNL     1     -39.026 -52.137  16.005  1.00  0.00     0.044 C 
BRANCH   8  10
HETATM   10  N   UNL     1     -39.817 -53.815  14.323  1.00  0.00     0.098 N 
HETATM   11  C   UNL     1     -40.619 -54.097  13.099  1.00  0.00     0.299 C 
HETATM   12  C   UNL     1     -42.133 -53.891  13.285  1.00  0.00     0.198 C 
HETATM   13  O   UNL     1     -42.639 -54.706  14.350  1.00  0.00    -0.388 OA
HETATM   14  C   UNL     1     -41.931 -54.456  15.571  1.00  0.00     0.198 C 
HETATM   15  C   UNL     1     -40.416 -54.662  15.390  1.00  0.00     0.299 C 
ENDBRANCH   8  10
ENDBRANCH   7   8
ENDBRANCH   1   7
BRANCH   4  16
HETATM   16  C   UNL     1     -41.870 -48.376  11.135  1.00  0.00     0.169 A 
HETATM   17  N   UNL     1     -41.565 -48.575   9.869  1.00  0.00    -0.279 N 
HETATM   18  N   UNL     1     -42.498 -48.017   9.016  1.00  0.00    -0.296 N 
ATOM     19  HN  UNL     1     -40.736 -49.081   9.555  1.00  0.00     0.189 HD
HETATM   20  C   UNL     1     -43.495 -47.462   9.674  1.00  0.00     0.066 A 
ATOM     21  HN  UNL     1     -42.423 -48.034   7.999  1.00  0.00     0.187 HD
HETATM   22  C   UNL     1     -44.659 -46.782   9.057  1.00  0.00     0.078 C 
HETATM   23  S   UNL     1     -43.367 -47.598  11.378  1.00  0.00    -0.038 SA
ENDBRANCH   4  16
TORSDOF 4
ENDMDL
MODEL 7
REMARK VINA RESULT:      -5.5      2.653      3.234
REMARK  4 active torsions:
REMARK  status: ('A' for Active; 'I' for Inactive)
REMARK    1  A    between atoms: C_2  and  C_3 
REMARK    2  A    between atoms: C_2  and  N_16 
REMARK    3  A    between atoms: C_3  and  N_4 
REMARK       I    between atoms: N_4  and  C_5 
REMARK       I    between atoms: C_5  and  N_7 
REMARK    4  A    between atoms: N_7  and  C_8 
ROOT
HETATM    1  N   UNL     1     -40.926 -52.870  11.890  1.00  0.00    -0.341 N 
HETATM    2  C   UNL     1     -41.206 -51.525  12.001  1.00  0.00     0.322 C 
HETATM    3  O   UNL     1     -42.087 -51.115  12.748  1.00  0.00    -0.247 OA
HETATM    4  N   UNL     1     -40.381 -50.767  11.213  1.00  0.00    -0.288 N 
HETATM    5  H   UNL     1     -40.335 -53.195  11.140  1.00  0.00     0.164 HD
HETATM    6  H   UNL     1     -39.473 -51.136  10.977  1.00  0.00     0.172 HD
ENDROOT
BRANCH   1   7
HETATM    7  C   UNL     1     -41.689 -53.852  12.649  1.00  0.00     0.159 C 
BRANCH   7   8
HETATM    8  C   UNL     1     -41.203 -53.981  14.126  1.00  0.00     0.236 C 
HETATM    9  C   UNL     1     -39.730 -54.443  14.082  1.00  0.00     0.044 C 
BRANCH   8  10
HETATM   10  N   UNL     1     -42.037 -54.920  14.931  1.00  0.00     0.098 N 
HETATM   11  C   UNL     1     -43.498 -54.650  14.815  1.00  0.00     0.299 C 
HETATM   12  C   UNL     1     -43.947 -53.349  15.503  1.00  0.00     0.198 C 
HETATM   13  O   UNL     1     -43.601 -53.352  16.894  1.00  0.00    -0.388 OA
HETATM   14  C   UNL     1     -42.196 -53.572  17.074  1.00  0.00     0.198 C 
HETATM   15  C   UNL     1     -41.742 -54.873  16.389  1.00  0.00     0.299 C 
ENDBRANCH   8  10
ENDBRANCH   7   8
ENDBRANCH   1   7
BRANCH   4  16
HETATM   16  C   UNL     1     -40.497 -49.410  11.038  1.00  0.00     0.169 A 
HETATM   17  N   UNL     1     -41.403 -48.864  10.253  1.00  0.00    -0.279 N 
HETATM   18  N   UNL     1     -41.323 -47.484  10.250  1.00  0.00    -0.296 N 
ATOM     19  HN  UNL     1     -42.085 -49.397   9.712  1.00  0.00     0.189 HD
HETATM   20  C   UNL     1     -40.390 -47.045  11.069  1.00  0.00     0.066 A 
ATOM     21  HN  UNL     1     -41.915 -46.879   9.681  1.00  0.00     0.187 HD
HETATM   22  C   UNL     1     -40.051 -45.620  11.301  1.00  0.00     0.078 C 
HETATM   23  S   UNL     1     -39.559 -48.285  11.910  1.00  0.00    -0.038 SA
ENDBRANCH   4  16
TORSDOF 4
ENDMDL
MODEL 8
REMARK VINA RESULT:      -5.5      4.778      6.583
REMARK  4 active torsions:
REMARK  status: ('A' for Active; 'I' for Inactive)
REMARK    1  A    between atoms: C_2  and  C_3 
REMARK    2  A    between atoms: C_2  and  N_16 
REMARK    3  A    between atoms: C_3  and  N_4 
REMARK       I    between atoms: N_4  and  C_5 
REMARK       I    between atoms: C_5  and  N_7 
REMARK    4  A    between atoms: N_7  and  C_8 
ROOT
HETATM    1  N   UNL     1     -39.251 -48.454  11.419  1.00  0.00    -0.341 N 
HETATM    2  C   UNL     1     -40.535 -48.748  11.012  1.00  0.00     0.322 C 
HETATM    3  O   UNL     1     -41.018 -49.862  11.175  1.00  0.00    -0.247 OA
HETATM    4  N   UNL     1     -41.156 -47.659  10.458  1.00  0.00    -0.288 N 
HETATM    5  H   UNL     1     -38.815 -47.598  11.109  1.00  0.00     0.164 HD
HETATM    6  H   UNL     1     -40.849 -46.740  10.736  1.00  0.00     0.172 HD
ENDROOT
BRANCH   1   7
HETATM    7  C   UNL     1     -38.417 -49.474  12.038  1.00  0.00     0.159 C 
BRANCH   7   8
HETATM    8  C   UNL     1     -38.564 -49.510  13.591  1.00  0.00     0.236 C 
HETATM    9  C   UNL     1     -37.605 -48.443  14.163  1.00  0.00     0.044 C 
BRANCH   8  10
HETATM   10  N   UNL     1     -38.277 -50.855  14.170  1.00  0.00     0.098 N 
HETATM   11  C   UNL     1     -39.180 -51.919  13.648  1.00  0.00     0.299 C 
HETATM   12  C   UNL     1     -40.634 -51.799  14.138  1.00  0.00     0.198 C 
HETATM   13  O   UNL     1     -40.701 -51.817  15.570  1.00  0.00    -0.388 OA
HETATM   14  C   UNL     1     -39.878 -50.789  16.137  1.00  0.00     0.198 C 
HETATM   15  C   UNL     1     -38.423 -50.906  15.650  1.00  0.00     0.299 C 
ENDBRANCH   8  10
ENDBRANCH   7   8
ENDBRANCH   1   7
BRANCH   4  16
HETATM   16  C   UNL     1     -42.395 -47.681   9.869  1.00  0.00     0.169 A 
HETATM   17  N   UNL     1     -42.622 -48.230   8.693  1.00  0.00    -0.279 N 
HETATM   18  N   UNL     1     -43.949 -48.132   8.321  1.00  0.00    -0.296 N 
ATOM     19  HN  UNL     1     -41.901 -48.676   8.125  1.00  0.00     0.189 HD
HETATM   20  C   UNL     1     -44.679 -47.555   9.253  1.00  0.00     0.066 A 
ATOM     21  HN  UNL     1     -44.318 -48.466   7.431  1.00  0.00     0.187 HD
HETATM   22  C   UNL     1     -46.137 -47.301   9.168  1.00  0.00     0.078 C 
HETATM   23  S   UNL     1     -43.797 -47.107  10.653  1.00  0.00    -0.038 SA
ENDBRANCH   4  16
TORSDOF 4
ENDMDL
MODEL 9
REMARK VINA RESULT:      -5.5      4.579      8.007
REMARK  4 active torsions:
REMARK  status: ('A' for Active; 'I' for Inactive)
REMARK    1  A    between atoms: C_2  and  C_3 
REMARK    2  A    between atoms: C_2  and  N_16 
REMARK    3  A    between atoms: C_3  and  N_4 
REMARK       I    between atoms: N_4  and  C_5 
REMARK       I    between atoms: C_5  and  N_7 
REMARK    4  A    between atoms: N_7  and  C_8 
ROOT
HETATM    1  N   UNL     1     -42.812 -48.525  12.602  1.00  0.00    -0.341 N 
HETATM    2  C   UNL     1     -42.729 -49.885  12.811  1.00  0.00     0.322 C 
HETATM    3  O   UNL     1     -41.655 -50.434  13.026  1.00  0.00    -0.247 OA
HETATM    4  N   UNL     1     -43.961 -50.483  12.769  1.00  0.00    -0.288 N 
HETATM    5  H   UNL     1     -43.668 -48.128  12.245  1.00  0.00     0.164 HD
HETATM    6  H   UNL     1     -44.771 -49.926  12.994  1.00  0.00     0.172 HD
ENDROOT
BRANCH   1   7
HETATM    7  C   UNL     1     -41.613 -47.698  12.610  1.00  0.00     0.159 C 
BRANCH   7   8
HETATM    8  C   UNL     1     -41.934 -46.173  12.685  1.00  0.00     0.236 C 
HETATM    9  C   UNL     1     -43.043 -45.994  13.745  1.00  0.00     0.044 C 
BRANCH   8  10
HETATM   10  N   UNL     1     -42.349 -45.602  11.371  1.00  0.00     0.098 N 
HETATM   11  C   UNL     1     -41.403 -45.931  10.267  1.00  0.00     0.299 C 
HETATM   12  C   UNL     1     -40.046 -45.212  10.375  1.00  0.00     0.198 C 
HETATM   13  O   UNL     1     -40.215 -43.789  10.412  1.00  0.00    -0.388 OA
HETATM   14  C   UNL     1     -41.090 -43.402  11.480  1.00  0.00     0.198 C 
HETATM   15  C   UNL     1     -42.449 -44.118  11.375  1.00  0.00     0.299 C 
ENDBRANCH   8  10
ENDBRANCH   7   8
ENDBRANCH   1   7
BRANCH   4  16
HETATM   16  C   UNL     1     -44.176 -51.837  12.836  1.00  0.00     0.169 A 
HETATM   17  N   UNL     1     -43.492 -52.708  12.122  1.00  0.00    -0.279 N 
HETATM   18  N   UNL     1     -43.888 -54.008  12.371  1.00  0.00    -0.296 N 
ATOM     19  HN  UNL     1     -42.757 -52.452  11.463  1.00  0.00     0.189 HD
HETATM   20  C   UNL     1     -44.821 -54.069  13.298  1.00  0.00     0.066 A 
ATOM     21  HN  UNL     1     -43.502 -54.823  11.894  1.00  0.00     0.187 HD
HETATM   22  C   UNL     1     -45.457 -55.311  13.799  1.00  0.00     0.078 C 
HETATM   23  S   UNL     1     -45.267 -52.543  13.939  1.00  0.00    -0.038 SA
ENDBRANCH   4  16
TORSDOF 4
ENDMDL
