MODEL 1
REMARK VINA RESULT:      -6.6      0.000      0.000
REMARK  2 active torsions:
REMARK  status: ('A' for Active; 'I' for Inactive)
REMARK    1  A    between atoms: C_2  and  C_3 
REMARK       I    between atoms: N_9  and  C_10 
REMARK       I    between atoms: C_10  and  N_12 
REMARK    2  A    between atoms: N_12  and  C_13 
ROOT
HETATM    1  C   UNL     1     -44.801 -47.131   9.372  1.00  0.00     0.069 A 
HETATM    2  N   UNL     1     -44.036 -48.123   9.775  1.00  0.00    -0.296 N 
ATOM      3  HN  UNL     1     -44.363 -49.078   9.918  1.00  0.00     0.187 HD
HETATM    4  N   UNL     1     -42.747 -47.711   9.978  1.00  0.00    -0.279 N 
ATOM      5  HN  UNL     1     -41.995 -48.329  10.286  1.00  0.00     0.189 HD
HETATM    6  C   UNL     1     -42.584 -46.431   9.729  1.00  0.00     0.169 A 
HETATM    7  N   UNL     1     -41.444 -45.702   9.898  1.00  0.00    -0.288 N 
HETATM    8  C   UNL     1     -40.347 -46.156  10.577  1.00  0.00     0.322 C 
HETATM    9  O   UNL     1     -39.354 -45.443  10.694  1.00  0.00    -0.247 OA
HETATM   10  N   UNL     1     -40.455 -47.391  11.146  1.00  0.00    -0.335 N 
HETATM   11  S   UNL     1     -43.968 -45.634   9.158  1.00  0.00    -0.038 SA
HETATM   12  H   UNL     1     -41.415 -44.747   9.581  1.00  0.00     0.172 HD
HETATM   13  H   UNL     1     -41.200 -47.978  10.782  1.00  0.00     0.164 HD
ENDROOT
BRANCH  10  14
HETATM   14  C   UNL     1     -39.412 -48.040  11.914  1.00  0.00     0.122 C 
HETATM   15  C   UNL     1     -39.250 -49.500  11.544  1.00  0.00     0.065 C 
HETATM   16  C   UNL     1     -38.993 -50.233  12.862  1.00  0.00     0.057 C 
HETATM   17  C   UNL     1     -40.074 -51.280  13.141  1.00  0.00     0.045 C 
HETATM   18  C   UNL     1     -37.626 -50.917  12.868  1.00  0.00     0.045 C 
HETATM   19  O   UNL     1     -39.006 -49.250  13.918  1.00  0.00    -0.369 OA
HETATM   20  C   UNL     1     -39.637 -48.042  13.442  1.00  0.00     0.075 C 
HETATM   21  C   UNL     1     -38.947 -46.846  14.107  1.00  0.00     0.048 C 
HETATM   22  C   UNL     1     -41.100 -48.056  13.914  1.00  0.00     0.048 C 
ENDBRANCH  10  14
BRANCH   1  23
HETATM   23  C   UNL     1     -46.258 -47.280   9.109  1.00  0.00     0.062 C 
HETATM   24  C   UNL     1     -46.564 -48.623   8.471  1.00  0.00     0.012 C 
ENDBRANCH   1  23
TORSDOF 2
ENDMDL
MODEL 2
REMARK VINA RESULT:      -6.5      4.393      6.357
REMARK  2 active torsions:
REMARK  status: ('A' for Active; 'I' for Inactive)
REMARK    1  A    between atoms: C_2  and  C_3 
REMARK       I    between atoms: N_9  and  C_10 
REMARK       I    between atoms: C_10  and  N_12 
REMARK    2  A    between atoms: N_12  and  C_13 
ROOT
HETATM    1  C   UNL     1     -41.334 -48.215  11.170  1.00  0.00     0.069 A 
HETATM    2  N   UNL     1     -42.361 -49.029  11.288  1.00  0.00    -0.296 N 
ATOM      3  HN  UNL     1     -43.332 -48.752  11.146  1.00  0.00     0.187 HD
HETATM    4  N   UNL     1     -41.962 -50.294  11.626  1.00  0.00    -0.279 N 
ATOM      5  HN  UNL     1     -42.605 -51.075  11.761  1.00  0.00     0.189 HD
HETATM    6  C   UNL     1     -40.658 -50.391  11.756  1.00  0.00     0.169 A 
HETATM    7  N   UNL     1     -39.952 -51.490  12.149  1.00  0.00    -0.288 N 
HETATM    8  C   UNL     1     -40.528 -52.606  12.692  1.00  0.00     0.322 C 
HETATM    9  O   UNL     1     -39.830 -53.560  13.027  1.00  0.00    -0.247 OA
HETATM   10  N   UNL     1     -41.878 -52.560  12.882  1.00  0.00    -0.335 N 
HETATM   11  S   UNL     1     -39.799 -48.970  11.408  1.00  0.00    -0.038 SA
HETATM   12  H   UNL     1     -38.946 -51.471  12.118  1.00  0.00     0.172 HD
HETATM   13  H   UNL     1     -42.371 -51.848  12.351  1.00  0.00     0.164 HD
ENDROOT
BRANCH  10  14
HETATM   14  C   UNL     1     -42.667 -53.631  13.454  1.00  0.00     0.122 C 
HETATM   15  C   UNL     1     -44.055 -53.706  12.852  1.00  0.00     0.065 C 
HETATM   16  C   UNL     1     -44.993 -54.034  14.015  1.00  0.00     0.057 C 
HETATM   17  C   UNL     1     -46.041 -52.935  14.215  1.00  0.00     0.045 C 
HETATM   18  C   UNL     1     -45.707 -55.368  13.805  1.00  0.00     0.045 C 
HETATM   19  O   UNL     1     -44.188 -54.139  15.207  1.00  0.00    -0.369 OA
HETATM   20  C   UNL     1     -42.903 -53.523  14.977  1.00  0.00     0.075 C 
HETATM   21  C   UNL     1     -41.846 -54.308  15.761  1.00  0.00     0.048 C 
HETATM   22  C   UNL     1     -42.952 -52.100  15.558  1.00  0.00     0.048 C 
ENDBRANCH  10  14
BRANCH   1  23
HETATM   23  C   UNL     1     -41.472 -46.769  10.847  1.00  0.00     0.062 C 
HETATM   24  C   UNL     1     -40.123 -46.073  10.867  1.00  0.00     0.012 C 
ENDBRANCH   1  23
TORSDOF 2
ENDMDL
MODEL 3
REMARK VINA RESULT:      -6.3      3.610      5.802
REMARK  2 active torsions:
REMARK  status: ('A' for Active; 'I' for Inactive)
REMARK    1  A    between atoms: C_2  and  C_3 
REMARK       I    between atoms: N_9  and  C_10 
REMARK       I    between atoms: C_10  and  N_12 
REMARK    2  A    between atoms: N_12  and  C_13 
ROOT
HETATM    1  C   UNL     1     -43.516 -53.125  12.751  1.00  0.00     0.069 A 
HETATM    2  N   UNL     1     -43.859 -51.866  12.588  1.00  0.00    -0.296 N 
ATOM      3  HN  UNL     1     -44.816 -51.519  12.653  1.00  0.00     0.187 HD
HETATM    4  N   UNL     1     -42.771 -51.079  12.321  1.00  0.00    -0.279 N 
ATOM      5  HN  UNL     1     -42.823 -50.072  12.168  1.00  0.00     0.189 HD
HETATM    6  C   UNL     1     -41.652 -51.767  12.285  1.00  0.00     0.169 A 
HETATM    7  N   UNL     1     -40.409 -51.296  11.979  1.00  0.00    -0.288 N 
HETATM    8  C   UNL     1     -40.180 -50.062  11.435  1.00  0.00     0.322 C 
HETATM    9  O   UNL     1     -39.032 -49.703  11.181  1.00  0.00    -0.247 OA
HETATM   10  N   UNL     1     -41.281 -49.311  11.149  1.00  0.00    -0.335 N 
HETATM   11  S   UNL     1     -41.817 -53.417  12.645  1.00  0.00    -0.038 SA
HETATM   12  H   UNL     1     -39.611 -51.901  12.079  1.00  0.00     0.172 HD
HETATM   13  H   UNL     1     -42.137 -49.590  11.620  1.00  0.00     0.164 HD
ENDROOT
BRANCH  10  14
HETATM   14  C   UNL     1     -41.248 -47.989  10.559  1.00  0.00     0.122 C 
HETATM   15  C   UNL     1     -40.572 -46.975  11.459  1.00  0.00     0.065 C 
HETATM   16  C   UNL     1     -41.388 -45.689  11.318  1.00  0.00     0.057 C 
HETATM   17  C   UNL     1     -41.981 -45.252  12.660  1.00  0.00     0.045 C 
HETATM   18  C   UNL     1     -40.546 -44.546  10.752  1.00  0.00     0.045 C 
HETATM   19  O   UNL     1     -42.463 -45.954  10.393  1.00  0.00    -0.369 OA
HETATM   20  C   UNL     1     -42.633 -47.380  10.249  1.00  0.00     0.075 C 
HETATM   21  C   UNL     1     -43.058 -47.670   8.805  1.00  0.00     0.048 C 
HETATM   22  C   UNL     1     -43.787 -47.812  11.169  1.00  0.00     0.048 C 
ENDBRANCH  10  14
BRANCH   1  23
HETATM   23  C   UNL     1     -44.498 -54.211  13.016  1.00  0.00     0.062 C 
HETATM   24  C   UNL     1     -44.254 -54.851  14.371  1.00  0.00     0.012 C 
ENDBRANCH   1  23
TORSDOF 2
ENDMDL
MODEL 4
REMARK VINA RESULT:      -5.9      4.282      5.573
REMARK  2 active torsions:
REMARK  status: ('A' for Active; 'I' for Inactive)
REMARK    1  A    between atoms: C_2  and  C_3 
REMARK       I    between atoms: N_9  and  C_10 
REMARK       I    between atoms: C_10  and  N_12 
REMARK    2  A    between atoms: N_12  and  C_13 
ROOT
HETATM    1  C   UNL     1     -44.534 -51.863  13.262  1.00  0.00     0.069 A 
HETATM    2  N   UNL     1     -43.741 -50.936  13.754  1.00  0.00    -0.296 N 
ATOM      3  HN  UNL     1     -44.042 -49.992  13.994  1.00  0.00     0.187 HD
HETATM    4  N   UNL     1     -42.462 -51.399  13.904  1.00  0.00    -0.279 N 
ATOM      5  HN  UNL     1     -41.695 -50.838  14.275  1.00  0.00     0.189 HD
HETATM    6  C   UNL     1     -42.332 -52.648  13.517  1.00  0.00     0.169 A 
HETATM    7  N   UNL     1     -41.180 -53.378  13.474  1.00  0.00    -0.288 N 
HETATM    8  C   UNL     1     -39.933 -52.834  13.616  1.00  0.00     0.322 C 
HETATM    9  O   UNL     1     -38.937 -53.552  13.563  1.00  0.00    -0.247 OA
HETATM   10  N   UNL     1     -39.875 -51.479  13.757  1.00  0.00    -0.335 N 
HETATM   11  S   UNL     1     -43.770 -53.390  13.006  1.00  0.00    -0.038 SA
HETATM   12  H   UNL     1     -41.222 -54.358  13.249  1.00  0.00     0.172 HD
HETATM   13  H   UNL     1     -40.742 -51.029  14.034  1.00  0.00     0.164 HD
ENDROOT
BRANCH  10  14
HETATM   14  C   UNL     1     -38.653 -50.716  13.906  1.00  0.00     0.122 C 
HETATM   15  C   UNL     1     -38.683 -49.816  15.123  1.00  0.00     0.065 C 
HETATM   16  C   UNL     1     -38.005 -48.515  14.691  1.00  0.00     0.057 C 
HETATM   17  C   UNL     1     -38.955 -47.321  14.812  1.00  0.00     0.045 C 
HETATM   18  C   UNL     1     -36.748 -48.233  15.515  1.00  0.00     0.045 C 
HETATM   19  O   UNL     1     -37.611 -48.665  13.312  1.00  0.00    -0.369 OA
HETATM   20  C   UNL     1     -38.326 -49.774  12.726  1.00  0.00     0.075 C 
HETATM   21  C   UNL     1     -37.404 -50.456  11.709  1.00  0.00     0.048 C 
HETATM   22  C   UNL     1     -39.529 -49.206  11.956  1.00  0.00     0.048 C 
ENDBRANCH  10  14
BRANCH   1  23
HETATM   23  C   UNL     1     -45.973 -51.629  12.960  1.00  0.00     0.062 C 
HETATM   24  C   UNL     1     -46.780 -51.465  14.236  1.00  0.00     0.012 C 
ENDBRANCH   1  23
TORSDOF 2
ENDMDL
MODEL 5
REMARK VINA RESULT:      -5.8      4.200      5.467
REMARK  2 active torsions:
REMARK  status: ('A' for Active; 'I' for Inactive)
REMARK    1  A    between atoms: C_2  and  C_3 
REMARK       I    between atoms: N_9  and  C_10 
REMARK       I    between atoms: C_10  and  N_12 
REMARK    2  A    between atoms: N_12  and  C_13 
ROOT
HETATM    1  C   UNL     1     -43.036 -47.224  10.443  1.00  0.00     0.069 A 
HETATM    2  N   UNL     1     -43.119 -48.529  10.581  1.00  0.00    -0.296 N 
ATOM      3  HN  UNL     1     -43.250 -49.181   9.808  1.00  0.00     0.187 HD
HETATM    4  N   UNL     1     -43.007 -48.903  11.894  1.00  0.00    -0.279 N 
ATOM      5  HN  UNL     1     -43.040 -49.872  12.213  1.00  0.00     0.189 HD
HETATM    6  C   UNL     1     -42.851 -47.874  12.696  1.00  0.00     0.169 A 
HETATM    7  N   UNL     1     -42.778 -47.900  14.058  1.00  0.00    -0.288 N 
HETATM    8  C   UNL     1     -43.089 -48.998  14.812  1.00  0.00     0.322 C 
HETATM    9  O   UNL     1     -43.003 -48.950  16.037  1.00  0.00    -0.247 OA
HETATM   10  N   UNL     1     -43.541 -50.092  14.134  1.00  0.00    -0.335 N 
HETATM   11  S   UNL     1     -42.754 -46.370  11.917  1.00  0.00    -0.038 SA
HETATM   12  H   UNL     1     -42.560 -47.055  14.559  1.00  0.00     0.172 HD
HETATM   13  H   UNL     1     -43.335 -50.107  13.140  1.00  0.00     0.164 HD
ENDROOT
BRANCH  10  14
HETATM   14  C   UNL     1     -43.933 -51.342  14.752  1.00  0.00     0.122 C 
HETATM   15  C   UNL     1     -43.093 -52.507  14.272  1.00  0.00     0.065 C 
HETATM   16  C   UNL     1     -44.062 -53.681  14.125  1.00  0.00     0.057 C 
HETATM   17  C   UNL     1     -44.105 -54.193  12.682  1.00  0.00     0.045 C 
HETATM   18  C   UNL     1     -43.690 -54.839  15.051  1.00  0.00     0.045 C 
HETATM   19  O   UNL     1     -45.374 -53.214  14.498  1.00  0.00    -0.369 OA
HETATM   20  C   UNL     1     -45.393 -51.770  14.483  1.00  0.00     0.075 C 
HETATM   21  C   UNL     1     -46.328 -51.290  15.598  1.00  0.00     0.048 C 
HETATM   22  C   UNL     1     -45.997 -51.320  13.142  1.00  0.00     0.048 C 
ENDBRANCH  10  14
BRANCH   1  23
HETATM   23  C   UNL     1     -43.161 -46.533   9.131  1.00  0.00     0.062 C 
HETATM   24  C   UNL     1     -43.565 -47.505   8.038  1.00  0.00     0.012 C 
ENDBRANCH   1  23
TORSDOF 2
ENDMDL
MODEL 6
REMARK VINA RESULT:      -5.5      4.632      7.247
REMARK  2 active torsions:
REMARK  status: ('A' for Active; 'I' for Inactive)
REMARK    1  A    between atoms: C_2  and  C_3 
REMARK       I    between atoms: N_9  and  C_10 
REMARK       I    between atoms: C_10  and  N_12 
REMARK    2  A    between atoms: N_12  and  C_13 
ROOT
HETATM    1  C   UNL     1     -38.189 -48.521  13.981  1.00  0.00     0.069 A 
HETATM    2  N   UNL     1     -39.474 -48.454  14.254  1.00  0.00    -0.296 N 
ATOM      3  HN  UNL     1     -39.890 -47.780  14.897  1.00  0.00     0.187 HD
HETATM    4  N   UNL     1     -40.182 -49.402  13.566  1.00  0.00    -0.279 N 
ATOM      5  HN  UNL     1     -41.194 -49.514  13.633  1.00  0.00     0.189 HD
HETATM    6  C   UNL     1     -39.413 -50.150  12.808  1.00  0.00     0.169 A 
HETATM    7  N   UNL     1     -39.797 -51.220  12.054  1.00  0.00    -0.288 N 
HETATM    8  C   UNL     1     -41.023 -51.819  12.156  1.00  0.00     0.322 C 
HETATM    9  O   UNL     1     -41.300 -52.782  11.446  1.00  0.00    -0.247 OA
HETATM   10  N   UNL     1     -41.862 -51.323  13.110  1.00  0.00    -0.335 N 
HETATM   11  S   UNL     1     -37.772 -49.719  12.810  1.00  0.00    -0.038 SA
HETATM   12  H   UNL     1     -39.131 -51.657  11.438  1.00  0.00     0.172 HD
HETATM   13  H   UNL     1     -41.636 -50.394  13.452  1.00  0.00     0.164 HD
ENDROOT
BRANCH  10  14
HETATM   14  C   UNL     1     -43.191 -51.828  13.382  1.00  0.00     0.122 C 
HETATM   15  C   UNL     1     -44.158 -50.724  13.761  1.00  0.00     0.065 C 
HETATM   16  C   UNL     1     -45.030 -51.305  14.875  1.00  0.00     0.057 C 
HETATM   17  C   UNL     1     -44.896 -50.497  16.169  1.00  0.00     0.045 C 
HETATM   18  C   UNL     1     -46.504 -51.352  14.471  1.00  0.00     0.045 C 
HETATM   19  O   UNL     1     -44.588 -52.656  15.117  1.00  0.00    -0.369 OA
HETATM   20  C   UNL     1     -43.277 -52.843  14.543  1.00  0.00     0.075 C 
HETATM   21  C   UNL     1     -43.177 -54.284  14.031  1.00  0.00     0.048 C 
HETATM   22  C   UNL     1     -42.243 -52.677  15.669  1.00  0.00     0.048 C 
ENDBRANCH  10  14
BRANCH   1  23
HETATM   23  C   UNL     1     -37.174 -47.634  14.614  1.00  0.00     0.062 C 
HETATM   24  C   UNL     1     -36.507 -48.321  15.792  1.00  0.00     0.012 C 
ENDBRANCH   1  23
TORSDOF 2
ENDMDL
MODEL 7
REMARK VINA RESULT:      -5.3      2.314      3.539
REMARK  2 active torsions:
REMARK  status: ('A' for Active; 'I' for Inactive)
REMARK    1  A    between atoms: C_2  and  C_3 
REMARK       I    between atoms: N_9  and  C_10 
REMARK       I    between atoms: C_10  and  N_12 
REMARK    2  A    between atoms: N_12  and  C_13 
ROOT
HETATM    1  C   UNL     1     -42.405 -47.313  10.025  1.00  0.00     0.069 A 
HETATM    2  N   UNL     1     -42.421 -48.588  10.351  1.00  0.00    -0.296 N 
ATOM      3  HN  UNL     1     -43.132 -49.250  10.042  1.00  0.00     0.187 HD
HETATM    4  N   UNL     1     -41.364 -48.912  11.158  1.00  0.00    -0.279 N 
ATOM      5  HN  UNL     1     -41.192 -49.852  11.518  1.00  0.00     0.189 HD
HETATM    6  C   UNL     1     -40.595 -47.879  11.416  1.00  0.00     0.169 A 
HETATM    7  N   UNL     1     -39.506 -47.852  12.237  1.00  0.00    -0.288 N 
HETATM    8  C   UNL     1     -39.185 -48.861  13.104  1.00  0.00     0.322 C 
HETATM    9  O   UNL     1     -38.189 -48.768  13.817  1.00  0.00    -0.247 OA
HETATM   10  N   UNL     1     -40.052 -49.913  13.157  1.00  0.00    -0.335 N 
HETATM   11  S   UNL     1     -41.050 -46.439  10.642  1.00  0.00    -0.038 SA
HETATM   12  H   UNL     1     -38.938 -47.022  12.281  1.00  0.00     0.172 HD
HETATM   13  H   UNL     1     -40.683 -50.001  12.366  1.00  0.00     0.164 HD
ENDROOT
BRANCH  10  14
HETATM   14  C   UNL     1     -39.896 -51.067  14.017  1.00  0.00     0.122 C 
HETATM   15  C   UNL     1     -39.499 -52.309  13.246  1.00  0.00     0.065 C 
HETATM   16  C   UNL     1     -40.278 -53.459  13.885  1.00  0.00     0.057 C 
HETATM   17  C   UNL     1     -41.208 -54.135  12.873  1.00  0.00     0.045 C 
HETATM   18  C   UNL     1     -39.343 -54.511  14.480  1.00  0.00     0.045 C 
HETATM   19  O   UNL     1     -41.071 -52.907  14.956  1.00  0.00    -0.369 OA
HETATM   20  C   UNL     1     -41.167 -51.475  14.795  1.00  0.00     0.075 C 
HETATM   21  C   UNL     1     -41.197 -50.836  16.187  1.00  0.00     0.048 C 
HETATM   22  C   UNL     1     -42.509 -51.167  14.112  1.00  0.00     0.048 C 
ENDBRANCH  10  14
BRANCH   1  23
HETATM   23  C   UNL     1     -43.454 -46.673   9.186  1.00  0.00     0.062 C 
HETATM   24  C   UNL     1     -43.833 -47.560   8.013  1.00  0.00     0.012 C 
ENDBRANCH   1  23
TORSDOF 2
ENDMDL
MODEL 8
REMARK VINA RESULT:      -5.3      5.387      7.812
REMARK  2 active torsions:
REMARK  status: ('A' for Active; 'I' for Inactive)
REMARK    1  A    between atoms: C_2  and  C_3 
REMARK       I    between atoms: N_9  and  C_10 
REMARK       I    between atoms: C_10  and  N_12 
REMARK    2  A    between atoms: N_12  and  C_13 
ROOT
HETATM    1  C   UNL     1     -38.405 -50.413  12.535  1.00  0.00     0.069 A 
HETATM    2  N   UNL     1     -39.447 -51.144  12.203  1.00  0.00    -0.296 N 
ATOM      3  HN  UNL     1     -39.880 -51.140  11.280  1.00  0.00     0.187 HD
HETATM    4  N   UNL     1     -39.876 -51.910  13.253  1.00  0.00    -0.279 N 
ATOM      5  HN  UNL     1     -40.669 -52.552  13.201  1.00  0.00     0.189 HD
HETATM    6  C   UNL     1     -39.154 -51.729  14.335  1.00  0.00     0.169 A 
HETATM    7  N   UNL     1     -39.361 -52.286  15.562  1.00  0.00    -0.288 N 
HETATM    8  C   UNL     1     -40.505 -52.952  15.909  1.00  0.00     0.322 C 
HETATM    9  O   UNL     1     -40.625 -53.427  17.036  1.00  0.00    -0.247 OA
HETATM   10  N   UNL     1     -41.490 -52.996  14.967  1.00  0.00    -0.335 N 
HETATM   11  S   UNL     1     -37.845 -50.665  14.148  1.00  0.00    -0.038 SA
HETATM   12  H   UNL     1     -38.681 -52.146  16.292  1.00  0.00     0.172 HD
HETATM   13  H   UNL     1     -41.195 -52.800  14.015  1.00  0.00     0.164 HD
ENDROOT
BRANCH  10  14
HETATM   14  C   UNL     1     -42.775 -53.638  15.147  1.00  0.00     0.122 C 
HETATM   15  C   UNL     1     -43.282 -54.275  13.869  1.00  0.00     0.065 C 
HETATM   16  C   UNL     1     -44.787 -54.005  13.842  1.00  0.00     0.057 C 
HETATM   17  C   UNL     1     -45.187 -53.185  12.612  1.00  0.00     0.045 C 
HETATM   18  C   UNL     1     -45.594 -55.303  13.856  1.00  0.00     0.045 C 
HETATM   19  O   UNL     1     -45.118 -53.260  15.032  1.00  0.00    -0.369 OA
HETATM   20  C   UNL     1     -43.915 -52.698  15.598  1.00  0.00     0.075 C 
HETATM   21  C   UNL     1     -44.059 -52.691  17.124  1.00  0.00     0.048 C 
HETATM   22  C   UNL     1     -43.813 -51.236  15.133  1.00  0.00     0.048 C 
ENDBRANCH  10  14
BRANCH   1  23
HETATM   23  C   UNL     1     -37.749 -49.456  11.602  1.00  0.00     0.062 C 
HETATM   24  C   UNL     1     -36.947 -50.189  10.542  1.00  0.00     0.012 C 
ENDBRANCH   1  23
TORSDOF 2
ENDMDL
MODEL 9
REMARK VINA RESULT:      -5.1     13.450     15.295
REMARK  2 active torsions:
REMARK  status: ('A' for Active; 'I' for Inactive)
REMARK    1  A    between atoms: C_2  and  C_3 
REMARK       I    between atoms: N_9  and  C_10 
REMARK       I    between atoms: C_10  and  N_12 
REMARK    2  A    between atoms: N_12  and  C_13 
ROOT
HETATM    1  C   UNL     1     -51.016 -53.259  -1.323  1.00  0.00     0.069 A 
HETATM    2  N   UNL     1     -51.181 -52.276  -0.465  1.00  0.00    -0.296 N 
ATOM      3  HN  UNL     1     -52.011 -52.152   0.113  1.00  0.00     0.187 HD
HETATM    4  N   UNL     1     -50.096 -51.441  -0.445  1.00  0.00    -0.279 N 
ATOM      5  HN  UNL     1     -50.023 -50.620   0.156  1.00  0.00     0.189 HD
HETATM    6  C   UNL     1     -49.160 -51.815  -1.288  1.00  0.00     0.169 A 
HETATM    7  N   UNL     1     -47.991 -51.165  -1.557  1.00  0.00    -0.288 N 
HETATM    8  C   UNL     1     -47.724 -49.887  -1.148  1.00  0.00     0.322 C 
HETATM    9  O   UNL     1     -46.650 -49.361  -1.429  1.00  0.00    -0.247 OA
HETATM   10  N   UNL     1     -48.723 -49.242  -0.480  1.00  0.00    -0.335 N 
HETATM   11  S   UNL     1     -49.486 -53.256  -2.123  1.00  0.00    -0.038 SA
HETATM   12  H   UNL     1     -47.307 -51.601  -2.152  1.00  0.00     0.172 HD
HETATM   13  H   UNL     1     -49.447 -49.840  -0.092  1.00  0.00     0.164 HD
ENDROOT
BRANCH  10  14
HETATM   14  C   UNL     1     -48.639 -47.886   0.020  1.00  0.00     0.122 C 
HETATM   15  C   UNL     1     -49.181 -47.760   1.430  1.00  0.00     0.065 C 
HETATM   16  C   UNL     1     -49.937 -46.431   1.463  1.00  0.00     0.057 C 
HETATM   17  C   UNL     1     -51.416 -46.637   1.802  1.00  0.00     0.045 C 
HETATM   18  C   UNL     1     -49.327 -45.461   2.475  1.00  0.00     0.045 C 
HETATM   19  O   UNL     1     -49.833 -45.836   0.154  1.00  0.00    -0.369 OA
HETATM   20  C   UNL     1     -49.427 -46.841  -0.800  1.00  0.00     0.075 C 
HETATM   21  C   UNL     1     -48.534 -46.172  -1.852  1.00  0.00     0.048 C 
HETATM   22  C   UNL     1     -50.689 -47.348  -1.516  1.00  0.00     0.048 C 
ENDBRANCH  10  14
BRANCH   1  23
HETATM   23  C   UNL     1     -52.050 -54.298  -1.581  1.00  0.00     0.062 C 
HETATM   24  C   UNL     1     -53.116 -54.288  -0.500  1.00  0.00     0.012 C 
ENDBRANCH   1  23
TORSDOF 2
ENDMDL
