MODEL 1
REMARK VINA RESULT:      -6.2      0.000      0.000
REMARK  5 active torsions:
REMARK  status: ('A' for Active; 'I' for Inactive)
REMARK    1  A    between atoms: C_2  and  C_3 
REMARK    2  A    between atoms: C_2  and  S_20 
REMARK       I    between atoms: C_3  and  N_5 
REMARK    3  A    between atoms: N_5  and  C_6 
REMARK    4  A    between atoms: C_6  and  C_7 
REMARK    5  A    between atoms: C_12  and  N_14 
ROOT
HETATM    1  C   UNL     1     -42.557 -49.829  12.526  1.00  0.00    -0.036 A 
HETATM    2  C   UNL     1     -41.380 -50.548  12.355  1.00  0.00     0.026 A 
HETATM    3  C   UNL     1     -40.507 -50.134  11.365  1.00  0.00     0.090 A 
HETATM    4  N   UNL     1     -40.724 -49.069  10.556  1.00  0.00    -0.352 N 
ATOM      5  HN  UNL     1     -40.039 -48.808   9.847  1.00  0.00     0.166 HD
HETATM    6  C   UNL     1     -41.863 -48.360  10.705  1.00  0.00     0.103 A 
HETATM    7  C   UNL     1     -42.799 -48.747  11.667  1.00  0.00     0.057 A 
ENDROOT
BRANCH   1   8
HETATM    8  C   UNL     1     -43.546 -50.171  13.604  1.00  0.00     0.161 C 
BRANCH   8   9
HETATM    9  N   UNL     1     -43.837 -51.587  13.669  1.00  0.00    -0.356 N 
HETATM   10  C   UNL     1     -43.997 -52.242  14.872  1.00  0.00     0.236 C 
HETATM   11  O   UNL     1     -44.046 -51.655  15.951  1.00  0.00    -0.272 OA
HETATM   12  H   UNL     1     -43.670 -52.125  12.828  1.00  0.00     0.162 HD
BRANCH  10  13
HETATM   13  C   UNL     1     -44.073 -53.749  14.777  1.00  0.00     0.195 C 
HETATM   14  C   UNL     1     -42.825 -54.341  14.138  1.00  0.00     0.036 C 
BRANCH  13  15
HETATM   15  S   UNL     1     -45.552 -54.165  13.859  1.00  0.00     0.153 S 
HETATM   16  O   UNL     1     -45.406 -53.611  12.525  1.00  0.00    -0.227 OA
HETATM   17  O   UNL     1     -45.784 -55.592  14.010  1.00  0.00    -0.227 OA
HETATM   18  C   UNL     1     -46.897 -53.302  14.647  1.00  0.00     0.162 C 
ENDBRANCH  13  15
ENDBRANCH  10  13
ENDBRANCH   8   9
ENDBRANCH   1   8
BRANCH   6  19
HETATM   19  N   UNL     1     -42.096 -47.281   9.877  1.00  0.00    -0.363 N 
HETATM   20  C   UNL     1     -41.643 -45.938  10.267  1.00  0.00     0.150 C 
HETATM   21  C   UNL     1     -42.831 -44.990  10.480  1.00  0.00     0.187 C 
HETATM   22  O   UNL     1     -43.710 -44.976   9.342  1.00  0.00    -0.388 OA
HETATM   23  C   UNL     1     -44.233 -46.294   9.119  1.00  0.00     0.187 C 
HETATM   24  C   UNL     1     -43.117 -47.308   8.823  1.00  0.00     0.150 C 
ENDBRANCH   6  19
TORSDOF 5
ENDMDL
MODEL 2
REMARK VINA RESULT:      -6.2      4.652      6.564
REMARK  5 active torsions:
REMARK  status: ('A' for Active; 'I' for Inactive)
REMARK    1  A    between atoms: C_2  and  C_3 
REMARK    2  A    between atoms: C_2  and  S_20 
REMARK       I    between atoms: C_3  and  N_5 
REMARK    3  A    between atoms: N_5  and  C_6 
REMARK    4  A    between atoms: C_6  and  C_7 
REMARK    5  A    between atoms: C_12  and  N_14 
ROOT
HETATM    1  C   UNL     1     -40.951 -53.872  13.494  1.00  0.00    -0.036 A 
HETATM    2  C   UNL     1     -40.602 -52.901  12.564  1.00  0.00     0.026 A 
HETATM    3  C   UNL     1     -41.620 -52.296  11.848  1.00  0.00     0.090 A 
HETATM    4  N   UNL     1     -42.934 -52.586  12.001  1.00  0.00    -0.352 N 
ATOM      5  HN  UNL     1     -43.640 -52.100  11.447  1.00  0.00     0.166 HD
HETATM    6  C   UNL     1     -43.293 -53.528  12.898  1.00  0.00     0.103 A 
HETATM    7  C   UNL     1     -42.309 -54.198  13.631  1.00  0.00     0.057 A 
ENDROOT
BRANCH   1   8
HETATM    8  C   UNL     1     -39.923 -54.554  14.354  1.00  0.00     0.161 C 
BRANCH   8   9
HETATM    9  N   UNL     1     -40.347 -54.692  15.730  1.00  0.00    -0.356 N 
HETATM   10  C   UNL     1     -39.881 -55.711  16.534  1.00  0.00     0.236 C 
HETATM   11  O   UNL     1     -38.982 -56.475  16.193  1.00  0.00    -0.272 OA
HETATM   12  H   UNL     1     -41.175 -54.179  16.005  1.00  0.00     0.162 HD
BRANCH  10  13
HETATM   13  C   UNL     1     -40.584 -55.848  17.867  1.00  0.00     0.195 C 
HETATM   14  C   UNL     1     -40.261 -57.172  18.545  1.00  0.00     0.036 C 
BRANCH  13  15
HETATM   15  S   UNL     1     -42.340 -55.657  17.582  1.00  0.00     0.153 S 
HETATM   16  O   UNL     1     -42.619 -54.233  17.530  1.00  0.00    -0.227 OA
HETATM   17  O   UNL     1     -42.701 -56.489  16.446  1.00  0.00    -0.227 OA
HETATM   18  C   UNL     1     -43.162 -56.305  19.023  1.00  0.00     0.162 C 
ENDBRANCH  13  15
ENDBRANCH  10  13
ENDBRANCH   8   9
ENDBRANCH   1   8
BRANCH   6  19
HETATM   19  N   UNL     1     -44.628 -53.837  13.052  1.00  0.00    -0.363 N 
HETATM   20  C   UNL     1     -45.661 -52.869  12.657  1.00  0.00     0.150 C 
HETATM   21  C   UNL     1     -46.474 -52.395  13.871  1.00  0.00     0.187 C 
HETATM   22  O   UNL     1     -47.000 -53.502  14.622  1.00  0.00    -0.388 OA
HETATM   23  C   UNL     1     -45.922 -54.317  15.105  1.00  0.00     0.187 C 
HETATM   24  C   UNL     1     -45.088 -54.901  13.953  1.00  0.00     0.150 C 
ENDBRANCH   6  19
TORSDOF 5
ENDMDL
MODEL 3
REMARK VINA RESULT:      -6.1      1.393      2.062
REMARK  5 active torsions:
REMARK  status: ('A' for Active; 'I' for Inactive)
REMARK    1  A    between atoms: C_2  and  C_3 
REMARK    2  A    between atoms: C_2  and  S_20 
REMARK       I    between atoms: C_3  and  N_5 
REMARK    3  A    between atoms: N_5  and  C_6 
REMARK    4  A    between atoms: C_6  and  C_7 
REMARK    5  A    between atoms: C_12  and  N_14 
ROOT
HETATM    1  C   UNL     1     -41.695 -50.535  12.777  1.00  0.00    -0.036 A 
HETATM    2  C   UNL     1     -40.570 -50.774  11.999  1.00  0.00     0.026 A 
HETATM    3  C   UNL     1     -40.300 -49.896  10.965  1.00  0.00     0.090 A 
HETATM    4  N   UNL     1     -41.060 -48.815  10.667  1.00  0.00    -0.352 N 
ATOM      5  HN  UNL     1     -40.805 -48.199   9.894  1.00  0.00     0.166 HD
HETATM    6  C   UNL     1     -42.159 -48.567  11.410  1.00  0.00     0.103 A 
HETATM    7  C   UNL     1     -42.502 -49.435  12.450  1.00  0.00     0.057 A 
ENDROOT
BRANCH   1   8
HETATM    8  C   UNL     1     -42.048 -51.404  13.952  1.00  0.00     0.161 C 
BRANCH   8   9
HETATM    9  N   UNL     1     -43.305 -52.097  13.779  1.00  0.00    -0.356 N 
HETATM   10  C   UNL     1     -43.378 -53.326  13.156  1.00  0.00     0.236 C 
HETATM   11  O   UNL     1     -42.384 -53.975  12.839  1.00  0.00    -0.272 OA
HETATM   12  H   UNL     1     -44.148 -51.549  13.898  1.00  0.00     0.162 HD
BRANCH  10  13
HETATM   13  C   UNL     1     -44.779 -53.811  12.857  1.00  0.00     0.195 C 
HETATM   14  C   UNL     1     -45.704 -52.667  12.465  1.00  0.00     0.036 C 
BRANCH  13  15
HETATM   15  S   UNL     1     -45.376 -54.684  14.300  1.00  0.00     0.153 S 
HETATM   16  O   UNL     1     -45.916 -55.954  13.848  1.00  0.00    -0.227 OA
HETATM   17  O   UNL     1     -44.315 -54.681  15.294  1.00  0.00    -0.227 OA
HETATM   18  C   UNL     1     -46.736 -53.730  14.945  1.00  0.00     0.162 C 
ENDBRANCH  13  15
ENDBRANCH  10  13
ENDBRANCH   8   9
ENDBRANCH   1   8
BRANCH   6  19
HETATM   19  N   UNL     1     -42.944 -47.474  11.106  1.00  0.00    -0.363 N 
HETATM   20  C   UNL     1     -43.782 -47.478   9.898  1.00  0.00     0.150 C 
HETATM   21  C   UNL     1     -43.329 -46.400   8.903  1.00  0.00     0.187 C 
HETATM   22  O   UNL     1     -43.247 -45.106   9.524  1.00  0.00    -0.388 OA
HETATM   23  C   UNL     1     -42.294 -45.143  10.597  1.00  0.00     0.187 C 
HETATM   24  C   UNL     1     -42.700 -46.148  11.686  1.00  0.00     0.150 C 
ENDBRANCH   6  19
TORSDOF 5
ENDMDL
MODEL 4
REMARK VINA RESULT:      -5.9      1.912      2.507
REMARK  5 active torsions:
REMARK  status: ('A' for Active; 'I' for Inactive)
REMARK    1  A    between atoms: C_2  and  C_3 
REMARK    2  A    between atoms: C_2  and  S_20 
REMARK       I    between atoms: C_3  and  N_5 
REMARK    3  A    between atoms: N_5  and  C_6 
REMARK    4  A    between atoms: C_6  and  C_7 
REMARK    5  A    between atoms: C_12  and  N_14 
ROOT
HETATM    1  C   UNL     1     -40.691 -50.888  12.091  1.00  0.00    -0.036 A 
HETATM    2  C   UNL     1     -39.412 -51.030  12.615  1.00  0.00     0.026 A 
HETATM    3  C   UNL     1     -38.702 -49.880  12.909  1.00  0.00     0.090 A 
HETATM    4  N   UNL     1     -39.177 -48.625  12.723  1.00  0.00    -0.352 N 
ATOM      5  HN  UNL     1     -38.607 -47.814  12.965  1.00  0.00     0.166 HD
HETATM    6  C   UNL     1     -40.416 -48.466  12.212  1.00  0.00     0.103 A 
HETATM    7  C   UNL     1     -41.172 -49.590  11.867  1.00  0.00     0.057 A 
ENDROOT
BRANCH   1   8
HETATM    8  C   UNL     1     -41.559 -52.076  11.783  1.00  0.00     0.161 C 
BRANCH   8   9
HETATM    9  N   UNL     1     -42.372 -52.483  12.909  1.00  0.00    -0.356 N 
HETATM   10  C   UNL     1     -42.223 -53.717  13.505  1.00  0.00     0.236 C 
HETATM   11  O   UNL     1     -41.310 -54.490  13.224  1.00  0.00    -0.272 OA
HETATM   12  H   UNL     1     -43.213 -51.945  13.081  1.00  0.00     0.162 HD
BRANCH  10  13
HETATM   13  C   UNL     1     -43.290 -54.074  14.516  1.00  0.00     0.195 C 
HETATM   14  C   UNL     1     -42.891 -55.275  15.362  1.00  0.00     0.036 C 
BRANCH  13  15
HETATM   15  S   UNL     1     -44.813 -54.366  13.623  1.00  0.00     0.153 S 
HETATM   16  O   UNL     1     -44.527 -54.202  12.209  1.00  0.00    -0.227 OA
HETATM   17  O   UNL     1     -45.370 -55.625  14.090  1.00  0.00    -0.227 OA
HETATM   18  C   UNL     1     -45.933 -53.061  14.091  1.00  0.00     0.162 C 
ENDBRANCH  13  15
ENDBRANCH  10  13
ENDBRANCH   8   9
ENDBRANCH   1   8
BRANCH   6  19
HETATM   19  N   UNL     1     -40.902 -47.191  12.010  1.00  0.00    -0.363 N 
HETATM   20  C   UNL     1     -42.259 -46.992  11.483  1.00  0.00     0.150 C 
HETATM   21  C   UNL     1     -42.228 -46.317  10.105  1.00  0.00     0.187 C 
HETATM   22  O   UNL     1     -41.451 -45.107  10.124  1.00  0.00    -0.388 OA
HETATM   23  C   UNL     1     -40.098 -45.406  10.499  1.00  0.00     0.187 C 
HETATM   24  C   UNL     1     -40.019 -46.023  11.904  1.00  0.00     0.150 C 
ENDBRANCH   6  19
TORSDOF 5
ENDMDL
MODEL 5
REMARK VINA RESULT:      -5.8      4.314      8.672
REMARK  5 active torsions:
REMARK  status: ('A' for Active; 'I' for Inactive)
REMARK    1  A    between atoms: C_2  and  C_3 
REMARK    2  A    between atoms: C_2  and  S_20 
REMARK       I    between atoms: C_3  and  N_5 
REMARK    3  A    between atoms: N_5  and  C_6 
REMARK    4  A    between atoms: C_6  and  C_7 
REMARK    5  A    between atoms: C_12  and  N_14 
ROOT
HETATM    1  C   UNL     1     -40.572 -46.430  11.041  1.00  0.00    -0.036 A 
HETATM    2  C   UNL     1     -41.825 -46.415  10.441  1.00  0.00     0.026 A 
HETATM    3  C   UNL     1     -42.465 -47.627  10.250  1.00  0.00     0.090 A 
HETATM    4  N   UNL     1     -41.950 -48.825  10.617  1.00  0.00    -0.352 N 
ATOM      5  HN  UNL     1     -42.474 -49.686  10.455  1.00  0.00     0.166 HD
HETATM    6  C   UNL     1     -40.733 -48.861  11.199  1.00  0.00     0.103 A 
HETATM    7  C   UNL     1     -40.022 -47.673  11.392  1.00  0.00     0.057 A 
ENDROOT
BRANCH   1   8
HETATM    8  C   UNL     1     -39.817 -45.164  11.334  1.00  0.00     0.161 C 
BRANCH   8   9
HETATM    9  N   UNL     1     -40.553 -43.975  10.963  1.00  0.00    -0.356 N 
HETATM   10  C   UNL     1     -40.475 -42.813  11.702  1.00  0.00     0.236 C 
HETATM   11  O   UNL     1     -39.681 -42.660  12.627  1.00  0.00    -0.272 OA
HETATM   12  H   UNL     1     -41.310 -44.096  10.303  1.00  0.00     0.162 HD
BRANCH  10  13
HETATM   13  C   UNL     1     -41.468 -41.739  11.315  1.00  0.00     0.195 C 
HETATM   14  C   UNL     1     -41.302 -40.482  12.157  1.00  0.00     0.036 C 
BRANCH  13  15
HETATM   15  S   UNL     1     -43.111 -42.432  11.471  1.00  0.00     0.153 S 
HETATM   16  O   UNL     1     -43.392 -43.165  10.249  1.00  0.00    -0.227 OA
HETATM   17  O   UNL     1     -43.182 -43.129  12.745  1.00  0.00    -0.227 OA
HETATM   18  C   UNL     1     -44.239 -41.054  11.533  1.00  0.00     0.162 C 
ENDBRANCH  13  15
ENDBRANCH  10  13
ENDBRANCH   8   9
ENDBRANCH   1   8
BRANCH   6  19
HETATM   19  N   UNL     1     -40.198 -50.078  11.565  1.00  0.00    -0.363 N 
HETATM   20  C   UNL     1     -41.081 -51.197  11.923  1.00  0.00     0.150 C 
HETATM   21  C   UNL     1     -40.901 -51.600  13.394  1.00  0.00     0.187 C 
HETATM   22  O   UNL     1     -39.521 -51.851  13.711  1.00  0.00    -0.388 OA
HETATM   23  C   UNL     1     -38.747 -50.664  13.481  1.00  0.00     0.187 C 
HETATM   24  C   UNL     1     -38.806 -50.220  12.011  1.00  0.00     0.150 C 
ENDBRANCH   6  19
TORSDOF 5
ENDMDL
MODEL 6
REMARK VINA RESULT:      -5.7      2.693      7.077
REMARK  5 active torsions:
REMARK  status: ('A' for Active; 'I' for Inactive)
REMARK    1  A    between atoms: C_2  and  C_3 
REMARK    2  A    between atoms: C_2  and  S_20 
REMARK       I    between atoms: C_3  and  N_5 
REMARK    3  A    between atoms: N_5  and  C_6 
REMARK    4  A    between atoms: C_6  and  C_7 
REMARK    5  A    between atoms: C_12  and  N_14 
ROOT
HETATM    1  C   UNL     1     -40.608 -50.692  12.083  1.00  0.00    -0.036 A 
HETATM    2  C   UNL     1     -39.497 -51.256  12.698  1.00  0.00     0.026 A 
HETATM    3  C   UNL     1     -39.714 -52.212  13.674  1.00  0.00     0.090 A 
HETATM    4  N   UNL     1     -40.940 -52.636  14.065  1.00  0.00    -0.352 N 
ATOM      5  HN  UNL     1     -41.036 -53.350  14.788  1.00  0.00     0.166 HD
HETATM    6  C   UNL     1     -42.031 -52.098  13.482  1.00  0.00     0.103 A 
HETATM    7  C   UNL     1     -41.879 -51.105  12.509  1.00  0.00     0.057 A 
ENDROOT
BRANCH   1   8
HETATM    8  C   UNL     1     -40.476 -49.680  10.979  1.00  0.00     0.161 C 
BRANCH   8   9
HETATM    9  N   UNL     1     -41.709 -48.970  10.720  1.00  0.00    -0.356 N 
HETATM   10  C   UNL     1     -41.753 -47.593  10.647  1.00  0.00     0.236 C 
HETATM   11  O   UNL     1     -40.745 -46.891  10.653  1.00  0.00    -0.272 OA
HETATM   12  H   UNL     1     -42.569 -49.490  10.845  1.00  0.00     0.162 HD
BRANCH  10  13
HETATM   13  C   UNL     1     -43.143 -46.998  10.593  1.00  0.00     0.195 C 
HETATM   14  C   UNL     1     -44.147 -47.829  11.379  1.00  0.00     0.036 C 
BRANCH  13  15
HETATM   15  S   UNL     1     -43.607 -46.847   8.871  1.00  0.00     0.153 S 
HETATM   16  O   UNL     1     -43.111 -45.567   8.398  1.00  0.00    -0.227 OA
HETATM   17  O   UNL     1     -43.191 -48.062   8.189  1.00  0.00    -0.227 OA
HETATM   18  C   UNL     1     -45.386 -46.773   8.829  1.00  0.00     0.162 C 
ENDBRANCH  13  15
ENDBRANCH  10  13
ENDBRANCH   8   9
ENDBRANCH   1   8
BRANCH   6  19
HETATM   19  N   UNL     1     -43.283 -52.516  13.881  1.00  0.00    -0.363 N 
HETATM   20  C   UNL     1     -43.512 -53.922  14.245  1.00  0.00     0.150 C 
HETATM   21  C   UNL     1     -44.495 -54.595  13.277  1.00  0.00     0.187 C 
HETATM   22  O   UNL     1     -45.714 -53.843  13.150  1.00  0.00    -0.388 OA
HETATM   23  C   UNL     1     -45.424 -52.532  12.643  1.00  0.00     0.187 C 
HETATM   24  C   UNL     1     -44.499 -51.747  13.586  1.00  0.00     0.150 C 
ENDBRANCH   6  19
TORSDOF 5
ENDMDL
MODEL 7
REMARK VINA RESULT:      -5.7      2.763      3.702
REMARK  5 active torsions:
REMARK  status: ('A' for Active; 'I' for Inactive)
REMARK    1  A    between atoms: C_2  and  C_3 
REMARK    2  A    between atoms: C_2  and  S_20 
REMARK       I    between atoms: C_3  and  N_5 
REMARK    3  A    between atoms: N_5  and  C_6 
REMARK    4  A    between atoms: C_6  and  C_7 
REMARK    5  A    between atoms: C_12  and  N_14 
ROOT
HETATM    1  C   UNL     1     -38.727 -50.934  13.215  1.00  0.00    -0.036 A 
HETATM    2  C   UNL     1     -37.611 -50.815  12.395  1.00  0.00     0.026 A 
HETATM    3  C   UNL     1     -37.603 -49.796  11.459  1.00  0.00     0.090 A 
HETATM    4  N   UNL     1     -38.611 -48.906  11.295  1.00  0.00    -0.352 N 
ATOM      5  HN  UNL     1     -38.544 -48.171  10.590  1.00  0.00     0.166 HD
HETATM    6  C   UNL     1     -39.704 -49.007  12.080  1.00  0.00     0.103 A 
HETATM    7  C   UNL     1     -39.786 -50.034  13.024  1.00  0.00     0.057 A 
ENDROOT
BRANCH   1   8
HETATM    8  C   UNL     1     -38.811 -51.978  14.293  1.00  0.00     0.161 C 
BRANCH   8   9
HETATM    9  N   UNL     1     -40.100 -52.632  14.341  1.00  0.00    -0.356 N 
HETATM   10  C   UNL     1     -40.292 -53.899  13.831  1.00  0.00     0.236 C 
HETATM   11  O   UNL     1     -39.369 -54.609  13.437  1.00  0.00    -0.272 OA
HETATM   12  H   UNL     1     -40.903 -52.043  14.526  1.00  0.00     0.162 HD
BRANCH  10  13
HETATM   13  C   UNL     1     -41.735 -54.349  13.756  1.00  0.00     0.195 C 
HETATM   14  C   UNL     1     -42.613 -53.324  13.053  1.00  0.00     0.036 C 
BRANCH  13  15
HETATM   15  S   UNL     1     -42.294 -54.672  15.425  1.00  0.00     0.153 S 
HETATM   16  O   UNL     1     -43.138 -55.852  15.380  1.00  0.00    -0.227 OA
HETATM   17  O   UNL     1     -41.128 -54.669  16.294  1.00  0.00    -0.227 OA
HETATM   18  C   UNL     1     -43.329 -53.297  15.888  1.00  0.00     0.162 C 
ENDBRANCH  13  15
ENDBRANCH  10  13
ENDBRANCH   8   9
ENDBRANCH   1   8
BRANCH   6  19
HETATM   19  N   UNL     1     -40.739 -48.112  11.911  1.00  0.00    -0.363 N 
HETATM   20  C   UNL     1     -41.999 -48.545  11.292  1.00  0.00     0.150 C 
HETATM   21  C   UNL     1     -42.244 -47.822   9.960  1.00  0.00     0.187 C 
HETATM   22  O   UNL     1     -42.153 -46.395  10.106  1.00  0.00    -0.388 OA
HETATM   23  C   UNL     1     -40.842 -46.037  10.568  1.00  0.00     0.187 C 
HETATM   24  C   UNL     1     -40.530 -46.658  11.938  1.00  0.00     0.150 C 
ENDBRANCH   6  19
TORSDOF 5
ENDMDL
MODEL 8
REMARK VINA RESULT:      -5.7      3.715      4.836
REMARK  5 active torsions:
REMARK  status: ('A' for Active; 'I' for Inactive)
REMARK    1  A    between atoms: C_2  and  C_3 
REMARK    2  A    between atoms: C_2  and  S_20 
REMARK       I    between atoms: C_3  and  N_5 
REMARK    3  A    between atoms: N_5  and  C_6 
REMARK    4  A    between atoms: C_6  and  C_7 
REMARK    5  A    between atoms: C_12  and  N_14 
ROOT
HETATM    1  C   UNL     1     -41.969 -53.055  12.794  1.00  0.00    -0.036 A 
HETATM    2  C   UNL     1     -41.503 -54.116  13.560  1.00  0.00     0.026 A 
HETATM    3  C   UNL     1     -40.198 -54.061  14.016  1.00  0.00     0.090 A 
HETATM    4  N   UNL     1     -39.348 -53.036  13.767  1.00  0.00    -0.352 N 
ATOM      5  HN  UNL     1     -38.397 -53.049  14.136  1.00  0.00     0.166 HD
HETATM    6  C   UNL     1     -39.781 -51.997  13.022  1.00  0.00     0.103 A 
HETATM    7  C   UNL     1     -41.081 -52.008  12.507  1.00  0.00     0.057 A 
ENDROOT
BRANCH   1   8
HETATM    8  C   UNL     1     -43.384 -53.000  12.292  1.00  0.00     0.161 C 
BRANCH   8   9
HETATM    9  N   UNL     1     -44.337 -52.690  13.336  1.00  0.00    -0.356 N 
HETATM   10  C   UNL     1     -45.362 -53.552  13.665  1.00  0.00     0.236 C 
HETATM   11  O   UNL     1     -45.453 -54.688  13.205  1.00  0.00    -0.272 OA
HETATM   12  H   UNL     1     -44.382 -51.724  13.638  1.00  0.00     0.162 HD
BRANCH  10  13
HETATM   13  C   UNL     1     -46.396 -52.987  14.613  1.00  0.00     0.195 C 
HETATM   14  C   UNL     1     -46.712 -51.530  14.306  1.00  0.00     0.036 C 
BRANCH  13  15
HETATM   15  S   UNL     1     -45.781 -53.197  16.281  1.00  0.00     0.153 S 
HETATM   16  O   UNL     1     -46.012 -54.580  16.658  1.00  0.00    -0.227 OA
HETATM   17  O   UNL     1     -44.427 -52.669  16.327  1.00  0.00    -0.227 OA
HETATM   18  C   UNL     1     -46.804 -52.185  17.331  1.00  0.00     0.162 C 
ENDBRANCH  13  15
ENDBRANCH  10  13
ENDBRANCH   8   9
ENDBRANCH   1   8
BRANCH   6  19
HETATM   19  N   UNL     1     -38.918 -50.955  12.755  1.00  0.00    -0.363 N 
HETATM   20  C   UNL     1     -37.620 -50.875  13.439  1.00  0.00     0.150 C 
HETATM   21  C   UNL     1     -37.539 -49.633  14.338  1.00  0.00     0.187 C 
HETATM   22  O   UNL     1     -37.867 -48.433  13.616  1.00  0.00    -0.388 OA
HETATM   23  C   UNL     1     -39.206 -48.524  13.108  1.00  0.00     0.187 C 
HETATM   24  C   UNL     1     -39.370 -49.702  12.136  1.00  0.00     0.150 C 
ENDBRANCH   6  19
TORSDOF 5
ENDMDL
MODEL 9
REMARK VINA RESULT:      -5.7      2.823      7.939
REMARK  5 active torsions:
REMARK  status: ('A' for Active; 'I' for Inactive)
REMARK    1  A    between atoms: C_2  and  C_3 
REMARK    2  A    between atoms: C_2  and  S_20 
REMARK       I    between atoms: C_3  and  N_5 
REMARK    3  A    between atoms: N_5  and  C_6 
REMARK    4  A    between atoms: C_6  and  C_7 
REMARK    5  A    between atoms: C_12  and  N_14 
ROOT
HETATM    1  C   UNL     1     -41.626 -50.106  12.195  1.00  0.00    -0.036 A 
HETATM    2  C   UNL     1     -42.724 -49.311  12.497  1.00  0.00     0.026 A 
HETATM    3  C   UNL     1     -43.873 -49.938  12.947  1.00  0.00     0.090 A 
HETATM    4  N   UNL     1     -43.991 -51.276  13.117  1.00  0.00    -0.352 N 
ATOM      5  HN  UNL     1     -44.864 -51.680  13.459  1.00  0.00     0.166 HD
HETATM    6  C   UNL     1     -42.936 -52.066  12.827  1.00  0.00     0.103 A 
HETATM    7  C   UNL     1     -41.757 -51.495  12.339  1.00  0.00     0.057 A 
ENDROOT
BRANCH   1   8
HETATM    8  C   UNL     1     -40.319 -49.516  11.744  1.00  0.00     0.161 C 
BRANCH   8   9
HETATM    9  N   UNL     1     -40.490 -48.348  10.908  1.00  0.00    -0.356 N 
HETATM   10  C   UNL     1     -40.130 -47.088  11.336  1.00  0.00     0.236 C 
HETATM   11  O   UNL     1     -39.517 -46.887  12.382  1.00  0.00    -0.272 OA
HETATM   12  H   UNL     1     -41.106 -48.446  10.110  1.00  0.00     0.162 HD
BRANCH  10  13
HETATM   13  C   UNL     1     -40.576 -45.954  10.439  1.00  0.00     0.195 C 
HETATM   14  C   UNL     1     -39.692 -44.725  10.597  1.00  0.00     0.036 C 
BRANCH  13  15
HETATM   15  S   UNL     1     -42.287 -45.596  10.819  1.00  0.00     0.153 S 
HETATM   16  O   UNL     1     -42.542 -46.071  12.168  1.00  0.00    -0.227 OA
HETATM   17  O   UNL     1     -42.531 -44.198  10.505  1.00  0.00    -0.227 OA
HETATM   18  C   UNL     1     -43.271 -46.589   9.714  1.00  0.00     0.162 C 
ENDBRANCH  13  15
ENDBRANCH  10  13
ENDBRANCH   8   9
ENDBRANCH   1   8
BRANCH   6  19
HETATM   19  N   UNL     1     -43.052 -53.431  12.988  1.00  0.00    -0.363 N 
HETATM   20  C   UNL     1     -44.341 -54.096  12.752  1.00  0.00     0.150 C 
HETATM   21  C   UNL     1     -44.890 -54.722  14.042  1.00  0.00     0.187 C 
HETATM   22  O   UNL     1     -43.922 -55.581  14.669  1.00  0.00    -0.388 OA
HETATM   23  C   UNL     1     -42.751 -54.824  15.009  1.00  0.00     0.187 C 
HETATM   24  C   UNL     1     -42.085 -54.214  13.766  1.00  0.00     0.150 C 
ENDBRANCH   6  19
TORSDOF 5
ENDMDL
