MODEL 1
REMARK VINA RESULT:      -5.6      0.000      0.000
REMARK  5 active torsions:
REMARK  status: ('A' for Active; 'I' for Inactive)
REMARK    1  A    between atoms: C_2  and  N_3 
REMARK    2  A    between atoms: C_5  and  C_9 
REMARK       I    between atoms: C_9  and  N_11 
REMARK    3  A    between atoms: N_11  and  C_12 
REMARK    4  A    between atoms: C_12  and  C_13 
REMARK    5  A    between atoms: C_13  and  N_14 
ROOT
HETATM    1  C   UNL     1     -41.181 -47.908  11.328  1.00  0.00     0.223 C 
HETATM    2  O   UNL     1     -40.032 -47.478  11.307  1.00  0.00    -0.273 OA
HETATM    3  N   UNL     1     -41.436 -49.262  11.295  1.00  0.00    -0.359 N 
HETATM    4  H   UNL     1     -42.380 -49.596  11.451  1.00  0.00     0.162 HD
ENDROOT
BRANCH   1   5
HETATM    5  C   UNL     1     -42.408 -47.011  11.319  1.00  0.00     0.104 A 
HETATM    6  C   UNL     1     -43.636 -47.773  10.833  1.00  0.00     0.140 A 
HETATM    7  N   UNL     1     -44.245 -46.954   9.813  1.00  0.00    -0.352 N 
HETATM    8  C   UNL     1     -43.489 -45.838   9.508  1.00  0.00     0.220 A 
HETATM    9  C   UNL     1     -42.268 -45.812  10.384  1.00  0.00     0.118 A 
HETATM   10  O   UNL     1     -43.728 -45.013   8.640  1.00  0.00    -0.273 OA
BRANCH   7  11
HETATM   11  C   UNL     1     -45.188 -47.515   8.857  1.00  0.00     0.121 C 
HETATM   12  C   UNL     1     -46.630 -47.125   9.114  1.00  0.00     0.026 C 
ENDBRANCH   7  11
ENDBRANCH   1   5
BRANCH   3  13
HETATM   13  C   UNL     1     -40.320 -50.198  11.348  1.00  0.00     0.143 C 
BRANCH  13  14
HETATM   14  C   UNL     1     -40.004 -50.703  12.751  1.00  0.00     0.148 C 
BRANCH  14  15
HETATM   15  N   UNL     1     -40.210 -52.131  12.875  1.00  0.00    -0.350 N 
HETATM   16  C   UNL     1     -39.711 -52.939  13.859  1.00  0.00     0.108 A 
HETATM   17  C   UNL     1     -40.181 -54.195  13.557  1.00  0.00     0.106 A 
HETATM   18  N   UNL     1     -40.952 -54.169  12.424  1.00  0.00    -0.361 N 
HETATM   19  C   UNL     1     -40.951 -52.911  12.035  1.00  0.00     0.182 A 
ATOM     20  HN  UNL     1     -41.425 -54.955  11.978  1.00  0.00     0.166 HD
ENDBRANCH  14  15
ENDBRANCH  13  14
ENDBRANCH   3  13
TORSDOF 5
ENDMDL
MODEL 2
REMARK VINA RESULT:      -5.4      4.873      6.559
REMARK  5 active torsions:
REMARK  status: ('A' for Active; 'I' for Inactive)
REMARK    1  A    between atoms: C_2  and  N_3 
REMARK    2  A    between atoms: C_5  and  C_9 
REMARK       I    between atoms: C_9  and  N_11 
REMARK    3  A    between atoms: N_11  and  C_12 
REMARK    4  A    between atoms: C_12  and  C_13 
REMARK    5  A    between atoms: C_13  and  N_14 
ROOT
HETATM    1  C   UNL     1     -41.817 -53.295  14.319  1.00  0.00     0.223 C 
HETATM    2  O   UNL     1     -42.033 -52.813  15.427  1.00  0.00    -0.273 OA
HETATM    3  N   UNL     1     -40.615 -53.092  13.675  1.00  0.00    -0.359 N 
HETATM    4  H   UNL     1     -40.408 -53.609  12.828  1.00  0.00     0.162 HD
ENDROOT
BRANCH   1   5
HETATM    5  C   UNL     1     -42.853 -54.083  13.536  1.00  0.00     0.104 A 
HETATM    6  C   UNL     1     -43.762 -53.150  12.743  1.00  0.00     0.140 A 
HETATM    7  N   UNL     1     -45.115 -53.555  13.038  1.00  0.00    -0.352 N 
HETATM    8  C   UNL     1     -45.176 -54.536  14.009  1.00  0.00     0.220 A 
HETATM    9  C   UNL     1     -43.781 -54.906  14.427  1.00  0.00     0.118 A 
HETATM   10  O   UNL     1     -46.187 -55.013  14.499  1.00  0.00    -0.273 OA
BRANCH   7  11
HETATM   11  C   UNL     1     -46.241 -52.666  12.788  1.00  0.00     0.121 C 
HETATM   12  C   UNL     1     -46.360 -51.528  13.783  1.00  0.00     0.026 C 
ENDBRANCH   7  11
ENDBRANCH   1   5
BRANCH   3  13
HETATM   13  C   UNL     1     -39.545 -52.386  14.370  1.00  0.00     0.143 C 
BRANCH  13  14
HETATM   14  C   UNL     1     -39.528 -50.884  14.116  1.00  0.00     0.148 C 
BRANCH  14  15
HETATM   15  N   UNL     1     -38.854 -50.549  12.878  1.00  0.00    -0.350 N 
HETATM   16  C   UNL     1     -37.517 -50.684  12.621  1.00  0.00     0.108 A 
HETATM   17  C   UNL     1     -37.361 -50.250  11.326  1.00  0.00     0.106 A 
HETATM   18  N   UNL     1     -38.562 -49.862  10.793  1.00  0.00    -0.361 N 
HETATM   19  C   UNL     1     -39.444 -50.053  11.752  1.00  0.00     0.182 A 
ATOM     20  HN  UNL     1     -38.736 -49.503   9.854  1.00  0.00     0.166 HD
ENDBRANCH  14  15
ENDBRANCH  13  14
ENDBRANCH   3  13
TORSDOF 5
ENDMDL
MODEL 3
REMARK VINA RESULT:      -5.4      4.882      6.785
REMARK  5 active torsions:
REMARK  status: ('A' for Active; 'I' for Inactive)
REMARK    1  A    between atoms: C_2  and  N_3 
REMARK    2  A    between atoms: C_5  and  C_9 
REMARK       I    between atoms: C_9  and  N_11 
REMARK    3  A    between atoms: N_11  and  C_12 
REMARK    4  A    between atoms: C_12  and  C_13 
REMARK    5  A    between atoms: C_13  and  N_14 
ROOT
HETATM    1  C   UNL     1     -42.987 -53.787  12.776  1.00  0.00     0.223 C 
HETATM    2  O   UNL     1     -42.103 -54.405  13.361  1.00  0.00    -0.273 OA
HETATM    3  N   UNL     1     -42.696 -52.673  12.019  1.00  0.00    -0.359 N 
HETATM    4  H   UNL     1     -43.417 -52.262  11.437  1.00  0.00     0.162 HD
ENDROOT
BRANCH   1   5
HETATM    5  C   UNL     1     -44.461 -54.139  12.882  1.00  0.00     0.104 A 
HETATM    6  C   UNL     1     -45.315 -52.879  12.984  1.00  0.00     0.140 A 
HETATM    7  N   UNL     1     -46.198 -53.077  14.108  1.00  0.00    -0.352 N 
HETATM    8  C   UNL     1     -45.922 -54.240  14.801  1.00  0.00     0.220 A 
HETATM    9  C   UNL     1     -44.793 -54.965  14.123  1.00  0.00     0.118 A 
HETATM   10  O   UNL     1     -46.462 -54.621  15.828  1.00  0.00    -0.273 OA
BRANCH   7  11
HETATM   11  C   UNL     1     -46.868 -51.954  14.749  1.00  0.00     0.121 C 
HETATM   12  C   UNL     1     -45.969 -51.138  15.657  1.00  0.00     0.026 C 
ENDBRANCH   7  11
ENDBRANCH   1   5
BRANCH   3  13
HETATM   13  C   UNL     1     -41.304 -52.289  11.823  1.00  0.00     0.143 C 
BRANCH  13  14
HETATM   14  C   UNL     1     -40.824 -51.196  12.770  1.00  0.00     0.148 C 
BRANCH  14  15
HETATM   15  N   UNL     1     -39.609 -50.563  12.301  1.00  0.00    -0.350 N 
HETATM   16  C   UNL     1     -38.336 -50.850  12.709  1.00  0.00     0.108 A 
HETATM   17  C   UNL     1     -37.532 -50.005  11.982  1.00  0.00     0.106 A 
HETATM   18  N   UNL     1     -38.281 -49.220  11.144  1.00  0.00    -0.361 N 
HETATM   19  C   UNL     1     -39.529 -49.579  11.358  1.00  0.00     0.182 A 
ATOM     20  HN  UNL     1     -37.943 -48.511  10.493  1.00  0.00     0.166 HD
ENDBRANCH  14  15
ENDBRANCH  13  14
ENDBRANCH   3  13
TORSDOF 5
ENDMDL
MODEL 4
REMARK VINA RESULT:      -5.4      4.622      6.845
REMARK  5 active torsions:
REMARK  status: ('A' for Active; 'I' for Inactive)
REMARK    1  A    between atoms: C_2  and  N_3 
REMARK    2  A    between atoms: C_5  and  C_9 
REMARK       I    between atoms: C_9  and  N_11 
REMARK    3  A    between atoms: N_11  and  C_12 
REMARK    4  A    between atoms: C_12  and  C_13 
REMARK    5  A    between atoms: C_13  and  N_14 
ROOT
HETATM    1  C   UNL     1     -42.739 -53.801  13.021  1.00  0.00     0.223 C 
HETATM    2  O   UNL     1     -42.077 -54.221  13.965  1.00  0.00    -0.273 OA
HETATM    3  N   UNL     1     -42.188 -52.952  12.086  1.00  0.00    -0.359 N 
HETATM    4  H   UNL     1     -42.709 -52.730  11.245  1.00  0.00     0.162 HD
ENDROOT
BRANCH   1   5
HETATM    5  C   UNL     1     -44.215 -54.111  12.835  1.00  0.00     0.104 A 
HETATM    6  C   UNL     1     -45.050 -52.837  12.891  1.00  0.00     0.140 A 
HETATM    7  N   UNL     1     -46.123 -53.095  13.820  1.00  0.00    -0.352 N 
HETATM    8  C   UNL     1     -45.997 -54.319  14.449  1.00  0.00     0.220 A 
HETATM    9  C   UNL     1     -44.778 -55.024  13.922  1.00  0.00     0.118 A 
HETATM   10  O   UNL     1     -46.719 -54.764  15.327  1.00  0.00    -0.273 OA
BRANCH   7  11
HETATM   11  C   UNL     1     -46.877 -52.007  14.426  1.00  0.00     0.121 C 
HETATM   12  C   UNL     1     -46.092 -51.212  15.452  1.00  0.00     0.026 C 
ENDBRANCH   7  11
ENDBRANCH   1   5
BRANCH   3  13
HETATM   13  C   UNL     1     -40.767 -52.638  12.159  1.00  0.00     0.143 C 
BRANCH  13  14
HETATM   14  C   UNL     1     -40.465 -51.283  12.788  1.00  0.00     0.148 C 
BRANCH  14  15
HETATM   15  N   UNL     1     -41.019 -50.189  12.017  1.00  0.00    -0.350 N 
HETATM   16  C   UNL     1     -42.143 -49.472  12.320  1.00  0.00     0.108 A 
HETATM   17  C   UNL     1     -42.255 -48.547  11.309  1.00  0.00     0.106 A 
HETATM   18  N   UNL     1     -41.230 -48.681  10.409  1.00  0.00    -0.361 N 
HETATM   19  C   UNL     1     -40.501 -49.679  10.862  1.00  0.00     0.182 A 
ATOM     20  HN  UNL     1     -41.067 -48.126   9.569  1.00  0.00     0.166 HD
ENDBRANCH  14  15
ENDBRANCH  13  14
ENDBRANCH   3  13
TORSDOF 5
ENDMDL
MODEL 5
REMARK VINA RESULT:      -5.3      2.574      7.397
REMARK  5 active torsions:
REMARK  status: ('A' for Active; 'I' for Inactive)
REMARK    1  A    between atoms: C_2  and  N_3 
REMARK    2  A    between atoms: C_5  and  C_9 
REMARK       I    between atoms: C_9  and  N_11 
REMARK    3  A    between atoms: N_11  and  C_12 
REMARK    4  A    between atoms: C_12  and  C_13 
REMARK    5  A    between atoms: C_13  and  N_14 
ROOT
HETATM    1  C   UNL     1     -42.407 -50.509  12.548  1.00  0.00     0.223 C 
HETATM    2  O   UNL     1     -42.941 -49.974  13.514  1.00  0.00    -0.273 OA
HETATM    3  N   UNL     1     -41.948 -49.764  11.483  1.00  0.00    -0.359 N 
HETATM    4  H   UNL     1     -41.391 -50.211  10.763  1.00  0.00     0.162 HD
ENDROOT
BRANCH   1   5
HETATM    5  C   UNL     1     -42.269 -52.015  12.399  1.00  0.00     0.104 A 
HETATM    6  C   UNL     1     -42.784 -52.734  13.642  1.00  0.00     0.140 A 
HETATM    7  N   UNL     1     -41.753 -53.667  14.028  1.00  0.00    -0.352 N 
HETATM    8  C   UNL     1     -40.607 -53.537  13.266  1.00  0.00     0.220 A 
HETATM    9  C   UNL     1     -40.821 -52.470  12.229  1.00  0.00     0.118 A 
HETATM   10  O   UNL     1     -39.560 -54.146  13.417  1.00  0.00    -0.273 OA
BRANCH   7  11
HETATM   11  C   UNL     1     -41.711 -54.234  15.368  1.00  0.00     0.121 C 
HETATM   12  C   UNL     1     -42.694 -55.368  15.587  1.00  0.00     0.026 C 
ENDBRANCH   7  11
ENDBRANCH   1   5
BRANCH   3  13
HETATM   13  C   UNL     1     -41.998 -48.309  11.559  1.00  0.00     0.143 C 
BRANCH  13  14
HETATM   14  C   UNL     1     -41.957 -47.618  10.202  1.00  0.00     0.148 C 
BRANCH  14  15
HETATM   15  N   UNL     1     -43.246 -47.640   9.540  1.00  0.00    -0.350 N 
HETATM   16  C   UNL     1     -44.465 -47.469  10.135  1.00  0.00     0.108 A 
HETATM   17  C   UNL     1     -45.375 -47.562   9.109  1.00  0.00     0.106 A 
HETATM   18  N   UNL     1     -44.742 -47.780   7.913  1.00  0.00    -0.361 N 
HETATM   19  C   UNL     1     -43.458 -47.822   8.204  1.00  0.00     0.182 A 
ATOM     20  HN  UNL     1     -45.172 -47.885   6.995  1.00  0.00     0.166 HD
ENDBRANCH  14  15
ENDBRANCH  13  14
ENDBRANCH   3  13
TORSDOF 5
ENDMDL
MODEL 6
REMARK VINA RESULT:      -5.3      3.890      7.019
REMARK  5 active torsions:
REMARK  status: ('A' for Active; 'I' for Inactive)
REMARK    1  A    between atoms: C_2  and  N_3 
REMARK    2  A    between atoms: C_5  and  C_9 
REMARK       I    between atoms: C_9  and  N_11 
REMARK    3  A    between atoms: N_11  and  C_12 
REMARK    4  A    between atoms: C_12  and  C_13 
REMARK    5  A    between atoms: C_13  and  N_14 
ROOT
HETATM    1  C   UNL     1     -41.852 -52.678  12.571  1.00  0.00     0.223 C 
HETATM    2  O   UNL     1     -40.659 -52.821  12.821  1.00  0.00    -0.273 OA
HETATM    3  N   UNL     1     -42.350 -51.466  12.145  1.00  0.00    -0.359 N 
HETATM    4  H   UNL     1     -43.307 -51.408  11.815  1.00  0.00     0.162 HD
ENDROOT
BRANCH   1   5
HETATM    5  C   UNL     1     -42.884 -53.775  12.772  1.00  0.00     0.104 A 
HETATM    6  C   UNL     1     -44.290 -53.259  12.486  1.00  0.00     0.140 A 
HETATM    7  N   UNL     1     -45.102 -53.647  13.614  1.00  0.00    -0.352 N 
HETATM    8  C   UNL     1     -44.362 -54.227  14.626  1.00  0.00     0.220 A 
HETATM    9  C   UNL     1     -42.922 -54.308  14.203  1.00  0.00     0.118 A 
HETATM   10  O   UNL     1     -44.777 -54.586  15.717  1.00  0.00    -0.273 OA
BRANCH   7  11
HETATM   11  C   UNL     1     -46.379 -53.001  13.884  1.00  0.00     0.121 C 
HETATM   12  C   UNL     1     -46.299 -51.489  13.958  1.00  0.00     0.026 C 
ENDBRANCH   7  11
ENDBRANCH   1   5
BRANCH   3  13
HETATM   13  C   UNL     1     -41.427 -50.370  11.880  1.00  0.00     0.143 C 
BRANCH  13  14
HETATM   14  C   UNL     1     -41.887 -49.027  12.432  1.00  0.00     0.148 C 
BRANCH  14  15
HETATM   15  N   UNL     1     -42.040 -48.032  11.390  1.00  0.00    -0.350 N 
HETATM   16  C   UNL     1     -43.191 -47.739  10.713  1.00  0.00     0.108 A 
HETATM   17  C   UNL     1     -42.842 -46.734   9.842  1.00  0.00     0.106 A 
HETATM   18  N   UNL     1     -41.518 -46.409   9.977  1.00  0.00    -0.361 N 
HETATM   19  C   UNL     1     -41.060 -47.209  10.918  1.00  0.00     0.182 A 
ATOM     20  HN  UNL     1     -40.998 -45.699   9.460  1.00  0.00     0.166 HD
ENDBRANCH  14  15
ENDBRANCH  13  14
ENDBRANCH   3  13
TORSDOF 5
ENDMDL
MODEL 7
REMARK VINA RESULT:      -5.2      2.935      3.880
REMARK  5 active torsions:
REMARK  status: ('A' for Active; 'I' for Inactive)
REMARK    1  A    between atoms: C_2  and  N_3 
REMARK    2  A    between atoms: C_5  and  C_9 
REMARK       I    between atoms: C_9  and  N_11 
REMARK    3  A    between atoms: N_11  and  C_12 
REMARK    4  A    between atoms: C_12  and  C_13 
REMARK    5  A    between atoms: C_13  and  N_14 
ROOT
HETATM    1  C   UNL     1     -42.208 -49.105  11.880  1.00  0.00     0.223 C 
HETATM    2  O   UNL     1     -42.616 -48.592  12.917  1.00  0.00    -0.273 OA
HETATM    3  N   UNL     1     -42.098 -50.473  11.756  1.00  0.00    -0.359 N 
HETATM    4  H   UNL     1     -41.892 -50.879  10.850  1.00  0.00     0.162 HD
ENDROOT
BRANCH   1   5
HETATM    5  C   UNL     1     -41.730 -48.300  10.683  1.00  0.00     0.104 A 
HETATM    6  C   UNL     1     -40.811 -47.165  11.123  1.00  0.00     0.140 A 
HETATM    7  N   UNL     1     -41.307 -45.971  10.482  1.00  0.00    -0.352 N 
HETATM    8  C   UNL     1     -42.490 -46.186   9.801  1.00  0.00     0.220 A 
HETATM    9  C   UNL     1     -42.868 -47.636   9.912  1.00  0.00     0.118 A 
HETATM   10  O   UNL     1     -43.164 -45.344   9.229  1.00  0.00    -0.273 OA
BRANCH   7  11
HETATM   11  C   UNL     1     -40.941 -44.647  10.966  1.00  0.00     0.121 C 
HETATM   12  C   UNL     1     -39.822 -44.653  11.988  1.00  0.00     0.026 C 
ENDBRANCH   7  11
ENDBRANCH   1   5
BRANCH   3  13
HETATM   13  C   UNL     1     -42.577 -51.327  12.836  1.00  0.00     0.143 C 
BRANCH  13  14
HETATM   14  C   UNL     1     -42.806 -52.776  12.425  1.00  0.00     0.148 C 
BRANCH  14  15
HETATM   15  N   UNL     1     -44.061 -53.293  12.928  1.00  0.00    -0.350 N 
HETATM   16  C   UNL     1     -44.220 -54.366  13.761  1.00  0.00     0.108 A 
HETATM   17  C   UNL     1     -45.576 -54.461  13.962  1.00  0.00     0.106 A 
HETATM   18  N   UNL     1     -46.240 -53.475  13.280  1.00  0.00    -0.361 N 
HETATM   19  C   UNL     1     -45.301 -52.787  12.665  1.00  0.00     0.182 A 
ATOM     20  HN  UNL     1     -47.247 -53.310  13.254  1.00  0.00     0.166 HD
ENDBRANCH  14  15
ENDBRANCH  13  14
ENDBRANCH   3  13
TORSDOF 5
ENDMDL
MODEL 8
REMARK VINA RESULT:      -5.1      3.262      6.880
REMARK  5 active torsions:
REMARK  status: ('A' for Active; 'I' for Inactive)
REMARK    1  A    between atoms: C_2  and  N_3 
REMARK    2  A    between atoms: C_5  and  C_9 
REMARK       I    between atoms: C_9  and  N_11 
REMARK    3  A    between atoms: N_11  and  C_12 
REMARK    4  A    between atoms: C_12  and  C_13 
REMARK    5  A    between atoms: C_13  and  N_14 
ROOT
HETATM    1  C   UNL     1     -40.478 -52.040  12.264  1.00  0.00     0.223 C 
HETATM    2  O   UNL     1     -39.475 -52.037  12.971  1.00  0.00    -0.273 OA
HETATM    3  N   UNL     1     -40.775 -50.975  11.442  1.00  0.00    -0.359 N 
HETATM    4  H   UNL     1     -41.528 -51.057  10.769  1.00  0.00     0.162 HD
ENDROOT
BRANCH   1   5
HETATM    5  C   UNL     1     -41.504 -53.161  12.278  1.00  0.00     0.104 A 
HETATM    6  C   UNL     1     -42.910 -52.609  12.487  1.00  0.00     0.140 A 
HETATM    7  N   UNL     1     -43.498 -53.387  13.550  1.00  0.00    -0.352 N 
HETATM    8  C   UNL     1     -42.601 -54.270  14.120  1.00  0.00     0.220 A 
HETATM    9  C   UNL     1     -41.282 -54.165  13.407  1.00  0.00     0.118 A 
HETATM   10  O   UNL     1     -42.806 -54.999  15.078  1.00  0.00    -0.273 OA
BRANCH   7  11
HETATM   11  C   UNL     1     -44.659 -52.907  14.286  1.00  0.00     0.121 C 
HETATM   12  C   UNL     1     -45.589 -52.035  13.466  1.00  0.00     0.026 C 
ENDBRANCH   7  11
ENDBRANCH   1   5
BRANCH   3  13
HETATM   13  C   UNL     1     -39.823 -49.876  11.330  1.00  0.00     0.143 C 
BRANCH  13  14
HETATM   14  C   UNL     1     -40.226 -48.628  12.106  1.00  0.00     0.148 C 
BRANCH  14  15
HETATM   15  N   UNL     1     -40.856 -47.638  11.256  1.00  0.00    -0.350 N 
HETATM   16  C   UNL     1     -42.109 -47.716  10.713  1.00  0.00     0.108 A 
HETATM   17  C   UNL     1     -42.258 -46.550  10.002  1.00  0.00     0.106 A 
HETATM   18  N   UNL     1     -41.137 -45.769  10.103  1.00  0.00    -0.361 N 
HETATM   19  C   UNL     1     -40.308 -46.451  10.865  1.00  0.00     0.182 A 
ATOM     20  HN  UNL     1     -40.978 -44.854   9.679  1.00  0.00     0.166 HD
ENDBRANCH  14  15
ENDBRANCH  13  14
ENDBRANCH   3  13
TORSDOF 5
ENDMDL
MODEL 9
REMARK VINA RESULT:      -4.8      5.253      8.635
REMARK  5 active torsions:
REMARK  status: ('A' for Active; 'I' for Inactive)
REMARK    1  A    between atoms: C_2  and  N_3 
REMARK    2  A    between atoms: C_5  and  C_9 
REMARK       I    between atoms: C_9  and  N_11 
REMARK    3  A    between atoms: N_11  and  C_12 
REMARK    4  A    between atoms: C_12  and  C_13 
REMARK    5  A    between atoms: C_13  and  N_14 
ROOT
HETATM    1  C   UNL     1     -43.896 -54.203  15.585  1.00  0.00     0.223 C 
HETATM    2  O   UNL     1     -45.062 -54.585  15.565  1.00  0.00    -0.273 OA
HETATM    3  N   UNL     1     -43.548 -53.003  16.166  1.00  0.00    -0.359 N 
HETATM    4  H   UNL     1     -42.568 -52.775  16.292  1.00  0.00     0.162 HD
ENDROOT
BRANCH   1   5
HETATM    5  C   UNL     1     -42.759 -54.964  14.924  1.00  0.00     0.104 A 
HETATM    6  C   UNL     1     -41.586 -55.131  15.884  1.00  0.00     0.140 A 
HETATM    7  N   UNL     1     -40.409 -54.707  15.164  1.00  0.00    -0.352 N 
HETATM    8  C   UNL     1     -40.708 -54.177  13.924  1.00  0.00     0.220 A 
HETATM    9  C   UNL     1     -42.192 -54.252  13.698  1.00  0.00     0.118 A 
HETATM   10  O   UNL     1     -39.920 -53.680  13.135  1.00  0.00    -0.273 OA
BRANCH   7  11
HETATM   11  C   UNL     1     -39.183 -54.351  15.864  1.00  0.00     0.121 C 
HETATM   12  C   UNL     1     -38.269 -55.529  16.141  1.00  0.00     0.026 C 
ENDBRANCH   7  11
ENDBRANCH   1   5
BRANCH   3  13
HETATM   13  C   UNL     1     -44.566 -52.229  16.864  1.00  0.00     0.143 C 
BRANCH  13  14
HETATM   14  C   UNL     1     -44.937 -50.925  16.168  1.00  0.00     0.148 C 
BRANCH  14  15
HETATM   15  N   UNL     1     -45.390 -51.143  14.809  1.00  0.00    -0.350 N 
HETATM   16  C   UNL     1     -46.641 -51.539  14.425  1.00  0.00     0.108 A 
HETATM   17  C   UNL     1     -46.588 -51.597  13.053  1.00  0.00     0.106 A 
HETATM   18  N   UNL     1     -45.345 -51.245  12.597  1.00  0.00    -0.361 N 
HETATM   19  C   UNL     1     -44.643 -50.977  13.678  1.00  0.00     0.182 A 
ATOM     20  HN  UNL     1     -45.031 -51.199  11.628  1.00  0.00     0.166 HD
ENDBRANCH  14  15
ENDBRANCH  13  14
ENDBRANCH   3  13
TORSDOF 5
ENDMDL
