MODEL 1
REMARK VINA RESULT:      -6.2      0.000      0.000
REMARK  4 active torsions:
REMARK  status: ('A' for Active; 'I' for Inactive)
REMARK       I    between atoms: C_2  and  N_3 
REMARK       I    between atoms: C_2  and  N_13 
REMARK    1  A    between atoms: N_3  and  C_4 
REMARK    2  A    between atoms: N_7  and  C_10 
REMARK    3  A    between atoms: N_13  and  C_14 
REMARK    4  A    between atoms: C_18  and  C_22 
ROOT
HETATM    1  O   UNL     1     -41.200 -51.170  13.277  1.00  0.00    -0.247 OA
HETATM    2  C   UNL     1     -41.017 -51.553  12.127  1.00  0.00     0.321 C 
HETATM    3  N   UNL     1     -40.992 -52.892  11.792  1.00  0.00    -0.338 N 
HETATM    4  N   UNL     1     -40.754 -50.739  11.049  1.00  0.00    -0.306 N 
HETATM    5  H   UNL     1     -41.220 -53.148  10.844  1.00  0.00     0.164 HD
HETATM    6  H   UNL     1     -40.527 -51.198  10.181  1.00  0.00     0.171 HD
ENDROOT
BRANCH   3   7
HETATM    7  C   UNL     1     -41.151 -53.908  12.839  1.00  0.00     0.089 C 
HETATM    8  C   UNL     1     -42.593 -53.954  13.354  1.00  0.00     0.055 C 
HETATM    9  C   UNL     1     -42.776 -53.385  14.753  1.00  0.00     0.275 C 
HETATM   10  N   UNL     1     -41.811 -53.936  15.707  1.00  0.00     0.093 N 
HETATM   11  C   UNL     1     -40.467 -53.491  15.334  1.00  0.00     0.275 C 
HETATM   12  C   UNL     1     -40.038 -53.834  13.904  1.00  0.00     0.055 C 
BRANCH  10  13
HETATM   13  C   UNL     1     -41.928 -55.397  15.892  1.00  0.00     0.223 A 
HETATM   14  C   UNL     1     -42.264 -55.937  17.259  1.00  0.00     0.038 A 
HETATM   15  C   UNL     1     -40.894 -56.143  16.690  1.00  0.00     0.038 A 
ENDBRANCH  10  13
ENDBRANCH   3   7
BRANCH   4  16
HETATM   16  C   UNL     1     -40.632 -49.330  11.091  1.00  0.00     0.067 A 
HETATM   17  C   UNL     1     -39.657 -48.617  11.754  1.00  0.00     0.120 A 
HETATM   18  N   UNL     1     -39.563 -47.266  11.746  1.00  0.00    -0.353 N 
HETATM   19  C   UNL     1     -40.483 -46.577  11.040  1.00  0.00     0.085 A 
ATOM     20  HN  UNL     1     -38.823 -46.785  12.257  1.00  0.00     0.166 HD
HETATM   21  N   UNL     1     -41.490 -47.182  10.375  1.00  0.00    -0.353 N 
HETATM   22  C   UNL     1     -41.534 -48.533  10.414  1.00  0.00     0.120 A 
ATOM     23  HN  UNL     1     -42.188 -46.642   9.864  1.00  0.00     0.166 HD
BRANCH  19  24
HETATM   24  C   UNL     1     -40.369 -45.071  11.017  1.00  0.00     0.053 A 
HETATM   25  C   UNL     1     -39.668 -44.310  12.119  1.00  0.00     0.013 A 
HETATM   26  C   UNL     1     -41.164 -44.261  12.020  1.00  0.00     0.013 A 
ENDBRANCH  19  24
ENDBRANCH   4  16
TORSDOF 4
ENDMDL
MODEL 2
REMARK VINA RESULT:      -6.1      2.922      3.628
REMARK  4 active torsions:
REMARK  status: ('A' for Active; 'I' for Inactive)
REMARK       I    between atoms: C_2  and  N_3 
REMARK       I    between atoms: C_2  and  N_13 
REMARK    1  A    between atoms: N_3  and  C_4 
REMARK    2  A    between atoms: N_7  and  C_10 
REMARK    3  A    between atoms: N_13  and  C_14 
REMARK    4  A    between atoms: C_18  and  C_22 
ROOT
HETATM    1  O   UNL     1     -43.272 -49.208  14.370  1.00  0.00    -0.247 OA
HETATM    2  C   UNL     1     -43.592 -49.905  13.414  1.00  0.00     0.321 C 
HETATM    3  N   UNL     1     -44.199 -51.135  13.569  1.00  0.00    -0.338 N 
HETATM    4  N   UNL     1     -43.345 -49.607  12.093  1.00  0.00    -0.306 N 
HETATM    5  H   UNL     1     -44.769 -51.482  12.813  1.00  0.00     0.164 HD
HETATM    6  H   UNL     1     -43.577 -50.319  11.418  1.00  0.00     0.171 HD
ENDROOT
BRANCH   3   7
HETATM    7  C   UNL     1     -44.445 -51.661  14.917  1.00  0.00     0.089 C 
HETATM    8  C   UNL     1     -43.927 -53.096  15.057  1.00  0.00     0.055 C 
HETATM    9  C   UNL     1     -45.021 -54.151  15.124  1.00  0.00     0.275 C 
HETATM   10  N   UNL     1     -46.053 -53.818  16.109  1.00  0.00     0.093 N 
HETATM   11  C   UNL     1     -46.767 -52.620  15.662  1.00  0.00     0.275 C 
HETATM   12  C   UNL     1     -45.886 -51.395  15.398  1.00  0.00     0.055 C 
BRANCH  10  13
HETATM   13  C   UNL     1     -45.546 -53.731  17.493  1.00  0.00     0.223 A 
HETATM   14  C   UNL     1     -46.109 -54.661  18.539  1.00  0.00     0.038 A 
HETATM   15  C   UNL     1     -46.429 -53.198  18.589  1.00  0.00     0.038 A 
ENDBRANCH  10  13
ENDBRANCH   3   7
BRANCH   4  16
HETATM   16  C   UNL     1     -42.665 -48.459  11.620  1.00  0.00     0.067 A 
HETATM   17  C   UNL     1     -41.422 -48.436  11.028  1.00  0.00     0.120 A 
HETATM   18  N   UNL     1     -40.818 -47.315  10.566  1.00  0.00    -0.353 N 
HETATM   19  C   UNL     1     -41.481 -46.147  10.694  1.00  0.00     0.085 A 
ATOM     20  HN  UNL     1     -39.894 -47.352  10.137  1.00  0.00     0.166 HD
HETATM   21  N   UNL     1     -42.694 -46.062  11.280  1.00  0.00    -0.353 N 
HETATM   22  C   UNL     1     -43.252 -47.213  11.719  1.00  0.00     0.120 A 
ATOM     23  HN  UNL     1     -43.170 -45.167  11.386  1.00  0.00     0.166 HD
BRANCH  19  24
HETATM   24  C   UNL     1     -40.816 -44.899  10.165  1.00  0.00     0.053 A 
HETATM   25  C   UNL     1     -39.327 -44.837   9.916  1.00  0.00     0.013 A 
HETATM   26  C   UNL     1     -39.914 -44.103  11.084  1.00  0.00     0.013 A 
ENDBRANCH  19  24
ENDBRANCH   4  16
TORSDOF 4
ENDMDL
MODEL 3
REMARK VINA RESULT:      -5.9      1.591      1.960
REMARK  4 active torsions:
REMARK  status: ('A' for Active; 'I' for Inactive)
REMARK       I    between atoms: C_2  and  N_3 
REMARK       I    between atoms: C_2  and  N_13 
REMARK    1  A    between atoms: N_3  and  C_4 
REMARK    2  A    between atoms: N_7  and  C_10 
REMARK    3  A    between atoms: N_13  and  C_14 
REMARK    4  A    between atoms: C_18  and  C_22 
ROOT
HETATM    1  O   UNL     1     -41.873 -49.765  12.656  1.00  0.00    -0.247 OA
HETATM    2  C   UNL     1     -41.367 -49.937  11.553  1.00  0.00     0.321 C 
HETATM    3  N   UNL     1     -40.896 -51.167  11.142  1.00  0.00    -0.338 N 
HETATM    4  N   UNL     1     -41.143 -48.952  10.618  1.00  0.00    -0.306 N 
HETATM    5  H   UNL     1     -40.851 -51.352  10.151  1.00  0.00     0.164 HD
HETATM    6  H   UNL     1     -40.629 -49.220   9.793  1.00  0.00     0.171 HD
ENDROOT
BRANCH   3   7
HETATM    7  C   UNL     1     -40.959 -52.314  12.056  1.00  0.00     0.089 C 
HETATM    8  C   UNL     1     -42.401 -52.798  12.241  1.00  0.00     0.055 C 
HETATM    9  C   UNL     1     -42.997 -52.478  13.603  1.00  0.00     0.275 C 
HETATM   10  N   UNL     1     -42.116 -52.876  14.703  1.00  0.00     0.093 N 
HETATM   11  C   UNL     1     -40.906 -52.053  14.663  1.00  0.00     0.275 C 
HETATM   12  C   UNL     1     -40.134 -52.088  13.339  1.00  0.00     0.055 C 
BRANCH  10  13
HETATM   13  C   UNL     1     -41.851 -54.328  14.755  1.00  0.00     0.223 A 
HETATM   14  C   UNL     1     -42.484 -55.149  15.850  1.00  0.00     0.038 A 
HETATM   15  C   UNL     1     -41.006 -54.903  15.859  1.00  0.00     0.038 A 
ENDBRANCH  10  13
ENDBRANCH   3   7
BRANCH   4  16
HETATM   16  C   UNL     1     -41.440 -47.577  10.782  1.00  0.00     0.067 A 
HETATM   17  C   UNL     1     -40.531 -46.574  11.037  1.00  0.00     0.120 A 
HETATM   18  N   UNL     1     -40.856 -45.265  11.162  1.00  0.00    -0.353 N 
HETATM   19  C   UNL     1     -42.154 -44.925  11.023  1.00  0.00     0.085 A 
ATOM     20  HN  UNL     1     -40.144 -44.560  11.354  1.00  0.00     0.166 HD
HETATM   21  N   UNL     1     -43.122 -45.837  10.793  1.00  0.00    -0.353 N 
HETATM   22  C   UNL     1     -42.741 -47.129  10.674  1.00  0.00     0.120 A 
ATOM     23  HN  UNL     1     -44.101 -45.562  10.712  1.00  0.00     0.166 HD
BRANCH  19  24
HETATM   24  C   UNL     1     -42.515 -43.464  11.145  1.00  0.00     0.053 A 
HETATM   25  C   UNL     1     -41.559 -42.456  11.739  1.00  0.00     0.013 A 
HETATM   26  C   UNL     1     -42.765 -42.883  12.521  1.00  0.00     0.013 A 
ENDBRANCH  19  24
ENDBRANCH   4  16
TORSDOF 4
ENDMDL
MODEL 4
REMARK VINA RESULT:      -5.9      5.022      6.716
REMARK  4 active torsions:
REMARK  status: ('A' for Active; 'I' for Inactive)
REMARK       I    between atoms: C_2  and  N_3 
REMARK       I    between atoms: C_2  and  N_13 
REMARK    1  A    between atoms: N_3  and  C_4 
REMARK    2  A    between atoms: N_7  and  C_10 
REMARK    3  A    between atoms: N_13  and  C_14 
REMARK    4  A    between atoms: C_18  and  C_22 
ROOT
HETATM    1  O   UNL     1     -39.811 -46.524  13.758  1.00  0.00    -0.247 OA
HETATM    2  C   UNL     1     -39.913 -47.732  13.947  1.00  0.00     0.321 C 
HETATM    3  N   UNL     1     -39.147 -48.398  14.883  1.00  0.00    -0.338 N 
HETATM    4  N   UNL     1     -40.729 -48.582  13.236  1.00  0.00    -0.306 N 
HETATM    5  H   UNL     1     -39.509 -49.259  15.266  1.00  0.00     0.164 HD
HETATM    6  H   UNL     1     -40.637 -49.566  13.434  1.00  0.00     0.171 HD
ENDROOT
BRANCH   3   7
HETATM    7  C   UNL     1     -38.145 -47.663  15.663  1.00  0.00     0.089 C 
HETATM    8  C   UNL     1     -36.729 -48.162  15.360  1.00  0.00     0.055 C 
HETATM    9  C   UNL     1     -36.098 -48.970  16.483  1.00  0.00     0.275 C 
HETATM   10  N   UNL     1     -36.200 -48.293  17.779  1.00  0.00     0.093 N 
HETATM   11  C   UNL     1     -37.610 -48.220  18.166  1.00  0.00     0.275 C 
HETATM   12  C   UNL     1     -38.533 -47.541  17.151  1.00  0.00     0.055 C 
BRANCH  10  13
HETATM   13  C   UNL     1     -35.498 -46.994  17.826  1.00  0.00     0.223 A 
HETATM   14  C   UNL     1     -34.357 -46.814  18.796  1.00  0.00     0.038 A 
HETATM   15  C   UNL     1     -35.652 -46.096  19.024  1.00  0.00     0.038 A 
ENDBRANCH  10  13
ENDBRANCH   3   7
BRANCH   4  16
HETATM   16  C   UNL     1     -41.568 -48.210  12.159  1.00  0.00     0.067 A 
HETATM   17  C   UNL     1     -42.738 -47.487  12.251  1.00  0.00     0.120 A 
HETATM   18  N   UNL     1     -43.499 -47.131  11.189  1.00  0.00    -0.353 N 
HETATM   19  C   UNL     1     -43.080 -47.507   9.963  1.00  0.00     0.085 A 
ATOM     20  HN  UNL     1     -44.359 -46.597  11.311  1.00  0.00     0.166 HD
HETATM   21  N   UNL     1     -41.961 -48.235   9.771  1.00  0.00    -0.353 N 
HETATM   22  C   UNL     1     -41.237 -48.560  10.866  1.00  0.00     0.120 A 
ATOM     23  HN  UNL     1     -41.672 -48.527   8.837  1.00  0.00     0.166 HD
BRANCH  19  24
HETATM   24  C   UNL     1     -43.919 -47.096   8.777  1.00  0.00     0.053 A 
HETATM   25  C   UNL     1     -45.267 -46.433   8.948  1.00  0.00     0.013 A 
HETATM   26  C   UNL     1     -45.195 -47.856   8.482  1.00  0.00     0.013 A 
ENDBRANCH  19  24
ENDBRANCH   4  16
TORSDOF 4
ENDMDL
MODEL 5
REMARK VINA RESULT:      -5.7      6.063      9.134
REMARK  4 active torsions:
REMARK  status: ('A' for Active; 'I' for Inactive)
REMARK       I    between atoms: C_2  and  N_3 
REMARK       I    between atoms: C_2  and  N_13 
REMARK    1  A    between atoms: N_3  and  C_4 
REMARK    2  A    between atoms: N_7  and  C_10 
REMARK    3  A    between atoms: N_13  and  C_14 
REMARK    4  A    between atoms: C_18  and  C_22 
ROOT
HETATM    1  O   UNL     1     -40.286 -54.171  15.999  1.00  0.00    -0.247 OA
HETATM    2  C   UNL     1     -40.853 -55.244  16.176  1.00  0.00     0.321 C 
HETATM    3  N   UNL     1     -42.193 -55.423  15.900  1.00  0.00    -0.338 N 
HETATM    4  N   UNL     1     -40.275 -56.369  16.718  1.00  0.00    -0.306 N 
HETATM    5  H   UNL     1     -42.515 -56.357  15.696  1.00  0.00     0.164 HD
HETATM    6  H   UNL     1     -40.887 -57.150  16.897  1.00  0.00     0.171 HD
ENDROOT
BRANCH   3   7
HETATM    7  C   UNL     1     -42.994 -54.294  15.412  1.00  0.00     0.089 C 
HETATM    8  C   UNL     1     -43.863 -53.706  16.527  1.00  0.00     0.055 C 
HETATM    9  C   UNL     1     -45.347 -54.008  16.389  1.00  0.00     0.275 C 
HETATM   10  N   UNL     1     -45.854 -53.702  15.049  1.00  0.00     0.093 N 
HETATM   11  C   UNL     1     -45.232 -54.614  14.086  1.00  0.00     0.275 C 
HETATM   12  C   UNL     1     -43.700 -54.609  14.077  1.00  0.00     0.055 C 
BRANCH  10  13
HETATM   13  C   UNL     1     -45.738 -52.275  14.683  1.00  0.00     0.223 A 
HETATM   14  C   UNL     1     -46.934 -51.375  14.862  1.00  0.00     0.038 A 
HETATM   15  C   UNL     1     -46.474 -51.741  13.485  1.00  0.00     0.038 A 
ENDBRANCH  10  13
ENDBRANCH   3   7
BRANCH   4  16
HETATM   16  C   UNL     1     -38.940 -56.470  17.178  1.00  0.00     0.067 A 
HETATM   17  C   UNL     1     -38.505 -57.202  18.261  1.00  0.00     0.120 A 
HETATM   18  N   UNL     1     -37.211 -57.291  18.651  1.00  0.00    -0.353 N 
HETATM   19  C   UNL     1     -36.291 -56.621  17.928  1.00  0.00     0.085 A 
ATOM     20  HN  UNL     1     -36.942 -57.845  19.464  1.00  0.00     0.166 HD
HETATM   21  N   UNL     1     -36.618 -55.860  16.863  1.00  0.00    -0.353 N 
HETATM   22  C   UNL     1     -37.924 -55.809  16.515  1.00  0.00     0.120 A 
ATOM     23  HN  UNL     1     -35.910 -55.344  16.341  1.00  0.00     0.166 HD
BRANCH  19  24
HETATM   24  C   UNL     1     -34.846 -56.734  18.352  1.00  0.00     0.053 A 
HETATM   25  C   UNL     1     -33.712 -56.531  17.373  1.00  0.00     0.013 A 
HETATM   26  C   UNL     1     -34.029 -57.912  17.865  1.00  0.00     0.013 A 
ENDBRANCH  19  24
ENDBRANCH   4  16
TORSDOF 4
ENDMDL
MODEL 6
REMARK VINA RESULT:      -5.7      4.737      9.839
REMARK  4 active torsions:
REMARK  status: ('A' for Active; 'I' for Inactive)
REMARK       I    between atoms: C_2  and  N_3 
REMARK       I    between atoms: C_2  and  N_13 
REMARK    1  A    between atoms: N_3  and  C_4 
REMARK    2  A    between atoms: N_7  and  C_10 
REMARK    3  A    between atoms: N_13  and  C_14 
REMARK    4  A    between atoms: C_18  and  C_22 
ROOT
HETATM    1  O   UNL     1     -42.035 -55.677  16.829  1.00  0.00    -0.247 OA
HETATM    2  C   UNL     1     -41.151 -55.247  16.096  1.00  0.00     0.321 C 
HETATM    3  N   UNL     1     -41.414 -54.374  15.060  1.00  0.00    -0.338 N 
HETATM    4  N   UNL     1     -39.824 -55.607  16.154  1.00  0.00    -0.306 N 
HETATM    5  H   UNL     1     -40.668 -53.771  14.747  1.00  0.00     0.164 HD
HETATM    6  H   UNL     1     -39.226 -55.249  15.425  1.00  0.00     0.171 HD
ENDROOT
BRANCH   3   7
HETATM    7  C   UNL     1     -42.796 -53.963  14.785  1.00  0.00     0.089 C 
HETATM    8  C   UNL     1     -43.137 -54.119  13.301  1.00  0.00     0.055 C 
HETATM    9  C   UNL     1     -43.258 -52.804  12.546  1.00  0.00     0.275 C 
HETATM   10  N   UNL     1     -44.127 -51.846  13.233  1.00  0.00     0.093 N 
HETATM   11  C   UNL     1     -43.496 -51.455  14.496  1.00  0.00     0.275 C 
HETATM   12  C   UNL     1     -43.146 -52.610  15.438  1.00  0.00     0.055 C 
BRANCH  10  13
HETATM   13  C   UNL     1     -45.522 -52.311  13.380  1.00  0.00     0.223 A 
HETATM   14  C   UNL     1     -46.609 -51.619  12.597  1.00  0.00     0.038 A 
HETATM   15  C   UNL     1     -46.535 -51.449  14.083  1.00  0.00     0.038 A 
ENDBRANCH  10  13
ENDBRANCH   3   7
BRANCH   4  16
HETATM   16  C   UNL     1     -39.263 -56.545  17.053  1.00  0.00     0.067 A 
HETATM   17  C   UNL     1     -39.760 -57.798  17.336  1.00  0.00     0.120 A 
HETATM   18  N   UNL     1     -39.176 -58.676  18.187  1.00  0.00    -0.353 N 
HETATM   19  C   UNL     1     -38.031 -58.296  18.790  1.00  0.00     0.085 A 
ATOM     20  HN  UNL     1     -39.587 -59.592  18.364  1.00  0.00     0.166 HD
HETATM   21  N   UNL     1     -37.476 -57.082  18.595  1.00  0.00    -0.353 N 
HETATM   22  C   UNL     1     -38.099 -56.246  17.734  1.00  0.00     0.120 A 
ATOM     23  HN  UNL     1     -36.621 -56.806  19.078  1.00  0.00     0.166 HD
BRANCH  19  24
HETATM   24  C   UNL     1     -37.369 -59.280  19.725  1.00  0.00     0.053 A 
HETATM   25  C   UNL     1     -35.968 -59.062  20.248  1.00  0.00     0.013 A 
HETATM   26  C   UNL     1     -36.217 -60.118  19.212  1.00  0.00     0.013 A 
ENDBRANCH  19  24
ENDBRANCH   4  16
TORSDOF 4
ENDMDL
MODEL 7
REMARK VINA RESULT:      -5.6      2.592      9.375
REMARK  4 active torsions:
REMARK  status: ('A' for Active; 'I' for Inactive)
REMARK       I    between atoms: C_2  and  N_3 
REMARK       I    between atoms: C_2  and  N_13 
REMARK    1  A    between atoms: N_3  and  C_4 
REMARK    2  A    between atoms: N_7  and  C_10 
REMARK    3  A    between atoms: N_13  and  C_14 
REMARK    4  A    between atoms: C_18  and  C_22 
ROOT
HETATM    1  O   UNL     1     -40.287 -47.059  12.992  1.00  0.00    -0.247 OA
HETATM    2  C   UNL     1     -41.170 -46.894  12.158  1.00  0.00     0.321 C 
HETATM    3  N   UNL     1     -41.640 -45.641  11.822  1.00  0.00    -0.338 N 
HETATM    4  N   UNL     1     -41.845 -47.899  11.504  1.00  0.00    -0.306 N 
HETATM    5  H   UNL     1     -42.057 -45.519  10.911  1.00  0.00     0.164 HD
HETATM    6  H   UNL     1     -42.615 -47.619  10.917  1.00  0.00     0.171 HD
ENDROOT
BRANCH   3   7
HETATM    7  C   UNL     1     -41.105 -44.455  12.501  1.00  0.00     0.089 C 
HETATM    8  C   UNL     1     -42.098 -43.909  13.531  1.00  0.00     0.055 C 
HETATM    9  C   UNL     1     -42.765 -42.604  13.126  1.00  0.00     0.275 C 
HETATM   10  N   UNL     1     -41.797 -41.600  12.679  1.00  0.00     0.093 N 
HETATM   11  C   UNL     1     -41.174 -42.061  11.436  1.00  0.00     0.275 C 
HETATM   12  C   UNL     1     -40.501 -43.435  11.513  1.00  0.00     0.055 C 
BRANCH  10  13
HETATM   13  C   UNL     1     -40.829 -41.204  13.722  1.00  0.00     0.223 A 
HETATM   14  C   UNL     1     -40.757 -39.758  14.142  1.00  0.00     0.038 A 
HETATM   15  C   UNL     1     -39.632 -40.366  13.363  1.00  0.00     0.038 A 
ENDBRANCH  10  13
ENDBRANCH   3   7
BRANCH   4  16
HETATM   16  C   UNL     1     -41.646 -49.287  11.698  1.00  0.00     0.067 A 
HETATM   17  C   UNL     1     -40.652 -50.054  11.132  1.00  0.00     0.120 A 
HETATM   18  N   UNL     1     -40.484 -51.378  11.366  1.00  0.00    -0.353 N 
HETATM   19  C   UNL     1     -41.346 -51.980  12.211  1.00  0.00     0.085 A 
ATOM     20  HN  UNL     1     -39.731 -51.902  10.919  1.00  0.00     0.166 HD
HETATM   21  N   UNL     1     -42.366 -51.320  12.798  1.00  0.00    -0.353 N 
HETATM   22  C   UNL     1     -42.485 -49.999  12.532  1.00  0.00     0.120 A 
ATOM     23  HN  UNL     1     -43.020 -51.798  13.418  1.00  0.00     0.166 HD
BRANCH  19  24
HETATM   24  C   UNL     1     -41.149 -53.451  12.486  1.00  0.00     0.053 A 
HETATM   25  C   UNL     1     -41.777 -54.128  13.683  1.00  0.00     0.013 A 
HETATM   26  C   UNL     1     -40.300 -53.869  13.668  1.00  0.00     0.013 A 
ENDBRANCH  19  24
ENDBRANCH   4  16
TORSDOF 4
ENDMDL
MODEL 8
REMARK VINA RESULT:      -5.6      1.636      8.511
REMARK  4 active torsions:
REMARK  status: ('A' for Active; 'I' for Inactive)
REMARK       I    between atoms: C_2  and  N_3 
REMARK       I    between atoms: C_2  and  N_13 
REMARK    1  A    between atoms: N_3  and  C_4 
REMARK    2  A    between atoms: N_7  and  C_10 
REMARK    3  A    between atoms: N_13  and  C_14 
REMARK    4  A    between atoms: C_18  and  C_22 
ROOT
HETATM    1  O   UNL     1     -41.466 -48.897  12.630  1.00  0.00    -0.247 OA
HETATM    2  C   UNL     1     -41.263 -49.400  11.531  1.00  0.00     0.321 C 
HETATM    3  N   UNL     1     -41.198 -48.646  10.376  1.00  0.00    -0.338 N 
HETATM    4  N   UNL     1     -41.137 -50.748  11.283  1.00  0.00    -0.306 N 
HETATM    5  H   UNL     1     -40.672 -49.013   9.598  1.00  0.00     0.164 HD
HETATM    6  H   UNL     1     -41.071 -51.025  10.316  1.00  0.00     0.171 HD
ENDROOT
BRANCH   3   7
HETATM    7  C   UNL     1     -41.414 -47.195  10.440  1.00  0.00     0.089 C 
HETATM    8  C   UNL     1     -40.148 -46.465  10.898  1.00  0.00     0.055 C 
HETATM    9  C   UNL     1     -40.224 -45.908  12.311  1.00  0.00     0.275 C 
HETATM   10  N   UNL     1     -41.445 -45.130  12.537  1.00  0.00     0.093 N 
HETATM   11  C   UNL     1     -42.599 -46.028  12.465  1.00  0.00     0.275 C 
HETATM   12  C   UNL     1     -42.725 -46.829  11.165  1.00  0.00     0.055 C 
BRANCH  10  13
HETATM   13  C   UNL     1     -41.558 -43.939  11.670  1.00  0.00     0.223 A 
HETATM   14  C   UNL     1     -41.520 -42.570  12.300  1.00  0.00     0.038 A 
HETATM   15  C   UNL     1     -42.797 -43.088  11.714  1.00  0.00     0.038 A 
ENDBRANCH  10  13
ENDBRANCH   3   7
BRANCH   4  16
HETATM   16  C   UNL     1     -41.242 -51.777  12.249  1.00  0.00     0.067 A 
HETATM   17  C   UNL     1     -42.353 -52.553  12.494  1.00  0.00     0.120 A 
HETATM   18  N   UNL     1     -42.402 -53.546  13.414  1.00  0.00    -0.353 N 
HETATM   19  C   UNL     1     -41.286 -53.791  14.132  1.00  0.00     0.085 A 
ATOM     20  HN  UNL     1     -43.252 -54.091  13.558  1.00  0.00     0.166 HD
HETATM   21  N   UNL     1     -40.154 -53.072  13.981  1.00  0.00    -0.353 N 
HETATM   22  C   UNL     1     -40.160 -52.094  13.047  1.00  0.00     0.120 A 
ATOM     23  HN  UNL     1     -39.328 -53.259  14.549  1.00  0.00     0.166 HD
BRANCH  19  24
HETATM   24  C   UNL     1     -41.334 -54.909  15.145  1.00  0.00     0.053 A 
HETATM   25  C   UNL     1     -42.644 -55.474  15.645  1.00  0.00     0.013 A 
HETATM   26  C   UNL     1     -41.818 -54.607  16.548  1.00  0.00     0.013 A 
ENDBRANCH  19  24
ENDBRANCH   4  16
TORSDOF 4
ENDMDL
MODEL 9
REMARK VINA RESULT:      -5.5      1.604      2.346
REMARK  4 active torsions:
REMARK  status: ('A' for Active; 'I' for Inactive)
REMARK       I    between atoms: C_2  and  N_3 
REMARK       I    between atoms: C_2  and  N_13 
REMARK    1  A    between atoms: N_3  and  C_4 
REMARK    2  A    between atoms: N_7  and  C_10 
REMARK    3  A    between atoms: N_13  and  C_14 
REMARK    4  A    between atoms: C_18  and  C_22 
ROOT
HETATM    1  O   UNL     1     -41.727 -48.954  13.475  1.00  0.00    -0.247 OA
HETATM    2  C   UNL     1     -40.761 -49.347  12.832  1.00  0.00     0.321 C 
HETATM    3  N   UNL     1     -40.349 -50.665  12.852  1.00  0.00    -0.338 N 
HETATM    4  N   UNL     1     -39.934 -48.552  12.071  1.00  0.00    -0.306 N 
HETATM    5  H   UNL     1     -39.831 -51.012  12.060  1.00  0.00     0.164 HD
HETATM    6  H   UNL     1     -39.119 -48.995  11.676  1.00  0.00     0.171 HD
ENDROOT
BRANCH   3   7
HETATM    7  C   UNL     1     -41.055 -51.636  13.696  1.00  0.00     0.089 C 
HETATM    8  C   UNL     1     -40.247 -51.972  14.953  1.00  0.00     0.055 C 
HETATM    9  C   UNL     1     -39.634 -53.364  14.947  1.00  0.00     0.275 C 
HETATM   10  N   UNL     1     -40.611 -54.400  14.604  1.00  0.00     0.093 N 
HETATM   11  C   UNL     1     -41.033 -54.211  13.214  1.00  0.00     0.275 C 
HETATM   12  C   UNL     1     -41.604 -52.828  12.886  1.00  0.00     0.055 C 
BRANCH  10  13
HETATM   13  C   UNL     1     -41.731 -54.499  15.561  1.00  0.00     0.223 A 
HETATM   14  C   UNL     1     -41.984 -55.813  16.256  1.00  0.00     0.038 A 
HETATM   15  C   UNL     1     -42.946 -55.319  15.220  1.00  0.00     0.038 A 
ENDBRANCH  10  13
ENDBRANCH   3   7
BRANCH   4  16
HETATM   16  C   UNL     1     -40.048 -47.149  11.922  1.00  0.00     0.067 A 
HETATM   17  C   UNL     1     -39.588 -46.197  12.804  1.00  0.00     0.120 A 
HETATM   18  N   UNL     1     -39.697 -44.861  12.609  1.00  0.00    -0.353 N 
HETATM   19  C   UNL     1     -40.292 -44.439  11.474  1.00  0.00     0.085 A 
ATOM     20  HN  UNL     1     -39.342 -44.196  13.296  1.00  0.00     0.166 HD
HETATM   21  N   UNL     1     -40.795 -45.294  10.558  1.00  0.00    -0.353 N 
HETATM   22  C   UNL     1     -40.656 -46.617  10.802  1.00  0.00     0.120 A 
ATOM     23  HN  UNL     1     -41.260 -44.955   9.716  1.00  0.00     0.166 HD
BRANCH  19  24
HETATM   24  C   UNL     1     -40.399 -42.951  11.247  1.00  0.00     0.053 A 
HETATM   25  C   UNL     1     -40.334 -41.965  12.392  1.00  0.00     0.013 A 
HETATM   26  C   UNL     1     -41.645 -42.226  11.711  1.00  0.00     0.013 A 
ENDBRANCH  19  24
ENDBRANCH   4  16
TORSDOF 4
ENDMDL
