MODEL 1
REMARK VINA RESULT:      -5.8      0.000      0.000
REMARK  6 active torsions:
REMARK  status: ('A' for Active; 'I' for Inactive)
REMARK    1  A    between atoms: C_7  and  C_8 
REMARK    2  A    between atoms: C_8  and  N_9 
REMARK    3  A    between atoms: N_9  and  C_10 
REMARK    4  A    between atoms: C_10  and  C_11 
REMARK    5  A    between atoms: C_11  and  O_12 
REMARK    6  A    between atoms: C_11  and  C_13 
ROOT
HETATM    1  C   UNL     1     -42.132 -52.330  12.733  1.00  0.00     0.306 C 
ENDROOT
BRANCH   1   2
HETATM    2  N   UNL     1     -43.160 -52.675  11.744  1.00  0.00     0.086 N 
HETATM    3  H   UNL     1     -43.554 -51.813  11.364  1.00  0.00     0.316 HD
BRANCH   2   4
HETATM    4  C   UNL     1     -44.198 -53.524  12.321  1.00  0.00     0.274 C 
BRANCH   4   5
HETATM    5  C   UNL     1     -44.849 -52.866  13.554  1.00  0.00     0.017 C 
HETATM    6  C   UNL     1     -45.210 -53.855  14.697  1.00  0.00    -0.013 C 
HETATM    7  C   UNL     1     -46.084 -55.031  14.241  1.00  0.00     0.010 C 
HETATM    8  C   UNL     1     -45.868 -53.099  15.862  1.00  0.00     0.005 C 
HETATM    9  C   UNL     1     -47.076 -52.274  15.430  1.00  0.00     0.000 C 
HETATM   10  C   UNL     1     -46.729 -51.322  14.293  1.00  0.00     0.000 C 
HETATM   11  C   UNL     1     -46.075 -52.042  13.116  1.00  0.00     0.007 C 
ENDBRANCH   4   5
ENDBRANCH   2   4
ENDBRANCH   1   2
BRANCH   1  12
HETATM   12  C   UNL     1     -40.847 -53.178  12.525  1.00  0.00     0.179 C 
BRANCH  12  13
HETATM   13  O   UNL     1     -39.764 -52.317  12.146  1.00  0.00    -0.389 OA
HETATM   14  H   UNL     1     -40.154 -51.565  11.668  1.00  0.00     0.210 HD
ENDBRANCH  12  13
BRANCH  12  15
HETATM   15  C   UNL     1     -40.497 -53.974  13.767  1.00  0.00    -0.025 A 
HETATM   16  C   UNL     1     -41.503 -54.307  14.686  1.00  0.00     0.027 A 
HETATM   17  C   UNL     1     -41.163 -55.000  15.836  1.00  0.00     0.088 A 
HETATM   18  N   UNL     1     -39.910 -55.399  16.127  1.00  0.00    -0.375 N 
HETATM   19  C   UNL     1     -38.958 -55.105  15.216  1.00  0.00     0.088 A 
ATOM     20  HN  UNL     1     -39.692 -55.897  16.991  1.00  0.00     0.164 HD
HETATM   21  C   UNL     1     -39.196 -54.410  14.042  1.00  0.00     0.027 A 
ENDBRANCH  12  15
ENDBRANCH   1  12
TORSDOF 6
ENDMDL
MODEL 2
REMARK VINA RESULT:      -5.8      2.240      3.594
REMARK  6 active torsions:
REMARK  status: ('A' for Active; 'I' for Inactive)
REMARK    1  A    between atoms: C_7  and  C_8 
REMARK    2  A    between atoms: C_8  and  N_9 
REMARK    3  A    between atoms: N_9  and  C_10 
REMARK    4  A    between atoms: C_10  and  C_11 
REMARK    5  A    between atoms: C_11  and  O_12 
REMARK    6  A    between atoms: C_11  and  C_13 
ROOT
HETATM    1  C   UNL     1     -41.934 -52.664  13.286  1.00  0.00     0.306 C 
ENDROOT
BRANCH   1   2
HETATM    2  N   UNL     1     -42.747 -53.706  12.648  1.00  0.00     0.086 N 
HETATM    3  H   UNL     1     -42.267 -54.032  11.809  1.00  0.00     0.316 HD
BRANCH   2   4
HETATM    4  C   UNL     1     -44.091 -53.225  12.338  1.00  0.00     0.274 C 
BRANCH   4   5
HETATM    5  C   UNL     1     -44.810 -52.699  13.597  1.00  0.00     0.017 C 
HETATM    6  C   UNL     1     -45.124 -53.786  14.661  1.00  0.00    -0.013 C 
HETATM    7  C   UNL     1     -45.906 -54.984  14.105  1.00  0.00     0.010 C 
HETATM    8  C   UNL     1     -45.856 -53.159  15.858  1.00  0.00     0.005 C 
HETATM    9  C   UNL     1     -47.109 -52.389  15.453  1.00  0.00     0.000 C 
HETATM   10  C   UNL     1     -46.806 -51.339  14.392  1.00  0.00     0.000 C 
HETATM   11  C   UNL     1     -46.081 -51.931  13.185  1.00  0.00     0.007 C 
ENDBRANCH   4   5
ENDBRANCH   2   4
ENDBRANCH   1   2
BRANCH   1  12
HETATM   12  C   UNL     1     -40.546 -52.538  12.601  1.00  0.00     0.179 C 
BRANCH  12  13
HETATM   13  O   UNL     1     -40.490 -53.422  11.472  1.00  0.00    -0.389 OA
HETATM   14  H   UNL     1     -39.727 -54.008  11.608  1.00  0.00     0.210 HD
ENDBRANCH  12  13
BRANCH  12  15
HETATM   15  C   UNL     1     -40.255 -51.110  12.187  1.00  0.00    -0.025 A 
HETATM   16  C   UNL     1     -41.304 -50.281  11.766  1.00  0.00     0.027 A 
HETATM   17  C   UNL     1     -41.020 -48.990  11.352  1.00  0.00     0.088 A 
HETATM   18  N   UNL     1     -39.780 -48.462  11.344  1.00  0.00    -0.375 N 
HETATM   19  C   UNL     1     -38.784 -49.258  11.787  1.00  0.00     0.088 A 
ATOM     20  HN  UNL     1     -39.604 -47.511  11.020  1.00  0.00     0.164 HD
HETATM   21  C   UNL     1     -38.966 -50.564  12.213  1.00  0.00     0.027 A 
ENDBRANCH  12  15
ENDBRANCH   1  12
TORSDOF 6
ENDMDL
MODEL 3
REMARK VINA RESULT:      -5.6      1.807      2.331
REMARK  6 active torsions:
REMARK  status: ('A' for Active; 'I' for Inactive)
REMARK    1  A    between atoms: C_7  and  C_8 
REMARK    2  A    between atoms: C_8  and  N_9 
REMARK    3  A    between atoms: N_9  and  C_10 
REMARK    4  A    between atoms: C_10  and  C_11 
REMARK    5  A    between atoms: C_11  and  O_12 
REMARK    6  A    between atoms: C_11  and  C_13 
ROOT
HETATM    1  C   UNL     1     -41.453 -51.384  12.480  1.00  0.00     0.306 C 
ENDROOT
BRANCH   1   2
HETATM    2  N   UNL     1     -42.717 -50.648  12.600  1.00  0.00     0.086 N 
HETATM    3  H   UNL     1     -42.717 -49.880  11.927  1.00  0.00     0.316 HD
BRANCH   2   4
HETATM    4  C   UNL     1     -42.928 -50.161  13.961  1.00  0.00     0.274 C 
BRANCH   4   5
HETATM    5  C   UNL     1     -44.395 -50.333  14.404  1.00  0.00     0.017 C 
HETATM    6  C   UNL     1     -44.577 -50.692  15.904  1.00  0.00    -0.013 C 
HETATM    7  C   UNL     1     -43.777 -51.925  16.344  1.00  0.00     0.010 C 
HETATM    8  C   UNL     1     -46.070 -50.858  16.230  1.00  0.00     0.005 C 
HETATM    9  C   UNL     1     -46.770 -51.865  15.321  1.00  0.00     0.000 C 
HETATM   10  C   UNL     1     -46.570 -51.527  13.849  1.00  0.00     0.000 C 
HETATM   11  C   UNL     1     -45.096 -51.357  13.491  1.00  0.00     0.007 C 
ENDBRANCH   4   5
ENDBRANCH   2   4
ENDBRANCH   1   2
BRANCH   1  12
HETATM   12  C   UNL     1     -41.704 -52.879  12.140  1.00  0.00     0.179 C 
BRANCH  12  13
HETATM   13  O   UNL     1     -40.611 -53.379  11.356  1.00  0.00    -0.389 OA
HETATM   14  H   UNL     1     -40.928 -54.180  10.907  1.00  0.00     0.210 HD
ENDBRANCH  12  13
BRANCH  12  15
HETATM   15  C   UNL     1     -41.900 -53.710  13.391  1.00  0.00    -0.025 A 
HETATM   16  C   UNL     1     -43.118 -54.372  13.603  1.00  0.00     0.027 A 
HETATM   17  C   UNL     1     -43.298 -55.097  14.770  1.00  0.00     0.088 A 
HETATM   18  N   UNL     1     -42.357 -55.223  15.726  1.00  0.00    -0.375 N 
HETATM   19  C   UNL     1     -41.176 -54.611  15.493  1.00  0.00     0.088 A 
ATOM     20  HN  UNL     1     -42.528 -55.754  16.580  1.00  0.00     0.164 HD
HETATM   21  C   UNL     1     -40.902 -53.859  14.362  1.00  0.00     0.027 A 
ENDBRANCH  12  15
ENDBRANCH   1  12
TORSDOF 6
ENDMDL
MODEL 4
REMARK VINA RESULT:      -5.5      3.799      5.753
REMARK  6 active torsions:
REMARK  status: ('A' for Active; 'I' for Inactive)
REMARK    1  A    between atoms: C_7  and  C_8 
REMARK    2  A    between atoms: C_8  and  N_9 
REMARK    3  A    between atoms: N_9  and  C_10 
REMARK    4  A    between atoms: C_10  and  C_11 
REMARK    5  A    between atoms: C_11  and  O_12 
REMARK    6  A    between atoms: C_11  and  C_13 
ROOT
HETATM    1  C   UNL     1     -41.700 -50.166  12.371  1.00  0.00     0.306 C 
ENDROOT
BRANCH   1   2
HETATM    2  N   UNL     1     -41.983 -51.481  11.782  1.00  0.00     0.086 N 
HETATM    3  H   UNL     1     -42.511 -51.349  10.918  1.00  0.00     0.316 HD
BRANCH   2   4
HETATM    4  C   UNL     1     -42.700 -52.345  12.716  1.00  0.00     0.274 C 
BRANCH   4   5
HETATM    5  C   UNL     1     -43.947 -51.646  13.293  1.00  0.00     0.017 C 
HETATM    6  C   UNL     1     -44.018 -51.632  14.845  1.00  0.00    -0.013 C 
HETATM    7  C   UNL     1     -43.889 -53.023  15.479  1.00  0.00     0.010 C 
HETATM    8  C   UNL     1     -45.305 -50.932  15.309  1.00  0.00     0.005 C 
HETATM    9  C   UNL     1     -46.566 -51.533  14.693  1.00  0.00     0.000 C 
HETATM   10  C   UNL     1     -46.486 -51.569  13.172  1.00  0.00     0.000 C 
HETATM   11  C   UNL     1     -45.218 -52.262  12.677  1.00  0.00     0.007 C 
ENDBRANCH   4   5
ENDBRANCH   2   4
ENDBRANCH   1   2
BRANCH   1  12
HETATM   12  C   UNL     1     -40.880 -49.279  11.395  1.00  0.00     0.179 C 
BRANCH  12  13
HETATM   13  O   UNL     1     -40.512 -50.052  10.244  1.00  0.00    -0.389 OA
HETATM   14  H   UNL     1     -41.336 -50.365   9.837  1.00  0.00     0.210 HD
ENDBRANCH  12  13
BRANCH  12  15
HETATM   15  C   UNL     1     -41.649 -48.037  10.991  1.00  0.00    -0.025 A 
HETATM   16  C   UNL     1     -43.037 -48.109  10.801  1.00  0.00     0.027 A 
HETATM   17  C   UNL     1     -43.722 -46.977  10.393  1.00  0.00     0.088 A 
HETATM   18  N   UNL     1     -43.135 -45.783  10.178  1.00  0.00    -0.375 N 
HETATM   19  C   UNL     1     -41.805 -45.718  10.401  1.00  0.00     0.088 A 
ATOM     20  HN  UNL     1     -43.668 -44.971   9.865  1.00  0.00     0.164 HD
HETATM   21  C   UNL     1     -41.032 -46.795  10.802  1.00  0.00     0.027 A 
ENDBRANCH  12  15
ENDBRANCH   1  12
TORSDOF 6
ENDMDL
MODEL 5
REMARK VINA RESULT:      -5.5      3.928      6.059
REMARK  6 active torsions:
REMARK  status: ('A' for Active; 'I' for Inactive)
REMARK    1  A    between atoms: C_7  and  C_8 
REMARK    2  A    between atoms: C_8  and  N_9 
REMARK    3  A    between atoms: N_9  and  C_10 
REMARK    4  A    between atoms: C_10  and  C_11 
REMARK    5  A    between atoms: C_11  and  O_12 
REMARK    6  A    between atoms: C_11  and  C_13 
ROOT
HETATM    1  C   UNL     1     -41.761 -50.016  12.283  1.00  0.00     0.306 C 
ENDROOT
BRANCH   1   2
HETATM    2  N   UNL     1     -42.056 -51.363  11.781  1.00  0.00     0.086 N 
HETATM    3  H   UNL     1     -42.834 -51.307  11.122  1.00  0.00     0.316 HD
BRANCH   2   4
HETATM    4  C   UNL     1     -42.349 -52.291  12.870  1.00  0.00     0.274 C 
BRANCH   4   5
HETATM    5  C   UNL     1     -43.832 -52.710  12.875  1.00  0.00     0.017 C 
HETATM    6  C   UNL     1     -44.813 -51.599  13.341  1.00  0.00    -0.013 C 
HETATM    7  C   UNL     1     -44.461 -51.000  14.709  1.00  0.00     0.010 C 
HETATM    8  C   UNL     1     -46.256 -52.129  13.327  1.00  0.00     0.005 C 
HETATM    9  C   UNL     1     -46.429 -53.409  14.139  1.00  0.00     0.000 C 
HETATM   10  C   UNL     1     -45.450 -54.490  13.699  1.00  0.00     0.000 C 
HETATM   11  C   UNL     1     -44.005 -53.997  13.705  1.00  0.00     0.007 C 
ENDBRANCH   4   5
ENDBRANCH   2   4
ENDBRANCH   1   2
BRANCH   1  12
HETATM   12  C   UNL     1     -40.789 -49.263  11.333  1.00  0.00     0.179 C 
BRANCH  12  13
HETATM   13  O   UNL     1     -40.457 -50.110  10.224  1.00  0.00    -0.389 OA
HETATM   14  H   UNL     1     -41.222 -50.689  10.070  1.00  0.00     0.210 HD
ENDBRANCH  12  13
BRANCH  12  15
HETATM   15  C   UNL     1     -41.378 -47.951  10.858  1.00  0.00    -0.025 A 
HETATM   16  C   UNL     1     -40.638 -46.768  10.990  1.00  0.00     0.027 A 
HETATM   17  C   UNL     1     -41.204 -45.569  10.587  1.00  0.00     0.088 A 
HETATM   18  N   UNL     1     -42.436 -45.465  10.051  1.00  0.00    -0.375 N 
HETATM   19  C   UNL     1     -43.123 -46.617   9.895  1.00  0.00     0.088 A 
ATOM     20  HN  UNL     1     -42.828 -44.564   9.778  1.00  0.00     0.164 HD
HETATM   21  C   UNL     1     -42.647 -47.862  10.273  1.00  0.00     0.027 A 
ENDBRANCH  12  15
ENDBRANCH   1  12
TORSDOF 6
ENDMDL
MODEL 6
REMARK VINA RESULT:      -5.4      2.356      4.035
REMARK  6 active torsions:
REMARK  status: ('A' for Active; 'I' for Inactive)
REMARK    1  A    between atoms: C_7  and  C_8 
REMARK    2  A    between atoms: C_8  and  N_9 
REMARK    3  A    between atoms: N_9  and  C_10 
REMARK    4  A    between atoms: C_10  and  C_11 
REMARK    5  A    between atoms: C_11  and  O_12 
REMARK    6  A    between atoms: C_11  and  C_13 
ROOT
HETATM    1  C   UNL     1     -41.742 -52.682  13.554  1.00  0.00     0.306 C 
ENDROOT
BRANCH   1   2
HETATM    2  N   UNL     1     -42.699 -53.631  12.973  1.00  0.00     0.086 N 
HETATM    3  H   UNL     1     -42.188 -54.313  12.410  1.00  0.00     0.316 HD
BRANCH   2   4
HETATM    4  C   UNL     1     -43.720 -52.949  12.182  1.00  0.00     0.274 C 
BRANCH   4   5
HETATM    5  C   UNL     1     -45.065 -52.877  12.933  1.00  0.00     0.017 C 
HETATM    6  C   UNL     1     -45.484 -51.445  13.367  1.00  0.00    -0.013 C 
HETATM    7  C   UNL     1     -44.415 -50.713  14.189  1.00  0.00     0.010 C 
HETATM    8  C   UNL     1     -46.822 -51.492  14.122  1.00  0.00     0.005 C 
HETATM    9  C   UNL     1     -46.806 -52.457  15.304  1.00  0.00     0.000 C 
HETATM   10  C   UNL     1     -46.371 -53.855  14.883  1.00  0.00     0.000 C 
HETATM   11  C   UNL     1     -45.041 -53.844  14.132  1.00  0.00     0.007 C 
ENDBRANCH   4   5
ENDBRANCH   2   4
ENDBRANCH   1   2
BRANCH   1  12
HETATM   12  C   UNL     1     -40.434 -52.621  12.719  1.00  0.00     0.179 C 
BRANCH  12  13
HETATM   13  O   UNL     1     -40.539 -53.519  11.605  1.00  0.00    -0.389 OA
HETATM   14  H   UNL     1     -40.367 -54.413  11.944  1.00  0.00     0.210 HD
ENDBRANCH  12  13
BRANCH  12  15
HETATM   15  C   UNL     1     -40.136 -51.210  12.253  1.00  0.00    -0.025 A 
HETATM   16  C   UNL     1     -38.813 -50.745  12.247  1.00  0.00     0.027 A 
HETATM   17  C   UNL     1     -38.558 -49.441  11.856  1.00  0.00     0.088 A 
HETATM   18  N   UNL     1     -39.514 -48.578  11.458  1.00  0.00    -0.375 N 
HETATM   19  C   UNL     1     -40.778 -49.050  11.433  1.00  0.00     0.088 A 
ATOM     20  HN  UNL     1     -39.293 -47.619  11.189  1.00  0.00     0.164 HD
HETATM   21  C   UNL     1     -41.135 -50.334  11.811  1.00  0.00     0.027 A 
ENDBRANCH  12  15
ENDBRANCH   1  12
TORSDOF 6
ENDMDL
MODEL 7
REMARK VINA RESULT:      -5.2      5.386      8.665
REMARK  6 active torsions:
REMARK  status: ('A' for Active; 'I' for Inactive)
REMARK    1  A    between atoms: C_7  and  C_8 
REMARK    2  A    between atoms: C_8  and  N_9 
REMARK    3  A    between atoms: N_9  and  C_10 
REMARK    4  A    between atoms: C_10  and  C_11 
REMARK    5  A    between atoms: C_11  and  O_12 
REMARK    6  A    between atoms: C_11  and  C_13 
ROOT
HETATM    1  C   UNL     1     -42.299 -47.030  11.419  1.00  0.00     0.306 C 
ENDROOT
BRANCH   1   2
HETATM    2  N   UNL     1     -41.492 -48.184  11.004  1.00  0.00     0.086 N 
HETATM    3  H   UNL     1     -41.900 -49.032  11.401  1.00  0.00     0.316 HD
BRANCH   2   4
HETATM    4  C   UNL     1     -40.094 -48.032  11.399  1.00  0.00     0.274 C 
BRANCH   4   5
HETATM    5  C   UNL     1     -39.713 -49.014  12.525  1.00  0.00     0.017 C 
HETATM    6  C   UNL     1     -38.190 -49.301  12.640  1.00  0.00    -0.013 C 
HETATM    7  C   UNL     1     -37.552 -49.776  11.328  1.00  0.00     0.010 C 
HETATM    8  C   UNL     1     -37.926 -50.303  13.775  1.00  0.00     0.005 C 
HETATM    9  C   UNL     1     -38.733 -51.591  13.633  1.00  0.00     0.000 C 
HETATM   10  C   UNL     1     -40.223 -51.308  13.495  1.00  0.00     0.000 C 
HETATM   11  C   UNL     1     -40.521 -50.317  12.372  1.00  0.00     0.007 C 
ENDBRANCH   4   5
ENDBRANCH   2   4
ENDBRANCH   1   2
BRANCH   1  12
HETATM   12  C   UNL     1     -42.813 -46.233  10.189  1.00  0.00     0.179 C 
BRANCH  12  13
HETATM   13  O   UNL     1     -41.696 -45.821   9.388  1.00  0.00    -0.389 OA
HETATM   14  H   UNL     1     -41.637 -46.443   8.643  1.00  0.00     0.210 HD
ENDBRANCH  12  13
BRANCH  12  15
HETATM   15  C   UNL     1     -43.798 -47.045   9.371  1.00  0.00    -0.025 A 
HETATM   16  C   UNL     1     -43.408 -47.564   8.128  1.00  0.00     0.027 A 
HETATM   17  C   UNL     1     -44.330 -48.270   7.373  1.00  0.00     0.088 A 
HETATM   18  N   UNL     1     -45.595 -48.510   7.768  1.00  0.00    -0.375 N 
HETATM   19  C   UNL     1     -45.947 -48.037   8.982  1.00  0.00     0.088 A 
ATOM     20  HN  UNL     1     -46.253 -49.023   7.180  1.00  0.00     0.164 HD
HETATM   21  C   UNL     1     -45.100 -47.314   9.807  1.00  0.00     0.027 A 
ENDBRANCH  12  15
ENDBRANCH   1  12
TORSDOF 6
ENDMDL
MODEL 8
REMARK VINA RESULT:      -5.1      3.638      6.645
REMARK  6 active torsions:
REMARK  status: ('A' for Active; 'I' for Inactive)
REMARK    1  A    between atoms: C_7  and  C_8 
REMARK    2  A    between atoms: C_8  and  N_9 
REMARK    3  A    between atoms: N_9  and  C_10 
REMARK    4  A    between atoms: C_10  and  C_11 
REMARK    5  A    between atoms: C_11  and  O_12 
REMARK    6  A    between atoms: C_11  and  C_13 
ROOT
HETATM    1  C   UNL     1     -39.970 -53.767  13.923  1.00  0.00     0.306 C 
ENDROOT
BRANCH   1   2
HETATM    2  N   UNL     1     -39.232 -52.738  14.666  1.00  0.00     0.086 N 
HETATM    3  H   UNL     1     -39.896 -52.184  15.209  1.00  0.00     0.316 HD
BRANCH   2   4
HETATM    4  C   UNL     1     -38.440 -51.895  13.774  1.00  0.00     0.274 C 
BRANCH   4   5
HETATM    5  C   UNL     1     -38.399 -50.434  14.263  1.00  0.00     0.017 C 
HETATM    6  C   UNL     1     -38.716 -49.379  13.167  1.00  0.00    -0.013 C 
HETATM    7  C   UNL     1     -37.839 -49.510  11.914  1.00  0.00     0.010 C 
HETATM    8  C   UNL     1     -38.627 -47.962  13.756  1.00  0.00     0.005 C 
HETATM    9  C   UNL     1     -37.290 -47.683  14.436  1.00  0.00     0.000 C 
HETATM   10  C   UNL     1     -36.968 -48.731  15.494  1.00  0.00     0.000 C 
HETATM   11  C   UNL     1     -37.044 -50.152  14.940  1.00  0.00     0.007 C 
ENDBRANCH   4   5
ENDBRANCH   2   4
ENDBRANCH   1   2
BRANCH   1  12
HETATM   12  C   UNL     1     -40.973 -53.128  12.924  1.00  0.00     0.179 C 
BRANCH  12  13
HETATM   13  O   UNL     1     -40.610 -53.494  11.585  1.00  0.00    -0.389 OA
HETATM   14  H   UNL     1     -40.908 -52.775  11.004  1.00  0.00     0.210 HD
ENDBRANCH  12  13
BRANCH  12  15
HETATM   15  C   UNL     1     -42.401 -53.534  13.230  1.00  0.00    -0.025 A 
HETATM   16  C   UNL     1     -42.654 -54.489  14.225  1.00  0.00     0.027 A 
HETATM   17  C   UNL     1     -43.961 -54.880  14.468  1.00  0.00     0.088 A 
HETATM   18  N   UNL     1     -45.026 -54.382  13.810  1.00  0.00    -0.375 N 
HETATM   19  C   UNL     1     -44.771 -53.437  12.881  1.00  0.00     0.088 A 
ATOM     20  HN  UNL     1     -45.975 -54.703  14.004  1.00  0.00     0.164 HD
HETATM   21  C   UNL     1     -43.501 -52.985  12.561  1.00  0.00     0.027 A 
ENDBRANCH  12  15
ENDBRANCH   1  12
TORSDOF 6
ENDMDL
MODEL 9
REMARK VINA RESULT:      -5.1      3.282      5.009
REMARK  6 active torsions:
REMARK  status: ('A' for Active; 'I' for Inactive)
REMARK    1  A    between atoms: C_7  and  C_8 
REMARK    2  A    between atoms: C_8  and  N_9 
REMARK    3  A    between atoms: N_9  and  C_10 
REMARK    4  A    between atoms: C_10  and  C_11 
REMARK    5  A    between atoms: C_11  and  O_12 
REMARK    6  A    between atoms: C_11  and  C_13 
ROOT
HETATM    1  C   UNL     1     -40.195 -52.241  13.324  1.00  0.00     0.306 C 
ENDROOT
BRANCH   1   2
HETATM    2  N   UNL     1     -39.923 -50.817  13.098  1.00  0.00     0.086 N 
HETATM    3  H   UNL     1     -40.257 -50.286  13.905  1.00  0.00     0.316 HD
BRANCH   2   4
HETATM    4  C   UNL     1     -40.535 -50.342  11.860  1.00  0.00     0.274 C 
BRANCH   4   5
HETATM    5  C   UNL     1     -41.094 -48.913  12.014  1.00  0.00     0.017 C 
HETATM    6  C   UNL     1     -42.183 -48.763  13.111  1.00  0.00    -0.013 C 
HETATM    7  C   UNL     1     -43.355 -49.741  12.954  1.00  0.00     0.010 C 
HETATM    8  C   UNL     1     -42.682 -47.310  13.165  1.00  0.00     0.005 C 
HETATM    9  C   UNL     1     -43.170 -46.797  11.813  1.00  0.00     0.000 C 
HETATM   10  C   UNL     1     -42.110 -46.967  10.732  1.00  0.00     0.000 C 
HETATM   11  C   UNL     1     -41.595 -48.402  10.650  1.00  0.00     0.007 C 
ENDBRANCH   4   5
ENDBRANCH   2   4
ENDBRANCH   1   2
BRANCH   1  12
HETATM   12  C   UNL     1     -41.228 -52.785  12.300  1.00  0.00     0.179 C 
BRANCH  12  13
HETATM   13  O   UNL     1     -40.568 -53.663  11.378  1.00  0.00    -0.389 OA
HETATM   14  H   UNL     1     -40.778 -53.346  10.484  1.00  0.00     0.210 HD
ENDBRANCH  12  13
BRANCH  12  15
HETATM   15  C   UNL     1     -42.380 -53.488  12.989  1.00  0.00    -0.025 A 
HETATM   16  C   UNL     1     -42.148 -54.212  14.167  1.00  0.00     0.027 A 
HETATM   17  C   UNL     1     -43.202 -54.882  14.766  1.00  0.00     0.088 A 
HETATM   18  N   UNL     1     -44.463 -54.871  14.292  1.00  0.00    -0.375 N 
HETATM   19  C   UNL     1     -44.680 -54.140  13.178  1.00  0.00     0.088 A 
ATOM     20  HN  UNL     1     -45.214 -55.388  14.751  1.00  0.00     0.164 HD
HETATM   21  C   UNL     1     -43.692 -53.442  12.503  1.00  0.00     0.027 A 
ENDBRANCH  12  15
ENDBRANCH   1  12
TORSDOF 6
ENDMDL
