MODEL 1
REMARK VINA RESULT:      -7.2      0.000      0.000
REMARK  7 active torsions:
REMARK  status: ('A' for Active; 'I' for Inactive)
REMARK    1  A    between atoms: N_2  and  C_14 
REMARK    2  A    between atoms: C_4  and  N_8 
REMARK    3  A    between atoms: N_8  and  C_13 
REMARK    4  A    between atoms: N_8  and  C_23 
REMARK    5  A    between atoms: C_14  and  C_16 
REMARK    6  A    between atoms: C_16  and  C_24 
REMARK    7  A    between atoms: C_24  and  O_25 
ROOT
HETATM    1  C   UNL     1     -42.185 -49.244  12.241  1.00  0.00     0.122 A 
HETATM    2  N   UNL     1     -42.460 -51.050  13.491  1.00  0.00    -0.326 N 
HETATM    3  C   UNL     1     -41.522 -50.360  12.752  1.00  0.00     0.140 A 
HETATM    4  C   UNL     1     -41.443 -48.381  11.375  1.00  0.00     0.135 A 
HETATM    5  N   UNL     1     -43.491 -49.241  12.690  1.00  0.00    -0.346 N 
ATOM      6  HN  UNL     1     -44.213 -48.552  12.478  1.00  0.00     0.167 HD
HETATM    7  C   UNL     1     -43.614 -50.311  13.447  1.00  0.00     0.185 A 
HETATM    8  N   UNL     1     -40.135 -48.733  11.164  1.00  0.00    -0.337 N 
ATOM      9  HN  UNL     1     -39.539 -48.145  10.582  1.00  0.00     0.168 HD
HETATM   10  N   UNL     1     -40.253 -50.732  12.529  1.00  0.00    -0.336 N 
ATOM     11  HN  UNL     1     -39.819 -51.567  12.919  1.00  0.00     0.168 HD
HETATM   12  C   UNL     1     -39.632 -49.852  11.723  1.00  0.00     0.183 A 
ENDROOT
BRANCH   4  13
HETATM   13  N   UNL     1     -41.974 -47.243  10.687  1.00  0.00    -0.361 N 
BRANCH  13  14
HETATM   14  C   UNL     1     -42.449 -46.135  11.569  1.00  0.00     0.090 C 
HETATM   15  C   UNL     1     -42.221 -44.701  11.025  1.00  0.00     0.062 C 
HETATM   16  C   UNL     1     -40.843 -44.079  11.315  1.00  0.00     0.055 C 
HETATM   17  O   UNL     1     -40.533 -44.204  12.704  1.00  0.00    -0.381 OA
HETATM   18  C   UNL     1     -39.724 -44.662  10.442  1.00  0.00     0.045 C 
HETATM   19  C   UNL     1     -40.902 -42.563  11.055  1.00  0.00     0.045 C 
HETATM   20  C   UNL     1     -40.520 -45.541  13.179  1.00  0.00     0.171 C 
HETATM   21  C   UNL     1     -41.866 -46.219  13.001  1.00  0.00     0.051 C 
ENDBRANCH  13  14
BRANCH  13  22
HETATM   22  C   UNL     1     -42.822 -47.665   9.549  1.00  0.00     0.120 C 
HETATM   23  C   UNL     1     -44.312 -47.380   9.742  1.00  0.00     0.026 C 
ENDBRANCH  13  22
ENDBRANCH   4  13
BRANCH   2  24
HETATM   24  C   UNL     1     -42.255 -52.312  14.207  1.00  0.00     0.143 C 
BRANCH  24  25
HETATM   25  C   UNL     1     -42.392 -53.620  13.352  1.00  0.00     0.001 C 
HETATM   26  C   UNL     1     -43.311 -53.376  12.129  1.00  0.00     0.039 C 
HETATM   27  C   UNL     1     -44.781 -53.301  12.533  1.00  0.00     0.168 C 
HETATM   28  O   UNL     1     -45.179 -54.544  13.102  1.00  0.00    -0.391 OA
HETATM   29  C   UNL     1     -44.514 -54.812  14.329  1.00  0.00     0.168 C 
HETATM   30  C   UNL     1     -42.998 -54.804  14.173  1.00  0.00     0.039 C 
BRANCH  25  31
HETATM   31  C   UNL     1     -40.989 -54.095  12.900  1.00  0.00     0.175 C 
BRANCH  31  32
HETATM   32  O   UNL     1     -40.669 -53.556  11.621  1.00  0.00    -0.400 OA
HETATM   33  H   UNL     1     -40.425 -54.305  11.038  1.00  0.00     0.209 HD
ENDBRANCH  31  32
ENDBRANCH  25  31
ENDBRANCH  24  25
ENDBRANCH   2  24
TORSDOF 7
ENDMDL
MODEL 2
REMARK VINA RESULT:      -7.1      1.556      2.555
REMARK  7 active torsions:
REMARK  status: ('A' for Active; 'I' for Inactive)
REMARK    1  A    between atoms: N_2  and  C_14 
REMARK    2  A    between atoms: C_4  and  N_8 
REMARK    3  A    between atoms: N_8  and  C_13 
REMARK    4  A    between atoms: N_8  and  C_23 
REMARK    5  A    between atoms: C_14  and  C_16 
REMARK    6  A    between atoms: C_16  and  C_24 
REMARK    7  A    between atoms: C_24  and  O_25 
ROOT
HETATM    1  C   UNL     1     -41.240 -48.882  12.547  1.00  0.00     0.122 A 
HETATM    2  N   UNL     1     -42.252 -50.851  12.581  1.00  0.00    -0.326 N 
HETATM    3  C   UNL     1     -41.076 -50.227  12.220  1.00  0.00     0.140 A 
HETATM    4  C   UNL     1     -40.173 -47.991  12.214  1.00  0.00     0.135 A 
HETATM    5  N   UNL     1     -42.481 -48.699  13.127  1.00  0.00    -0.346 N 
ATOM      6  HN  UNL     1     -42.879 -47.823  13.464  1.00  0.00     0.167 HD
HETATM    7  C   UNL     1     -43.044 -49.889  13.154  1.00  0.00     0.185 A 
HETATM    8  N   UNL     1     -39.077 -48.570  11.629  1.00  0.00    -0.337 N 
ATOM      9  HN  UNL     1     -38.267 -47.999  11.392  1.00  0.00     0.168 HD
HETATM   10  N   UNL     1     -40.023 -50.801  11.621  1.00  0.00    -0.336 N 
ATOM     11  HN  UNL     1     -39.957 -51.793  11.391  1.00  0.00     0.168 HD
HETATM   12  C   UNL     1     -39.065 -49.893  11.364  1.00  0.00     0.183 A 
ENDROOT
BRANCH   4  13
HETATM   13  N   UNL     1     -40.195 -46.570  12.388  1.00  0.00    -0.361 N 
BRANCH  13  14
HETATM   14  C   UNL     1     -40.219 -45.777  11.122  1.00  0.00     0.090 C 
HETATM   15  C   UNL     1     -40.186 -44.237  11.295  1.00  0.00     0.062 C 
HETATM   16  C   UNL     1     -41.546 -43.553  11.520  1.00  0.00     0.055 C 
HETATM   17  O   UNL     1     -42.479 -43.982  10.527  1.00  0.00    -0.381 OA
HETATM   18  C   UNL     1     -42.102 -43.768  12.933  1.00  0.00     0.045 C 
HETATM   19  C   UNL     1     -41.398 -42.037  11.298  1.00  0.00     0.045 C 
HETATM   20  C   UNL     1     -42.693 -45.385  10.497  1.00  0.00     0.171 C 
HETATM   21  C   UNL     1     -41.413 -46.147  10.208  1.00  0.00     0.051 C 
ENDBRANCH  13  14
BRANCH  13  22
HETATM   22  C   UNL     1     -39.275 -46.158  13.473  1.00  0.00     0.120 C 
HETATM   23  C   UNL     1     -39.895 -46.209  14.870  1.00  0.00     0.026 C 
ENDBRANCH  13  22
ENDBRANCH   4  13
BRANCH   2  24
HETATM   24  C   UNL     1     -42.580 -52.268  12.413  1.00  0.00     0.143 C 
BRANCH  24  25
HETATM   25  C   UNL     1     -41.998 -53.243  13.497  1.00  0.00     0.001 C 
HETATM   26  C   UNL     1     -43.009 -54.375  13.810  1.00  0.00     0.039 C 
HETATM   27  C   UNL     1     -44.173 -53.873  14.661  1.00  0.00     0.168 C 
HETATM   28  O   UNL     1     -43.677 -53.411  15.912  1.00  0.00    -0.391 OA
HETATM   29  C   UNL     1     -42.852 -52.261  15.774  1.00  0.00     0.168 C 
HETATM   30  C   UNL     1     -41.675 -52.511  14.839  1.00  0.00     0.039 C 
BRANCH  25  31
HETATM   31  C   UNL     1     -40.653 -53.828  13.001  1.00  0.00     0.175 C 
BRANCH  31  32
HETATM   32  O   UNL     1     -40.550 -53.710  11.585  1.00  0.00    -0.400 OA
HETATM   33  H   UNL     1     -39.667 -53.334  11.385  1.00  0.00     0.209 HD
ENDBRANCH  31  32
ENDBRANCH  25  31
ENDBRANCH  24  25
ENDBRANCH   2  24
TORSDOF 7
ENDMDL
MODEL 3
REMARK VINA RESULT:      -6.8      1.922      7.853
REMARK  7 active torsions:
REMARK  status: ('A' for Active; 'I' for Inactive)
REMARK    1  A    between atoms: N_2  and  C_14 
REMARK    2  A    between atoms: C_4  and  N_8 
REMARK    3  A    between atoms: N_8  and  C_13 
REMARK    4  A    between atoms: N_8  and  C_23 
REMARK    5  A    between atoms: C_14  and  C_16 
REMARK    6  A    between atoms: C_16  and  C_24 
REMARK    7  A    between atoms: C_24  and  O_25 
ROOT
HETATM    1  C   UNL     1     -41.246 -50.043  12.832  1.00  0.00     0.122 A 
HETATM    2  N   UNL     1     -40.565 -48.191  11.829  1.00  0.00    -0.326 N 
HETATM    3  C   UNL     1     -40.364 -48.969  12.950  1.00  0.00     0.140 A 
HETATM    4  C   UNL     1     -41.284 -50.982  13.911  1.00  0.00     0.135 A 
HETATM    5  N   UNL     1     -41.944 -49.936  11.645  1.00  0.00    -0.346 N 
ATOM      6  HN  UNL     1     -42.658 -50.573  11.291  1.00  0.00     0.167 HD
HETATM    7  C   UNL     1     -41.499 -48.841  11.064  1.00  0.00     0.185 A 
HETATM    8  N   UNL     1     -40.415 -50.735  14.942  1.00  0.00    -0.337 N 
ATOM      9  HN  UNL     1     -40.367 -51.381  15.730  1.00  0.00     0.168 HD
HETATM   10  N   UNL     1     -39.532 -48.701  13.966  1.00  0.00    -0.336 N 
ATOM     11  HN  UNL     1     -38.914 -47.891  14.009  1.00  0.00     0.168 HD
HETATM   12  C   UNL     1     -39.623 -49.644  14.920  1.00  0.00     0.183 A 
ENDROOT
BRANCH   4  13
HETATM   13  N   UNL     1     -42.182 -52.092  14.011  1.00  0.00    -0.361 N 
BRANCH  13  14
HETATM   14  C   UNL     1     -43.396 -51.849  14.848  1.00  0.00     0.090 C 
HETATM   15  C   UNL     1     -44.243 -53.105  15.178  1.00  0.00     0.062 C 
HETATM   16  C   UNL     1     -45.290 -53.510  14.125  1.00  0.00     0.055 C 
HETATM   17  O   UNL     1     -46.085 -52.379  13.767  1.00  0.00    -0.381 OA
HETATM   18  C   UNL     1     -44.672 -54.169  12.885  1.00  0.00     0.045 C 
HETATM   19  C   UNL     1     -46.280 -54.511  14.747  1.00  0.00     0.045 C 
HETATM   20  C   UNL     1     -45.343 -51.285  13.249  1.00  0.00     0.171 C 
HETATM   21  C   UNL     1     -44.327 -50.767  14.250  1.00  0.00     0.051 C 
ENDBRANCH  13  14
BRANCH  13  22
HETATM   22  C   UNL     1     -41.436 -53.359  14.183  1.00  0.00     0.120 C 
HETATM   23  C   UNL     1     -40.957 -53.983  12.871  1.00  0.00     0.026 C 
ENDBRANCH  13  22
ENDBRANCH   4  13
BRANCH   2  24
HETATM   24  C   UNL     1     -39.890 -46.932  11.504  1.00  0.00     0.143 C 
BRANCH  24  25
HETATM   25  C   UNL     1     -40.692 -45.620  11.817  1.00  0.00     0.001 C 
HETATM   26  C   UNL     1     -39.771 -44.380  11.705  1.00  0.00     0.039 C 
HETATM   27  C   UNL     1     -38.825 -44.271  12.898  1.00  0.00     0.168 C 
HETATM   28  O   UNL     1     -39.584 -44.109  14.090  1.00  0.00    -0.391 OA
HETATM   29  C   UNL     1     -40.362 -45.260  14.393  1.00  0.00     0.168 C 
HETATM   30  C   UNL     1     -41.305 -45.630  13.255  1.00  0.00     0.039 C 
BRANCH  25  31
HETATM   31  C   UNL     1     -41.894 -45.503  10.848  1.00  0.00     0.175 C 
BRANCH  31  32
HETATM   32  O   UNL     1     -41.458 -45.619   9.496  1.00  0.00    -0.400 OA
HETATM   33  H   UNL     1     -41.743 -44.809   9.024  1.00  0.00     0.209 HD
ENDBRANCH  31  32
ENDBRANCH  25  31
ENDBRANCH  24  25
ENDBRANCH   2  24
TORSDOF 7
ENDMDL
MODEL 4
REMARK VINA RESULT:      -6.5      1.843      3.131
REMARK  7 active torsions:
REMARK  status: ('A' for Active; 'I' for Inactive)
REMARK    1  A    between atoms: N_2  and  C_14 
REMARK    2  A    between atoms: C_4  and  N_8 
REMARK    3  A    between atoms: N_8  and  C_13 
REMARK    4  A    between atoms: N_8  and  C_23 
REMARK    5  A    between atoms: C_14  and  C_16 
REMARK    6  A    between atoms: C_16  and  C_24 
REMARK    7  A    between atoms: C_24  and  O_25 
ROOT
HETATM    1  C   UNL     1     -41.612 -50.677  13.510  1.00  0.00     0.122 A 
HETATM    2  N   UNL     1     -42.826 -52.093  14.703  1.00  0.00    -0.326 N 
HETATM    3  C   UNL     1     -42.112 -51.979  13.528  1.00  0.00     0.140 A 
HETATM    4  C   UNL     1     -40.875 -50.274  12.353  1.00  0.00     0.135 A 
HETATM    5  N   UNL     1     -41.990 -50.025  14.668  1.00  0.00    -0.346 N 
ATOM      6  HN  UNL     1     -41.773 -49.063  14.931  1.00  0.00     0.167 HD
HETATM    7  C   UNL     1     -42.686 -50.900  15.363  1.00  0.00     0.185 A 
HETATM    8  N   UNL     1     -40.712 -51.235  11.389  1.00  0.00    -0.337 N 
ATOM      9  HN  UNL     1     -40.170 -51.025  10.551  1.00  0.00     0.168 HD
HETATM   10  N   UNL     1     -41.985 -52.918  12.580  1.00  0.00    -0.336 N 
ATOM     11  HN  UNL     1     -42.381 -53.855  12.637  1.00  0.00     0.168 HD
HETATM   12  C   UNL     1     -41.263 -52.456  11.544  1.00  0.00     0.183 A 
ENDROOT
BRANCH   4  13
HETATM   13  N   UNL     1     -40.365 -48.958  12.114  1.00  0.00    -0.361 N 
BRANCH  13  14
HETATM   14  C   UNL     1     -41.166 -48.132  11.160  1.00  0.00     0.090 C 
HETATM   15  C   UNL     1     -40.581 -46.735  10.830  1.00  0.00     0.062 C 
HETATM   16  C   UNL     1     -40.942 -45.603  11.808  1.00  0.00     0.055 C 
HETATM   17  O   UNL     1     -42.354 -45.579  12.029  1.00  0.00    -0.381 OA
HETATM   18  C   UNL     1     -40.175 -45.686  13.134  1.00  0.00     0.045 C 
HETATM   19  C   UNL     1     -40.618 -44.245  11.160  1.00  0.00     0.045 C 
HETATM   20  C   UNL     1     -42.882 -46.791  12.546  1.00  0.00     0.171 C 
HETATM   21  C   UNL     1     -42.637 -47.960  11.610  1.00  0.00     0.051 C 
ENDBRANCH  13  14
BRANCH  13  22
HETATM   22  C   UNL     1     -38.890 -48.982  11.976  1.00  0.00     0.120 C 
HETATM   23  C   UNL     1     -38.138 -48.932  13.307  1.00  0.00     0.026 C 
ENDBRANCH  13  22
ENDBRANCH   4  13
BRANCH   2  24
HETATM   24  C   UNL     1     -43.565 -53.269  15.168  1.00  0.00     0.143 C 
BRANCH  24  25
HETATM   25  C   UNL     1     -44.965 -53.511  14.502  1.00  0.00     0.001 C 
HETATM   26  C   UNL     1     -45.456 -52.229  13.786  1.00  0.00     0.039 C 
HETATM   27  C   UNL     1     -45.939 -51.177  14.782  1.00  0.00     0.168 C 
HETATM   28  O   UNL     1     -47.049 -51.689  15.508  1.00  0.00    -0.391 OA
HETATM   29  C   UNL     1     -46.690 -52.786  16.338  1.00  0.00     0.168 C 
HETATM   30  C   UNL     1     -46.055 -53.921  15.544  1.00  0.00     0.039 C 
BRANCH  25  31
HETATM   31  C   UNL     1     -44.868 -54.694  13.507  1.00  0.00     0.175 C 
BRANCH  31  32
HETATM   32  O   UNL     1     -44.460 -54.233  12.222  1.00  0.00    -0.400 OA
HETATM   33  H   UNL     1     -43.572 -54.607  12.043  1.00  0.00     0.209 HD
ENDBRANCH  31  32
ENDBRANCH  25  31
ENDBRANCH  24  25
ENDBRANCH   2  24
TORSDOF 7
ENDMDL
MODEL 5
REMARK VINA RESULT:      -6.4      2.906      4.589
REMARK  7 active torsions:
REMARK  status: ('A' for Active; 'I' for Inactive)
REMARK    1  A    between atoms: N_2  and  C_14 
REMARK    2  A    between atoms: C_4  and  N_8 
REMARK    3  A    between atoms: N_8  and  C_13 
REMARK    4  A    between atoms: N_8  and  C_23 
REMARK    5  A    between atoms: C_14  and  C_16 
REMARK    6  A    between atoms: C_16  and  C_24 
REMARK    7  A    between atoms: C_24  and  O_25 
ROOT
HETATM    1  C   UNL     1     -41.593 -50.166  13.729  1.00  0.00     0.122 A 
HETATM    2  N   UNL     1     -43.559 -50.915  14.417  1.00  0.00    -0.326 N 
HETATM    3  C   UNL     1     -42.960 -50.127  13.456  1.00  0.00     0.140 A 
HETATM    4  C   UNL     1     -40.737 -49.371  12.903  1.00  0.00     0.135 A 
HETATM    5  N   UNL     1     -41.365 -50.988  14.815  1.00  0.00    -0.346 N 
ATOM      6  HN  UNL     1     -40.465 -51.205  15.244  1.00  0.00     0.167 HD
HETATM    7  C   UNL     1     -42.547 -51.435  15.183  1.00  0.00     0.185 A 
HETATM    8  N   UNL     1     -41.360 -48.673  11.902  1.00  0.00    -0.337 N 
ATOM      9  HN  UNL     1     -40.807 -48.109  11.257  1.00  0.00     0.168 HD
HETATM   10  N   UNL     1     -43.584 -49.426  12.499  1.00  0.00    -0.336 N 
ATOM     11  HN  UNL     1     -44.593 -49.424  12.348  1.00  0.00     0.168 HD
HETATM   12  C   UNL     1     -42.701 -48.727  11.765  1.00  0.00     0.183 A 
ENDROOT
BRANCH   4  13
HETATM   13  N   UNL     1     -39.326 -49.211  13.085  1.00  0.00    -0.361 N 
BRANCH  13  14
HETATM   14  C   UNL     1     -38.913 -47.937  13.748  1.00  0.00     0.090 C 
HETATM   15  C   UNL     1     -37.465 -47.908  14.299  1.00  0.00     0.062 C 
HETATM   16  C   UNL     1     -37.269 -48.479  15.715  1.00  0.00     0.055 C 
HETATM   17  O   UNL     1     -38.219 -47.900  16.611  1.00  0.00    -0.381 OA
HETATM   18  C   UNL     1     -37.327 -50.011  15.759  1.00  0.00     0.045 C 
HETATM   19  C   UNL     1     -35.895 -48.044  16.256  1.00  0.00     0.045 C 
HETATM   20  C   UNL     1     -39.573 -48.107  16.238  1.00  0.00     0.171 C 
HETATM   21  C   UNL     1     -39.882 -47.510  14.878  1.00  0.00     0.051 C 
ENDBRANCH  13  14
BRANCH  13  22
HETATM   22  C   UNL     1     -38.586 -49.667  11.886  1.00  0.00     0.120 C 
HETATM   23  C   UNL     1     -37.557 -50.763  12.168  1.00  0.00     0.026 C 
ENDBRANCH  13  22
ENDBRANCH   4  13
BRANCH   2  24
HETATM   24  C   UNL     1     -44.993 -51.170  14.571  1.00  0.00     0.143 C 
BRANCH  24  25
HETATM   25  C   UNL     1     -45.605 -52.260  13.621  1.00  0.00     0.001 C 
HETATM   26  C   UNL     1     -46.615 -53.147  14.390  1.00  0.00     0.039 C 
HETATM   27  C   UNL     1     -45.909 -54.131  15.319  1.00  0.00     0.168 C 
HETATM   28  O   UNL     1     -45.098 -55.010  14.548  1.00  0.00    -0.391 OA
HETATM   29  C   UNL     1     -44.024 -54.332  13.911  1.00  0.00     0.168 C 
HETATM   30  C   UNL     1     -44.512 -53.199  13.016  1.00  0.00     0.039 C 
BRANCH  25  31
HETATM   31  C   UNL     1     -46.285 -51.572  12.412  1.00  0.00     0.175 C 
BRANCH  31  32
HETATM   32  O   UNL     1     -46.688 -52.541  11.448  1.00  0.00    -0.400 OA
HETATM   33  H   UNL     1     -45.977 -52.601  10.776  1.00  0.00     0.209 HD
ENDBRANCH  31  32
ENDBRANCH  25  31
ENDBRANCH  24  25
ENDBRANCH   2  24
TORSDOF 7
ENDMDL
MODEL 6
REMARK VINA RESULT:      -6.4      2.867      7.286
REMARK  7 active torsions:
REMARK  status: ('A' for Active; 'I' for Inactive)
REMARK    1  A    between atoms: N_2  and  C_14 
REMARK    2  A    between atoms: C_4  and  N_8 
REMARK    3  A    between atoms: N_8  and  C_13 
REMARK    4  A    between atoms: N_8  and  C_23 
REMARK    5  A    between atoms: C_14  and  C_16 
REMARK    6  A    between atoms: C_16  and  C_24 
REMARK    7  A    between atoms: C_24  and  O_25 
ROOT
HETATM    1  C   UNL     1     -42.892 -51.610  12.826  1.00  0.00     0.122 A 
HETATM    2  N   UNL     1     -41.341 -50.379  11.835  1.00  0.00    -0.326 N 
HETATM    3  C   UNL     1     -41.674 -51.680  12.149  1.00  0.00     0.140 A 
HETATM    4  C   UNL     1     -43.436 -52.836  13.323  1.00  0.00     0.135 A 
HETATM    5  N   UNL     1     -43.305 -50.294  12.891  1.00  0.00    -0.346 N 
ATOM      6  HN  UNL     1     -44.155 -49.937  13.329  1.00  0.00     0.167 HD
HETATM    7  C   UNL     1     -42.377 -49.594  12.274  1.00  0.00     0.185 A 
HETATM    8  N   UNL     1     -42.707 -53.963  13.049  1.00  0.00    -0.337 N 
ATOM      9  HN  UNL     1     -43.052 -54.875  13.347  1.00  0.00     0.168 HD
HETATM   10  N   UNL     1     -40.937 -52.772  11.901  1.00  0.00    -0.336 N 
ATOM     11  HN  UNL     1     -40.043 -52.767  11.411  1.00  0.00     0.168 HD
HETATM   12  C   UNL     1     -41.535 -53.874  12.387  1.00  0.00     0.183 A 
ENDROOT
BRANCH   4  13
HETATM   13  N   UNL     1     -44.623 -52.953  14.115  1.00  0.00    -0.361 N 
BRANCH  13  14
HETATM   14  C   UNL     1     -44.432 -53.598  15.449  1.00  0.00     0.090 C 
HETATM   15  C   UNL     1     -45.675 -53.598  16.377  1.00  0.00     0.062 C 
HETATM   16  C   UNL     1     -45.878 -52.335  17.234  1.00  0.00     0.055 C 
HETATM   17  O   UNL     1     -44.668 -52.012  17.921  1.00  0.00    -0.381 OA
HETATM   18  C   UNL     1     -46.395 -51.138  16.427  1.00  0.00     0.045 C 
HETATM   19  C   UNL     1     -46.900 -52.632  18.345  1.00  0.00     0.045 C 
HETATM   20  C   UNL     1     -43.556 -51.788  17.069  1.00  0.00     0.171 C 
HETATM   21  C   UNL     1     -43.231 -53.010  16.230  1.00  0.00     0.051 C 
ENDBRANCH  13  14
BRANCH  13  22
HETATM   22  C   UNL     1     -45.775 -53.364  13.279  1.00  0.00     0.120 C 
HETATM   23  C   UNL     1     -46.522 -52.198  12.630  1.00  0.00     0.026 C 
ENDBRANCH  13  22
ENDBRANCH   4  13
BRANCH   2  24
HETATM   24  C   UNL     1     -40.133 -49.926  11.143  1.00  0.00     0.143 C 
BRANCH  24  25
HETATM   25  C   UNL     1     -39.055 -49.213  12.033  1.00  0.00     0.001 C 
HETATM   26  C   UNL     1     -37.631 -49.487  11.488  1.00  0.00     0.039 C 
HETATM   27  C   UNL     1     -37.172 -50.910  11.800  1.00  0.00     0.168 C 
HETATM   28  O   UNL     1     -37.111 -51.087  13.210  1.00  0.00    -0.391 OA
HETATM   29  C   UNL     1     -38.394 -51.016  13.818  1.00  0.00     0.168 C 
HETATM   30  C   UNL     1     -39.097 -49.698  13.518  1.00  0.00     0.039 C 
BRANCH  25  31
HETATM   31  C   UNL     1     -39.343 -47.692  12.078  1.00  0.00     0.175 C 
BRANCH  31  32
HETATM   32  O   UNL     1     -39.006 -47.159  13.356  1.00  0.00    -0.400 OA
HETATM   33  H   UNL     1     -38.119 -46.749  13.280  1.00  0.00     0.209 HD
ENDBRANCH  31  32
ENDBRANCH  25  31
ENDBRANCH  24  25
ENDBRANCH   2  24
TORSDOF 7
ENDMDL
MODEL 7
REMARK VINA RESULT:      -6.3      1.931      3.474
REMARK  7 active torsions:
REMARK  status: ('A' for Active; 'I' for Inactive)
REMARK    1  A    between atoms: N_2  and  C_14 
REMARK    2  A    between atoms: C_4  and  N_8 
REMARK    3  A    between atoms: N_8  and  C_13 
REMARK    4  A    between atoms: N_8  and  C_23 
REMARK    5  A    between atoms: C_14  and  C_16 
REMARK    6  A    between atoms: C_16  and  C_24 
REMARK    7  A    between atoms: C_24  and  O_25 
ROOT
HETATM    1  C   UNL     1     -41.443 -50.395  13.785  1.00  0.00     0.122 A 
HETATM    2  N   UNL     1     -42.749 -51.664  15.044  1.00  0.00    -0.326 N 
HETATM    3  C   UNL     1     -41.989 -51.674  13.893  1.00  0.00     0.140 A 
HETATM    4  C   UNL     1     -40.649 -50.117  12.628  1.00  0.00     0.135 A 
HETATM    5  N   UNL     1     -41.839 -49.634  14.868  1.00  0.00    -0.346 N 
ATOM      6  HN  UNL     1     -41.598 -48.661  15.056  1.00  0.00     0.167 HD
HETATM    7  C   UNL     1     -42.591 -50.423  15.606  1.00  0.00     0.185 A 
HETATM    8  N   UNL     1     -40.485 -51.162  11.756  1.00  0.00    -0.337 N 
ATOM      9  HN  UNL     1     -39.906 -51.043  10.926  1.00  0.00     0.168 HD
HETATM   10  N   UNL     1     -41.860 -52.694  13.033  1.00  0.00    -0.336 N 
ATOM     11  HN  UNL     1     -42.291 -53.610  13.154  1.00  0.00     0.168 HD
HETATM   12  C   UNL     1     -41.084 -52.346  11.991  1.00  0.00     0.183 A 
ENDROOT
BRANCH   4  13
HETATM   13  N   UNL     1     -40.084 -48.844  12.299  1.00  0.00    -0.361 N 
BRANCH  13  14
HETATM   14  C   UNL     1     -40.825 -48.073  11.255  1.00  0.00     0.090 C 
HETATM   15  C   UNL     1     -40.254 -46.669  10.927  1.00  0.00     0.062 C 
HETATM   16  C   UNL     1     -40.728 -45.519  11.834  1.00  0.00     0.055 C 
HETATM   17  O   UNL     1     -42.153 -45.533  11.936  1.00  0.00    -0.381 OA
HETATM   18  C   UNL     1     -40.073 -45.537  13.221  1.00  0.00     0.045 C 
HETATM   19  C   UNL     1     -40.390 -44.173  11.170  1.00  0.00     0.045 C 
HETATM   20  C   UNL     1     -42.689 -46.743  12.447  1.00  0.00     0.171 C 
HETATM   21  C   UNL     1     -42.333 -47.933  11.574  1.00  0.00     0.051 C 
ENDBRANCH  13  14
BRANCH  13  22
HETATM   22  C   UNL     1     -38.608 -48.930  12.212  1.00  0.00     0.120 C 
HETATM   23  C   UNL     1     -37.889 -48.668  13.537  1.00  0.00     0.026 C 
ENDBRANCH  13  22
ENDBRANCH   4  13
BRANCH   2  24
HETATM   24  C   UNL     1     -43.546 -52.771  15.577  1.00  0.00     0.143 C 
BRANCH  24  25
HETATM   25  C   UNL     1     -45.088 -52.711  15.290  1.00  0.00     0.001 C 
HETATM   26  C   UNL     1     -45.665 -54.138  15.119  1.00  0.00     0.039 C 
HETATM   27  C   UNL     1     -45.281 -54.744  13.771  1.00  0.00     0.168 C 
HETATM   28  O   UNL     1     -45.829 -53.953  12.724  1.00  0.00    -0.391 OA
HETATM   29  C   UNL     1     -45.257 -52.653  12.674  1.00  0.00     0.168 C 
HETATM   30  C   UNL     1     -45.418 -51.906  13.992  1.00  0.00     0.039 C 
BRANCH  25  31
HETATM   31  C   UNL     1     -45.801 -51.963  16.443  1.00  0.00     0.175 C 
BRANCH  31  32
HETATM   32  O   UNL     1     -47.037 -51.415  15.992  1.00  0.00    -0.400 OA
HETATM   33  H   UNL     1     -47.279 -50.691  16.606  1.00  0.00     0.209 HD
ENDBRANCH  31  32
ENDBRANCH  25  31
ENDBRANCH  24  25
ENDBRANCH   2  24
TORSDOF 7
ENDMDL
MODEL 8
REMARK VINA RESULT:      -6.3      1.942      7.840
REMARK  7 active torsions:
REMARK  status: ('A' for Active; 'I' for Inactive)
REMARK    1  A    between atoms: N_2  and  C_14 
REMARK    2  A    between atoms: C_4  and  N_8 
REMARK    3  A    between atoms: N_8  and  C_13 
REMARK    4  A    between atoms: N_8  and  C_23 
REMARK    5  A    between atoms: C_14  and  C_16 
REMARK    6  A    between atoms: C_16  and  C_24 
REMARK    7  A    between atoms: C_24  and  O_25 
ROOT
HETATM    1  C   UNL     1     -41.246 -50.283  12.930  1.00  0.00     0.122 A 
HETATM    2  N   UNL     1     -40.428 -48.444  12.010  1.00  0.00    -0.326 N 
HETATM    3  C   UNL     1     -40.293 -49.279  13.099  1.00  0.00     0.140 A 
HETATM    4  C   UNL     1     -41.359 -51.260  13.968  1.00  0.00     0.135 A 
HETATM    5  N   UNL     1     -41.924 -50.078  11.744  1.00  0.00    -0.346 N 
ATOM      6  HN  UNL     1     -42.677 -50.648  11.359  1.00  0.00     0.167 HD
HETATM    7  C   UNL     1     -41.398 -48.995  11.212  1.00  0.00     0.185 A 
HETATM    8  N   UNL     1     -40.486 -51.118  15.015  1.00  0.00    -0.337 N 
ATOM      9  HN  UNL     1     -40.491 -51.797  15.775  1.00  0.00     0.168 HD
HETATM   10  N   UNL     1     -39.454 -49.112  14.131  1.00  0.00    -0.336 N 
ATOM     11  HN  UNL     1     -38.781 -48.351  14.212  1.00  0.00     0.168 HD
HETATM   12  C   UNL     1     -39.619 -50.085  15.044  1.00  0.00     0.183 A 
ENDROOT
BRANCH   4  13
HETATM   13  N   UNL     1     -42.334 -52.308  14.016  1.00  0.00    -0.361 N 
BRANCH  13  14
HETATM   14  C   UNL     1     -43.543 -52.010  14.843  1.00  0.00     0.090 C 
HETATM   15  C   UNL     1     -44.429 -53.232  15.197  1.00  0.00     0.062 C 
HETATM   16  C   UNL     1     -45.485 -53.627  14.148  1.00  0.00     0.055 C 
HETATM   17  O   UNL     1     -46.244 -52.480  13.763  1.00  0.00    -0.381 OA
HETATM   18  C   UNL     1     -44.884 -54.331  12.926  1.00  0.00     0.045 C 
HETATM   19  C   UNL     1     -46.507 -54.584  14.788  1.00  0.00     0.045 C 
HETATM   20  C   UNL     1     -45.466 -51.421  13.225  1.00  0.00     0.171 C 
HETATM   21  C   UNL     1     -44.438 -50.913  14.218  1.00  0.00     0.051 C 
ENDBRANCH  13  14
BRANCH  13  22
HETATM   22  C   UNL     1     -41.680 -53.630  14.154  1.00  0.00     0.120 C 
HETATM   23  C   UNL     1     -40.942 -54.094  12.898  1.00  0.00     0.026 C 
ENDBRANCH  13  22
ENDBRANCH   4  13
BRANCH   2  24
HETATM   24  C   UNL     1     -39.664 -47.223  11.742  1.00  0.00     0.143 C 
BRANCH  24  25
HETATM   25  C   UNL     1     -40.182 -45.918  12.445  1.00  0.00     0.001 C 
HETATM   26  C   UNL     1     -41.718 -45.794  12.297  1.00  0.00     0.039 C 
HETATM   27  C   UNL     1     -42.117 -45.377  10.884  1.00  0.00     0.168 C 
HETATM   28  O   UNL     1     -41.574 -44.093  10.599  1.00  0.00    -0.391 OA
HETATM   29  C   UNL     1     -40.154 -44.108  10.548  1.00  0.00     0.168 C 
HETATM   30  C   UNL     1     -39.540 -44.627  11.843  1.00  0.00     0.039 C 
BRANCH  25  31
HETATM   31  C   UNL     1     -39.772 -45.936  13.938  1.00  0.00     0.175 C 
BRANCH  31  32
HETATM   32  O   UNL     1     -40.874 -46.324  14.753  1.00  0.00    -0.400 OA
HETATM   33  H   UNL     1     -41.055 -47.271  14.573  1.00  0.00     0.209 HD
ENDBRANCH  31  32
ENDBRANCH  25  31
ENDBRANCH  24  25
ENDBRANCH   2  24
TORSDOF 7
ENDMDL
MODEL 9
REMARK VINA RESULT:      -6.1      2.144      7.960
REMARK  7 active torsions:
REMARK  status: ('A' for Active; 'I' for Inactive)
REMARK    1  A    between atoms: N_2  and  C_14 
REMARK    2  A    between atoms: C_4  and  N_8 
REMARK    3  A    between atoms: N_8  and  C_13 
REMARK    4  A    between atoms: N_8  and  C_23 
REMARK    5  A    between atoms: C_14  and  C_16 
REMARK    6  A    between atoms: C_16  and  C_24 
REMARK    7  A    between atoms: C_24  and  O_25 
ROOT
HETATM    1  C   UNL     1     -41.324 -49.386  13.132  1.00  0.00     0.122 A 
HETATM    2  N   UNL     1     -40.585 -47.299  13.100  1.00  0.00    -0.326 N 
HETATM    3  C   UNL     1     -40.615 -48.464  12.362  1.00  0.00     0.140 A 
HETATM    4  C   UNL     1     -41.449 -50.713  12.615  1.00  0.00     0.135 A 
HETATM    5  N   UNL     1     -41.743 -48.781  14.301  1.00  0.00    -0.346 N 
ATOM      6  HN  UNL     1     -42.279 -49.208  15.057  1.00  0.00     0.167 HD
HETATM    7  C   UNL     1     -41.310 -47.539  14.239  1.00  0.00     0.185 A 
HETATM    8  N   UNL     1     -40.877 -50.928  11.388  1.00  0.00    -0.337 N 
ATOM      9  HN  UNL     1     -40.955 -51.843  10.946  1.00  0.00     0.168 HD
HETATM   10  N   UNL     1     -40.026 -48.670  11.176  1.00  0.00    -0.336 N 
ATOM     11  HN  UNL     1     -39.507 -47.962  10.657  1.00  0.00     0.168 HD
HETATM   12  C   UNL     1     -40.213 -49.936  10.762  1.00  0.00     0.183 A 
ENDROOT
BRANCH   4  13
HETATM   13  N   UNL     1     -42.059 -51.814  13.298  1.00  0.00    -0.361 N 
BRANCH  13  14
HETATM   14  C   UNL     1     -41.205 -53.033  13.422  1.00  0.00     0.090 C 
HETATM   15  C   UNL     1     -41.884 -54.263  14.079  1.00  0.00     0.062 C 
HETATM   16  C   UNL     1     -41.841 -54.315  15.617  1.00  0.00     0.055 C 
HETATM   17  O   UNL     1     -40.505 -54.104  16.077  1.00  0.00    -0.381 OA
HETATM   18  C   UNL     1     -42.818 -53.336  16.280  1.00  0.00     0.045 C 
HETATM   19  C   UNL     1     -42.204 -55.735  16.089  1.00  0.00     0.045 C 
HETATM   20  C   UNL     1     -39.937 -52.870  15.665  1.00  0.00     0.171 C 
HETATM   21  C   UNL     1     -39.869 -52.755  14.153  1.00  0.00     0.051 C 
ENDBRANCH  13  14
BRANCH  13  22
HETATM   22  C   UNL     1     -43.474 -51.969  12.888  1.00  0.00     0.120 C 
HETATM   23  C   UNL     1     -44.460 -51.164  13.735  1.00  0.00     0.026 C 
ENDBRANCH  13  22
ENDBRANCH   4  13
BRANCH   2  24
HETATM   24  C   UNL     1     -39.930 -46.043  12.728  1.00  0.00     0.143 C 
BRANCH  24  25
HETATM   25  C   UNL     1     -40.808 -45.023  11.920  1.00  0.00     0.001 C 
HETATM   26  C   UNL     1     -40.179 -43.608  11.966  1.00  0.00     0.039 C 
HETATM   27  C   UNL     1     -40.383 -42.944  13.326  1.00  0.00     0.168 C 
HETATM   28  O   UNL     1     -41.775 -42.780  13.567  1.00  0.00    -0.391 OA
HETATM   29  C   UNL     1     -42.448 -44.024  13.706  1.00  0.00     0.168 C 
HETATM   30  C   UNL     1     -42.262 -44.915  12.483  1.00  0.00     0.039 C 
BRANCH  25  31
HETATM   31  C   UNL     1     -40.957 -45.511  10.458  1.00  0.00     0.175 C 
BRANCH  31  32
HETATM   32  O   UNL     1     -39.703 -45.957   9.950  1.00  0.00    -0.400 OA
HETATM   33  H   UNL     1     -39.878 -46.723   9.364  1.00  0.00     0.209 HD
ENDBRANCH  31  32
ENDBRANCH  25  31
ENDBRANCH  24  25
ENDBRANCH   2  24
TORSDOF 7
ENDMDL
