MODEL 1
REMARK VINA RESULT:      -5.2      0.000      0.000
REMARK  4 active torsions:
REMARK  status: ('A' for Active; 'I' for Inactive)
REMARK       I    between atoms: C_2  and  N_3 
REMARK    1  A    between atoms: C_2  and  C_13 
REMARK    2  A    between atoms: N_3  and  C_4 
REMARK    3  A    between atoms: C_4  and  C_5 
REMARK    4  A    between atoms: C_5  and  C_6 
ROOT
HETATM    1  O   UNL     1     -42.562 -45.950   9.148  1.00  0.00    -0.271 OA
HETATM    2  C   UNL     1     -43.211 -46.990   9.221  1.00  0.00     0.246 C 
HETATM    3  N   UNL     1     -42.754 -48.124   9.864  1.00  0.00    -0.359 N 
HETATM    4  H   UNL     1     -43.457 -48.832  10.060  1.00  0.00     0.162 HD
ENDROOT
BRANCH   3   5
HETATM    5  C   UNL     1     -41.501 -48.094  10.601  1.00  0.00     0.128 C 
BRANCH   5   6
HETATM    6  C   UNL     1     -41.655 -47.573  12.026  1.00  0.00     0.076 C 
BRANCH   6   7
HETATM    7  C   UNL     1     -40.687 -46.450  12.292  1.00  0.00     0.010 A 
HETATM    8  C   UNL     1     -39.824 -46.497  13.385  1.00  0.00     0.025 A 
HETATM    9  C   UNL     1     -38.972 -45.420  13.618  1.00  0.00     0.003 A 
HETATM   10  C   UNL     1     -39.006 -44.327  12.762  1.00  0.00     0.017 A 
HETATM   11  C   UNL     1     -39.895 -44.357  11.702  1.00  0.00     0.088 A 
HETATM   12  N   UNL     1     -40.732 -45.388  11.450  1.00  0.00    -0.369 N 
ATOM     13  HN  UNL     1     -41.372 -45.369  10.656  1.00  0.00     0.165 HD
ENDBRANCH   6   7
ENDBRANCH   5   6
ENDBRANCH   3   5
BRANCH   2  14
HETATM   14  C   UNL     1     -44.569 -47.181   8.527  1.00  0.00     0.213 C 
HETATM   15  C   UNL     1     -45.714 -47.347   9.517  1.00  0.00     0.043 C 
HETATM   16  C   UNL     1     -46.598 -48.419   8.920  1.00  0.00     0.029 C 
HETATM   17  C   UNL     1     -45.985 -48.714   7.571  1.00  0.00     0.168 C 
HETATM   18  O   UNL     1     -44.610 -48.325   7.663  1.00  0.00    -0.376 OA
ENDBRANCH   2  14
TORSDOF 4
ENDMDL
MODEL 2
REMARK VINA RESULT:      -5.1      5.736      6.440
REMARK  4 active torsions:
REMARK  status: ('A' for Active; 'I' for Inactive)
REMARK       I    between atoms: C_2  and  N_3 
REMARK    1  A    between atoms: C_2  and  C_13 
REMARK    2  A    between atoms: N_3  and  C_4 
REMARK    3  A    between atoms: C_4  and  C_5 
REMARK    4  A    between atoms: C_5  and  C_6 
ROOT
HETATM    1  O   UNL     1     -44.103 -54.288  12.209  1.00  0.00    -0.271 OA
HETATM    2  C   UNL     1     -44.401 -53.161  12.596  1.00  0.00     0.246 C 
HETATM    3  N   UNL     1     -43.498 -52.118  12.652  1.00  0.00    -0.359 N 
HETATM    4  H   UNL     1     -43.903 -51.191  12.762  1.00  0.00     0.162 HD
ENDROOT
BRANCH   3   5
HETATM    5  C   UNL     1     -42.150 -52.285  12.132  1.00  0.00     0.128 C 
BRANCH   5   6
HETATM    6  C   UNL     1     -41.089 -52.342  13.226  1.00  0.00     0.076 C 
BRANCH   6   7
HETATM    7  C   UNL     1     -39.867 -51.557  12.825  1.00  0.00     0.010 A 
HETATM    8  C   UNL     1     -38.684 -51.659  13.554  1.00  0.00     0.025 A 
HETATM    9  C   UNL     1     -37.588 -50.887  13.173  1.00  0.00     0.003 A 
HETATM   10  C   UNL     1     -37.702 -50.034  12.083  1.00  0.00     0.017 A 
HETATM   11  C   UNL     1     -38.914 -49.989  11.415  1.00  0.00     0.088 A 
HETATM   12  N   UNL     1     -39.992 -50.727  11.760  1.00  0.00    -0.369 N 
ATOM     13  HN  UNL     1     -40.867 -50.662  11.240  1.00  0.00     0.165 HD
ENDBRANCH   6   7
ENDBRANCH   5   6
ENDBRANCH   3   5
BRANCH   2  14
HETATM   14  C   UNL     1     -45.790 -52.804  13.148  1.00  0.00     0.213 C 
HETATM   15  C   UNL     1     -45.891 -51.348  13.581  1.00  0.00     0.043 C 
HETATM   16  C   UNL     1     -46.698 -51.372  14.859  1.00  0.00     0.029 C 
HETATM   17  C   UNL     1     -47.122 -52.814  15.018  1.00  0.00     0.168 C 
HETATM   18  O   UNL     1     -46.170 -53.592  14.284  1.00  0.00    -0.376 OA
ENDBRANCH   2  14
TORSDOF 4
ENDMDL
MODEL 3
REMARK VINA RESULT:      -5.1      2.116      2.693
REMARK  4 active torsions:
REMARK  status: ('A' for Active; 'I' for Inactive)
REMARK       I    between atoms: C_2  and  N_3 
REMARK    1  A    between atoms: C_2  and  C_13 
REMARK    2  A    between atoms: N_3  and  C_4 
REMARK    3  A    between atoms: C_4  and  C_5 
REMARK    4  A    between atoms: C_5  and  C_6 
ROOT
HETATM    1  O   UNL     1     -42.764 -45.966   9.084  1.00  0.00    -0.271 OA
HETATM    2  C   UNL     1     -43.422 -46.996   9.200  1.00  0.00     0.246 C 
HETATM    3  N   UNL     1     -42.979 -48.102   9.900  1.00  0.00    -0.359 N 
HETATM    4  H   UNL     1     -43.690 -48.794  10.123  1.00  0.00     0.162 HD
ENDROOT
BRANCH   3   5
HETATM    5  C   UNL     1     -41.731 -48.047  10.644  1.00  0.00     0.128 C 
BRANCH   5   6
HETATM    6  C   UNL     1     -41.015 -49.391  10.712  1.00  0.00     0.076 C 
BRANCH   6   7
HETATM    7  C   UNL     1     -39.802 -49.306  11.601  1.00  0.00     0.010 A 
HETATM    8  C   UNL     1     -39.807 -48.501  12.738  1.00  0.00     0.025 A 
HETATM    9  C   UNL     1     -38.651 -48.420  13.512  1.00  0.00     0.003 A 
HETATM   10  C   UNL     1     -37.525 -49.137  13.132  1.00  0.00     0.017 A 
HETATM   11  C   UNL     1     -37.601 -49.911  11.986  1.00  0.00     0.088 A 
HETATM   12  N   UNL     1     -38.708 -50.010  11.218  1.00  0.00    -0.369 N 
ATOM     13  HN  UNL     1     -38.721 -50.593  10.381  1.00  0.00     0.165 HD
ENDBRANCH   6   7
ENDBRANCH   5   6
ENDBRANCH   3   5
BRANCH   2  14
HETATM   14  C   UNL     1     -44.777 -47.208   8.505  1.00  0.00     0.213 C 
HETATM   15  C   UNL     1     -45.928 -47.335   9.494  1.00  0.00     0.043 C 
HETATM   16  C   UNL     1     -46.811 -48.426   8.932  1.00  0.00     0.029 C 
HETATM   17  C   UNL     1     -46.191 -48.772   7.598  1.00  0.00     0.168 C 
HETATM   18  O   UNL     1     -44.816 -48.383   7.684  1.00  0.00    -0.376 OA
ENDBRANCH   2  14
TORSDOF 4
ENDMDL
MODEL 4
REMARK VINA RESULT:      -4.9      4.145      6.231
REMARK  4 active torsions:
REMARK  status: ('A' for Active; 'I' for Inactive)
REMARK       I    between atoms: C_2  and  N_3 
REMARK    1  A    between atoms: C_2  and  C_13 
REMARK    2  A    between atoms: N_3  and  C_4 
REMARK    3  A    between atoms: C_4  and  C_5 
REMARK    4  A    between atoms: C_5  and  C_6 
ROOT
HETATM    1  O   UNL     1     -40.349 -50.164  13.157  1.00  0.00    -0.271 OA
HETATM    2  C   UNL     1     -40.839 -50.757  12.199  1.00  0.00     0.246 C 
HETATM    3  N   UNL     1     -41.413 -50.109  11.122  1.00  0.00    -0.359 N 
HETATM    4  H   UNL     1     -41.571 -50.683  10.298  1.00  0.00     0.162 HD
ENDROOT
BRANCH   3   5
HETATM    5  C   UNL     1     -41.355 -48.660  11.022  1.00  0.00     0.128 C 
BRANCH   5   6
HETATM    6  C   UNL     1     -42.552 -47.966  11.663  1.00  0.00     0.076 C 
BRANCH   6   7
HETATM    7  C   UNL     1     -43.450 -47.369  10.610  1.00  0.00     0.010 A 
HETATM    8  C   UNL     1     -43.110 -46.174   9.979  1.00  0.00     0.025 A 
HETATM    9  C   UNL     1     -43.987 -45.635   9.039  1.00  0.00     0.003 A 
HETATM   10  C   UNL     1     -45.175 -46.296   8.759  1.00  0.00     0.017 A 
HETATM   11  C   UNL     1     -45.439 -47.477   9.433  1.00  0.00     0.088 A 
HETATM   12  N   UNL     1     -44.608 -48.024  10.347  1.00  0.00    -0.369 N 
ATOM     13  HN  UNL     1     -44.842 -48.896  10.821  1.00  0.00     0.165 HD
ENDBRANCH   6   7
ENDBRANCH   5   6
ENDBRANCH   3   5
BRANCH   2  14
HETATM   14  C   UNL     1     -40.953 -52.288  12.129  1.00  0.00     0.213 C 
HETATM   15  C   UNL     1     -42.320 -52.793  12.569  1.00  0.00     0.043 C 
HETATM   16  C   UNL     1     -42.037 -54.040  13.378  1.00  0.00     0.029 C 
HETATM   17  C   UNL     1     -40.546 -54.249  13.250  1.00  0.00     0.168 C 
HETATM   18  O   UNL     1     -39.988 -52.967  12.943  1.00  0.00    -0.376 OA
ENDBRANCH   2  14
TORSDOF 4
ENDMDL
MODEL 5
REMARK VINA RESULT:      -4.9      7.041      9.105
REMARK  4 active torsions:
REMARK  status: ('A' for Active; 'I' for Inactive)
REMARK       I    between atoms: C_2  and  N_3 
REMARK    1  A    between atoms: C_2  and  C_13 
REMARK    2  A    between atoms: N_3  and  C_4 
REMARK    3  A    between atoms: C_4  and  C_5 
REMARK    4  A    between atoms: C_5  and  C_6 
ROOT
HETATM    1  O   UNL     1     -42.900 -51.694  13.090  1.00  0.00    -0.271 OA
HETATM    2  C   UNL     1     -42.313 -52.746  12.850  1.00  0.00     0.246 C 
HETATM    3  N   UNL     1     -42.967 -53.942  12.625  1.00  0.00    -0.359 N 
HETATM    4  H   UNL     1     -42.401 -54.681  12.214  1.00  0.00     0.162 HD
ENDROOT
BRANCH   3   5
HETATM    5  C   UNL     1     -44.418 -53.981  12.544  1.00  0.00     0.128 C 
BRANCH   5   6
HETATM    6  C   UNL     1     -45.072 -54.557  13.795  1.00  0.00     0.076 C 
BRANCH   6   7
HETATM    7  C   UNL     1     -45.778 -53.478  14.574  1.00  0.00     0.010 A 
HETATM    8  C   UNL     1     -46.298 -52.357  13.930  1.00  0.00     0.025 A 
HETATM    9  C   UNL     1     -46.909 -51.364  14.693  1.00  0.00     0.003 A 
HETATM   10  C   UNL     1     -46.981 -51.511  16.072  1.00  0.00     0.017 A 
HETATM   11  C   UNL     1     -46.436 -52.654  16.634  1.00  0.00     0.088 A 
HETATM   12  N   UNL     1     -45.840 -53.634  15.920  1.00  0.00    -0.369 N 
ATOM     13  HN  UNL     1     -45.452 -54.460  16.376  1.00  0.00     0.165 HD
ENDBRANCH   6   7
ENDBRANCH   5   6
ENDBRANCH   3   5
BRANCH   2  14
HETATM   14  C   UNL     1     -40.781 -52.874  12.865  1.00  0.00     0.213 C 
HETATM   15  C   UNL     1     -40.312 -54.206  13.433  1.00  0.00     0.043 C 
HETATM   16  C   UNL     1     -39.103 -53.869  14.278  1.00  0.00     0.029 C 
HETATM   17  C   UNL     1     -38.873 -52.393  14.046  1.00  0.00     0.168 C 
HETATM   18  O   UNL     1     -40.133 -51.853  13.634  1.00  0.00    -0.376 OA
ENDBRANCH   2  14
TORSDOF 4
ENDMDL
MODEL 6
REMARK VINA RESULT:      -4.9      5.837      8.282
REMARK  4 active torsions:
REMARK  status: ('A' for Active; 'I' for Inactive)
REMARK       I    between atoms: C_2  and  N_3 
REMARK    1  A    between atoms: C_2  and  C_13 
REMARK    2  A    between atoms: N_3  and  C_4 
REMARK    3  A    between atoms: C_4  and  C_5 
REMARK    4  A    between atoms: C_5  and  C_6 
ROOT
HETATM    1  O   UNL     1     -41.623 -51.529  11.823  1.00  0.00    -0.271 OA
HETATM    2  C   UNL     1     -40.764 -51.908  12.613  1.00  0.00     0.246 C 
HETATM    3  N   UNL     1     -40.889 -53.055  13.374  1.00  0.00    -0.359 N 
HETATM    4  H   UNL     1     -40.033 -53.389  13.809  1.00  0.00     0.162 HD
ENDROOT
BRANCH   3   5
HETATM    5  C   UNL     1     -42.023 -53.944  13.179  1.00  0.00     0.128 C 
BRANCH   5   6
HETATM    6  C   UNL     1     -43.018 -53.908  14.334  1.00  0.00     0.076 C 
BRANCH   6   7
HETATM    7  C   UNL     1     -44.210 -53.055  13.986  1.00  0.00     0.010 A 
HETATM    8  C   UNL     1     -44.698 -52.111  14.887  1.00  0.00     0.025 A 
HETATM    9  C   UNL     1     -45.827 -51.370  14.542  1.00  0.00     0.003 A 
HETATM   10  C   UNL     1     -46.439 -51.593  13.315  1.00  0.00     0.017 A 
HETATM   11  C   UNL     1     -45.893 -52.552  12.479  1.00  0.00     0.088 A 
HETATM   12  N   UNL     1     -44.799 -53.284  12.786  1.00  0.00    -0.369 N 
ATOM     13  HN  UNL     1     -44.430 -53.981  12.139  1.00  0.00     0.165 HD
ENDBRANCH   6   7
ENDBRANCH   5   6
ENDBRANCH   3   5
BRANCH   2  14
HETATM   14  C   UNL     1     -39.489 -51.105  12.915  1.00  0.00     0.213 C 
HETATM   15  C   UNL     1     -39.194 -50.055  11.852  1.00  0.00     0.043 C 
HETATM   16  C   UNL     1     -37.694 -50.099  11.662  1.00  0.00     0.029 C 
HETATM   17  C   UNL     1     -37.203 -51.072  12.709  1.00  0.00     0.168 C 
HETATM   18  O   UNL     1     -38.314 -51.920  13.018  1.00  0.00    -0.376 OA
ENDBRANCH   2  14
TORSDOF 4
ENDMDL
MODEL 7
REMARK VINA RESULT:      -4.9      3.695      5.561
REMARK  4 active torsions:
REMARK  status: ('A' for Active; 'I' for Inactive)
REMARK       I    between atoms: C_2  and  N_3 
REMARK    1  A    between atoms: C_2  and  C_13 
REMARK    2  A    between atoms: N_3  and  C_4 
REMARK    3  A    between atoms: C_4  and  C_5 
REMARK    4  A    between atoms: C_5  and  C_6 
ROOT
HETATM    1  O   UNL     1     -42.880 -46.654  12.122  1.00  0.00    -0.271 OA
HETATM    2  C   UNL     1     -43.104 -47.498  11.259  1.00  0.00     0.246 C 
HETATM    3  N   UNL     1     -42.789 -48.835  11.410  1.00  0.00    -0.359 N 
HETATM    4  H   UNL     1     -43.224 -49.467  10.741  1.00  0.00     0.162 HD
ENDROOT
BRANCH   3   5
HETATM    5  C   UNL     1     -42.274 -49.329  12.676  1.00  0.00     0.128 C 
BRANCH   5   6
HETATM    6  C   UNL     1     -43.372 -49.677  13.675  1.00  0.00     0.076 C 
BRANCH   6   7
HETATM    7  C   UNL     1     -44.038 -50.977  13.306  1.00  0.00     0.010 A 
HETATM    8  C   UNL     1     -45.387 -51.190  13.579  1.00  0.00     0.025 A 
HETATM    9  C   UNL     1     -45.954 -52.421  13.257  1.00  0.00     0.003 A 
HETATM   10  C   UNL     1     -45.164 -53.405  12.677  1.00  0.00     0.017 A 
HETATM   11  C   UNL     1     -43.831 -53.114  12.442  1.00  0.00     0.088 A 
HETATM   12  N   UNL     1     -43.254 -51.929  12.742  1.00  0.00    -0.369 N 
ATOM     13  HN  UNL     1     -42.267 -51.758  12.551  1.00  0.00     0.165 HD
ENDBRANCH   6   7
ENDBRANCH   5   6
ENDBRANCH   3   5
BRANCH   2  14
HETATM   14  C   UNL     1     -43.675 -47.152   9.874  1.00  0.00     0.213 C 
HETATM   15  C   UNL     1     -45.155 -47.486   9.753  1.00  0.00     0.043 C 
HETATM   16  C   UNL     1     -45.316 -48.058   8.362  1.00  0.00     0.029 C 
HETATM   17  C   UNL     1     -43.955 -47.902   7.723  1.00  0.00     0.168 C 
HETATM   18  O   UNL     1     -43.015 -47.835   8.800  1.00  0.00    -0.376 OA
ENDBRANCH   2  14
TORSDOF 4
ENDMDL
MODEL 8
REMARK VINA RESULT:      -4.9      5.090      6.999
REMARK  4 active torsions:
REMARK  status: ('A' for Active; 'I' for Inactive)
REMARK       I    between atoms: C_2  and  N_3 
REMARK    1  A    between atoms: C_2  and  C_13 
REMARK    2  A    between atoms: N_3  and  C_4 
REMARK    3  A    between atoms: C_4  and  C_5 
REMARK    4  A    between atoms: C_5  and  C_6 
ROOT
HETATM    1  O   UNL     1     -41.816 -50.872  14.128  1.00  0.00    -0.271 OA
HETATM    2  C   UNL     1     -42.047 -50.626  12.947  1.00  0.00     0.246 C 
HETATM    3  N   UNL     1     -42.409 -51.594  12.030  1.00  0.00    -0.359 N 
HETATM    4  H   UNL     1     -42.796 -51.247  11.155  1.00  0.00     0.162 HD
ENDROOT
BRANCH   3   5
HETATM    5  C   UNL     1     -42.652 -52.960  12.463  1.00  0.00     0.128 C 
BRANCH   5   6
HETATM    6  C   UNL     1     -44.122 -53.359  12.391  1.00  0.00     0.076 C 
BRANCH   6   7
HETATM    7  C   UNL     1     -44.916 -52.673  13.472  1.00  0.00     0.010 A 
HETATM    8  C   UNL     1     -46.105 -52.011  13.172  1.00  0.00     0.025 A 
HETATM    9  C   UNL     1     -46.788 -51.356  14.194  1.00  0.00     0.003 A 
HETATM   10  C   UNL     1     -46.268 -51.374  15.482  1.00  0.00     0.017 A 
HETATM   11  C   UNL     1     -45.080 -52.052  15.695  1.00  0.00     0.088 A 
HETATM   12  N   UNL     1     -44.397 -52.697  14.724  1.00  0.00    -0.369 N 
ATOM     13  HN  UNL     1     -43.524 -53.185  14.926  1.00  0.00     0.165 HD
ENDBRANCH   6   7
ENDBRANCH   5   6
ENDBRANCH   3   5
BRANCH   2  14
HETATM   14  C   UNL     1     -41.870 -49.229  12.332  1.00  0.00     0.213 C 
HETATM   15  C   UNL     1     -43.184 -48.467  12.224  1.00  0.00     0.043 C 
HETATM   16  C   UNL     1     -43.121 -47.762  10.887  1.00  0.00     0.029 C 
HETATM   17  C   UNL     1     -41.733 -48.052  10.365  1.00  0.00     0.168 C 
HETATM   18  O   UNL     1     -41.307 -49.255  11.013  1.00  0.00    -0.376 OA
ENDBRANCH   2  14
TORSDOF 4
ENDMDL
MODEL 9
REMARK VINA RESULT:      -4.8      6.216      8.539
REMARK  4 active torsions:
REMARK  status: ('A' for Active; 'I' for Inactive)
REMARK       I    between atoms: C_2  and  N_3 
REMARK    1  A    between atoms: C_2  and  C_13 
REMARK    2  A    between atoms: N_3  and  C_4 
REMARK    3  A    between atoms: C_4  and  C_5 
REMARK    4  A    between atoms: C_5  and  C_6 
ROOT
HETATM    1  O   UNL     1     -39.792 -53.894  13.257  1.00  0.00    -0.271 OA
HETATM    2  C   UNL     1     -40.341 -52.796  13.269  1.00  0.00     0.246 C 
HETATM    3  N   UNL     1     -41.714 -52.636  13.257  1.00  0.00    -0.359 N 
HETATM    4  H   UNL     1     -42.050 -51.708  13.501  1.00  0.00     0.162 HD
ENDROOT
BRANCH   3   5
HETATM    5  C   UNL     1     -42.587 -53.795  13.349  1.00  0.00     0.128 C 
BRANCH   5   6
HETATM    6  C   UNL     1     -43.887 -53.629  12.569  1.00  0.00     0.076 C 
BRANCH   6   7
HETATM    7  C   UNL     1     -44.937 -52.957  13.417  1.00  0.00     0.010 A 
HETATM    8  C   UNL     1     -45.828 -52.045  12.857  1.00  0.00     0.025 A 
HETATM    9  C   UNL     1     -46.759 -51.417  13.683  1.00  0.00     0.003 A 
HETATM   10  C   UNL     1     -46.772 -51.711  15.040  1.00  0.00     0.017 A 
HETATM   11  C   UNL     1     -45.850 -52.627  15.517  1.00  0.00     0.088 A 
HETATM   12  N   UNL     1     -44.938 -53.253  14.740  1.00  0.00    -0.369 N 
ATOM     13  HN  UNL     1     -44.276 -53.921  15.134  1.00  0.00     0.165 HD
ENDBRANCH   6   7
ENDBRANCH   5   6
ENDBRANCH   3   5
BRANCH   2  14
HETATM   14  C   UNL     1     -39.566 -51.470  13.207  1.00  0.00     0.213 C 
HETATM   15  C   UNL     1     -40.178 -50.481  12.223  1.00  0.00     0.043 C 
HETATM   16  C   UNL     1     -38.998 -49.830  11.536  1.00  0.00     0.029 C 
HETATM   17  C   UNL     1     -37.786 -50.384  12.248  1.00  0.00     0.168 C 
HETATM   18  O   UNL     1     -38.195 -51.630  12.821  1.00  0.00    -0.376 OA
ENDBRANCH   2  14
TORSDOF 4
ENDMDL
