MODEL 1
REMARK VINA RESULT:      -7.0      0.000      0.000
REMARK  5 active torsions:
REMARK  status: ('A' for Active; 'I' for Inactive)
REMARK    1  A    between atoms: C_7  and  C_9 
REMARK    2  A    between atoms: C_9  and  O_10 
REMARK    3  A    between atoms: C_9  and  C_11 
REMARK    4  A    between atoms: C_11  and  N_12 
REMARK    5  A    between atoms: C_16  and  C_20 
ROOT
HETATM    1  N   UNL     1     -41.321 -50.351  12.232  1.00  0.00    -0.308 N 
HETATM    2  C   UNL     1     -40.970 -49.681  11.092  1.00  0.00     0.186 A 
HETATM    3  N   UNL     1     -41.617 -48.687  10.584  1.00  0.00    -0.355 N 
ATOM      4  HN  UNL     1     -41.304 -48.227   9.729  1.00  0.00     0.166 HD
HETATM    5  C   UNL     1     -42.745 -48.275  11.245  1.00  0.00     0.019 A 
HETATM    6  C   UNL     1     -43.210 -48.856  12.357  1.00  0.00     0.100 A 
HETATM    7  C   UNL     1     -42.456 -49.991  12.922  1.00  0.00     0.250 A 
HETATM    8  O   UNL     1     -42.846 -50.515  13.961  1.00  0.00    -0.268 OA
ENDROOT
BRANCH   1   9
HETATM    9  C   UNL     1     -40.429 -51.350  12.802  1.00  0.00     0.169 C 
BRANCH   9  10
HETATM   10  C   UNL     1     -40.664 -52.807  12.348  1.00  0.00     0.170 C 
BRANCH  10  11
HETATM   11  C   UNL     1     -41.499 -53.629  13.322  1.00  0.00    -0.022 A 
HETATM   12  C   UNL     1     -40.937 -54.196  14.490  1.00  0.00    -0.053 A 
HETATM   13  C   UNL     1     -41.753 -54.944  15.356  1.00  0.00     0.008 A 
HETATM   14  C   UNL     1     -39.490 -54.012  14.862  1.00  0.00     0.049 C 
HETATM   15  C   UNL     1     -43.111 -55.119  15.096  1.00  0.00     0.007 A 
HETATM   16  C   UNL     1     -43.687 -54.550  13.961  1.00  0.00    -0.061 A 
HETATM   17  C   UNL     1     -45.155 -54.696  13.692  1.00  0.00     0.048 C 
HETATM   18  C   UNL     1     -42.876 -53.828  13.075  1.00  0.00     0.017 A 
ENDBRANCH  10  11
BRANCH  10  19
HETATM   19  O   UNL     1     -41.301 -52.753  11.061  1.00  0.00    -0.389 OA
HETATM   20  H   UNL     1     -41.322 -53.648  10.685  1.00  0.00     0.210 HD
ENDBRANCH  10  19
ENDBRANCH   9  10
ENDBRANCH   1   9
BRANCH   5  21
HETATM   21  C   UNL     1     -43.415 -47.056  10.706  1.00  0.00     0.036 C 
HETATM   22  C   UNL     1     -44.445 -47.209   9.553  1.00  0.00     0.011 C 
HETATM   23  C   UNL     1     -43.881 -45.899   8.966  1.00  0.00     0.001 C 
HETATM   24  C   UNL     1     -42.568 -46.220   9.705  1.00  0.00     0.011 C 
ENDBRANCH   5  21
TORSDOF 5
ENDMDL
MODEL 2
REMARK VINA RESULT:      -6.9      2.894      6.871
REMARK  5 active torsions:
REMARK  status: ('A' for Active; 'I' for Inactive)
REMARK    1  A    between atoms: C_7  and  C_9 
REMARK    2  A    between atoms: C_9  and  O_10 
REMARK    3  A    between atoms: C_9  and  C_11 
REMARK    4  A    between atoms: C_11  and  N_12 
REMARK    5  A    between atoms: C_16  and  C_20 
ROOT
HETATM    1  N   UNL     1     -40.545 -52.107  12.582  1.00  0.00    -0.308 N 
HETATM    2  C   UNL     1     -41.747 -51.611  12.156  1.00  0.00     0.186 A 
HETATM    3  N   UNL     1     -42.875 -52.234  12.226  1.00  0.00    -0.355 N 
ATOM      4  HN  UNL     1     -43.740 -51.809  11.891  1.00  0.00     0.166 HD
HETATM    5  C   UNL     1     -42.860 -53.492  12.769  1.00  0.00     0.019 A 
HETATM    6  C   UNL     1     -41.752 -54.101  13.204  1.00  0.00     0.100 A 
HETATM    7  C   UNL     1     -40.471 -53.373  13.116  1.00  0.00     0.250 A 
HETATM    8  O   UNL     1     -39.448 -53.901  13.542  1.00  0.00    -0.268 OA
ENDROOT
BRANCH   1   9
HETATM    9  C   UNL     1     -39.365 -51.256  12.606  1.00  0.00     0.169 C 
BRANCH   9  10
HETATM   10  C   UNL     1     -39.482 -49.913  11.851  1.00  0.00     0.170 C 
BRANCH  10  11
HETATM   11  C   UNL     1     -39.085 -48.701  12.686  1.00  0.00    -0.022 A 
HETATM   12  C   UNL     1     -39.725 -47.449  12.530  1.00  0.00    -0.053 A 
HETATM   13  C   UNL     1     -39.323 -46.364  13.326  1.00  0.00     0.008 A 
HETATM   14  C   UNL     1     -40.849 -47.232  11.552  1.00  0.00     0.049 C 
HETATM   15  C   UNL     1     -38.318 -46.504  14.282  1.00  0.00     0.007 A 
HETATM   16  C   UNL     1     -37.691 -47.736  14.464  1.00  0.00    -0.061 A 
HETATM   17  C   UNL     1     -36.638 -47.911  15.519  1.00  0.00     0.048 C 
HETATM   18  C   UNL     1     -38.064 -48.817  13.654  1.00  0.00     0.017 A 
ENDBRANCH  10  11
BRANCH  10  19
HETATM   19  O   UNL     1     -38.654 -50.010  10.681  1.00  0.00    -0.389 OA
HETATM   20  H   UNL     1     -38.923 -49.323  10.050  1.00  0.00     0.210 HD
ENDBRANCH  10  19
ENDBRANCH   9  10
ENDBRANCH   1   9
BRANCH   5  21
HETATM   21  C   UNL     1     -44.188 -54.148  12.943  1.00  0.00     0.036 C 
HETATM   22  C   UNL     1     -45.406 -53.286  13.373  1.00  0.00     0.011 C 
HETATM   23  C   UNL     1     -45.859 -54.478  14.240  1.00  0.00     0.001 C 
HETATM   24  C   UNL     1     -44.382 -54.913  14.283  1.00  0.00     0.011 C 
ENDBRANCH   5  21
TORSDOF 5
ENDMDL
MODEL 3
REMARK VINA RESULT:      -6.8      3.105      6.356
REMARK  5 active torsions:
REMARK  status: ('A' for Active; 'I' for Inactive)
REMARK    1  A    between atoms: C_7  and  C_9 
REMARK    2  A    between atoms: C_9  and  O_10 
REMARK    3  A    between atoms: C_9  and  C_11 
REMARK    4  A    between atoms: C_11  and  N_12 
REMARK    5  A    between atoms: C_16  and  C_20 
ROOT
HETATM    1  N   UNL     1     -40.922 -51.527  12.471  1.00  0.00    -0.308 N 
HETATM    2  C   UNL     1     -41.928 -50.599  12.457  1.00  0.00     0.186 A 
HETATM    3  N   UNL     1     -43.161 -50.836  12.756  1.00  0.00    -0.355 N 
ATOM      4  HN  UNL     1     -43.867 -50.100  12.727  1.00  0.00     0.166 HD
HETATM    5  C   UNL     1     -43.481 -52.120  13.114  1.00  0.00     0.019 A 
HETATM    6  C   UNL     1     -42.598 -53.124  13.149  1.00  0.00     0.100 A 
HETATM    7  C   UNL     1     -41.193 -52.835  12.803  1.00  0.00     0.250 A 
HETATM    8  O   UNL     1     -40.360 -53.734  12.863  1.00  0.00    -0.268 OA
ENDROOT
BRANCH   1   9
HETATM    9  C   UNL     1     -39.540 -51.115  12.275  1.00  0.00     0.169 C 
BRANCH   9  10
HETATM   10  C   UNL     1     -39.330 -49.776  11.536  1.00  0.00     0.170 C 
BRANCH  10  11
HETATM   11  C   UNL     1     -39.020 -48.603  12.460  1.00  0.00    -0.022 A 
HETATM   12  C   UNL     1     -39.714 -47.375  12.362  1.00  0.00    -0.053 A 
HETATM   13  C   UNL     1     -39.391 -46.327  13.240  1.00  0.00     0.008 A 
HETATM   14  C   UNL     1     -40.814 -47.146  11.360  1.00  0.00     0.049 C 
HETATM   15  C   UNL     1     -38.413 -46.484  14.221  1.00  0.00     0.007 A 
HETATM   16  C   UNL     1     -37.732 -47.694  14.346  1.00  0.00    -0.061 A 
HETATM   17  C   UNL     1     -36.708 -47.889  15.424  1.00  0.00     0.048 C 
HETATM   18  C   UNL     1     -38.026 -48.736  13.455  1.00  0.00     0.017 A 
ENDBRANCH  10  11
BRANCH  10  19
HETATM   19  O   UNL     1     -38.259 -49.971  10.598  1.00  0.00    -0.389 OA
HETATM   20  H   UNL     1     -37.539 -49.356  10.813  1.00  0.00     0.210 HD
ENDBRANCH  10  19
ENDBRANCH   9  10
ENDBRANCH   1   9
BRANCH   5  21
HETATM   21  C   UNL     1     -44.885 -52.346  13.563  1.00  0.00     0.036 C 
HETATM   22  C   UNL     1     -46.051 -51.794  12.700  1.00  0.00     0.011 C 
HETATM   23  C   UNL     1     -46.778 -51.457  14.018  1.00  0.00     0.001 C 
HETATM   24  C   UNL     1     -45.389 -51.389  14.680  1.00  0.00     0.011 C 
ENDBRANCH   5  21
TORSDOF 5
ENDMDL
MODEL 4
REMARK VINA RESULT:      -6.6      3.329      4.989
REMARK  5 active torsions:
REMARK  status: ('A' for Active; 'I' for Inactive)
REMARK    1  A    between atoms: C_7  and  C_9 
REMARK    2  A    between atoms: C_9  and  O_10 
REMARK    3  A    between atoms: C_9  and  C_11 
REMARK    4  A    between atoms: C_11  and  N_12 
REMARK    5  A    between atoms: C_16  and  C_20 
ROOT
HETATM    1  N   UNL     1     -41.766 -53.315  13.446  1.00  0.00    -0.308 N 
HETATM    2  C   UNL     1     -41.858 -52.299  12.533  1.00  0.00     0.186 A 
HETATM    3  N   UNL     1     -40.967 -51.383  12.349  1.00  0.00    -0.355 N 
ATOM      4  HN  UNL     1     -41.093 -50.650  11.650  1.00  0.00     0.166 HD
HETATM    5  C   UNL     1     -39.844 -51.439  13.132  1.00  0.00     0.019 A 
HETATM    6  C   UNL     1     -39.640 -52.366  14.074  1.00  0.00     0.100 A 
HETATM    7  C   UNL     1     -40.669 -53.404  14.272  1.00  0.00     0.250 A 
HETATM    8  O   UNL     1     -40.485 -54.285  15.106  1.00  0.00    -0.268 OA
ENDROOT
BRANCH   1   9
HETATM    9  C   UNL     1     -42.752 -54.385  13.455  1.00  0.00     0.169 C 
BRANCH   9  10
HETATM   10  C   UNL     1     -43.779 -54.350  14.608  1.00  0.00     0.170 C 
BRANCH  10  11
HETATM   11  C   UNL     1     -44.852 -53.279  14.446  1.00  0.00    -0.022 A 
HETATM   12  C   UNL     1     -45.273 -52.478  15.532  1.00  0.00    -0.053 A 
HETATM   13  C   UNL     1     -46.264 -51.503  15.328  1.00  0.00     0.008 A 
HETATM   14  C   UNL     1     -44.682 -52.610  16.911  1.00  0.00     0.049 C 
HETATM   15  C   UNL     1     -46.824 -51.297  14.069  1.00  0.00     0.007 A 
HETATM   16  C   UNL     1     -46.407 -52.063  12.982  1.00  0.00    -0.061 A 
HETATM   17  C   UNL     1     -46.972 -51.822  11.614  1.00  0.00     0.048 C 
HETATM   18  C   UNL     1     -45.441 -53.059  13.181  1.00  0.00     0.017 A 
ENDBRANCH  10  11
BRANCH  10  19
HETATM   19  O   UNL     1     -44.380 -55.654  14.681  1.00  0.00    -0.389 OA
HETATM   20  H   UNL     1     -44.324 -56.074  13.807  1.00  0.00     0.210 HD
ENDBRANCH  10  19
ENDBRANCH   9  10
ENDBRANCH   1   9
BRANCH   5  21
HETATM   21  C   UNL     1     -38.779 -50.440  12.826  1.00  0.00     0.036 C 
HETATM   22  C   UNL     1     -38.864 -49.629  11.505  1.00  0.00     0.011 C 
HETATM   23  C   UNL     1     -37.330 -49.756  11.408  1.00  0.00     0.001 C 
HETATM   24  C   UNL     1     -37.455 -51.030  12.264  1.00  0.00     0.011 C 
ENDBRANCH   5  21
TORSDOF 5
ENDMDL
MODEL 5
REMARK VINA RESULT:      -6.5      1.803      2.170
REMARK  5 active torsions:
REMARK  status: ('A' for Active; 'I' for Inactive)
REMARK    1  A    between atoms: C_7  and  C_9 
REMARK    2  A    between atoms: C_9  and  O_10 
REMARK    3  A    between atoms: C_9  and  C_11 
REMARK    4  A    between atoms: C_11  and  N_12 
REMARK    5  A    between atoms: C_16  and  C_20 
ROOT
HETATM    1  N   UNL     1     -41.527 -50.288  11.843  1.00  0.00    -0.308 N 
HETATM    2  C   UNL     1     -40.275 -50.035  11.353  1.00  0.00     0.186 A 
HETATM    3  N   UNL     1     -39.711 -48.875  11.319  1.00  0.00    -0.355 N 
ATOM      4  HN  UNL     1     -38.772 -48.750  10.940  1.00  0.00     0.166 HD
HETATM    5  C   UNL     1     -40.428 -47.818  11.815  1.00  0.00     0.019 A 
HETATM    6  C   UNL     1     -41.668 -47.925  12.304  1.00  0.00     0.100 A 
HETATM    7  C   UNL     1     -42.298 -49.259  12.334  1.00  0.00     0.250 A 
HETATM    8  O   UNL     1     -43.421 -49.385  12.812  1.00  0.00    -0.268 OA
ENDROOT
BRANCH   1   9
HETATM    9  C   UNL     1     -41.999 -51.658  11.983  1.00  0.00     0.169 C 
BRANCH   9  10
HETATM   10  C   UNL     1     -40.999 -52.660  12.599  1.00  0.00     0.170 C 
BRANCH  10  11
HETATM   11  C   UNL     1     -41.623 -53.608  13.617  1.00  0.00    -0.022 A 
HETATM   12  C   UNL     1     -40.889 -54.105  14.718  1.00  0.00    -0.053 A 
HETATM   13  C   UNL     1     -41.514 -54.975  15.628  1.00  0.00     0.008 A 
HETATM   14  C   UNL     1     -39.456 -53.722  14.974  1.00  0.00     0.049 C 
HETATM   15  C   UNL     1     -42.850 -55.338  15.477  1.00  0.00     0.007 A 
HETATM   16  C   UNL     1     -43.596 -54.841  14.409  1.00  0.00    -0.061 A 
HETATM   17  C   UNL     1     -45.046 -55.191  14.259  1.00  0.00     0.048 C 
HETATM   18  C   UNL     1     -42.974 -53.997  13.478  1.00  0.00     0.017 A 
ENDBRANCH  10  11
BRANCH  10  19
HETATM   19  O   UNL     1     -40.417 -53.402  11.514  1.00  0.00    -0.389 OA
HETATM   20  H   UNL     1     -39.561 -53.758  11.802  1.00  0.00     0.210 HD
ENDBRANCH  10  19
ENDBRANCH   9  10
ENDBRANCH   1   9
BRANCH   5  21
HETATM   21  C   UNL     1     -39.716 -46.508  11.870  1.00  0.00     0.036 C 
HETATM   22  C   UNL     1     -40.351 -45.338  12.668  1.00  0.00     0.011 C 
HETATM   23  C   UNL     1     -39.844 -44.394  11.559  1.00  0.00     0.001 C 
HETATM   24  C   UNL     1     -39.881 -45.608  10.612  1.00  0.00     0.011 C 
ENDBRANCH   5  21
TORSDOF 5
ENDMDL
MODEL 6
REMARK VINA RESULT:      -6.5      2.321      7.396
REMARK  5 active torsions:
REMARK  status: ('A' for Active; 'I' for Inactive)
REMARK    1  A    between atoms: C_7  and  C_9 
REMARK    2  A    between atoms: C_9  and  O_10 
REMARK    3  A    between atoms: C_9  and  C_11 
REMARK    4  A    between atoms: C_11  and  N_12 
REMARK    5  A    between atoms: C_16  and  C_20 
ROOT
HETATM    1  N   UNL     1     -41.424 -50.618  12.647  1.00  0.00    -0.308 N 
HETATM    2  C   UNL     1     -42.786 -50.548  12.758  1.00  0.00     0.186 A 
HETATM    3  N   UNL     1     -43.583 -51.563  12.781  1.00  0.00    -0.355 N 
ATOM      4  HN  UNL     1     -44.592 -51.446  12.867  1.00  0.00     0.166 HD
HETATM    5  C   UNL     1     -43.012 -52.806  12.687  1.00  0.00     0.019 A 
HETATM    6  C   UNL     1     -41.697 -53.013  12.553  1.00  0.00     0.100 A 
HETATM    7  C   UNL     1     -40.802 -51.840  12.528  1.00  0.00     0.250 A 
HETATM    8  O   UNL     1     -39.590 -52.010  12.442  1.00  0.00    -0.268 OA
ENDROOT
BRANCH   1   9
HETATM    9  C   UNL     1     -40.612 -49.419  12.795  1.00  0.00     0.169 C 
BRANCH   9  10
HETATM   10  C   UNL     1     -40.136 -48.756  11.485  1.00  0.00     0.170 C 
BRANCH  10  11
HETATM   11  C   UNL     1     -40.475 -47.272  11.386  1.00  0.00    -0.022 A 
HETATM   12  C   UNL     1     -41.570 -46.809  10.623  1.00  0.00    -0.053 A 
HETATM   13  C   UNL     1     -41.840 -45.431  10.567  1.00  0.00     0.008 A 
HETATM   14  C   UNL     1     -42.486 -47.740   9.874  1.00  0.00     0.049 C 
HETATM   15  C   UNL     1     -41.060 -44.515  11.270  1.00  0.00     0.007 A 
HETATM   16  C   UNL     1     -39.988 -44.955  12.045  1.00  0.00    -0.061 A 
HETATM   17  C   UNL     1     -39.167 -43.983  12.839  1.00  0.00     0.048 C 
HETATM   18  C   UNL     1     -39.692 -46.325  12.082  1.00  0.00     0.017 A 
ENDBRANCH  10  11
BRANCH  10  19
HETATM   19  O   UNL     1     -38.715 -48.952  11.400  1.00  0.00    -0.389 OA
HETATM   20  H   UNL     1     -38.542 -49.835  11.034  1.00  0.00     0.210 HD
ENDBRANCH  10  19
ENDBRANCH   9  10
ENDBRANCH   1   9
BRANCH   5  21
HETATM   21  C   UNL     1     -43.938 -53.967  12.829  1.00  0.00     0.036 C 
HETATM   22  C   UNL     1     -45.441 -53.702  13.119  1.00  0.00     0.011 C 
HETATM   23  C   UNL     1     -45.410 -54.935  14.043  1.00  0.00     0.001 C 
HETATM   24  C   UNL     1     -43.900 -54.683  14.209  1.00  0.00     0.011 C 
ENDBRANCH   5  21
TORSDOF 5
ENDMDL
MODEL 7
REMARK VINA RESULT:      -6.4      1.621      2.369
REMARK  5 active torsions:
REMARK  status: ('A' for Active; 'I' for Inactive)
REMARK    1  A    between atoms: C_7  and  C_9 
REMARK    2  A    between atoms: C_9  and  O_10 
REMARK    3  A    between atoms: C_9  and  C_11 
REMARK    4  A    between atoms: C_11  and  N_12 
REMARK    5  A    between atoms: C_16  and  C_20 
ROOT
HETATM    1  N   UNL     1     -40.046 -51.141  13.180  1.00  0.00    -0.308 N 
HETATM    2  C   UNL     1     -41.232 -50.466  13.285  1.00  0.00     0.186 A 
HETATM    3  N   UNL     1     -41.557 -49.424  12.597  1.00  0.00    -0.355 N 
ATOM      4  HN  UNL     1     -42.459 -48.964  12.721  1.00  0.00     0.166 HD
HETATM    5  C   UNL     1     -40.638 -48.963  11.691  1.00  0.00     0.019 A 
HETATM    6  C   UNL     1     -39.435 -49.518  11.504  1.00  0.00     0.100 A 
HETATM    7  C   UNL     1     -39.080 -50.708  12.301  1.00  0.00     0.250 A 
HETATM    8  O   UNL     1     -37.996 -51.253  12.119  1.00  0.00    -0.268 OA
ENDROOT
BRANCH   1   9
HETATM    9  C   UNL     1     -39.851 -52.398  13.887  1.00  0.00     0.169 C 
BRANCH   9  10
HETATM   10  C   UNL     1     -40.448 -53.654  13.215  1.00  0.00     0.170 C 
BRANCH  10  11
HETATM   11  C   UNL     1     -41.863 -53.986  13.674  1.00  0.00    -0.022 A 
HETATM   12  C   UNL     1     -42.108 -54.735  14.848  1.00  0.00    -0.053 A 
HETATM   13  C   UNL     1     -43.432 -55.011  15.228  1.00  0.00     0.008 A 
HETATM   14  C   UNL     1     -40.998 -55.237  15.733  1.00  0.00     0.049 C 
HETATM   15  C   UNL     1     -44.510 -54.541  14.480  1.00  0.00     0.007 A 
HETATM   16  C   UNL     1     -44.288 -53.783  13.331  1.00  0.00    -0.061 A 
HETATM   17  C   UNL     1     -45.440 -53.236  12.541  1.00  0.00     0.048 C 
HETATM   18  C   UNL     1     -42.971 -53.528  12.927  1.00  0.00     0.017 A 
ENDBRANCH  10  11
BRANCH  10  19
HETATM   19  O   UNL     1     -40.421 -53.430  11.796  1.00  0.00    -0.389 OA
HETATM   20  H   UNL     1     -40.089 -52.533  11.627  1.00  0.00     0.210 HD
ENDBRANCH  10  19
ENDBRANCH   9  10
ENDBRANCH   1   9
BRANCH   5  21
HETATM   21  C   UNL     1     -41.077 -47.829  10.828  1.00  0.00     0.036 C 
HETATM   22  C   UNL     1     -41.423 -46.468  11.490  1.00  0.00     0.011 C 
HETATM   23  C   UNL     1     -42.569 -46.337  10.466  1.00  0.00     0.001 C 
HETATM   24  C   UNL     1     -42.564 -47.874  10.375  1.00  0.00     0.011 C 
ENDBRANCH   5  21
TORSDOF 5
ENDMDL
MODEL 8
REMARK VINA RESULT:      -6.4      3.116      4.738
REMARK  5 active torsions:
REMARK  status: ('A' for Active; 'I' for Inactive)
REMARK    1  A    between atoms: C_7  and  C_9 
REMARK    2  A    between atoms: C_9  and  O_10 
REMARK    3  A    between atoms: C_9  and  C_11 
REMARK    4  A    between atoms: C_11  and  N_12 
REMARK    5  A    between atoms: C_16  and  C_20 
ROOT
HETATM    1  N   UNL     1     -39.799 -50.574  13.062  1.00  0.00    -0.308 N 
HETATM    2  C   UNL     1     -38.840 -51.052  13.912  1.00  0.00     0.186 A 
HETATM    3  N   UNL     1     -37.958 -50.330  14.519  1.00  0.00    -0.355 N 
ATOM      4  HN  UNL     1     -37.266 -50.746  15.143  1.00  0.00     0.166 HD
HETATM    5  C   UNL     1     -37.992 -48.980  14.288  1.00  0.00     0.019 A 
HETATM    6  C   UNL     1     -38.864 -48.387  13.465  1.00  0.00     0.100 A 
HETATM    7  C   UNL     1     -39.864 -49.228  12.780  1.00  0.00     0.250 A 
HETATM    8  O   UNL     1     -40.696 -48.701  12.048  1.00  0.00    -0.268 OA
ENDROOT
BRANCH   1   9
HETATM    9  C   UNL     1     -40.844 -51.456  12.563  1.00  0.00     0.169 C 
BRANCH   9  10
HETATM   10  C   UNL     1     -40.548 -52.969  12.642  1.00  0.00     0.170 C 
BRANCH  10  11
HETATM   11  C   UNL     1     -41.518 -53.742  13.529  1.00  0.00    -0.022 A 
HETATM   12  C   UNL     1     -41.096 -54.363  14.727  1.00  0.00    -0.053 A 
HETATM   13  C   UNL     1     -42.031 -55.061  15.509  1.00  0.00     0.008 A 
HETATM   14  C   UNL     1     -39.675 -54.290  15.219  1.00  0.00     0.049 C 
HETATM   15  C   UNL     1     -43.372 -55.133  15.137  1.00  0.00     0.007 A 
HETATM   16  C   UNL     1     -43.810 -54.509  13.970  1.00  0.00    -0.061 A 
HETATM   17  C   UNL     1     -45.258 -54.544  13.581  1.00  0.00     0.048 C 
HETATM   18  C   UNL     1     -42.880 -53.836  13.166  1.00  0.00     0.017 A 
ENDBRANCH  10  11
BRANCH  10  19
HETATM   19  O   UNL     1     -40.582 -53.480  11.298  1.00  0.00    -0.389 OA
HETATM   20  H   UNL     1     -39.776 -53.199  10.836  1.00  0.00     0.210 HD
ENDBRANCH  10  19
ENDBRANCH   9  10
ENDBRANCH   1   9
BRANCH   5  21
HETATM   21  C   UNL     1     -37.039 -48.153  15.083  1.00  0.00     0.036 C 
HETATM   22  C   UNL     1     -36.087 -48.856  16.089  1.00  0.00     0.011 C 
HETATM   23  C   UNL     1     -36.305 -47.655  17.031  1.00  0.00     0.001 C 
HETATM   24  C   UNL     1     -37.652 -47.434  16.319  1.00  0.00     0.011 C 
ENDBRANCH   5  21
TORSDOF 5
ENDMDL
MODEL 9
REMARK VINA RESULT:      -6.3      2.831      3.516
REMARK  5 active torsions:
REMARK  status: ('A' for Active; 'I' for Inactive)
REMARK    1  A    between atoms: C_7  and  C_9 
REMARK    2  A    between atoms: C_9  and  O_10 
REMARK    3  A    between atoms: C_9  and  C_11 
REMARK    4  A    between atoms: C_11  and  N_12 
REMARK    5  A    between atoms: C_16  and  C_20 
ROOT
HETATM    1  N   UNL     1     -40.992 -47.956  12.008  1.00  0.00    -0.308 N 
HETATM    2  C   UNL     1     -40.269 -47.238  12.921  1.00  0.00     0.186 A 
HETATM    3  N   UNL     1     -39.894 -46.012  12.773  1.00  0.00    -0.355 N 
ATOM      4  HN  UNL     1     -39.355 -45.529  13.493  1.00  0.00     0.166 HD
HETATM    5  C   UNL     1     -40.252 -45.386  11.608  1.00  0.00     0.019 A 
HETATM    6  C   UNL     1     -40.940 -45.979  10.626  1.00  0.00     0.100 A 
HETATM    7  C   UNL     1     -41.360 -47.382  10.812  1.00  0.00     0.250 A 
HETATM    8  O   UNL     1     -42.022 -47.933   9.939  1.00  0.00    -0.268 OA
ENDROOT
BRANCH   1   9
HETATM    9  C   UNL     1     -41.500 -49.277  12.347  1.00  0.00     0.169 C 
BRANCH   9  10
HETATM   10  C   UNL     1     -40.581 -50.467  11.997  1.00  0.00     0.170 C 
BRANCH  10  11
HETATM   11  C   UNL     1     -41.022 -51.789  12.617  1.00  0.00    -0.022 A 
HETATM   12  C   UNL     1     -40.169 -52.533  13.465  1.00  0.00    -0.053 A 
HETATM   13  C   UNL     1     -40.625 -53.744  14.012  1.00  0.00     0.008 A 
HETATM   14  C   UNL     1     -38.785 -52.067  13.831  1.00  0.00     0.049 C 
HETATM   15  C   UNL     1     -41.911 -54.215  13.751  1.00  0.00     0.007 A 
HETATM   16  C   UNL     1     -42.772 -53.485  12.933  1.00  0.00    -0.061 A 
HETATM   17  C   UNL     1     -44.172 -53.959  12.678  1.00  0.00     0.048 C 
HETATM   18  C   UNL     1     -42.316 -52.290  12.358  1.00  0.00     0.017 A 
ENDBRANCH  10  11
BRANCH  10  19
HETATM   19  O   UNL     1     -40.548 -50.572  10.564  1.00  0.00    -0.389 OA
HETATM   20  H   UNL     1     -40.426 -51.504  10.321  1.00  0.00     0.210 HD
ENDBRANCH  10  19
ENDBRANCH   9  10
ENDBRANCH   1   9
BRANCH   5  21
HETATM   21  C   UNL     1     -39.907 -43.938  11.506  1.00  0.00     0.036 C 
HETATM   22  C   UNL     1     -39.631 -43.136  12.807  1.00  0.00     0.011 C 
HETATM   23  C   UNL     1     -40.360 -41.947  12.147  1.00  0.00     0.001 C 
HETATM   24  C   UNL     1     -41.112 -42.981  11.288  1.00  0.00     0.011 C 
ENDBRANCH   5  21
TORSDOF 5
ENDMDL
