MODEL 1
REMARK VINA RESULT:      -6.2      0.000      0.000
REMARK  4 active torsions:
REMARK  status: ('A' for Active; 'I' for Inactive)
REMARK    1  A    between atoms: C_2  and  N_5 
REMARK       I    between atoms: N_5  and  C_6 
REMARK       I    between atoms: C_6  and  N_8 
REMARK    2  A    between atoms: C_11  and  N_14 
REMARK       I    between atoms: N_14  and  C_15 
REMARK    3  A    between atoms: C_15  and  C_17 
REMARK    4  A    between atoms: C_17  and  C_18 
ROOT
HETATM    1  N   UNL     1     -43.876 -47.840  10.445  1.00  0.00    -0.335 N 
HETATM    2  C   UNL     1     -42.611 -48.297  10.722  1.00  0.00     0.318 C 
HETATM    3  O   UNL     1     -41.684 -48.183   9.926  1.00  0.00    -0.247 OA
HETATM    4  N   UNL     1     -42.457 -48.950  11.944  1.00  0.00    -0.334 N 
HETATM    5  C   UNL     1     -43.542 -49.253  12.877  1.00  0.00     0.129 C 
HETATM    6  C   UNL     1     -43.053 -49.395  14.317  1.00  0.00     0.045 C 
HETATM    7  C   UNL     1     -41.866 -50.346  14.445  1.00  0.00     0.087 C 
HETATM    8  C   UNL     1     -40.755 -49.938  13.478  1.00  0.00     0.045 C 
HETATM    9  C   UNL     1     -41.269 -49.802  12.051  1.00  0.00     0.129 C 
HETATM   10  H   UNL     1     -44.414 -47.566  11.247  1.00  0.00     0.165 HD
ENDROOT
BRANCH   7  11
HETATM   11  N   UNL     1     -42.278 -51.735  14.265  1.00  0.00    -0.356 N 
HETATM   12  C   UNL     1     -41.700 -52.763  14.984  1.00  0.00     0.222 C 
HETATM   13  O   UNL     1     -40.834 -52.585  15.829  1.00  0.00    -0.273 OA
HETATM   14  H   UNL     1     -42.771 -51.987  13.416  1.00  0.00     0.162 HD
BRANCH  12  15
HETATM   15  C   UNL     1     -42.245 -54.135  14.653  1.00  0.00     0.142 C 
BRANCH  15  16
HETATM   16  C   UNL     1     -43.745 -54.217  14.736  1.00  0.00    -0.034 A 
HETATM   17  C   UNL     1     -44.424 -53.958  15.925  1.00  0.00     0.010 A 
HETATM   18  C   UNL     1     -45.809 -54.100  15.976  1.00  0.00     0.018 A 
HETATM   19  C   UNL     1     -46.468 -54.495  14.827  1.00  0.00     0.087 A 
HETATM   20  N   UNL     1     -45.849 -54.748  13.655  1.00  0.00    -0.375 N 
HETATM   21  C   UNL     1     -44.504 -54.601  13.632  1.00  0.00     0.095 A 
ATOM     22  HN  UNL     1     -46.370 -55.035  12.826  1.00  0.00     0.164 HD
ENDBRANCH  15  16
ENDBRANCH  12  15
ENDBRANCH   7  11
BRANCH   1  23
HETATM   23  C   UNL     1     -44.223 -47.104   9.215  1.00  0.00     0.023 C 
HETATM   24  C   UNL     1     -43.706 -47.815   7.951  1.00  0.00     0.037 C 
HETATM   25  C   UNL     1     -43.680 -45.667   9.282  1.00  0.00     0.037 C 
HETATM   26  C   UNL     1     -45.759 -47.042   9.117  1.00  0.00     0.037 C 
ENDBRANCH   1  23
TORSDOF 4
ENDMDL
MODEL 2
REMARK VINA RESULT:      -6.2      3.466      6.923
REMARK  4 active torsions:
REMARK  status: ('A' for Active; 'I' for Inactive)
REMARK    1  A    between atoms: C_2  and  N_5 
REMARK       I    between atoms: N_5  and  C_6 
REMARK       I    between atoms: C_6  and  N_8 
REMARK    2  A    between atoms: C_11  and  N_14 
REMARK       I    between atoms: N_14  and  C_15 
REMARK    3  A    between atoms: C_15  and  C_17 
REMARK    4  A    between atoms: C_17  and  C_18 
ROOT
HETATM    1  N   UNL     1     -44.673 -52.291  13.839  1.00  0.00    -0.335 N 
HETATM    2  C   UNL     1     -43.784 -52.765  14.772  1.00  0.00     0.318 C 
HETATM    3  O   UNL     1     -44.133 -53.099  15.900  1.00  0.00    -0.247 OA
HETATM    4  N   UNL     1     -42.447 -52.792  14.376  1.00  0.00    -0.334 N 
HETATM    5  C   UNL     1     -41.937 -52.275  13.106  1.00  0.00     0.129 C 
HETATM    6  C   UNL     1     -40.633 -52.948  12.682  1.00  0.00     0.045 C 
HETATM    7  C   UNL     1     -39.586 -52.957  13.793  1.00  0.00     0.087 C 
HETATM    8  C   UNL     1     -40.175 -53.554  15.070  1.00  0.00     0.045 C 
HETATM    9  C   UNL     1     -41.473 -52.867  15.469  1.00  0.00     0.129 C 
HETATM   10  H   UNL     1     -44.422 -52.470  12.883  1.00  0.00     0.165 HD
ENDROOT
BRANCH   7  11
HETATM   11  N   UNL     1     -39.030 -51.623  14.007  1.00  0.00    -0.356 N 
HETATM   12  C   UNL     1     -37.845 -51.228  13.418  1.00  0.00     0.222 C 
HETATM   13  O   UNL     1     -37.199 -51.944  12.666  1.00  0.00    -0.273 OA
HETATM   14  H   UNL     1     -39.347 -51.091  14.809  1.00  0.00     0.162 HD
BRANCH  12  15
HETATM   15  C   UNL     1     -37.419 -49.819  13.765  1.00  0.00     0.142 C 
BRANCH  15  16
HETATM   16  C   UNL     1     -38.287 -48.762  13.140  1.00  0.00    -0.034 A 
HETATM   17  C   UNL     1     -38.672 -47.623  13.847  1.00  0.00     0.010 A 
HETATM   18  C   UNL     1     -39.523 -46.695  13.253  1.00  0.00     0.018 A 
HETATM   19  C   UNL     1     -39.959 -46.939  11.964  1.00  0.00     0.087 A 
HETATM   20  N   UNL     1     -39.604 -48.023  11.244  1.00  0.00    -0.375 N 
HETATM   21  C   UNL     1     -38.775 -48.909  11.843  1.00  0.00     0.095 A 
ATOM     22  HN  UNL     1     -39.945 -48.168  10.293  1.00  0.00     0.164 HD
ENDBRANCH  15  16
ENDBRANCH  12  15
ENDBRANCH   7  11
BRANCH   1  23
HETATM   23  C   UNL     1     -46.128 -52.215  14.068  1.00  0.00     0.023 C 
HETATM   24  C   UNL     1     -46.482 -51.242  15.207  1.00  0.00     0.037 C 
HETATM   25  C   UNL     1     -46.696 -53.613  14.362  1.00  0.00     0.037 C 
HETATM   26  C   UNL     1     -46.783 -51.681  12.781  1.00  0.00     0.037 C 
ENDBRANCH   1  23
TORSDOF 4
ENDMDL
MODEL 3
REMARK VINA RESULT:      -6.0      3.012      3.856
REMARK  4 active torsions:
REMARK  status: ('A' for Active; 'I' for Inactive)
REMARK    1  A    between atoms: C_2  and  N_5 
REMARK       I    between atoms: N_5  and  C_6 
REMARK       I    between atoms: C_6  and  N_8 
REMARK    2  A    between atoms: C_11  and  N_14 
REMARK       I    between atoms: N_14  and  C_15 
REMARK    3  A    between atoms: C_15  and  C_17 
REMARK    4  A    between atoms: C_17  and  C_18 
ROOT
HETATM    1  N   UNL     1     -44.653 -47.857   9.970  1.00  0.00    -0.335 N 
HETATM    2  C   UNL     1     -43.472 -47.160   9.898  1.00  0.00     0.318 C 
HETATM    3  O   UNL     1     -43.174 -46.474   8.925  1.00  0.00    -0.247 OA
HETATM    4  N   UNL     1     -42.606 -47.322  10.979  1.00  0.00    -0.334 N 
HETATM    5  C   UNL     1     -42.826 -48.233  12.102  1.00  0.00     0.129 C 
HETATM    6  C   UNL     1     -42.095 -47.790  13.367  1.00  0.00     0.045 C 
HETATM    7  C   UNL     1     -40.619 -47.486  13.118  1.00  0.00     0.087 C 
HETATM    8  C   UNL     1     -40.471 -46.492  11.968  1.00  0.00     0.045 C 
HETATM    9  C   UNL     1     -41.210 -46.957  10.720  1.00  0.00     0.129 C 
HETATM   10  H   UNL     1     -45.008 -47.997  10.899  1.00  0.00     0.165 HD
ENDROOT
BRANCH   7  11
HETATM   11  N   UNL     1     -39.856 -48.711  12.899  1.00  0.00    -0.356 N 
HETATM   12  C   UNL     1     -39.415 -49.490  13.951  1.00  0.00     0.222 C 
HETATM   13  O   UNL     1     -39.651 -49.230  15.122  1.00  0.00    -0.273 OA
HETATM   14  H   UNL     1     -39.396 -48.840  12.005  1.00  0.00     0.162 HD
BRANCH  12  15
HETATM   15  C   UNL     1     -38.629 -50.713  13.531  1.00  0.00     0.142 C 
BRANCH  15  16
HETATM   16  C   UNL     1     -39.483 -51.938  13.351  1.00  0.00    -0.034 A 
HETATM   17  C   UNL     1     -39.305 -53.071  14.143  1.00  0.00     0.010 A 
HETATM   18  C   UNL     1     -40.077 -54.207  13.909  1.00  0.00     0.018 A 
HETATM   19  C   UNL     1     -41.007 -54.166  12.887  1.00  0.00     0.087 A 
HETATM   20  N   UNL     1     -41.215 -53.087  12.104  1.00  0.00    -0.375 N 
HETATM   21  C   UNL     1     -40.453 -51.996  12.353  1.00  0.00     0.095 A 
ATOM     22  HN  UNL     1     -41.913 -53.093  11.359  1.00  0.00     0.164 HD
ENDBRANCH  15  16
ENDBRANCH  12  15
ENDBRANCH   7  11
BRANCH   1  23
HETATM   23  C   UNL     1     -45.702 -47.788   8.935  1.00  0.00     0.023 C 
HETATM   24  C   UNL     1     -46.249 -46.359   8.763  1.00  0.00     0.037 C 
HETATM   25  C   UNL     1     -46.843 -48.762   9.267  1.00  0.00     0.037 C 
HETATM   26  C   UNL     1     -45.073 -48.208   7.594  1.00  0.00     0.037 C 
ENDBRANCH   1  23
TORSDOF 4
ENDMDL
MODEL 4
REMARK VINA RESULT:      -5.9      1.983      2.402
REMARK  4 active torsions:
REMARK  status: ('A' for Active; 'I' for Inactive)
REMARK    1  A    between atoms: C_2  and  N_5 
REMARK       I    between atoms: N_5  and  C_6 
REMARK       I    between atoms: C_6  and  N_8 
REMARK    2  A    between atoms: C_11  and  N_14 
REMARK       I    between atoms: N_14  and  C_15 
REMARK    3  A    between atoms: C_15  and  C_17 
REMARK    4  A    between atoms: C_17  and  C_18 
ROOT
HETATM    1  N   UNL     1     -43.834 -47.924  10.273  1.00  0.00    -0.335 N 
HETATM    2  C   UNL     1     -42.525 -47.829  10.678  1.00  0.00     0.318 C 
HETATM    3  O   UNL     1     -41.677 -47.235  10.020  1.00  0.00    -0.247 OA
HETATM    4  N   UNL     1     -42.206 -48.498  11.859  1.00  0.00    -0.334 N 
HETATM    5  C   UNL     1     -43.126 -49.346  12.618  1.00  0.00     0.129 C 
HETATM    6  C   UNL     1     -42.749 -49.442  14.095  1.00  0.00     0.045 C 
HETATM    7  C   UNL     1     -41.281 -49.805  14.306  1.00  0.00     0.087 C 
HETATM    8  C   UNL     1     -40.382 -48.849  13.525  1.00  0.00     0.045 C 
HETATM    9  C   UNL     1     -40.780 -48.770  12.057  1.00  0.00     0.129 C 
HETATM   10  H   UNL     1     -44.504 -48.005  11.016  1.00  0.00     0.165 HD
ENDROOT
BRANCH   7  11
HETATM   11  N   UNL     1     -41.029 -51.204  13.973  1.00  0.00    -0.356 N 
HETATM   12  C   UNL     1     -40.033 -51.931  14.596  1.00  0.00     0.222 C 
HETATM   13  O   UNL     1     -39.320 -51.471  15.477  1.00  0.00    -0.273 OA
HETATM   14  H   UNL     1     -41.376 -51.561  13.090  1.00  0.00     0.162 HD
BRANCH  12  15
HETATM   15  C   UNL     1     -39.911 -53.359  14.112  1.00  0.00     0.142 C 
BRANCH  15  16
HETATM   16  C   UNL     1     -40.730 -54.333  14.912  1.00  0.00    -0.034 A 
HETATM   17  C   UNL     1     -42.078 -54.553  14.633  1.00  0.00     0.010 A 
HETATM   18  C   UNL     1     -42.818 -55.420  15.433  1.00  0.00     0.018 A 
HETATM   19  C   UNL     1     -42.177 -56.043  16.488  1.00  0.00     0.087 A 
HETATM   20  N   UNL     1     -40.874 -55.864  16.787  1.00  0.00    -0.375 N 
HETATM   21  C   UNL     1     -40.177 -55.017  15.993  1.00  0.00     0.095 A 
ATOM     22  HN  UNL     1     -40.435 -56.343  17.573  1.00  0.00     0.164 HD
ENDBRANCH  15  16
ENDBRANCH  12  15
ENDBRANCH   7  11
BRANCH   1  23
HETATM   23  C   UNL     1     -44.361 -47.261   9.066  1.00  0.00     0.023 C 
HETATM   24  C   UNL     1     -43.742 -47.832   7.777  1.00  0.00     0.037 C 
HETATM   25  C   UNL     1     -44.127 -45.743   9.146  1.00  0.00     0.037 C 
HETATM   26  C   UNL     1     -45.878 -47.521   9.006  1.00  0.00     0.037 C 
ENDBRANCH   1  23
TORSDOF 4
ENDMDL
MODEL 5
REMARK VINA RESULT:      -5.9      3.444      4.483
REMARK  4 active torsions:
REMARK  status: ('A' for Active; 'I' for Inactive)
REMARK    1  A    between atoms: C_2  and  N_5 
REMARK       I    between atoms: N_5  and  C_6 
REMARK       I    between atoms: C_6  and  N_8 
REMARK    2  A    between atoms: C_11  and  N_14 
REMARK       I    between atoms: N_14  and  C_15 
REMARK    3  A    between atoms: C_15  and  C_17 
REMARK    4  A    between atoms: C_17  and  C_18 
ROOT
HETATM    1  N   UNL     1     -40.150 -49.234  14.310  1.00  0.00    -0.335 N 
HETATM    2  C   UNL     1     -39.957 -50.232  13.388  1.00  0.00     0.318 C 
HETATM    3  O   UNL     1     -39.403 -50.032  12.311  1.00  0.00    -0.247 OA
HETATM    4  N   UNL     1     -40.479 -51.480  13.726  1.00  0.00    -0.334 N 
HETATM    5  C   UNL     1     -41.277 -51.760  14.920  1.00  0.00     0.129 C 
HETATM    6  C   UNL     1     -41.195 -53.224  15.349  1.00  0.00     0.045 C 
HETATM    7  C   UNL     1     -41.471 -54.190  14.199  1.00  0.00     0.087 C 
HETATM    8  C   UNL     1     -40.569 -53.868  13.010  1.00  0.00     0.045 C 
HETATM    9  C   UNL     1     -40.668 -52.404  12.604  1.00  0.00     0.129 C 
HETATM   10  H   UNL     1     -40.178 -49.538  15.267  1.00  0.00     0.165 HD
ENDROOT
BRANCH   7  11
HETATM   11  N   UNL     1     -42.886 -54.194  13.840  1.00  0.00    -0.356 N 
HETATM   12  C   UNL     1     -43.778 -55.078  14.415  1.00  0.00     0.222 C 
HETATM   13  O   UNL     1     -43.459 -55.889  15.273  1.00  0.00    -0.273 OA
HETATM   14  H   UNL     1     -43.164 -53.761  12.967  1.00  0.00     0.162 HD
BRANCH  12  15
HETATM   15  C   UNL     1     -45.198 -54.944  13.910  1.00  0.00     0.142 C 
BRANCH  15  16
HETATM   16  C   UNL     1     -45.880 -53.686  14.371  1.00  0.00    -0.034 A 
HETATM   17  C   UNL     1     -46.183 -52.654  13.484  1.00  0.00     0.010 A 
HETATM   18  C   UNL     1     -46.763 -51.481  13.960  1.00  0.00     0.018 A 
HETATM   19  C   UNL     1     -47.024 -51.383  15.314  1.00  0.00     0.087 A 
HETATM   20  N   UNL     1     -46.754 -52.361  16.203  1.00  0.00    -0.375 N 
HETATM   21  C   UNL     1     -46.192 -53.491  15.716  1.00  0.00     0.095 A 
ATOM     22  HN  UNL     1     -46.963 -52.253  17.197  1.00  0.00     0.164 HD
ENDBRANCH  15  16
ENDBRANCH  12  15
ENDBRANCH   7  11
BRANCH   1  23
HETATM   23  C   UNL     1     -39.645 -47.859  14.137  1.00  0.00     0.023 C 
HETATM   24  C   UNL     1     -38.110 -47.816  14.035  1.00  0.00     0.037 C 
HETATM   25  C   UNL     1     -40.131 -46.964  15.289  1.00  0.00     0.037 C 
HETATM   26  C   UNL     1     -40.214 -47.308  12.816  1.00  0.00     0.037 C 
ENDBRANCH   1  23
TORSDOF 4
ENDMDL
MODEL 6
REMARK VINA RESULT:      -5.8      3.501      8.369
REMARK  4 active torsions:
REMARK  status: ('A' for Active; 'I' for Inactive)
REMARK    1  A    between atoms: C_2  and  N_5 
REMARK       I    between atoms: N_5  and  C_6 
REMARK       I    between atoms: C_6  and  N_8 
REMARK    2  A    between atoms: C_11  and  N_14 
REMARK       I    between atoms: N_14  and  C_15 
REMARK    3  A    between atoms: C_15  and  C_17 
REMARK    4  A    between atoms: C_17  and  C_18 
ROOT
HETATM    1  N   UNL     1     -44.309 -50.807  12.735  1.00  0.00    -0.335 N 
HETATM    2  C   UNL     1     -42.986 -50.872  13.097  1.00  0.00     0.318 C 
HETATM    3  O   UNL     1     -42.569 -51.685  13.916  1.00  0.00    -0.247 OA
HETATM    4  N   UNL     1     -42.151 -49.918  12.515  1.00  0.00    -0.334 N 
HETATM    5  C   UNL     1     -42.597 -48.830  11.646  1.00  0.00     0.129 C 
HETATM    6  C   UNL     1     -41.498 -48.344  10.704  1.00  0.00     0.045 C 
HETATM    7  C   UNL     1     -40.191 -48.037  11.432  1.00  0.00     0.087 C 
HETATM    8  C   UNL     1     -39.763 -49.235  12.277  1.00  0.00     0.045 C 
HETATM    9  C   UNL     1     -40.876 -49.699  13.206  1.00  0.00     0.129 C 
HETATM   10  H   UNL     1     -44.479 -50.472  11.803  1.00  0.00     0.165 HD
ENDROOT
BRANCH   7  11
HETATM   11  N   UNL     1     -40.299 -46.811  12.217  1.00  0.00    -0.356 N 
HETATM   12  C   UNL     1     -39.970 -45.578  11.687  1.00  0.00     0.222 C 
HETATM   13  O   UNL     1     -39.598 -45.423  10.532  1.00  0.00    -0.273 OA
HETATM   14  H   UNL     1     -40.329 -46.885  13.227  1.00  0.00     0.162 HD
BRANCH  12  15
HETATM   15  C   UNL     1     -40.131 -44.424  12.652  1.00  0.00     0.142 C 
BRANCH  15  16
HETATM   16  C   UNL     1     -40.995 -43.315  12.117  1.00  0.00    -0.034 A 
HETATM   17  C   UNL     1     -42.334 -43.526  11.793  1.00  0.00     0.010 A 
HETATM   18  C   UNL     1     -43.085 -42.489  11.247  1.00  0.00     0.018 A 
HETATM   19  C   UNL     1     -42.467 -41.268  11.047  1.00  0.00     0.087 A 
HETATM   20  N   UNL     1     -41.176 -41.021  11.355  1.00  0.00    -0.375 N 
HETATM   21  C   UNL     1     -40.469 -42.045  11.886  1.00  0.00     0.095 A 
ATOM     22  HN  UNL     1     -40.755 -40.105  11.195  1.00  0.00     0.164 HD
ENDBRANCH  15  16
ENDBRANCH  12  15
ENDBRANCH   7  11
BRANCH   1  23
HETATM   23  C   UNL     1     -45.333 -51.748  13.226  1.00  0.00     0.023 C 
HETATM   24  C   UNL     1     -45.660 -51.519  14.712  1.00  0.00     0.037 C 
HETATM   25  C   UNL     1     -44.879 -53.198  12.994  1.00  0.00     0.037 C 
HETATM   26  C   UNL     1     -46.624 -51.504  12.423  1.00  0.00     0.037 C 
ENDBRANCH   1  23
TORSDOF 4
ENDMDL
MODEL 7
REMARK VINA RESULT:      -5.8      3.990      7.067
REMARK  4 active torsions:
REMARK  status: ('A' for Active; 'I' for Inactive)
REMARK    1  A    between atoms: C_2  and  N_5 
REMARK       I    between atoms: N_5  and  C_6 
REMARK       I    between atoms: C_6  and  N_8 
REMARK    2  A    between atoms: C_11  and  N_14 
REMARK       I    between atoms: N_14  and  C_15 
REMARK    3  A    between atoms: C_15  and  C_17 
REMARK    4  A    between atoms: C_17  and  C_18 
ROOT
HETATM    1  N   UNL     1     -44.657 -52.347  13.601  1.00  0.00    -0.335 N 
HETATM    2  C   UNL     1     -43.725 -52.354  14.609  1.00  0.00     0.318 C 
HETATM    3  O   UNL     1     -44.040 -52.275  15.793  1.00  0.00    -0.247 OA
HETATM    4  N   UNL     1     -42.392 -52.401  14.203  1.00  0.00    -0.334 N 
HETATM    5  C   UNL     1     -41.935 -52.348  12.814  1.00  0.00     0.129 C 
HETATM    6  C   UNL     1     -40.570 -53.005  12.622  1.00  0.00     0.045 C 
HETATM    7  C   UNL     1     -39.529 -52.502  13.618  1.00  0.00     0.087 C 
HETATM    8  C   UNL     1     -40.055 -52.634  15.046  1.00  0.00     0.045 C 
HETATM    9  C   UNL     1     -41.417 -51.973  15.210  1.00  0.00     0.129 C 
HETATM   10  H   UNL     1     -44.388 -52.844  12.770  1.00  0.00     0.165 HD
ENDROOT
BRANCH   7  11
HETATM   11  N   UNL     1     -39.110 -51.139  13.303  1.00  0.00    -0.356 N 
HETATM   12  C   UNL     1     -37.860 -50.866  12.782  1.00  0.00     0.222 C 
HETATM   13  O   UNL     1     -37.037 -51.734  12.525  1.00  0.00    -0.273 OA
HETATM   14  H   UNL     1     -39.608 -50.369  13.733  1.00  0.00     0.162 HD
BRANCH  12  15
HETATM   15  C   UNL     1     -37.599 -49.397  12.532  1.00  0.00     0.142 C 
BRANCH  15  16
HETATM   16  C   UNL     1     -37.813 -48.538  13.748  1.00  0.00    -0.034 A 
HETATM   17  C   UNL     1     -37.113 -48.764  14.932  1.00  0.00     0.010 A 
HETATM   18  C   UNL     1     -37.381 -47.983  16.053  1.00  0.00     0.018 A 
HETATM   19  C   UNL     1     -38.342 -46.995  15.948  1.00  0.00     0.087 A 
HETATM   20  N   UNL     1     -39.036 -46.740  14.819  1.00  0.00    -0.375 N 
HETATM   21  C   UNL     1     -38.756 -47.511  13.743  1.00  0.00     0.095 A 
ATOM     22  HN  UNL     1     -39.737 -45.999  14.779  1.00  0.00     0.164 HD
ENDBRANCH  15  16
ENDBRANCH  12  15
ENDBRANCH   7  11
BRANCH   1  23
HETATM   23  C   UNL     1     -46.112 -52.328  13.838  1.00  0.00     0.023 C 
HETATM   24  C   UNL     1     -46.517 -51.237  14.847  1.00  0.00     0.037 C 
HETATM   25  C   UNL     1     -46.592 -53.707  14.319  1.00  0.00     0.037 C 
HETATM   26  C   UNL     1     -46.806 -52.005  12.502  1.00  0.00     0.037 C 
ENDBRANCH   1  23
TORSDOF 4
ENDMDL
MODEL 8
REMARK VINA RESULT:      -5.8      3.766      5.680
REMARK  4 active torsions:
REMARK  status: ('A' for Active; 'I' for Inactive)
REMARK    1  A    between atoms: C_2  and  N_5 
REMARK       I    between atoms: N_5  and  C_6 
REMARK       I    between atoms: C_6  and  N_8 
REMARK    2  A    between atoms: C_11  and  N_14 
REMARK       I    between atoms: N_14  and  C_15 
REMARK    3  A    between atoms: C_15  and  C_17 
REMARK    4  A    between atoms: C_17  and  C_18 
ROOT
HETATM    1  N   UNL     1     -38.983 -50.316  15.578  1.00  0.00    -0.335 N 
HETATM    2  C   UNL     1     -39.268 -50.325  14.235  1.00  0.00     0.318 C 
HETATM    3  O   UNL     1     -38.754 -49.534  13.450  1.00  0.00    -0.247 OA
HETATM    4  N   UNL     1     -40.221 -51.256  13.824  1.00  0.00    -0.334 N 
HETATM    5  C   UNL     1     -40.982 -52.129  14.718  1.00  0.00     0.129 C 
HETATM    6  C   UNL     1     -41.463 -53.401  14.024  1.00  0.00     0.045 C 
HETATM    7  C   UNL     1     -42.179 -53.118  12.705  1.00  0.00     0.087 C 
HETATM    8  C   UNL     1     -41.306 -52.245  11.807  1.00  0.00     0.045 C 
HETATM    9  C   UNL     1     -40.839 -50.985  12.522  1.00  0.00     0.129 C 
HETATM   10  H   UNL     1     -39.066 -51.205  16.037  1.00  0.00     0.165 HD
ENDROOT
BRANCH   7  11
HETATM   11  N   UNL     1     -43.499 -52.537  12.934  1.00  0.00    -0.356 N 
HETATM   12  C   UNL     1     -44.657 -53.260  12.724  1.00  0.00     0.222 C 
HETATM   13  O   UNL     1     -44.661 -54.428  12.363  1.00  0.00    -0.273 OA
HETATM   14  H   UNL     1     -43.584 -51.527  12.962  1.00  0.00     0.162 HD
BRANCH  12  15
HETATM   15  C   UNL     1     -45.929 -52.488  13.000  1.00  0.00     0.142 C 
BRANCH  15  16
HETATM   16  C   UNL     1     -46.277 -52.414  14.461  1.00  0.00    -0.034 A 
HETATM   17  C   UNL     1     -46.983 -51.334  14.988  1.00  0.00     0.010 A 
HETATM   18  C   UNL     1     -47.236 -51.274  16.356  1.00  0.00     0.018 A 
HETATM   19  C   UNL     1     -46.774 -52.305  17.153  1.00  0.00     0.087 A 
HETATM   20  N   UNL     1     -46.093 -53.370  16.681  1.00  0.00    -0.375 N 
HETATM   21  C   UNL     1     -45.862 -53.406  15.348  1.00  0.00     0.095 A 
ATOM     22  HN  UNL     1     -45.769 -54.114  17.301  1.00  0.00     0.164 HD
ENDBRANCH  15  16
ENDBRANCH  12  15
ENDBRANCH   7  11
BRANCH   1  23
HETATM   23  C   UNL     1     -37.984 -49.420  16.191  1.00  0.00     0.023 C 
HETATM   24  C   UNL     1     -38.294 -47.938  15.919  1.00  0.00     0.037 C 
HETATM   25  C   UNL     1     -36.574 -49.774  15.690  1.00  0.00     0.037 C 
HETATM   26  C   UNL     1     -38.030 -49.632  17.716  1.00  0.00     0.037 C 
ENDBRANCH   1  23
TORSDOF 4
ENDMDL
MODEL 9
REMARK VINA RESULT:      -5.7      3.268      3.941
REMARK  4 active torsions:
REMARK  status: ('A' for Active; 'I' for Inactive)
REMARK    1  A    between atoms: C_2  and  N_5 
REMARK       I    between atoms: N_5  and  C_6 
REMARK       I    between atoms: C_6  and  N_8 
REMARK    2  A    between atoms: C_11  and  N_14 
REMARK       I    between atoms: N_14  and  C_15 
REMARK    3  A    between atoms: C_15  and  C_17 
REMARK    4  A    between atoms: C_17  and  C_18 
ROOT
HETATM    1  N   UNL     1     -39.998 -46.335  13.283  1.00  0.00    -0.335 N 
HETATM    2  C   UNL     1     -39.882 -47.369  12.386  1.00  0.00     0.318 C 
HETATM    3  O   UNL     1     -40.242 -47.266  11.218  1.00  0.00    -0.247 OA
HETATM    4  N   UNL     1     -39.378 -48.563  12.899  1.00  0.00    -0.334 N 
HETATM    5  C   UNL     1     -39.065 -48.806  14.307  1.00  0.00     0.129 C 
HETATM    6  C   UNL     1     -38.012 -49.897  14.494  1.00  0.00     0.045 C 
HETATM    7  C   UNL     1     -38.342 -51.172  13.720  1.00  0.00     0.087 C 
HETATM    8  C   UNL     1     -38.606 -50.846  12.252  1.00  0.00     0.045 C 
HETATM    9  C   UNL     1     -39.658 -49.756  12.095  1.00  0.00     0.129 C 
HETATM   10  H   UNL     1     -39.315 -46.333  14.020  1.00  0.00     0.165 HD
ENDROOT
BRANCH   7  11
HETATM   11  N   UNL     1     -39.449 -51.894  14.339  1.00  0.00    -0.356 N 
HETATM   12  C   UNL     1     -39.613 -53.255  14.169  1.00  0.00     0.222 C 
HETATM   13  O   UNL     1     -38.841 -53.947  13.520  1.00  0.00    -0.273 OA
HETATM   14  H   UNL     1     -40.258 -51.367  14.647  1.00  0.00     0.162 HD
BRANCH  12  15
HETATM   15  C   UNL     1     -40.824 -53.828  14.873  1.00  0.00     0.142 C 
BRANCH  15  16
HETATM   16  C   UNL     1     -42.081 -53.758  14.050  1.00  0.00    -0.034 A 
HETATM   17  C   UNL     1     -43.226 -54.468  14.409  1.00  0.00     0.010 A 
HETATM   18  C   UNL     1     -44.352 -54.423  13.591  1.00  0.00     0.018 A 
HETATM   19  C   UNL     1     -44.293 -53.662  12.438  1.00  0.00     0.087 A 
HETATM   20  N   UNL     1     -43.208 -52.956  12.060  1.00  0.00    -0.375 N 
HETATM   21  C   UNL     1     -42.127 -53.015  12.872  1.00  0.00     0.095 A 
ATOM     22  HN  UNL     1     -43.202 -52.403  11.202  1.00  0.00     0.164 HD
ENDBRANCH  15  16
ENDBRANCH  12  15
ENDBRANCH   7  11
BRANCH   1  23
HETATM   23  C   UNL     1     -40.485 -44.992  12.917  1.00  0.00     0.023 C 
HETATM   24  C   UNL     1     -40.303 -43.981  14.063  1.00  0.00     0.037 C 
HETATM   25  C   UNL     1     -41.960 -45.058  12.490  1.00  0.00     0.037 C 
HETATM   26  C   UNL     1     -39.651 -44.495  11.722  1.00  0.00     0.037 C 
ENDBRANCH   1  23
TORSDOF 4
ENDMDL
