MODEL 1
REMARK VINA RESULT:      -5.4      0.000      0.000
REMARK  4 active torsions:
REMARK  status: ('A' for Active; 'I' for Inactive)
REMARK    1  A    between atoms: O_2  and  C_3 
REMARK    2  A    between atoms: C_3  and  C_4 
REMARK    3  A    between atoms: C_4  and  N_5 
REMARK    4  A    between atoms: C_6  and  N_18 
ROOT
HETATM    1  N   UNL     1     -43.453 -52.521  13.066  1.00  0.00    -0.172 N 
HETATM    2  C   UNL     1     -44.446 -51.551  13.202  1.00  0.00     0.684 A 
HETATM    3  N   UNL     1     -43.952 -50.355  12.923  1.00  0.00    -0.174 N 
ATOM      4  HN  UNL     1     -44.442 -49.462  12.972  1.00  0.00     0.186 HD
HETATM    5  C   UNL     1     -42.661 -50.561  12.555  1.00  0.00     0.160 A 
HETATM    6  N   UNL     1     -41.775 -49.603  12.101  1.00  0.00    -0.287 N 
HETATM    7  C   UNL     1     -42.133 -48.207  11.971  1.00  0.00     0.163 C 
HETATM    8  C   UNL     1     -40.501 -49.999  11.710  1.00  0.00     0.330 A 
HETATM    9  O   UNL     1     -39.655 -49.224  11.262  1.00  0.00    -0.246 OA
HETATM   10  N   UNL     1     -40.199 -51.339  11.810  1.00  0.00    -0.273 N 
HETATM   11  C   UNL     1     -41.032 -52.350  12.228  1.00  0.00     0.280 A 
HETATM   12  O   UNL     1     -40.664 -53.520  12.222  1.00  0.00    -0.265 OA
HETATM   13  C   UNL     1     -42.318 -51.879  12.625  1.00  0.00     0.164 A 
HETATM   14  H   UNL     1     -39.285 -51.613  11.492  1.00  0.00     0.173 HD
ENDROOT
BRANCH   1  15
HETATM   15  C   UNL     1     -43.592 -53.954  13.199  1.00  0.00     0.174 C 
BRANCH  15  16
HETATM   16  C   UNL     1     -43.574 -54.434  14.643  1.00  0.00     0.187 C 
BRANCH  16  17
HETATM   17  O   UNL     1     -44.877 -54.908  14.989  1.00  0.00    -0.394 OA
HETATM   18  C   UNL     1     -45.593 -55.321  13.831  1.00  0.00     0.201 C 
ENDBRANCH  16  17
ENDBRANCH  15  16
ENDBRANCH   1  15
BRANCH   2  19
HETATM   19  N   UNL     1     -45.771 -51.843  13.376  1.00  0.00    -0.226 N 
HETATM   20  C   UNL     1     -46.612 -51.724  12.178  1.00  0.00     0.168 C 
HETATM   21  C   UNL     1     -46.481 -51.444  14.590  1.00  0.00     0.168 C 
ENDBRANCH   2  19
TORSDOF 4
ENDMDL
MODEL 2
REMARK VINA RESULT:      -5.2      3.228      5.351
REMARK  4 active torsions:
REMARK  status: ('A' for Active; 'I' for Inactive)
REMARK    1  A    between atoms: O_2  and  C_3 
REMARK    2  A    between atoms: C_3  and  C_4 
REMARK    3  A    between atoms: C_4  and  N_5 
REMARK    4  A    between atoms: C_6  and  N_18 
ROOT
HETATM    1  N   UNL     1     -41.002 -48.786  12.217  1.00  0.00    -0.172 N 
HETATM    2  C   UNL     1     -42.081 -49.652  12.398  1.00  0.00     0.684 A 
HETATM    3  N   UNL     1     -43.138 -49.202  11.742  1.00  0.00    -0.174 N 
ATOM      4  HN  UNL     1     -44.070 -49.614  11.724  1.00  0.00     0.186 HD
HETATM    5  C   UNL     1     -42.726 -48.080  11.096  1.00  0.00     0.160 A 
HETATM    6  N   UNL     1     -43.476 -47.316  10.222  1.00  0.00    -0.287 N 
HETATM    7  C   UNL     1     -44.849 -47.628   9.890  1.00  0.00     0.163 C 
HETATM    8  C   UNL     1     -42.876 -46.226   9.600  1.00  0.00     0.330 A 
HETATM    9  O   UNL     1     -43.452 -45.507   8.783  1.00  0.00    -0.246 OA
HETATM   10  N   UNL     1     -41.557 -45.973   9.906  1.00  0.00    -0.273 N 
HETATM   11  C   UNL     1     -40.744 -46.699  10.744  1.00  0.00     0.280 A 
HETATM   12  O   UNL     1     -39.563 -46.404  10.896  1.00  0.00    -0.265 OA
HETATM   13  C   UNL     1     -41.419 -47.795  11.358  1.00  0.00     0.164 A 
HETATM   14  H   UNL     1     -41.129 -45.201   9.423  1.00  0.00     0.173 HD
ENDROOT
BRANCH   1  15
HETATM   15  C   UNL     1     -39.646 -48.950  12.692  1.00  0.00     0.174 C 
BRANCH  15  16
HETATM   16  C   UNL     1     -38.757 -49.727  11.732  1.00  0.00     0.187 C 
BRANCH  16  17
HETATM   17  O   UNL     1     -38.603 -51.061  12.223  1.00  0.00    -0.394 OA
HETATM   18  C   UNL     1     -38.415 -51.067  13.632  1.00  0.00     0.201 C 
ENDBRANCH  16  17
ENDBRANCH  15  16
ENDBRANCH   1  15
BRANCH   2  19
HETATM   19  N   UNL     1     -41.972 -50.885  12.981  1.00  0.00    -0.226 N 
HETATM   20  C   UNL     1     -41.960 -52.027  12.058  1.00  0.00     0.168 C 
HETATM   21  C   UNL     1     -42.663 -51.194  14.232  1.00  0.00     0.168 C 
ENDBRANCH   2  19
TORSDOF 4
ENDMDL
MODEL 3
REMARK VINA RESULT:      -5.0      2.811      5.717
REMARK  4 active torsions:
REMARK  status: ('A' for Active; 'I' for Inactive)
REMARK    1  A    between atoms: O_2  and  C_3 
REMARK    2  A    between atoms: C_3  and  C_4 
REMARK    3  A    between atoms: C_4  and  N_5 
REMARK    4  A    between atoms: C_6  and  N_18 
ROOT
HETATM    1  N   UNL     1     -40.931 -54.046  14.444  1.00  0.00    -0.172 N 
HETATM    2  C   UNL     1     -41.428 -54.709  15.567  1.00  0.00     0.684 A 
HETATM    3  N   UNL     1     -42.751 -54.705  15.547  1.00  0.00    -0.174 N 
ATOM      4  HN  UNL     1     -43.377 -55.086  16.256  1.00  0.00     0.186 HD
HETATM    5  C   UNL     1     -43.104 -54.090  14.389  1.00  0.00     0.160 A 
HETATM    6  N   UNL     1     -44.389 -53.927  13.905  1.00  0.00    -0.287 N 
HETATM    7  C   UNL     1     -45.557 -54.403  14.615  1.00  0.00     0.163 C 
HETATM    8  C   UNL     1     -44.569 -53.322  12.666  1.00  0.00     0.330 A 
HETATM    9  O   UNL     1     -45.670 -53.164  12.140  1.00  0.00    -0.246 OA
HETATM   10  N   UNL     1     -43.437 -52.912  11.996  1.00  0.00    -0.273 N 
HETATM   11  C   UNL     1     -42.132 -53.059  12.400  1.00  0.00     0.280 A 
HETATM   12  O   UNL     1     -41.201 -52.699  11.687  1.00  0.00    -0.265 OA
HETATM   13  C   UNL     1     -42.015 -53.676  13.681  1.00  0.00     0.164 A 
HETATM   14  H   UNL     1     -43.583 -52.506  11.087  1.00  0.00     0.173 HD
ENDROOT
BRANCH   1  15
HETATM   15  C   UNL     1     -39.550 -53.897  14.044  1.00  0.00     0.174 C 
BRANCH  15  16
HETATM   16  C   UNL     1     -38.955 -52.545  14.410  1.00  0.00     0.187 C 
BRANCH  16  17
HETATM   17  O   UNL     1     -38.227 -52.041  13.288  1.00  0.00    -0.394 OA
HETATM   18  C   UNL     1     -38.637 -50.718  12.968  1.00  0.00     0.201 C 
ENDBRANCH  16  17
ENDBRANCH  15  16
ENDBRANCH   1  15
BRANCH   2  19
HETATM   19  N   UNL     1     -40.648 -55.438  16.422  1.00  0.00    -0.226 N 
HETATM   20  C   UNL     1     -41.176 -56.757  16.796  1.00  0.00     0.168 C 
HETATM   21  C   UNL     1     -39.929 -54.799  17.523  1.00  0.00     0.168 C 
ENDBRANCH   2  19
TORSDOF 4
ENDMDL
MODEL 4
REMARK VINA RESULT:      -5.0      3.690      5.790
REMARK  4 active torsions:
REMARK  status: ('A' for Active; 'I' for Inactive)
REMARK    1  A    between atoms: O_2  and  C_3 
REMARK    2  A    between atoms: C_3  and  C_4 
REMARK    3  A    between atoms: C_4  and  N_5 
REMARK    4  A    between atoms: C_6  and  N_18 
ROOT
HETATM    1  N   UNL     1     -40.761 -49.299  12.075  1.00  0.00    -0.172 N 
HETATM    2  C   UNL     1     -39.421 -48.954  11.901  1.00  0.00     0.684 A 
HETATM    3  N   UNL     1     -39.330 -47.771  11.316  1.00  0.00    -0.174 N 
ATOM      4  HN  UNL     1     -38.477 -47.288  11.036  1.00  0.00     0.186 HD
HETATM    5  C   UNL     1     -40.606 -47.331  11.164  1.00  0.00     0.160 A 
HETATM    6  N   UNL     1     -40.996 -46.101  10.669  1.00  0.00    -0.287 N 
HETATM    7  C   UNL     1     -40.048 -45.103  10.222  1.00  0.00     0.163 C 
HETATM    8  C   UNL     1     -42.351 -45.789  10.637  1.00  0.00     0.330 A 
HETATM    9  O   UNL     1     -42.791 -44.708  10.244  1.00  0.00    -0.246 OA
HETATM   10  N   UNL     1     -43.228 -46.744  11.102  1.00  0.00    -0.273 N 
HETATM   11  C   UNL     1     -42.915 -47.974  11.629  1.00  0.00     0.280 A 
HETATM   12  O   UNL     1     -43.787 -48.721  12.063  1.00  0.00    -0.265 OA
HETATM   13  C   UNL     1     -41.513 -48.239  11.624  1.00  0.00     0.164 A 
HETATM   14  H   UNL     1     -44.202 -46.490  11.102  1.00  0.00     0.173 HD
ENDROOT
BRANCH   1  15
HETATM   15  C   UNL     1     -41.296 -50.465  12.744  1.00  0.00     0.174 C 
BRANCH  15  16
HETATM   16  C   UNL     1     -41.280 -51.719  11.881  1.00  0.00     0.187 C 
BRANCH  16  17
HETATM   17  O   UNL     1     -40.206 -52.560  12.308  1.00  0.00    -0.394 OA
HETATM   18  C   UNL     1     -40.102 -52.574  13.726  1.00  0.00     0.201 C 
ENDBRANCH  16  17
ENDBRANCH  15  16
ENDBRANCH   1  15
BRANCH   2  19
HETATM   19  N   UNL     1     -38.382 -49.647  12.460  1.00  0.00    -0.226 N 
HETATM   20  C   UNL     1     -37.767 -49.026  13.641  1.00  0.00     0.168 C 
HETATM   21  C   UNL     1     -37.402 -50.344  11.630  1.00  0.00     0.168 C 
ENDBRANCH   2  19
TORSDOF 4
ENDMDL
MODEL 5
REMARK VINA RESULT:      -4.9      4.272      6.621
REMARK  4 active torsions:
REMARK  status: ('A' for Active; 'I' for Inactive)
REMARK    1  A    between atoms: O_2  and  C_3 
REMARK    2  A    between atoms: C_3  and  C_4 
REMARK    3  A    between atoms: C_4  and  N_5 
REMARK    4  A    between atoms: C_6  and  N_18 
ROOT
HETATM    1  N   UNL     1     -41.421 -47.880  12.501  1.00  0.00    -0.172 N 
HETATM    2  C   UNL     1     -41.424 -49.054  11.747  1.00  0.00     0.684 A 
HETATM    3  N   UNL     1     -42.082 -48.863  10.616  1.00  0.00    -0.174 N 
ATOM      4  HN  UNL     1     -42.271 -49.555   9.891  1.00  0.00     0.186 HD
HETATM    5  C   UNL     1     -42.454 -47.557  10.616  1.00  0.00     0.160 A 
HETATM    6  N   UNL     1     -43.099 -46.887   9.593  1.00  0.00    -0.287 N 
HETATM    7  C   UNL     1     -43.481 -47.532   8.355  1.00  0.00     0.163 C 
HETATM    8  C   UNL     1     -43.354 -45.528   9.737  1.00  0.00     0.330 A 
HETATM    9  O   UNL     1     -43.892 -44.841   8.868  1.00  0.00    -0.246 OA
HETATM   10  N   UNL     1     -42.948 -44.931  10.910  1.00  0.00    -0.273 N 
HETATM   11  C   UNL     1     -42.283 -45.524  11.958  1.00  0.00     0.280 A 
HETATM   12  O   UNL     1     -41.923 -44.872  12.933  1.00  0.00    -0.265 OA
HETATM   13  C   UNL     1     -42.061 -46.918  11.755  1.00  0.00     0.164 A 
HETATM   14  H   UNL     1     -43.110 -43.941  10.984  1.00  0.00     0.173 HD
ENDROOT
BRANCH   1  15
HETATM   15  C   UNL     1     -40.746 -47.637  13.758  1.00  0.00     0.174 C 
BRANCH  15  16
HETATM   16  C   UNL     1     -39.311 -47.157  13.592  1.00  0.00     0.187 C 
BRANCH  16  17
HETATM   17  O   UNL     1     -38.429 -48.141  14.136  1.00  0.00    -0.394 OA
HETATM   18  C   UNL     1     -37.237 -47.541  14.628  1.00  0.00     0.201 C 
ENDBRANCH  16  17
ENDBRANCH  15  16
ENDBRANCH   1  15
BRANCH   2  19
HETATM   19  N   UNL     1     -40.664 -50.151  12.050  1.00  0.00    -0.226 N 
HETATM   20  C   UNL     1     -39.316 -50.170  11.467  1.00  0.00     0.168 C 
HETATM   21  C   UNL     1     -41.255 -51.485  12.119  1.00  0.00     0.168 C 
ENDBRANCH   2  19
TORSDOF 4
ENDMDL
MODEL 6
REMARK VINA RESULT:      -4.9      2.530      4.043
REMARK  4 active torsions:
REMARK  status: ('A' for Active; 'I' for Inactive)
REMARK    1  A    between atoms: O_2  and  C_3 
REMARK    2  A    between atoms: C_3  and  C_4 
REMARK    3  A    between atoms: C_4  and  N_5 
REMARK    4  A    between atoms: C_6  and  N_18 
ROOT
HETATM    1  N   UNL     1     -41.956 -54.222  14.402  1.00  0.00    -0.172 N 
HETATM    2  C   UNL     1     -40.814 -54.280  15.200  1.00  0.00     0.684 A 
HETATM    3  N   UNL     1     -39.909 -53.422  14.759  1.00  0.00    -0.174 N 
ATOM      4  HN  UNL     1     -38.969 -53.277  15.128  1.00  0.00     0.186 HD
HETATM    5  C   UNL     1     -40.486 -52.776  13.713  1.00  0.00     0.160 A 
HETATM    6  N   UNL     1     -39.938 -51.734  12.989  1.00  0.00    -0.287 N 
HETATM    7  C   UNL     1     -38.622 -51.198  13.266  1.00  0.00     0.163 C 
HETATM    8  C   UNL     1     -40.694 -51.145  11.982  1.00  0.00     0.330 A 
HETATM    9  O   UNL     1     -40.304 -50.192  11.307  1.00  0.00    -0.246 OA
HETATM   10  N   UNL     1     -41.956 -51.652  11.764  1.00  0.00    -0.273 N 
HETATM   11  C   UNL     1     -42.576 -52.666  12.455  1.00  0.00     0.280 A 
HETATM   12  O   UNL     1     -43.731 -52.995  12.203  1.00  0.00    -0.265 OA
HETATM   13  C   UNL     1     -41.746 -53.235  13.466  1.00  0.00     0.164 A 
HETATM   14  H   UNL     1     -42.503 -51.194  11.054  1.00  0.00     0.173 HD
ENDROOT
BRANCH   1  15
HETATM   15  C   UNL     1     -43.203 -54.932  14.587  1.00  0.00     0.174 C 
BRANCH  15  16
HETATM   16  C   UNL     1     -44.190 -54.199  15.483  1.00  0.00     0.187 C 
BRANCH  16  17
HETATM   17  O   UNL     1     -45.494 -54.751  15.283  1.00  0.00    -0.394 OA
HETATM   18  C   UNL     1     -45.664 -55.180  13.938  1.00  0.00     0.201 C 
ENDBRANCH  16  17
ENDBRANCH  15  16
ENDBRANCH   1  15
BRANCH   2  19
HETATM   19  N   UNL     1     -40.753 -54.962  16.385  1.00  0.00    -0.226 N 
HETATM   20  C   UNL     1     -40.912 -54.147  17.597  1.00  0.00     0.168 C 
HETATM   21  C   UNL     1     -39.807 -56.059  16.579  1.00  0.00     0.168 C 
ENDBRANCH   2  19
TORSDOF 4
ENDMDL
MODEL 7
REMARK VINA RESULT:      -4.6      2.385      3.546
REMARK  4 active torsions:
REMARK  status: ('A' for Active; 'I' for Inactive)
REMARK    1  A    between atoms: O_2  and  C_3 
REMARK    2  A    between atoms: C_3  and  C_4 
REMARK    3  A    between atoms: C_4  and  N_5 
REMARK    4  A    between atoms: C_6  and  N_18 
ROOT
HETATM    1  N   UNL     1     -40.836 -51.203  12.812  1.00  0.00    -0.172 N 
HETATM    2  C   UNL     1     -42.207 -51.436  12.920  1.00  0.00     0.684 A 
HETATM    3  N   UNL     1     -42.880 -50.391  12.465  1.00  0.00    -0.174 N 
ATOM      4  HN  UNL     1     -43.893 -50.272  12.454  1.00  0.00     0.186 HD
HETATM    5  C   UNL     1     -41.948 -49.513  12.016  1.00  0.00     0.160 A 
HETATM    6  N   UNL     1     -42.192 -48.309  11.382  1.00  0.00    -0.287 N 
HETATM    7  C   UNL     1     -43.530 -47.820  11.125  1.00  0.00     0.163 C 
HETATM    8  C   UNL     1     -41.114 -47.556  10.932  1.00  0.00     0.330 A 
HETATM    9  O   UNL     1     -41.233 -46.489  10.328  1.00  0.00    -0.246 OA
HETATM   10  N   UNL     1     -39.853 -48.063  11.158  1.00  0.00    -0.273 N 
HETATM   11  C   UNL     1     -39.533 -49.258  11.758  1.00  0.00     0.280 A 
HETATM   12  O   UNL     1     -38.367 -49.629  11.855  1.00  0.00    -0.265 OA
HETATM   13  C   UNL     1     -40.680 -49.977  12.206  1.00  0.00     0.164 A 
HETATM   14  H   UNL     1     -39.085 -47.522  10.798  1.00  0.00     0.173 HD
ENDROOT
BRANCH   1  15
HETATM   15  C   UNL     1     -39.757 -52.116  13.118  1.00  0.00     0.174 C 
BRANCH  15  16
HETATM   16  C   UNL     1     -39.322 -52.073  14.576  1.00  0.00     0.187 C 
BRANCH  16  17
HETATM   17  O   UNL     1     -39.377 -53.396  15.114  1.00  0.00    -0.394 OA
HETATM   18  C   UNL     1     -39.358 -54.369  14.077  1.00  0.00     0.201 C 
ENDBRANCH  16  17
ENDBRANCH  15  16
ENDBRANCH   1  15
BRANCH   2  19
HETATM   19  N   UNL     1     -42.746 -52.652  13.238  1.00  0.00    -0.226 N 
HETATM   20  C   UNL     1     -43.807 -53.132  12.342  1.00  0.00     0.168 C 
HETATM   21  C   UNL     1     -42.983 -53.035  14.629  1.00  0.00     0.168 C 
ENDBRANCH   2  19
TORSDOF 4
ENDMDL
MODEL 8
REMARK VINA RESULT:      -4.5      2.086      5.400
REMARK  4 active torsions:
REMARK  status: ('A' for Active; 'I' for Inactive)
REMARK    1  A    between atoms: O_2  and  C_3 
REMARK    2  A    between atoms: C_3  and  C_4 
REMARK    3  A    between atoms: C_4  and  N_5 
REMARK    4  A    between atoms: C_6  and  N_18 
ROOT
HETATM    1  N   UNL     1     -40.511 -50.191  12.155  1.00  0.00    -0.172 N 
HETATM    2  C   UNL     1     -41.747 -49.637  11.823  1.00  0.00     0.684 A 
HETATM    3  N   UNL     1     -42.714 -50.502  12.082  1.00  0.00    -0.174 N 
ATOM      4  HN  UNL     1     -43.711 -50.378  11.906  1.00  0.00     0.186 HD
HETATM    5  C   UNL     1     -42.109 -51.586  12.630  1.00  0.00     0.160 A 
HETATM    6  N   UNL     1     -42.737 -52.711  13.131  1.00  0.00    -0.287 N 
HETATM    7  C   UNL     1     -44.175 -52.875  13.115  1.00  0.00     0.163 C 
HETATM    8  C   UNL     1     -41.963 -53.709  13.713  1.00  0.00     0.330 A 
HETATM    9  O   UNL     1     -42.434 -54.730  14.215  1.00  0.00    -0.246 OA
HETATM   10  N   UNL     1     -40.600 -53.510  13.746  1.00  0.00    -0.273 N 
HETATM   11  C   UNL     1     -39.908 -52.413  13.292  1.00  0.00     0.280 A 
HETATM   12  O   UNL     1     -38.692 -52.327  13.427  1.00  0.00    -0.265 OA
HETATM   13  C   UNL     1     -40.756 -51.432  12.697  1.00  0.00     0.164 A 
HETATM   14  H   UNL     1     -40.058 -54.227  14.200  1.00  0.00     0.173 HD
ENDROOT
BRANCH   1  15
HETATM   15  C   UNL     1     -39.213 -49.553  12.104  1.00  0.00     0.174 C 
BRANCH  15  16
HETATM   16  C   UNL     1     -38.889 -48.739  13.349  1.00  0.00     0.187 C 
BRANCH  16  17
HETATM   17  O   UNL     1     -37.622 -49.162  13.860  1.00  0.00    -0.394 OA
HETATM   18  C   UNL     1     -37.699 -49.429  15.254  1.00  0.00     0.201 C 
ENDBRANCH  16  17
ENDBRANCH  15  16
ENDBRANCH   1  15
BRANCH   2  19
HETATM   19  N   UNL     1     -41.924 -48.320  11.495  1.00  0.00    -0.226 N 
HETATM   20  C   UNL     1     -42.695 -47.523  12.458  1.00  0.00     0.168 C 
HETATM   21  C   UNL     1     -42.173 -47.911  10.114  1.00  0.00     0.168 C 
ENDBRANCH   2  19
TORSDOF 4
ENDMDL
MODEL 9
REMARK VINA RESULT:      -4.4      2.008      5.060
REMARK  4 active torsions:
REMARK  status: ('A' for Active; 'I' for Inactive)
REMARK    1  A    between atoms: O_2  and  C_3 
REMARK    2  A    between atoms: C_3  and  C_4 
REMARK    3  A    between atoms: C_4  and  N_5 
REMARK    4  A    between atoms: C_6  and  N_18 
ROOT
HETATM    1  N   UNL     1     -41.356 -50.210  13.042  1.00  0.00    -0.172 N 
HETATM    2  C   UNL     1     -42.284 -49.292  13.533  1.00  0.00     0.684 A 
HETATM    3  N   UNL     1     -43.495 -49.825  13.527  1.00  0.00    -0.174 N 
ATOM      4  HN  UNL     1     -44.367 -49.371  13.799  1.00  0.00     0.186 HD
HETATM    5  C   UNL     1     -43.340 -51.100  13.087  1.00  0.00     0.160 A 
HETATM    6  N   UNL     1     -44.328 -52.062  12.993  1.00  0.00    -0.287 N 
HETATM    7  C   UNL     1     -45.705 -51.805  13.356  1.00  0.00     0.163 C 
HETATM    8  C   UNL     1     -43.982 -53.342  12.574  1.00  0.00     0.330 A 
HETATM    9  O   UNL     1     -44.785 -54.271  12.491  1.00  0.00    -0.246 OA
HETATM   10  N   UNL     1     -42.658 -53.568  12.268  1.00  0.00    -0.273 N 
HETATM   11  C   UNL     1     -41.619 -52.672  12.359  1.00  0.00     0.280 A 
HETATM   12  O   UNL     1     -40.465 -53.008  12.110  1.00  0.00    -0.265 OA
HETATM   13  C   UNL     1     -42.040 -51.377  12.783  1.00  0.00     0.164 A 
HETATM   14  H   UNL     1     -42.418 -54.507  11.998  1.00  0.00     0.173 HD
ENDROOT
BRANCH   1  15
HETATM   15  C   UNL     1     -39.920 -50.059  12.957  1.00  0.00     0.174 C 
BRANCH  15  16
HETATM   16  C   UNL     1     -39.191 -50.468  14.228  1.00  0.00     0.187 C 
BRANCH  16  17
HETATM   17  O   UNL     1     -37.802 -50.630  13.932  1.00  0.00    -0.394 OA
HETATM   18  C   UNL     1     -37.595 -50.791  12.535  1.00  0.00     0.201 C 
ENDBRANCH  16  17
ENDBRANCH  15  16
ENDBRANCH   1  15
BRANCH   2  19
HETATM   19  N   UNL     1     -41.937 -48.112  14.132  1.00  0.00    -0.226 N 
HETATM   20  C   UNL     1     -41.846 -48.145  15.598  1.00  0.00     0.168 C 
HETATM   21  C   UNL     1     -42.448 -46.834  13.639  1.00  0.00     0.168 C 
ENDBRANCH   2  19
TORSDOF 4
ENDMDL
