MODEL 1
REMARK VINA RESULT:      -6.5      0.000      0.000
REMARK  5 active torsions:
REMARK  status: ('A' for Active; 'I' for Inactive)
REMARK    1  A    between atoms: C_2  and  C_5 
REMARK    2  A    between atoms: C_10  and  N_11 
REMARK       I    between atoms: N_11  and  C_12 
REMARK    3  A    between atoms: C_12  and  C_14 
REMARK    4  A    between atoms: C_14  and  O_15 
REMARK    5  A    between atoms: O_15  and  C_16 
ROOT
HETATM    1  C   UNL     1     -45.354 -47.269   9.287  1.00  0.00     0.065 A 
HETATM    2  C   UNL     1     -45.279 -45.995   8.860  1.00  0.00     0.107 A 
HETATM    3  N   UNL     1     -44.195 -45.209   9.167  1.00  0.00    -0.331 N 
HETATM    4  C   UNL     1     -43.113 -45.643   9.907  1.00  0.00     0.272 A 
HETATM    5  O   UNL     1     -42.159 -44.921  10.172  1.00  0.00    -0.266 OA
HETATM    6  C   UNL     1     -43.156 -47.081  10.351  1.00  0.00     0.104 A 
HETATM    7  C   UNL     1     -44.252 -47.802  10.068  1.00  0.00     0.052 A 
HETATM    8  H   UNL     1     -44.148 -44.253   8.837  1.00  0.00     0.168 HD
ENDROOT
BRANCH   6   9
HETATM    9  N   UNL     1     -42.055 -47.556  11.027  1.00  0.00    -0.321 N 
HETATM   10  C   UNL     1     -41.911 -47.632  12.402  1.00  0.00     0.246 C 
HETATM   11  O   UNL     1     -42.785 -47.365  13.224  1.00  0.00    -0.271 OA
HETATM   12  H   UNL     1     -41.351 -48.013  10.451  1.00  0.00     0.169 HD
BRANCH  10  13
HETATM   13  C   UNL     1     -40.557 -48.168  12.837  1.00  0.00     0.271 C 
BRANCH  13  14
HETATM   14  O   UNL     1     -39.835 -48.554  11.676  1.00  0.00    -0.377 OA
BRANCH  14  15
HETATM   15  C   UNL     1     -39.215 -49.823  11.804  1.00  0.00     0.122 C 
HETATM   16  C   UNL     1     -39.255 -50.251  13.270  1.00  0.00     0.032 C 
HETATM   17  C   UNL     1     -37.956 -51.012  13.525  1.00  0.00     0.002 C 
HETATM   18  C   UNL     1     -37.171 -50.968  12.220  1.00  0.00     0.002 C 
HETATM   19  C   UNL     1     -37.728 -49.768  11.481  1.00  0.00     0.032 C 
ENDBRANCH  14  15
ENDBRANCH  13  14
ENDBRANCH  10  13
ENDBRANCH   6   9
BRANCH   1  20
HETATM   20  C   UNL     1     -46.508 -48.172   8.958  1.00  0.00     0.418 C 
HETATM   21  F   UNL     1     -46.442 -48.698   7.708  1.00  0.00    -0.166 F 
HETATM   22  F   UNL     1     -47.692 -47.513   9.043  1.00  0.00    -0.166 F 
HETATM   23  F   UNL     1     -46.581 -49.222   9.817  1.00  0.00    -0.166 F 
ENDBRANCH   1  20
TORSDOF 5
ENDMDL
MODEL 2
REMARK VINA RESULT:      -6.2      4.325      7.092
REMARK  5 active torsions:
REMARK  status: ('A' for Active; 'I' for Inactive)
REMARK    1  A    between atoms: C_2  and  C_5 
REMARK    2  A    between atoms: C_10  and  N_11 
REMARK       I    between atoms: N_11  and  C_12 
REMARK    3  A    between atoms: C_12  and  C_14 
REMARK    4  A    between atoms: C_14  and  O_15 
REMARK    5  A    between atoms: O_15  and  C_16 
ROOT
HETATM    1  C   UNL     1     -43.668 -53.798  13.421  1.00  0.00     0.065 A 
HETATM    2  C   UNL     1     -42.675 -54.470  14.032  1.00  0.00     0.107 A 
HETATM    3  N   UNL     1     -41.361 -54.117  13.843  1.00  0.00    -0.331 N 
HETATM    4  C   UNL     1     -40.953 -53.068  13.043  1.00  0.00     0.272 A 
HETATM    5  O   UNL     1     -39.773 -52.775  12.885  1.00  0.00    -0.266 OA
HETATM    6  C   UNL     1     -42.052 -52.274  12.390  1.00  0.00     0.104 A 
HETATM    7  C   UNL     1     -43.320 -52.677  12.566  1.00  0.00     0.052 A 
HETATM    8  H   UNL     1     -40.622 -54.627  14.311  1.00  0.00     0.168 HD
ENDROOT
BRANCH   6   9
HETATM    9  N   UNL     1     -41.672 -51.178  11.647  1.00  0.00    -0.321 N 
HETATM   10  C   UNL     1     -41.823 -49.852  12.011  1.00  0.00     0.246 C 
HETATM   11  O   UNL     1     -42.243 -49.456  13.097  1.00  0.00    -0.271 OA
HETATM   12  H   UNL     1     -41.110 -51.383  10.823  1.00  0.00     0.169 HD
BRANCH  10  13
HETATM   13  C   UNL     1     -41.338 -48.877  10.951  1.00  0.00     0.271 C 
BRANCH  13  14
HETATM   14  O   UNL     1     -42.121 -47.695  11.039  1.00  0.00    -0.377 OA
BRANCH  14  15
HETATM   15  C   UNL     1     -42.903 -47.460   9.880  1.00  0.00     0.122 C 
HETATM   16  C   UNL     1     -42.810 -45.982   9.507  1.00  0.00     0.032 C 
HETATM   17  C   UNL     1     -44.180 -45.597   8.953  1.00  0.00     0.002 C 
HETATM   18  C   UNL     1     -45.051 -46.844   9.062  1.00  0.00     0.002 C 
HETATM   19  C   UNL     1     -44.387 -47.678  10.138  1.00  0.00     0.032 C 
ENDBRANCH  14  15
ENDBRANCH  13  14
ENDBRANCH  10  13
ENDBRANCH   6   9
BRANCH   1  20
HETATM   20  C   UNL     1     -45.119 -54.133  13.617  1.00  0.00     0.418 C 
HETATM   21  F   UNL     1     -45.951 -53.412  12.824  1.00  0.00    -0.166 F 
HETATM   22  F   UNL     1     -45.510 -53.910  14.898  1.00  0.00    -0.166 F 
HETATM   23  F   UNL     1     -45.369 -55.442  13.353  1.00  0.00    -0.166 F 
ENDBRANCH   1  20
TORSDOF 5
ENDMDL
MODEL 3
REMARK VINA RESULT:      -6.1      5.424      6.335
REMARK  5 active torsions:
REMARK  status: ('A' for Active; 'I' for Inactive)
REMARK    1  A    between atoms: C_2  and  C_5 
REMARK    2  A    between atoms: C_10  and  N_11 
REMARK       I    between atoms: N_11  and  C_12 
REMARK    3  A    between atoms: C_12  and  C_14 
REMARK    4  A    between atoms: C_14  and  O_15 
REMARK    5  A    between atoms: O_15  and  C_16 
ROOT
HETATM    1  C   UNL     1     -46.733 -51.866  15.445  1.00  0.00     0.065 A 
HETATM    2  C   UNL     1     -47.104 -53.064  14.958  1.00  0.00     0.107 A 
HETATM    3  N   UNL     1     -46.563 -53.553  13.793  1.00  0.00    -0.331 N 
HETATM    4  C   UNL     1     -45.612 -52.886  13.047  1.00  0.00     0.272 A 
HETATM    5  O   UNL     1     -45.148 -53.340  12.007  1.00  0.00    -0.266 OA
HETATM    6  C   UNL     1     -45.148 -51.566  13.602  1.00  0.00     0.104 A 
HETATM    7  C   UNL     1     -45.732 -51.105  14.719  1.00  0.00     0.052 A 
HETATM    8  H   UNL     1     -46.847 -54.457  13.438  1.00  0.00     0.168 HD
ENDROOT
BRANCH   6   9
HETATM    9  N   UNL     1     -44.147 -50.918  12.913  1.00  0.00    -0.321 N 
HETATM   10  C   UNL     1     -42.791 -50.992  13.181  1.00  0.00     0.246 C 
HETATM   11  O   UNL     1     -42.271 -51.720  14.024  1.00  0.00    -0.271 OA
HETATM   12  H   UNL     1     -44.436 -50.458  12.052  1.00  0.00     0.169 HD
BRANCH  10  13
HETATM   13  C   UNL     1     -41.947 -50.124  12.261  1.00  0.00     0.271 C 
BRANCH  13  14
HETATM   14  O   UNL     1     -40.696 -49.890  12.892  1.00  0.00    -0.377 OA
BRANCH  14  15
HETATM   15  C   UNL     1     -39.601 -50.424  12.167  1.00  0.00     0.122 C 
HETATM   16  C   UNL     1     -38.708 -51.213  13.123  1.00  0.00     0.032 C 
HETATM   17  C   UNL     1     -37.275 -50.997  12.640  1.00  0.00     0.002 C 
HETATM   18  C   UNL     1     -37.363 -50.051  11.449  1.00  0.00     0.002 C 
HETATM   19  C   UNL     1     -38.685 -49.333  11.630  1.00  0.00     0.032 C 
ENDBRANCH  14  15
ENDBRANCH  13  14
ENDBRANCH  10  13
ENDBRANCH   6   9
BRANCH   1  20
HETATM   20  C   UNL     1     -47.279 -51.303  16.726  1.00  0.00     0.418 C 
HETATM   21  F   UNL     1     -48.555 -50.855  16.617  1.00  0.00    -0.166 F 
HETATM   22  F   UNL     1     -46.533 -50.256  17.163  1.00  0.00    -0.166 F 
HETATM   23  F   UNL     1     -47.276 -52.228  17.720  1.00  0.00    -0.166 F 
ENDBRANCH   1  20
TORSDOF 5
ENDMDL
MODEL 4
REMARK VINA RESULT:      -6.1      3.771      5.008
REMARK  5 active torsions:
REMARK  status: ('A' for Active; 'I' for Inactive)
REMARK    1  A    between atoms: C_2  and  C_5 
REMARK    2  A    between atoms: C_10  and  N_11 
REMARK       I    between atoms: N_11  and  C_12 
REMARK    3  A    between atoms: C_12  and  C_14 
REMARK    4  A    between atoms: C_14  and  O_15 
REMARK    5  A    between atoms: O_15  and  C_16 
ROOT
HETATM    1  C   UNL     1     -45.070 -51.949  13.147  1.00  0.00     0.065 A 
HETATM    2  C   UNL     1     -44.686 -53.076  12.521  1.00  0.00     0.107 A 
HETATM    3  N   UNL     1     -43.400 -53.225  12.059  1.00  0.00    -0.331 N 
HETATM    4  C   UNL     1     -42.416 -52.268  12.199  1.00  0.00     0.272 A 
HETATM    5  O   UNL     1     -41.276 -52.422  11.773  1.00  0.00    -0.266 OA
HETATM    6  C   UNL     1     -42.813 -51.020  12.941  1.00  0.00     0.104 A 
HETATM    7  C   UNL     1     -44.089 -50.896  13.338  1.00  0.00     0.052 A 
HETATM    8  H   UNL     1     -43.121 -54.080  11.592  1.00  0.00     0.168 HD
ENDROOT
BRANCH   6   9
HETATM    9  N   UNL     1     -41.827 -50.083  13.157  1.00  0.00    -0.321 N 
HETATM   10  C   UNL     1     -41.545 -48.994  12.351  1.00  0.00     0.246 C 
HETATM   11  O   UNL     1     -42.194 -48.652  11.364  1.00  0.00    -0.271 OA
HETATM   12  H   UNL     1     -41.365 -50.136  14.062  1.00  0.00     0.169 HD
BRANCH  10  13
HETATM   13  C   UNL     1     -40.367 -48.169  12.843  1.00  0.00     0.271 C 
BRANCH  13  14
HETATM   14  O   UNL     1     -39.677 -48.922  13.831  1.00  0.00    -0.377 OA
BRANCH  14  15
HETATM   15  C   UNL     1     -38.389 -49.339  13.411  1.00  0.00     0.122 C 
HETATM   16  C   UNL     1     -38.224 -49.029  11.924  1.00  0.00     0.032 C 
HETATM   17  C   UNL     1     -37.381 -50.163  11.345  1.00  0.00     0.002 C 
HETATM   18  C   UNL     1     -37.115 -51.128  12.494  1.00  0.00     0.002 C 
HETATM   19  C   UNL     1     -38.225 -50.851  13.488  1.00  0.00     0.032 C 
ENDBRANCH  14  15
ENDBRANCH  13  14
ENDBRANCH  10  13
ENDBRANCH   6   9
BRANCH   1  20
HETATM   20  C   UNL     1     -46.456 -51.750  13.689  1.00  0.00     0.418 C 
HETATM   21  F   UNL     1     -46.495 -50.970  14.799  1.00  0.00    -0.166 F 
HETATM   22  F   UNL     1     -47.031 -52.934  14.023  1.00  0.00    -0.166 F 
HETATM   23  F   UNL     1     -47.271 -51.163  12.774  1.00  0.00    -0.166 F 
ENDBRANCH   1  20
TORSDOF 5
ENDMDL
MODEL 5
REMARK VINA RESULT:      -6.0      5.341      6.611
REMARK  5 active torsions:
REMARK  status: ('A' for Active; 'I' for Inactive)
REMARK    1  A    between atoms: C_2  and  C_5 
REMARK    2  A    between atoms: C_10  and  N_11 
REMARK       I    between atoms: N_11  and  C_12 
REMARK    3  A    between atoms: C_12  and  C_14 
REMARK    4  A    between atoms: C_14  and  O_15 
REMARK    5  A    between atoms: O_15  and  C_16 
ROOT
HETATM    1  C   UNL     1     -45.352 -52.753  13.525  1.00  0.00     0.065 A 
HETATM    2  C   UNL     1     -45.913 -53.915  13.904  1.00  0.00     0.107 A 
HETATM    3  N   UNL     1     -45.157 -54.917  14.462  1.00  0.00    -0.331 N 
HETATM    4  C   UNL     1     -43.798 -54.822  14.688  1.00  0.00     0.272 A 
HETATM    5  O   UNL     1     -43.143 -55.732  15.183  1.00  0.00    -0.266 OA
HETATM    6  C   UNL     1     -43.162 -53.509  14.317  1.00  0.00     0.104 A 
HETATM    7  C   UNL     1     -43.927 -52.573  13.735  1.00  0.00     0.052 A 
HETATM    8  H   UNL     1     -45.591 -55.787  14.747  1.00  0.00     0.168 HD
ENDROOT
BRANCH   6   9
HETATM    9  N   UNL     1     -41.822 -53.365  14.601  1.00  0.00    -0.321 N 
HETATM   10  C   UNL     1     -40.770 -53.659  13.751  1.00  0.00     0.246 C 
HETATM   11  O   UNL     1     -40.881 -54.013  12.578  1.00  0.00    -0.271 OA
HETATM   12  H   UNL     1     -41.609 -52.870  15.465  1.00  0.00     0.169 HD
BRANCH  10  13
HETATM   13  C   UNL     1     -39.405 -53.427  14.378  1.00  0.00     0.271 C 
BRANCH  13  14
HETATM   14  O   UNL     1     -38.618 -52.672  13.468  1.00  0.00    -0.377 OA
BRANCH  14  15
HETATM   15  C   UNL     1     -38.817 -51.273  13.591  1.00  0.00     0.122 C 
HETATM   16  C   UNL     1     -39.150 -50.694  12.217  1.00  0.00     0.032 C 
HETATM   17  C   UNL     1     -38.508 -49.310  12.173  1.00  0.00     0.002 C 
HETATM   18  C   UNL     1     -37.777 -49.135  13.499  1.00  0.00     0.002 C 
HETATM   19  C   UNL     1     -37.539 -50.548  13.992  1.00  0.00     0.032 C 
ENDBRANCH  14  15
ENDBRANCH  13  14
ENDBRANCH  10  13
ENDBRANCH   6   9
BRANCH   1  20
HETATM   20  C   UNL     1     -46.143 -51.621  12.933  1.00  0.00     0.418 C 
HETATM   21  F   UNL     1     -46.814 -51.964  11.805  1.00  0.00    -0.166 F 
HETATM   22  F   UNL     1     -45.341 -50.575  12.608  1.00  0.00    -0.166 F 
HETATM   23  F   UNL     1     -47.069 -51.148  13.807  1.00  0.00    -0.166 F 
ENDBRANCH   1  20
TORSDOF 5
ENDMDL
MODEL 6
REMARK VINA RESULT:      -6.0      4.018      5.711
REMARK  5 active torsions:
REMARK  status: ('A' for Active; 'I' for Inactive)
REMARK    1  A    between atoms: C_2  and  C_5 
REMARK    2  A    between atoms: C_10  and  N_11 
REMARK       I    between atoms: N_11  and  C_12 
REMARK    3  A    between atoms: C_12  and  C_14 
REMARK    4  A    between atoms: C_14  and  O_15 
REMARK    5  A    between atoms: O_15  and  C_16 
ROOT
HETATM    1  C   UNL     1     -45.036 -51.955  13.145  1.00  0.00     0.065 A 
HETATM    2  C   UNL     1     -44.642 -53.087  12.534  1.00  0.00     0.107 A 
HETATM    3  N   UNL     1     -43.358 -53.227  12.064  1.00  0.00    -0.331 N 
HETATM    4  C   UNL     1     -42.385 -52.255  12.182  1.00  0.00     0.272 A 
HETATM    5  O   UNL     1     -41.247 -52.401  11.750  1.00  0.00    -0.266 OA
HETATM    6  C   UNL     1     -42.793 -51.001  12.908  1.00  0.00     0.104 A 
HETATM    7  C   UNL     1     -44.067 -50.887  13.313  1.00  0.00     0.052 A 
HETATM    8  H   UNL     1     -43.071 -54.085  11.608  1.00  0.00     0.168 HD
ENDROOT
BRANCH   6   9
HETATM    9  N   UNL     1     -41.817 -50.049  13.102  1.00  0.00    -0.321 N 
HETATM   10  C   UNL     1     -41.471 -49.042  12.218  1.00  0.00     0.246 C 
HETATM   11  O   UNL     1     -42.046 -48.797  11.159  1.00  0.00    -0.271 OA
HETATM   12  H   UNL     1     -41.421 -50.014  14.039  1.00  0.00     0.169 HD
BRANCH  10  13
HETATM   13  C   UNL     1     -40.324 -48.175  12.711  1.00  0.00     0.271 C 
BRANCH  13  14
HETATM   14  O   UNL     1     -40.801 -46.845  12.858  1.00  0.00    -0.377 OA
BRANCH  14  15
HETATM   15  C   UNL     1     -39.973 -45.886  12.222  1.00  0.00     0.122 C 
HETATM   16  C   UNL     1     -40.558 -44.493  12.448  1.00  0.00     0.032 C 
HETATM   17  C   UNL     1     -40.275 -43.702  11.173  1.00  0.00     0.002 C 
HETATM   18  C   UNL     1     -39.577 -44.664  10.219  1.00  0.00     0.002 C 
HETATM   19  C   UNL     1     -39.977 -46.041  10.707  1.00  0.00     0.032 C 
ENDBRANCH  14  15
ENDBRANCH  13  14
ENDBRANCH  10  13
ENDBRANCH   6   9
BRANCH   1  20
HETATM   20  C   UNL     1     -46.421 -51.766  13.695  1.00  0.00     0.418 C 
HETATM   21  F   UNL     1     -47.023 -52.928  14.053  1.00  0.00    -0.166 F 
HETATM   22  F   UNL     1     -47.235 -51.167  12.788  1.00  0.00    -0.166 F 
HETATM   23  F   UNL     1     -46.416 -50.975  14.799  1.00  0.00    -0.166 F 
ENDBRANCH   1  20
TORSDOF 5
ENDMDL
MODEL 7
REMARK VINA RESULT:      -5.9      4.623      6.710
REMARK  5 active torsions:
REMARK  status: ('A' for Active; 'I' for Inactive)
REMARK    1  A    between atoms: C_2  and  C_5 
REMARK    2  A    between atoms: C_10  and  N_11 
REMARK       I    between atoms: N_11  and  C_12 
REMARK    3  A    between atoms: C_12  and  C_14 
REMARK    4  A    between atoms: C_14  and  O_15 
REMARK    5  A    between atoms: O_15  and  C_16 
ROOT
HETATM    1  C   UNL     1     -43.704 -53.937  13.515  1.00  0.00     0.065 A 
HETATM    2  C   UNL     1     -42.683 -54.606  14.079  1.00  0.00     0.107 A 
HETATM    3  N   UNL     1     -41.380 -54.240  13.841  1.00  0.00    -0.331 N 
HETATM    4  C   UNL     1     -41.013 -53.180  13.037  1.00  0.00     0.272 A 
HETATM    5  O   UNL     1     -39.843 -52.875  12.836  1.00  0.00    -0.266 OA
HETATM    6  C   UNL     1     -42.143 -52.388  12.437  1.00  0.00     0.104 A 
HETATM    7  C   UNL     1     -43.400 -52.805  12.659  1.00  0.00     0.052 A 
HETATM    8  H   UNL     1     -40.619 -54.749  14.275  1.00  0.00     0.168 HD
ENDROOT
BRANCH   6   9
HETATM    9  N   UNL     1     -41.802 -51.282  11.691  1.00  0.00    -0.321 N 
HETATM   10  C   UNL     1     -41.690 -49.984  12.158  1.00  0.00     0.246 C 
HETATM   11  O   UNL     1     -41.795 -49.641  13.334  1.00  0.00    -0.271 OA
HETATM   12  H   UNL     1     -41.475 -51.476  10.746  1.00  0.00     0.169 HD
BRANCH  10  13
HETATM   13  C   UNL     1     -41.335 -48.982  11.073  1.00  0.00     0.271 C 
BRANCH  13  14
HETATM   14  O   UNL     1     -41.484 -47.674  11.607  1.00  0.00    -0.377 OA
BRANCH  14  15
HETATM   15  C   UNL     1     -40.393 -46.822  11.300  1.00  0.00     0.122 C 
HETATM   16  C   UNL     1     -39.921 -46.134  12.580  1.00  0.00     0.032 C 
HETATM   17  C   UNL     1     -39.480 -44.731  12.170  1.00  0.00     0.002 C 
HETATM   18  C   UNL     1     -39.749 -44.618  10.674  1.00  0.00     0.002 C 
HETATM   19  C   UNL     1     -40.807 -45.667  10.398  1.00  0.00     0.032 C 
ENDBRANCH  14  15
ENDBRANCH  13  14
ENDBRANCH  10  13
ENDBRANCH   6   9
BRANCH   1  20
HETATM   20  C   UNL     1     -45.144 -54.287  13.764  1.00  0.00     0.418 C 
HETATM   21  F   UNL     1     -45.513 -54.162  15.064  1.00  0.00    -0.166 F 
HETATM   22  F   UNL     1     -45.411 -55.568  13.403  1.00  0.00    -0.166 F 
HETATM   23  F   UNL     1     -45.981 -53.495  13.045  1.00  0.00    -0.166 F 
ENDBRANCH   1  20
TORSDOF 5
ENDMDL
MODEL 8
REMARK VINA RESULT:      -5.8      4.761      5.525
REMARK  5 active torsions:
REMARK  status: ('A' for Active; 'I' for Inactive)
REMARK    1  A    between atoms: C_2  and  C_5 
REMARK    2  A    between atoms: C_10  and  N_11 
REMARK       I    between atoms: N_11  and  C_12 
REMARK    3  A    between atoms: C_12  and  C_14 
REMARK    4  A    between atoms: C_14  and  O_15 
REMARK    5  A    between atoms: O_15  and  C_16 
ROOT
HETATM    1  C   UNL     1     -41.106 -45.563  10.586  1.00  0.00     0.065 A 
HETATM    2  C   UNL     1     -42.336 -45.061  10.379  1.00  0.00     0.107 A 
HETATM    3  N   UNL     1     -43.437 -45.882  10.327  1.00  0.00    -0.331 N 
HETATM    4  C   UNL     1     -43.384 -47.252  10.489  1.00  0.00     0.272 A 
HETATM    5  O   UNL     1     -44.379 -47.965  10.434  1.00  0.00    -0.266 OA
HETATM    6  C   UNL     1     -42.022 -47.827  10.772  1.00  0.00     0.104 A 
HETATM    7  C   UNL     1     -40.968 -46.997  10.771  1.00  0.00     0.052 A 
HETATM    8  H   UNL     1     -44.359 -45.492  10.174  1.00  0.00     0.168 HD
ENDROOT
BRANCH   6   9
HETATM    9  N   UNL     1     -41.955 -49.182  11.010  1.00  0.00    -0.321 N 
HETATM   10  C   UNL     1     -41.978 -49.796  12.250  1.00  0.00     0.246 C 
HETATM   11  O   UNL     1     -42.148 -49.222  13.324  1.00  0.00    -0.271 OA
HETATM   12  H   UNL     1     -42.035 -49.775  10.186  1.00  0.00     0.169 HD
BRANCH  10  13
HETATM   13  C   UNL     1     -41.847 -51.308  12.177  1.00  0.00     0.271 C 
BRANCH  13  14
HETATM   14  O   UNL     1     -42.247 -51.852  13.427  1.00  0.00    -0.377 OA
BRANCH  14  15
HETATM   15  C   UNL     1     -42.654 -53.207  13.337  1.00  0.00     0.122 C 
HETATM   16  C   UNL     1     -43.996 -53.278  12.610  1.00  0.00     0.032 C 
HETATM   17  C   UNL     1     -44.772 -54.418  13.264  1.00  0.00     0.002 C 
HETATM   18  C   UNL     1     -43.888 -54.952  14.384  1.00  0.00     0.002 C 
HETATM   19  C   UNL     1     -42.949 -53.807  14.705  1.00  0.00     0.032 C 
ENDBRANCH  14  15
ENDBRANCH  13  14
ENDBRANCH  10  13
ENDBRANCH   6   9
BRANCH   1  20
HETATM   20  C   UNL     1     -39.878 -44.703  10.673  1.00  0.00     0.418 C 
HETATM   21  F   UNL     1     -40.151 -43.374  10.704  1.00  0.00    -0.166 F 
HETATM   22  F   UNL     1     -39.055 -44.908   9.613  1.00  0.00    -0.166 F 
HETATM   23  F   UNL     1     -39.154 -44.977  11.789  1.00  0.00    -0.166 F 
ENDBRANCH   1  20
TORSDOF 5
ENDMDL
MODEL 9
REMARK VINA RESULT:      -5.7      5.474      6.883
REMARK  5 active torsions:
REMARK  status: ('A' for Active; 'I' for Inactive)
REMARK    1  A    between atoms: C_2  and  C_5 
REMARK    2  A    between atoms: C_10  and  N_11 
REMARK       I    between atoms: N_11  and  C_12 
REMARK    3  A    between atoms: C_12  and  C_14 
REMARK    4  A    between atoms: C_14  and  O_15 
REMARK    5  A    between atoms: O_15  and  C_16 
ROOT
HETATM    1  C   UNL     1     -46.581 -51.988  15.383  1.00  0.00     0.065 A 
HETATM    2  C   UNL     1     -46.989 -53.202  14.970  1.00  0.00     0.107 A 
HETATM    3  N   UNL     1     -46.429 -53.798  13.866  1.00  0.00    -0.331 N 
HETATM    4  C   UNL     1     -45.424 -53.230  13.110  1.00  0.00     0.272 A 
HETATM    5  O   UNL     1     -44.943 -53.780  12.125  1.00  0.00    -0.266 OA
HETATM    6  C   UNL     1     -44.920 -51.894  13.586  1.00  0.00     0.104 A 
HETATM    7  C   UNL     1     -45.522 -51.326  14.642  1.00  0.00     0.052 A 
HETATM    8  H   UNL     1     -46.742 -54.714  13.567  1.00  0.00     0.168 HD
ENDROOT
BRANCH   6   9
HETATM    9  N   UNL     1     -43.867 -51.342  12.891  1.00  0.00    -0.321 N 
HETATM   10  C   UNL     1     -42.529 -51.418  13.239  1.00  0.00     0.246 C 
HETATM   11  O   UNL     1     -42.075 -52.067  14.179  1.00  0.00    -0.271 OA
HETATM   12  H   UNL     1     -44.098 -50.966  11.973  1.00  0.00     0.169 HD
BRANCH  10  13
HETATM   13  C   UNL     1     -41.615 -50.668  12.284  1.00  0.00     0.271 C 
BRANCH  13  14
HETATM   14  O   UNL     1     -41.199 -49.466  12.916  1.00  0.00    -0.377 OA
BRANCH  14  15
HETATM   15  C   UNL     1     -41.493 -48.308  12.152  1.00  0.00     0.122 C 
HETATM   16  C   UNL     1     -42.939 -47.890  12.416  1.00  0.00     0.032 C 
HETATM   17  C   UNL     1     -43.469 -47.339  11.094  1.00  0.00     0.002 C 
HETATM   18  C   UNL     1     -42.340 -47.494  10.082  1.00  0.00     0.002 C 
HETATM   19  C   UNL     1     -41.463 -48.588  10.655  1.00  0.00     0.032 C 
ENDBRANCH  14  15
ENDBRANCH  13  14
ENDBRANCH  10  13
ENDBRANCH   6   9
BRANCH   1  20
HETATM   20  C   UNL     1     -47.147 -51.308  16.596  1.00  0.00     0.418 C 
HETATM   21  F   UNL     1     -47.287 -52.135  17.663  1.00  0.00    -0.166 F 
HETATM   22  F   UNL     1     -48.375 -50.785  16.343  1.00  0.00    -0.166 F 
HETATM   23  F   UNL     1     -46.360 -50.278  17.004  1.00  0.00    -0.166 F 
ENDBRANCH   1  20
TORSDOF 5
ENDMDL
