MODEL 1
REMARK VINA RESULT:      -6.1      0.000      0.000
REMARK  6 active torsions:
REMARK  status: ('A' for Active; 'I' for Inactive)
REMARK    1  A    between atoms: C_5  and  C_6 
REMARK    2  A    between atoms: C_6  and  C_7 
REMARK       I    between atoms: C_7  and  N_9 
REMARK    3  A    between atoms: N_9  and  C_10 
REMARK    4  A    between atoms: C_10  and  C_11 
REMARK    5  A    between atoms: C_11  and  C_12 
REMARK    6  A    between atoms: C_12  and  N_13 
ROOT
HETATM    1  C   UNL     1     -42.202 -53.634  13.327  1.00  0.00     0.133 C 
ENDROOT
BRANCH   1   2
HETATM    2  N   UNL     1     -43.312 -54.141  14.118  1.00  0.00    -0.360 N 
HETATM    3  C   UNL     1     -44.520 -54.375  13.471  1.00  0.00     0.221 C 
HETATM    4  O   UNL     1     -44.660 -54.278  12.257  1.00  0.00    -0.273 OA
HETATM    5  H   UNL     1     -43.348 -53.939  15.109  1.00  0.00     0.162 HD
BRANCH   3   6
HETATM    6  C   UNL     1     -45.677 -54.749  14.378  1.00  0.00     0.142 C 
BRANCH   6   7
HETATM    7  C   UNL     1     -46.169 -53.628  15.257  1.00  0.00    -0.034 A 
HETATM    8  C   UNL     1     -46.766 -52.501  14.684  1.00  0.00     0.011 A 
HETATM    9  C   UNL     1     -47.249 -51.479  15.499  1.00  0.00     0.025 A 
HETATM   10  C   UNL     1     -47.111 -51.598  16.876  1.00  0.00     0.005 A 
HETATM   11  C   UNL     1     -47.715 -50.584  17.800  1.00  0.00     0.068 C 
HETATM   12  N   UNL     1     -46.486 -52.650  17.452  1.00  0.00    -0.369 N 
HETATM   13  C   UNL     1     -46.015 -53.625  16.639  1.00  0.00     0.095 A 
ATOM     14  HN  UNL     1     -46.374 -52.708  18.464  1.00  0.00     0.165 HD
ENDBRANCH   6   7
ENDBRANCH   3   6
ENDBRANCH   1   2
BRANCH   1  15
HETATM   15  C   UNL     1     -41.700 -52.171  13.599  1.00  0.00     0.002 C 
HETATM   16  C   UNL     1     -41.825 -51.858  15.123  1.00  0.00     0.013 C 
HETATM   17  C   UNL     1     -43.194 -51.388  15.600  1.00  0.00     0.001 C 
HETATM   18  C   UNL     1     -43.722 -50.271  14.720  1.00  0.00     0.000 C 
HETATM   19  C   UNL     1     -43.918 -50.786  13.307  1.00  0.00     0.001 C 
HETATM   20  C   UNL     1     -42.617 -51.288  12.687  1.00  0.00     0.013 C 
BRANCH  15  21
HETATM   21  C   UNL     1     -40.184 -52.030  13.152  1.00  0.00     0.283 C 
BRANCH  21  22
HETATM   22  N   UNL     1     -39.391 -50.908  13.717  1.00  0.00     0.093 N 
HETATM   23  C   UNL     1     -39.611 -49.551  13.174  1.00  0.00     0.298 C 
HETATM   24  C   UNL     1     -38.959 -49.286  11.805  1.00  0.00     0.198 C 
HETATM   25  O   UNL     1     -37.544 -49.521  11.865  1.00  0.00    -0.388 OA
HETATM   26  C   UNL     1     -37.284 -50.864  12.289  1.00  0.00     0.198 C 
HETATM   27  C   UNL     1     -37.930 -51.162  13.656  1.00  0.00     0.298 C 
ENDBRANCH  21  22
ENDBRANCH  15  21
ENDBRANCH   1  15
TORSDOF 6
ENDMDL
MODEL 2
REMARK VINA RESULT:      -6.1      2.641      4.031
REMARK  6 active torsions:
REMARK  status: ('A' for Active; 'I' for Inactive)
REMARK    1  A    between atoms: C_5  and  C_6 
REMARK    2  A    between atoms: C_6  and  C_7 
REMARK       I    between atoms: C_7  and  N_9 
REMARK    3  A    between atoms: N_9  and  C_10 
REMARK    4  A    between atoms: C_10  and  C_11 
REMARK    5  A    between atoms: C_11  and  C_12 
REMARK    6  A    between atoms: C_12  and  N_13 
ROOT
HETATM    1  C   UNL     1     -40.783 -51.659  11.819  1.00  0.00     0.133 C 
ENDROOT
BRANCH   1   2
HETATM    2  N   UNL     1     -42.214 -51.912  11.845  1.00  0.00    -0.360 N 
HETATM    3  C   UNL     1     -42.667 -53.025  12.542  1.00  0.00     0.221 C 
HETATM    4  O   UNL     1     -41.933 -53.736  13.220  1.00  0.00    -0.273 OA
HETATM    5  H   UNL     1     -42.791 -51.574  11.085  1.00  0.00     0.162 HD
BRANCH   3   6
HETATM    6  C   UNL     1     -44.149 -53.321  12.397  1.00  0.00     0.142 C 
BRANCH   6   7
HETATM    7  C   UNL     1     -45.011 -52.743  13.489  1.00  0.00    -0.034 A 
HETATM    8  C   UNL     1     -46.016 -51.824  13.173  1.00  0.00     0.011 A 
HETATM    9  C   UNL     1     -46.834 -51.312  14.179  1.00  0.00     0.025 A 
HETATM   10  C   UNL     1     -46.619 -51.721  15.489  1.00  0.00     0.005 A 
HETATM   11  C   UNL     1     -47.542 -51.292  16.589  1.00  0.00     0.068 C 
HETATM   12  N   UNL     1     -45.617 -52.564  15.829  1.00  0.00    -0.369 N 
HETATM   13  C   UNL     1     -44.829 -53.037  14.836  1.00  0.00     0.095 A 
ATOM     14  HN  UNL     1     -45.461 -52.834  16.800  1.00  0.00     0.165 HD
ENDBRANCH   6   7
ENDBRANCH   3   6
ENDBRANCH   1   2
BRANCH   1  15
HETATM   15  C   UNL     1     -40.252 -50.312  12.429  1.00  0.00     0.002 C 
HETATM   16  C   UNL     1     -38.896 -49.941  11.752  1.00  0.00     0.013 C 
HETATM   17  C   UNL     1     -37.652 -50.599  12.337  1.00  0.00     0.001 C 
HETATM   18  C   UNL     1     -37.620 -50.455  13.847  1.00  0.00     0.000 C 
HETATM   19  C   UNL     1     -38.810 -51.177  14.451  1.00  0.00     0.001 C 
HETATM   20  C   UNL     1     -40.140 -50.615  13.961  1.00  0.00     0.013 C 
BRANCH  15  21
HETATM   21  C   UNL     1     -41.306 -49.153  12.175  1.00  0.00     0.283 C 
BRANCH  21  22
HETATM   22  N   UNL     1     -41.042 -48.200  11.066  1.00  0.00     0.093 N 
HETATM   23  C   UNL     1     -40.661 -46.814  11.411  1.00  0.00     0.298 C 
HETATM   24  C   UNL     1     -41.824 -45.916  11.870  1.00  0.00     0.198 C 
HETATM   25  O   UNL     1     -42.849 -45.864  10.865  1.00  0.00    -0.388 OA
HETATM   26  C   UNL     1     -43.324 -47.184  10.575  1.00  0.00     0.198 C 
HETATM   27  C   UNL     1     -42.180 -48.109  10.117  1.00  0.00     0.298 C 
ENDBRANCH  21  22
ENDBRANCH  15  21
ENDBRANCH   1  15
TORSDOF 6
ENDMDL
MODEL 3
REMARK VINA RESULT:      -6.0      3.319      6.447
REMARK  6 active torsions:
REMARK  status: ('A' for Active; 'I' for Inactive)
REMARK    1  A    between atoms: C_5  and  C_6 
REMARK    2  A    between atoms: C_6  and  C_7 
REMARK       I    between atoms: C_7  and  N_9 
REMARK    3  A    between atoms: N_9  and  C_10 
REMARK    4  A    between atoms: C_10  and  C_11 
REMARK    5  A    between atoms: C_11  and  C_12 
REMARK    6  A    between atoms: C_12  and  N_13 
ROOT
HETATM    1  C   UNL     1     -43.949 -49.737  15.069  1.00  0.00     0.133 C 
ENDROOT
BRANCH   1   2
HETATM    2  N   UNL     1     -42.921 -49.225  14.177  1.00  0.00    -0.360 N 
HETATM    3  C   UNL     1     -42.615 -47.871  14.246  1.00  0.00     0.221 C 
HETATM    4  O   UNL     1     -43.089 -47.118  15.089  1.00  0.00    -0.273 OA
HETATM    5  H   UNL     1     -42.747 -49.696  13.299  1.00  0.00     0.162 HD
BRANCH   3   6
HETATM    6  C   UNL     1     -41.653 -47.372  13.184  1.00  0.00     0.142 C 
BRANCH   6   7
HETATM    7  C   UNL     1     -42.153 -47.518  11.769  1.00  0.00    -0.034 A 
HETATM    8  C   UNL     1     -43.386 -46.969  11.404  1.00  0.00     0.011 A 
HETATM    9  C   UNL     1     -43.835 -47.076  10.090  1.00  0.00     0.025 A 
HETATM   10  C   UNL     1     -43.045 -47.748   9.165  1.00  0.00     0.005 A 
HETATM   11  C   UNL     1     -43.425 -47.792   7.716  1.00  0.00     0.068 C 
HETATM   12  N   UNL     1     -41.876 -48.338   9.506  1.00  0.00    -0.369 N 
HETATM   13  C   UNL     1     -41.467 -48.230  10.792  1.00  0.00     0.095 A 
ATOM     14  HN  UNL     1     -41.321 -48.847   8.817  1.00  0.00     0.165 HD
ENDBRANCH   6   7
ENDBRANCH   3   6
ENDBRANCH   1   2
BRANCH   1  15
HETATM   15  C   UNL     1     -44.282 -51.271  15.021  1.00  0.00     0.002 C 
HETATM   16  C   UNL     1     -45.333 -51.535  13.899  1.00  0.00     0.013 C 
HETATM   17  C   UNL     1     -46.792 -51.315  14.282  1.00  0.00     0.001 C 
HETATM   18  C   UNL     1     -47.124 -52.021  15.583  1.00  0.00     0.000 C 
HETATM   19  C   UNL     1     -46.295 -51.431  16.707  1.00  0.00     0.001 C 
HETATM   20  C   UNL     1     -44.796 -51.586  16.466  1.00  0.00     0.013 C 
BRANCH  15  21
HETATM   21  C   UNL     1     -42.963 -52.099  14.717  1.00  0.00     0.283 C 
BRANCH  21  22
HETATM   22  N   UNL     1     -42.875 -52.821  13.422  1.00  0.00     0.093 N 
HETATM   23  C   UNL     1     -42.223 -54.147  13.402  1.00  0.00     0.298 C 
HETATM   24  C   UNL     1     -40.685 -54.116  13.457  1.00  0.00     0.198 C 
HETATM   25  O   UNL     1     -40.156 -53.339  12.371  1.00  0.00    -0.388 OA
HETATM   26  C   UNL     1     -40.684 -52.008  12.413  1.00  0.00     0.198 C 
HETATM   27  C   UNL     1     -42.224 -52.008  12.365  1.00  0.00     0.298 C 
ENDBRANCH  21  22
ENDBRANCH  15  21
ENDBRANCH   1  15
TORSDOF 6
ENDMDL
MODEL 4
REMARK VINA RESULT:      -5.9      3.357      4.927
REMARK  6 active torsions:
REMARK  status: ('A' for Active; 'I' for Inactive)
REMARK    1  A    between atoms: C_5  and  C_6 
REMARK    2  A    between atoms: C_6  and  C_7 
REMARK       I    between atoms: C_7  and  N_9 
REMARK    3  A    between atoms: N_9  and  C_10 
REMARK    4  A    between atoms: C_10  and  C_11 
REMARK    5  A    between atoms: C_11  and  C_12 
REMARK    6  A    between atoms: C_12  and  N_13 
ROOT
HETATM    1  C   UNL     1     -40.480 -50.451  11.359  1.00  0.00     0.133 C 
ENDROOT
BRANCH   1   2
HETATM    2  N   UNL     1     -41.310 -51.572  11.770  1.00  0.00    -0.360 N 
HETATM    3  C   UNL     1     -40.722 -52.571  12.536  1.00  0.00     0.221 C 
HETATM    4  O   UNL     1     -39.577 -52.499  12.968  1.00  0.00    -0.273 OA
HETATM    5  H   UNL     1     -42.111 -51.829  11.206  1.00  0.00     0.162 HD
BRANCH   3   6
HETATM    6  C   UNL     1     -41.596 -53.785  12.795  1.00  0.00     0.142 C 
BRANCH   6   7
HETATM    7  C   UNL     1     -42.963 -53.466  13.343  1.00  0.00    -0.034 A 
HETATM    8  C   UNL     1     -43.088 -52.840  14.587  1.00  0.00     0.011 A 
HETATM    9  C   UNL     1     -44.351 -52.516  15.080  1.00  0.00     0.025 A 
HETATM   10  C   UNL     1     -45.469 -52.841  14.323  1.00  0.00     0.005 A 
HETATM   11  C   UNL     1     -46.839 -52.413  14.752  1.00  0.00     0.068 C 
HETATM   12  N   UNL     1     -45.378 -53.499  13.144  1.00  0.00    -0.369 N 
HETATM   13  C   UNL     1     -44.142 -53.813  12.692  1.00  0.00     0.095 A 
ATOM     14  HN  UNL     1     -46.213 -53.749  12.613  1.00  0.00     0.165 HD
ENDBRANCH   6   7
ENDBRANCH   3   6
ENDBRANCH   1   2
BRANCH   1  15
HETATM   15  C   UNL     1     -40.908 -49.005  11.798  1.00  0.00     0.002 C 
HETATM   16  C   UNL     1     -39.635 -48.180  12.165  1.00  0.00     0.013 C 
HETATM   17  C   UNL     1     -39.103 -48.363  13.581  1.00  0.00     0.001 C 
HETATM   18  C   UNL     1     -40.216 -48.220  14.602  1.00  0.00     0.000 C 
HETATM   19  C   UNL     1     -41.244 -49.315  14.389  1.00  0.00     0.001 C 
HETATM   20  C   UNL     1     -41.878 -49.253  13.002  1.00  0.00     0.013 C 
BRANCH  15  21
HETATM   21  C   UNL     1     -41.681 -48.288  10.612  1.00  0.00     0.283 C 
BRANCH  21  22
HETATM   22  N   UNL     1     -42.936 -47.562  10.935  1.00  0.00     0.093 N 
HETATM   23  C   UNL     1     -43.936 -47.380   9.861  1.00  0.00     0.298 C 
HETATM   24  C   UNL     1     -43.597 -46.283   8.836  1.00  0.00     0.198 C 
HETATM   25  O   UNL     1     -43.408 -45.020   9.492  1.00  0.00    -0.388 OA
HETATM   26  C   UNL     1     -42.369 -45.123  10.472  1.00  0.00     0.198 C 
HETATM   27  C   UNL     1     -42.678 -46.218  11.511  1.00  0.00     0.298 C 
ENDBRANCH  21  22
ENDBRANCH  15  21
ENDBRANCH   1  15
TORSDOF 6
ENDMDL
MODEL 5
REMARK VINA RESULT:      -5.8      3.732      7.213
REMARK  6 active torsions:
REMARK  status: ('A' for Active; 'I' for Inactive)
REMARK    1  A    between atoms: C_5  and  C_6 
REMARK    2  A    between atoms: C_6  and  C_7 
REMARK       I    between atoms: C_7  and  N_9 
REMARK    3  A    between atoms: N_9  and  C_10 
REMARK    4  A    between atoms: C_10  and  C_11 
REMARK    5  A    between atoms: C_11  and  C_12 
REMARK    6  A    between atoms: C_12  and  N_13 
ROOT
HETATM    1  C   UNL     1     -39.683 -47.994  12.968  1.00  0.00     0.133 C 
ENDROOT
BRANCH   1   2
HETATM    2  N   UNL     1     -40.097 -47.379  11.718  1.00  0.00    -0.360 N 
HETATM    3  C   UNL     1     -41.008 -46.330  11.777  1.00  0.00     0.221 C 
HETATM    4  O   UNL     1     -41.390 -45.833  12.831  1.00  0.00    -0.273 OA
HETATM    5  H   UNL     1     -40.072 -47.923  10.865  1.00  0.00     0.162 HD
BRANCH   3   6
HETATM    6  C   UNL     1     -41.518 -45.841  10.435  1.00  0.00     0.142 C 
BRANCH   6   7
HETATM    7  C   UNL     1     -42.883 -46.358  10.059  1.00  0.00    -0.034 A 
HETATM    8  C   UNL     1     -43.723 -45.590   9.247  1.00  0.00     0.011 A 
HETATM    9  C   UNL     1     -44.972 -46.081   8.875  1.00  0.00     0.025 A 
HETATM   10  C   UNL     1     -45.365 -47.331   9.336  1.00  0.00     0.005 A 
HETATM   11  C   UNL     1     -46.647 -47.954   8.872  1.00  0.00     0.068 C 
HETATM   12  N   UNL     1     -44.597 -48.069  10.169  1.00  0.00    -0.369 N 
HETATM   13  C   UNL     1     -43.392 -47.565  10.527  1.00  0.00     0.095 A 
ATOM     14  HN  UNL     1     -44.913 -48.975  10.516  1.00  0.00     0.165 HD
ENDBRANCH   6   7
ENDBRANCH   3   6
ENDBRANCH   1   2
BRANCH   1  15
HETATM   15  C   UNL     1     -39.762 -49.557  13.093  1.00  0.00     0.002 C 
HETATM   16  C   UNL     1     -38.956 -50.015  14.349  1.00  0.00     0.013 C 
HETATM   17  C   UNL     1     -37.454 -50.189  14.154  1.00  0.00     0.001 C 
HETATM   18  C   UNL     1     -37.159 -51.025  12.923  1.00  0.00     0.000 C 
HETATM   19  C   UNL     1     -37.668 -50.307  11.688  1.00  0.00     0.001 C 
HETATM   20  C   UNL     1     -39.174 -50.069  11.735  1.00  0.00     0.013 C 
BRANCH  15  21
HETATM   21  C   UNL     1     -41.276 -50.011  13.240  1.00  0.00     0.283 C 
BRANCH  21  22
HETATM   22  N   UNL     1     -41.562 -51.240  14.023  1.00  0.00     0.093 N 
HETATM   23  C   UNL     1     -41.733 -52.513  13.291  1.00  0.00     0.298 C 
HETATM   24  C   UNL     1     -43.091 -52.679  12.584  1.00  0.00     0.198 C 
HETATM   25  O   UNL     1     -44.168 -52.554  13.524  1.00  0.00    -0.388 OA
HETATM   26  C   UNL     1     -44.103 -51.285  14.185  1.00  0.00     0.198 C 
HETATM   27  C   UNL     1     -42.751 -51.087  14.899  1.00  0.00     0.298 C 
ENDBRANCH  21  22
ENDBRANCH  15  21
ENDBRANCH   1  15
TORSDOF 6
ENDMDL
MODEL 6
REMARK VINA RESULT:      -5.8      1.873      2.601
REMARK  6 active torsions:
REMARK  status: ('A' for Active; 'I' for Inactive)
REMARK    1  A    between atoms: C_5  and  C_6 
REMARK    2  A    between atoms: C_6  and  C_7 
REMARK       I    between atoms: C_7  and  N_9 
REMARK    3  A    between atoms: N_9  and  C_10 
REMARK    4  A    between atoms: C_10  and  C_11 
REMARK    5  A    between atoms: C_11  and  C_12 
REMARK    6  A    between atoms: C_12  and  N_13 
ROOT
HETATM    1  C   UNL     1     -42.573 -52.332  12.198  1.00  0.00     0.133 C 
ENDROOT
BRANCH   1   2
HETATM    2  N   UNL     1     -43.907 -52.074  12.718  1.00  0.00    -0.360 N 
HETATM    3  C   UNL     1     -44.820 -53.121  12.716  1.00  0.00     0.221 C 
HETATM    4  O   UNL     1     -44.525 -54.268  12.399  1.00  0.00    -0.273 OA
HETATM    5  H   UNL     1     -44.278 -51.133  12.685  1.00  0.00     0.162 HD
BRANCH   3   6
HETATM    6  C   UNL     1     -46.234 -52.746  13.120  1.00  0.00     0.142 C 
BRANCH   6   7
HETATM    7  C   UNL     1     -46.429 -52.551  14.602  1.00  0.00    -0.034 A 
HETATM    8  C   UNL     1     -47.037 -51.386  15.079  1.00  0.00     0.011 A 
HETATM    9  C   UNL     1     -47.245 -51.218  16.447  1.00  0.00     0.025 A 
HETATM   10  C   UNL     1     -46.825 -52.218  17.315  1.00  0.00     0.005 A 
HETATM   11  C   UNL     1     -47.129 -52.141  18.781  1.00  0.00     0.068 C 
HETATM   12  N   UNL     1     -46.183 -53.328  16.885  1.00  0.00    -0.369 N 
HETATM   13  C   UNL     1     -45.981 -53.462  15.553  1.00  0.00     0.095 A 
ATOM     14  HN  UNL     1     -45.862 -54.040  17.541  1.00  0.00     0.165 HD
ENDBRANCH   6   7
ENDBRANCH   3   6
ENDBRANCH   1   2
BRANCH   1  15
HETATM   15  C   UNL     1     -41.338 -51.934  13.083  1.00  0.00     0.002 C 
HETATM   16  C   UNL     1     -40.304 -53.104  13.078  1.00  0.00     0.013 C 
HETATM   17  C   UNL     1     -40.556 -54.225  14.079  1.00  0.00     0.001 C 
HETATM   18  C   UNL     1     -40.813 -53.666  15.466  1.00  0.00     0.000 C 
HETATM   19  C   UNL     1     -42.072 -52.821  15.448  1.00  0.00     0.001 C 
HETATM   20  C   UNL     1     -41.965 -51.641  14.487  1.00  0.00     0.013 C 
BRANCH  15  21
HETATM   21  C   UNL     1     -40.658 -50.623  12.502  1.00  0.00     0.283 C 
BRANCH  21  22
HETATM   22  N   UNL     1     -41.312 -49.318  12.776  1.00  0.00     0.093 N 
HETATM   23  C   UNL     1     -42.290 -48.805  11.793  1.00  0.00     0.298 C 
HETATM   24  C   UNL     1     -41.675 -48.199  10.519  1.00  0.00     0.198 C 
HETATM   25  O   UNL     1     -40.772 -47.133  10.852  1.00  0.00    -0.388 OA
HETATM   26  C   UNL     1     -39.741 -47.613  11.723  1.00  0.00     0.198 C 
HETATM   27  C   UNL     1     -40.327 -48.231  13.007  1.00  0.00     0.298 C 
ENDBRANCH  21  22
ENDBRANCH  15  21
ENDBRANCH   1  15
TORSDOF 6
ENDMDL
MODEL 7
REMARK VINA RESULT:      -5.7      3.969      5.903
REMARK  6 active torsions:
REMARK  status: ('A' for Active; 'I' for Inactive)
REMARK    1  A    between atoms: C_5  and  C_6 
REMARK    2  A    between atoms: C_6  and  C_7 
REMARK       I    between atoms: C_7  and  N_9 
REMARK    3  A    between atoms: N_9  and  C_10 
REMARK    4  A    between atoms: C_10  and  C_11 
REMARK    5  A    between atoms: C_11  and  C_12 
REMARK    6  A    between atoms: C_12  and  N_13 
ROOT
HETATM    1  C   UNL     1     -40.707 -49.754  11.407  1.00  0.00     0.133 C 
ENDROOT
BRANCH   1   2
HETATM    2  N   UNL     1     -40.575 -51.201  11.383  1.00  0.00    -0.360 N 
HETATM    3  C   UNL     1     -41.430 -51.947  12.187  1.00  0.00     0.221 C 
HETATM    4  O   UNL     1     -42.351 -51.452  12.826  1.00  0.00    -0.273 OA
HETATM    5  H   UNL     1     -39.681 -51.614  11.148  1.00  0.00     0.162 HD
BRANCH   3   6
HETATM    6  C   UNL     1     -41.135 -53.435  12.237  1.00  0.00     0.142 C 
BRANCH   6   7
HETATM    7  C   UNL     1     -40.738 -53.948  13.598  1.00  0.00    -0.034 A 
HETATM    8  C   UNL     1     -39.391 -53.968  13.971  1.00  0.00     0.011 A 
HETATM    9  C   UNL     1     -39.026 -54.413  15.240  1.00  0.00     0.025 A 
HETATM   10  C   UNL     1     -40.019 -54.846  16.109  1.00  0.00     0.005 A 
HETATM   11  C   UNL     1     -39.694 -55.224  17.522  1.00  0.00     0.068 C 
HETATM   12  N   UNL     1     -41.324 -54.891  15.752  1.00  0.00    -0.369 N 
HETATM   13  C   UNL     1     -41.651 -54.465  14.510  1.00  0.00     0.095 A 
ATOM     14  HN  UNL     1     -42.036 -55.234  16.397  1.00  0.00     0.165 HD
ENDBRANCH   6   7
ENDBRANCH   3   6
ENDBRANCH   1   2
BRANCH   1  15
HETATM   15  C   UNL     1     -39.533 -48.908  12.019  1.00  0.00     0.002 C 
HETATM   16  C   UNL     1     -38.170 -49.550  11.612  1.00  0.00     0.013 C 
HETATM   17  C   UNL     1     -37.685 -50.701  12.486  1.00  0.00     0.001 C 
HETATM   18  C   UNL     1     -37.752 -50.333  13.956  1.00  0.00     0.000 C 
HETATM   19  C   UNL     1     -39.194 -50.077  14.351  1.00  0.00     0.001 C 
HETATM   20  C   UNL     1     -39.819 -48.933  13.558  1.00  0.00     0.013 C 
BRANCH  15  21
HETATM   21  C   UNL     1     -39.601 -47.418  11.474  1.00  0.00     0.283 C 
BRANCH  21  22
HETATM   22  N   UNL     1     -40.445 -46.443  12.211  1.00  0.00     0.093 N 
HETATM   23  C   UNL     1     -41.857 -46.289  11.801  1.00  0.00     0.298 C 
HETATM   24  C   UNL     1     -42.075 -45.466  10.518  1.00  0.00     0.198 C 
HETATM   25  O   UNL     1     -41.500 -44.157  10.654  1.00  0.00    -0.388 OA
HETATM   26  C   UNL     1     -40.103 -44.259  10.949  1.00  0.00     0.198 C 
HETATM   27  C   UNL     1     -39.852 -45.083  12.227  1.00  0.00     0.298 C 
ENDBRANCH  21  22
ENDBRANCH  15  21
ENDBRANCH   1  15
TORSDOF 6
ENDMDL
MODEL 8
REMARK VINA RESULT:      -5.6      2.049      3.145
REMARK  6 active torsions:
REMARK  status: ('A' for Active; 'I' for Inactive)
REMARK    1  A    between atoms: C_5  and  C_6 
REMARK    2  A    between atoms: C_6  and  C_7 
REMARK       I    between atoms: C_7  and  N_9 
REMARK    3  A    between atoms: N_9  and  C_10 
REMARK    4  A    between atoms: C_10  and  C_11 
REMARK    5  A    between atoms: C_11  and  C_12 
REMARK    6  A    between atoms: C_12  and  N_13 
ROOT
HETATM    1  C   UNL     1     -43.816 -53.547  15.016  1.00  0.00     0.133 C 
ENDROOT
BRANCH   1   2
HETATM    2  N   UNL     1     -44.213 -53.330  16.398  1.00  0.00    -0.360 N 
HETATM    3  C   UNL     1     -45.419 -53.874  16.823  1.00  0.00     0.221 C 
HETATM    4  O   UNL     1     -46.105 -54.612  16.124  1.00  0.00    -0.273 OA
HETATM    5  H   UNL     1     -43.875 -52.511  16.889  1.00  0.00     0.162 HD
BRANCH   3   6
HETATM    6  C   UNL     1     -45.850 -53.477  18.223  1.00  0.00     0.142 C 
BRANCH   6   7
HETATM    7  C   UNL     1     -46.428 -52.089  18.329  1.00  0.00    -0.034 A 
HETATM    8  C   UNL     1     -47.547 -51.738  17.568  1.00  0.00     0.011 A 
HETATM    9  C   UNL     1     -48.100 -50.465  17.689  1.00  0.00     0.025 A 
HETATM   10  C   UNL     1     -47.511 -49.559  18.561  1.00  0.00     0.005 A 
HETATM   11  C   UNL     1     -48.133 -48.219  18.815  1.00  0.00     0.068 C 
HETATM   12  N   UNL     1     -46.394 -49.854  19.265  1.00  0.00    -0.369 N 
HETATM   13  C   UNL     1     -45.869 -51.093  19.121  1.00  0.00     0.095 A 
ATOM     14  HN  UNL     1     -45.963 -49.167  19.883  1.00  0.00     0.165 HD
ENDBRANCH   6   7
ENDBRANCH   3   6
ENDBRANCH   1   2
BRANCH   1  15
HETATM   15  C   UNL     1     -43.781 -52.312  14.047  1.00  0.00     0.002 C 
HETATM   16  C   UNL     1     -44.690 -51.181  14.622  1.00  0.00     0.013 C 
HETATM   17  C   UNL     1     -46.176 -51.287  14.298  1.00  0.00     0.001 C 
HETATM   18  C   UNL     1     -46.393 -51.528  12.816  1.00  0.00     0.000 C 
HETATM   19  C   UNL     1     -45.776 -52.856  12.421  1.00  0.00     0.001 C 
HETATM   20  C   UNL     1     -44.273 -52.896  12.681  1.00  0.00     0.013 C 
BRANCH  15  21
HETATM   21  C   UNL     1     -42.293 -51.776  13.910  1.00  0.00     0.283 C 
BRANCH  21  22
HETATM   22  N   UNL     1     -41.423 -52.391  12.874  1.00  0.00     0.093 N 
HETATM   23  C   UNL     1     -40.586 -53.547  13.259  1.00  0.00     0.298 C 
HETATM   24  C   UNL     1     -39.325 -53.195  14.069  1.00  0.00     0.198 C 
HETATM   25  O   UNL     1     -38.503 -52.266  13.347  1.00  0.00    -0.388 OA
HETATM   26  C   UNL     1     -39.247 -51.080  13.044  1.00  0.00     0.198 C 
HETATM   27  C   UNL     1     -40.519 -51.401  12.236  1.00  0.00     0.298 C 
ENDBRANCH  21  22
ENDBRANCH  15  21
ENDBRANCH   1  15
TORSDOF 6
ENDMDL
MODEL 9
REMARK VINA RESULT:      -5.6      3.475      6.790
REMARK  6 active torsions:
REMARK  status: ('A' for Active; 'I' for Inactive)
REMARK    1  A    between atoms: C_5  and  C_6 
REMARK    2  A    between atoms: C_6  and  C_7 
REMARK       I    between atoms: C_7  and  N_9 
REMARK    3  A    between atoms: N_9  and  C_10 
REMARK    4  A    between atoms: C_10  and  C_11 
REMARK    5  A    between atoms: C_11  and  C_12 
REMARK    6  A    between atoms: C_12  and  N_13 
ROOT
HETATM    1  C   UNL     1     -43.535 -49.965  13.764  1.00  0.00     0.133 C 
ENDROOT
BRANCH   1   2
HETATM    2  N   UNL     1     -43.351 -49.399  12.437  1.00  0.00    -0.360 N 
HETATM    3  C   UNL     1     -42.064 -49.040  12.055  1.00  0.00     0.221 C 
HETATM    4  O   UNL     1     -41.072 -49.275  12.735  1.00  0.00    -0.273 OA
HETATM    5  H   UNL     1     -44.120 -48.912  11.995  1.00  0.00     0.162 HD
BRANCH   3   6
HETATM    6  C   UNL     1     -41.964 -48.312  10.727  1.00  0.00     0.142 C 
BRANCH   6   7
HETATM    7  C   UNL     1     -41.622 -46.849  10.841  1.00  0.00    -0.034 A 
HETATM    8  C   UNL     1     -42.642 -45.894  10.872  1.00  0.00     0.011 A 
HETATM    9  C   UNL     1     -42.328 -44.543  11.009  1.00  0.00     0.025 A 
HETATM   10  C   UNL     1     -40.992 -44.171  11.095  1.00  0.00     0.005 A 
HETATM   11  C   UNL     1     -40.605 -42.748  11.359  1.00  0.00     0.068 C 
HETATM   12  N   UNL     1     -39.985 -45.070  11.009  1.00  0.00    -0.369 N 
HETATM   13  C   UNL     1     -40.315 -46.375  10.864  1.00  0.00     0.095 A 
ATOM     14  HN  UNL     1     -39.009 -44.775  11.051  1.00  0.00     0.165 HD
ENDBRANCH   6   7
ENDBRANCH   3   6
ENDBRANCH   1   2
BRANCH   1  15
HETATM   15  C   UNL     1     -43.971 -51.469  13.880  1.00  0.00     0.002 C 
HETATM   16  C   UNL     1     -45.160 -51.737  12.905  1.00  0.00     0.013 C 
HETATM   17  C   UNL     1     -46.547 -51.381  13.426  1.00  0.00     0.001 C 
HETATM   18  C   UNL     1     -46.773 -51.960  14.809  1.00  0.00     0.000 C 
HETATM   19  C   UNL     1     -45.783 -51.351  15.783  1.00  0.00     0.001 C 
HETATM   20  C   UNL     1     -44.336 -51.635  15.394  1.00  0.00     0.013 C 
BRANCH  15  21
HETATM   21  C   UNL     1     -42.753 -52.414  13.503  1.00  0.00     0.283 C 
BRANCH  21  22
HETATM   22  N   UNL     1     -41.823 -52.820  14.588  1.00  0.00     0.093 N 
HETATM   23  C   UNL     1     -40.626 -51.988  14.831  1.00  0.00     0.298 C 
HETATM   24  C   UNL     1     -39.483 -52.180  13.817  1.00  0.00     0.198 C 
HETATM   25  O   UNL     1     -39.073 -53.556  13.774  1.00  0.00    -0.388 OA
HETATM   26  C   UNL     1     -40.186 -54.392  13.436  1.00  0.00     0.198 C 
HETATM   27  C   UNL     1     -41.348 -54.217  14.432  1.00  0.00     0.298 C 
ENDBRANCH  21  22
ENDBRANCH  15  21
ENDBRANCH   1  15
TORSDOF 6
ENDMDL
