MODEL 1
REMARK VINA RESULT:      -6.5      0.000      0.000
REMARK  5 active torsions:
REMARK  status: ('A' for Active; 'I' for Inactive)
REMARK    1  A    between atoms: C_5  and  C_6 
REMARK    2  A    between atoms: C_6  and  C_7 
REMARK    3  A    between atoms: C_12  and  N_13 
REMARK       I    between atoms: N_13  and  C_14 
REMARK       I    between atoms: C_14  and  N_16 
REMARK    4  A    between atoms: N_16  and  C_17 
REMARK    5  A    between atoms: C_17  and  C_18 
ROOT
HETATM    1  C   UNL     1     -38.488 -50.540  13.199  1.00  0.00     0.179 C 
HETATM    2  N   UNL     1     -39.567 -51.420  12.817  1.00  0.00    -0.281 N 
HETATM    3  N   UNL     1     -39.793 -52.526  13.553  1.00  0.00    -0.301 N 
ATOM      4  HN  UNL     1     -39.252 -52.872  14.346  1.00  0.00     0.187 HD
HETATM    5  C   UNL     1     -40.887 -53.066  13.007  1.00  0.00     0.030 A 
HETATM    6  C   UNL     1     -41.321 -52.326  11.889  1.00  0.00     0.076 A 
HETATM    7  C   UNL     1     -40.488 -51.233  11.813  1.00  0.00     0.127 A 
ENDROOT
BRANCH   7   8
HETATM    8  N   UNL     1     -40.568 -50.173  10.907  1.00  0.00    -0.293 N 
HETATM    9  C   UNL     1     -41.450 -49.079  11.117  1.00  0.00     0.321 C 
HETATM   10  O   UNL     1     -42.124 -48.960  12.127  1.00  0.00    -0.247 OA
HETATM   11  N   UNL     1     -41.422 -48.198  10.082  1.00  0.00    -0.340 N 
HETATM   12  H   UNL     1     -40.920 -48.371   9.224  1.00  0.00     0.164 HD
HETATM   13  H   UNL     1     -39.940 -50.156  10.119  1.00  0.00     0.172 HD
BRANCH  11  14
HETATM   14  C   UNL     1     -42.274 -47.016  10.116  1.00  0.00     0.156 C 
BRANCH  14  15
HETATM   15  C   UNL     1     -43.570 -47.183   9.326  1.00  0.00     0.139 C 
HETATM   16  C   UNL     1     -44.236 -45.901   8.848  1.00  0.00     0.035 C 
HETATM   17  C   UNL     1     -45.716 -46.244   8.831  1.00  0.00     0.029 C 
HETATM   18  C   UNL     1     -45.800 -47.636   9.427  1.00  0.00     0.168 C 
HETATM   19  O   UNL     1     -44.569 -47.825  10.137  1.00  0.00    -0.384 OA
ENDBRANCH  14  15
ENDBRANCH  11  14
ENDBRANCH   7   8
BRANCH   5  20
HETATM   20  C   UNL     1     -41.511 -54.312  13.553  1.00  0.00     0.067 C 
BRANCH  20  21
HETATM   21  C   UNL     1     -42.880 -54.115  14.260  1.00  0.00    -0.046 C 
HETATM   22  C   UNL     1     -44.051 -54.145  13.259  1.00  0.00     0.015 C 
HETATM   23  C   UNL     1     -43.071 -55.271  15.262  1.00  0.00     0.015 C 
HETATM   24  C   UNL     1     -42.923 -52.789  15.040  1.00  0.00     0.015 C 
ENDBRANCH  20  21
ENDBRANCH   5  20
TORSDOF 5
ENDMDL
MODEL 2
REMARK VINA RESULT:      -6.0      1.488      2.415
REMARK  5 active torsions:
REMARK  status: ('A' for Active; 'I' for Inactive)
REMARK    1  A    between atoms: C_5  and  C_6 
REMARK    2  A    between atoms: C_6  and  C_7 
REMARK    3  A    between atoms: C_12  and  N_13 
REMARK       I    between atoms: N_13  and  C_14 
REMARK       I    between atoms: C_14  and  N_16 
REMARK    4  A    between atoms: N_16  and  C_17 
REMARK    5  A    between atoms: C_17  and  C_18 
ROOT
HETATM    1  C   UNL     1     -38.759 -50.183  13.319  1.00  0.00     0.179 C 
HETATM    2  N   UNL     1     -39.722 -51.157  12.862  1.00  0.00    -0.281 N 
HETATM    3  N   UNL     1     -39.921 -52.267  13.598  1.00  0.00    -0.301 N 
ATOM      4  HN  UNL     1     -39.427 -52.555  14.444  1.00  0.00     0.187 HD
HETATM    5  C   UNL     1     -40.912 -52.906  12.969  1.00  0.00     0.030 A 
HETATM    6  C   UNL     1     -41.303 -52.221  11.801  1.00  0.00     0.076 A 
HETATM    7  C   UNL     1     -40.560 -51.063  11.776  1.00  0.00     0.127 A 
ENDROOT
BRANCH   7   8
HETATM    8  N   UNL     1     -40.645 -50.026  10.843  1.00  0.00    -0.293 N 
HETATM    9  C   UNL     1     -41.573 -48.961  10.998  1.00  0.00     0.321 C 
HETATM   10  O   UNL     1     -42.287 -48.846  11.980  1.00  0.00    -0.247 OA
HETATM   11  N   UNL     1     -41.540 -48.103   9.944  1.00  0.00    -0.340 N 
HETATM   12  H   UNL     1     -41.001 -48.276   9.108  1.00  0.00     0.164 HD
HETATM   13  H   UNL     1     -39.991 -50.003  10.078  1.00  0.00     0.172 HD
BRANCH  11  14
HETATM   14  C   UNL     1     -42.435 -46.952   9.921  1.00  0.00     0.156 C 
BRANCH  14  15
HETATM   15  C   UNL     1     -41.797 -45.681  10.476  1.00  0.00     0.139 C 
HETATM   16  C   UNL     1     -40.276 -45.652  10.513  1.00  0.00     0.035 C 
HETATM   17  C   UNL     1     -39.958 -44.770  11.708  1.00  0.00     0.029 C 
HETATM   18  C   UNL     1     -41.302 -44.475  12.344  1.00  0.00     0.168 C 
HETATM   19  O   UNL     1     -42.193 -45.481  11.844  1.00  0.00    -0.384 OA
ENDBRANCH  14  15
ENDBRANCH  11  14
ENDBRANCH   7   8
BRANCH   5  20
HETATM   20  C   UNL     1     -41.477 -54.193  13.484  1.00  0.00     0.067 C 
BRANCH  20  21
HETATM   21  C   UNL     1     -42.885 -54.088  14.134  1.00  0.00    -0.046 C 
HETATM   22  C   UNL     1     -44.009 -54.192  13.086  1.00  0.00     0.015 C 
HETATM   23  C   UNL     1     -43.040 -55.256  15.128  1.00  0.00     0.015 C 
HETATM   24  C   UNL     1     -43.046 -52.770  14.911  1.00  0.00     0.015 C 
ENDBRANCH  20  21
ENDBRANCH   5  20
TORSDOF 5
ENDMDL
MODEL 3
REMARK VINA RESULT:      -5.9      2.920      7.233
REMARK  5 active torsions:
REMARK  status: ('A' for Active; 'I' for Inactive)
REMARK    1  A    between atoms: C_5  and  C_6 
REMARK    2  A    between atoms: C_6  and  C_7 
REMARK    3  A    between atoms: C_12  and  N_13 
REMARK       I    between atoms: N_13  and  C_14 
REMARK       I    between atoms: C_14  and  N_16 
REMARK    4  A    between atoms: N_16  and  C_17 
REMARK    5  A    between atoms: C_17  and  C_18 
ROOT
HETATM    1  C   UNL     1     -43.774 -47.503   9.333  1.00  0.00     0.179 C 
HETATM    2  N   UNL     1     -42.496 -47.223   9.945  1.00  0.00    -0.281 N 
HETATM    3  N   UNL     1     -41.982 -45.983   9.834  1.00  0.00    -0.301 N 
ATOM      4  HN  UNL     1     -42.361 -45.192   9.312  1.00  0.00     0.187 HD
HETATM    5  C   UNL     1     -40.864 -46.024  10.565  1.00  0.00     0.030 A 
HETATM    6  C   UNL     1     -40.645 -47.311  11.095  1.00  0.00     0.076 A 
HETATM    7  C   UNL     1     -41.739 -48.062  10.729  1.00  0.00     0.127 A 
ENDROOT
BRANCH   7   8
HETATM    8  N   UNL     1     -42.009 -49.386  11.080  1.00  0.00    -0.293 N 
HETATM    9  C   UNL     1     -42.405 -49.741  12.399  1.00  0.00     0.321 C 
HETATM   10  O   UNL     1     -42.606 -48.913  13.271  1.00  0.00    -0.247 OA
HETATM   11  N   UNL     1     -42.545 -51.085  12.542  1.00  0.00    -0.340 N 
HETATM   12  H   UNL     1     -42.285 -51.746  11.825  1.00  0.00     0.164 HD
HETATM   13  H   UNL     1     -41.983 -50.096  10.366  1.00  0.00     0.172 HD
BRANCH  11  14
HETATM   14  C   UNL     1     -42.935 -51.637  13.834  1.00  0.00     0.156 C 
BRANCH  14  15
HETATM   15  C   UNL     1     -44.396 -52.077  13.886  1.00  0.00     0.139 C 
HETATM   16  C   UNL     1     -45.006 -52.543  12.573  1.00  0.00     0.035 C 
HETATM   17  C   UNL     1     -46.473 -52.172  12.700  1.00  0.00     0.029 C 
HETATM   18  C   UNL     1     -46.569 -51.404  14.004  1.00  0.00     0.168 C 
HETATM   19  O   UNL     1     -45.231 -50.982  14.301  1.00  0.00    -0.384 OA
ENDBRANCH  14  15
ENDBRANCH  11  14
ENDBRANCH   7   8
BRANCH   5  20
HETATM   20  C   UNL     1     -39.990 -44.822  10.744  1.00  0.00     0.067 C 
BRANCH  20  21
HETATM   21  C   UNL     1     -40.204 -44.035  12.066  1.00  0.00    -0.046 C 
HETATM   22  C   UNL     1     -41.423 -44.555  12.851  1.00  0.00     0.015 C 
HETATM   23  C   UNL     1     -38.949 -44.224  12.942  1.00  0.00     0.015 C 
HETATM   24  C   UNL     1     -40.384 -42.531  11.801  1.00  0.00     0.015 C 
ENDBRANCH  20  21
ENDBRANCH   5  20
TORSDOF 5
ENDMDL
MODEL 4
REMARK VINA RESULT:      -5.8      2.869      7.757
REMARK  5 active torsions:
REMARK  status: ('A' for Active; 'I' for Inactive)
REMARK    1  A    between atoms: C_5  and  C_6 
REMARK    2  A    between atoms: C_6  and  C_7 
REMARK    3  A    between atoms: C_12  and  N_13 
REMARK       I    between atoms: N_13  and  C_14 
REMARK       I    between atoms: C_14  and  N_16 
REMARK    4  A    between atoms: N_16  and  C_17 
REMARK    5  A    between atoms: C_17  and  C_18 
ROOT
HETATM    1  C   UNL     1     -43.945 -47.376  10.201  1.00  0.00     0.179 C 
HETATM    2  N   UNL     1     -42.627 -46.822  10.397  1.00  0.00    -0.281 N 
HETATM    3  N   UNL     1     -42.500 -45.489  10.551  1.00  0.00    -0.301 N 
ATOM      4  HN  UNL     1     -43.230 -44.780  10.494  1.00  0.00     0.187 HD
HETATM    5  C   UNL     1     -41.198 -45.310  10.796  1.00  0.00     0.030 A 
HETATM    6  C   UNL     1     -40.493 -46.529  10.743  1.00  0.00     0.076 A 
HETATM    7  C   UNL     1     -41.441 -47.505  10.538  1.00  0.00     0.127 A 
ENDROOT
BRANCH   7   8
HETATM    8  N   UNL     1     -41.233 -48.885  10.483  1.00  0.00    -0.293 N 
HETATM    9  C   UNL     1     -40.929 -49.639  11.649  1.00  0.00     0.321 C 
HETATM   10  O   UNL     1     -40.909 -49.147  12.765  1.00  0.00    -0.247 OA
HETATM   11  N   UNL     1     -40.693 -50.946  11.361  1.00  0.00    -0.340 N 
HETATM   12  H   UNL     1     -40.632 -51.301  10.417  1.00  0.00     0.164 HD
HETATM   13  H   UNL     1     -41.363 -49.364   9.606  1.00  0.00     0.172 HD
BRANCH  11  14
HETATM   14  C   UNL     1     -40.352 -51.872  12.433  1.00  0.00     0.156 C 
BRANCH  14  15
HETATM   15  C   UNL     1     -41.338 -53.031  12.567  1.00  0.00     0.139 C 
HETATM   16  C   UNL     1     -42.805 -52.693  12.350  1.00  0.00     0.035 C 
HETATM   17  C   UNL     1     -43.541 -53.680  13.240  1.00  0.00     0.029 C 
HETATM   18  C   UNL     1     -42.450 -54.409  13.998  1.00  0.00     0.168 C 
HETATM   19  O   UNL     1     -41.288 -53.576  13.896  1.00  0.00    -0.384 OA
ENDBRANCH  14  15
ENDBRANCH  11  14
ENDBRANCH   7   8
BRANCH   5  20
HETATM   20  C   UNL     1     -40.623 -43.954  11.067  1.00  0.00     0.067 C 
BRANCH  20  21
HETATM   21  C   UNL     1     -40.239 -43.679  12.548  1.00  0.00    -0.046 C 
HETATM   22  C   UNL     1     -38.866 -44.281  12.904  1.00  0.00     0.015 C 
HETATM   23  C   UNL     1     -40.163 -42.152  12.745  1.00  0.00     0.015 C 
HETATM   24  C   UNL     1     -41.297 -44.238  13.514  1.00  0.00     0.015 C 
ENDBRANCH  20  21
ENDBRANCH   5  20
TORSDOF 5
ENDMDL
MODEL 5
REMARK VINA RESULT:      -5.5      2.054      2.793
REMARK  5 active torsions:
REMARK  status: ('A' for Active; 'I' for Inactive)
REMARK    1  A    between atoms: C_5  and  C_6 
REMARK    2  A    between atoms: C_6  and  C_7 
REMARK    3  A    between atoms: C_12  and  N_13 
REMARK       I    between atoms: N_13  and  C_14 
REMARK       I    between atoms: C_14  and  N_16 
REMARK    4  A    between atoms: N_16  and  C_17 
REMARK    5  A    between atoms: C_17  and  C_18 
ROOT
HETATM    1  C   UNL     1     -43.563 -52.986  12.468  1.00  0.00     0.179 C 
HETATM    2  N   UNL     1     -42.144 -53.010  12.737  1.00  0.00    -0.281 N 
HETATM    3  N   UNL     1     -41.651 -53.981  13.529  1.00  0.00    -0.301 N 
ATOM      4  HN  UNL     1     -42.168 -54.703  14.031  1.00  0.00     0.187 HD
HETATM    5  C   UNL     1     -40.329 -53.782  13.508  1.00  0.00     0.030 A 
HETATM    6  C   UNL     1     -39.993 -52.649  12.742  1.00  0.00     0.076 A 
HETATM    7  C   UNL     1     -41.176 -52.192  12.205  1.00  0.00     0.127 A 
ENDROOT
BRANCH   7   8
HETATM    8  N   UNL     1     -41.343 -51.127  11.317  1.00  0.00    -0.293 N 
HETATM    9  C   UNL     1     -41.274 -49.776  11.754  1.00  0.00     0.321 C 
HETATM   10  O   UNL     1     -40.990 -49.467  12.899  1.00  0.00    -0.247 OA
HETATM   11  N   UNL     1     -41.537 -48.903  10.745  1.00  0.00    -0.340 N 
HETATM   12  H   UNL     1     -41.854 -49.194   9.832  1.00  0.00     0.164 HD
HETATM   13  H   UNL     1     -41.453 -51.323  10.334  1.00  0.00     0.172 HD
BRANCH  11  14
HETATM   14  C   UNL     1     -41.524 -47.470  11.010  1.00  0.00     0.156 C 
BRANCH  14  15
HETATM   15  C   UNL     1     -42.814 -46.767  10.592  1.00  0.00     0.139 C 
HETATM   16  C   UNL     1     -43.981 -47.670  10.220  1.00  0.00     0.035 C 
HETATM   17  C   UNL     1     -44.749 -46.865   9.186  1.00  0.00     0.029 C 
HETATM   18  C   UNL     1     -43.899 -45.633   8.942  1.00  0.00     0.168 C 
HETATM   19  O   UNL     1     -42.589 -45.970   9.417  1.00  0.00    -0.384 OA
ENDBRANCH  14  15
ENDBRANCH  11  14
ENDBRANCH   7   8
BRANCH   5  20
HETATM   20  C   UNL     1     -39.382 -54.679  14.243  1.00  0.00     0.067 C 
BRANCH  20  21
HETATM   21  C   UNL     1     -39.464 -54.605  15.793  1.00  0.00    -0.046 C 
HETATM   22  C   UNL     1     -40.713 -55.325  16.336  1.00  0.00     0.015 C 
HETATM   23  C   UNL     1     -38.216 -55.301  16.371  1.00  0.00     0.015 C 
HETATM   24  C   UNL     1     -39.474 -53.147  16.285  1.00  0.00     0.015 C 
ENDBRANCH  20  21
ENDBRANCH   5  20
TORSDOF 5
ENDMDL
MODEL 6
REMARK VINA RESULT:      -5.3      2.751      7.444
REMARK  5 active torsions:
REMARK  status: ('A' for Active; 'I' for Inactive)
REMARK    1  A    between atoms: C_5  and  C_6 
REMARK    2  A    between atoms: C_6  and  C_7 
REMARK    3  A    between atoms: C_12  and  N_13 
REMARK       I    between atoms: N_13  and  C_14 
REMARK       I    between atoms: C_14  and  N_16 
REMARK    4  A    between atoms: N_16  and  C_17 
REMARK    5  A    between atoms: C_17  and  C_18 
ROOT
HETATM    1  C   UNL     1     -38.721 -49.854  13.185  1.00  0.00     0.179 C 
HETATM    2  N   UNL     1     -39.494 -48.999  12.315  1.00  0.00    -0.281 N 
HETATM    3  N   UNL     1     -39.161 -47.697  12.223  1.00  0.00    -0.301 N 
ATOM      4  HN  UNL     1     -38.441 -47.196  12.744  1.00  0.00     0.187 HD
HETATM    5  C   UNL     1     -39.990 -47.210  11.294  1.00  0.00     0.030 A 
HETATM    6  C   UNL     1     -40.884 -48.199  10.837  1.00  0.00     0.076 A 
HETATM    7  C   UNL     1     -40.514 -49.364  11.468  1.00  0.00     0.127 A 
ENDROOT
BRANCH   7   8
HETATM    8  N   UNL     1     -41.064 -50.635  11.284  1.00  0.00    -0.293 N 
HETATM    9  C   UNL     1     -42.039 -51.160  12.176  1.00  0.00     0.321 C 
HETATM   10  O   UNL     1     -42.506 -50.513  13.097  1.00  0.00    -0.247 OA
HETATM   11  N   UNL     1     -42.384 -52.435  11.855  1.00  0.00    -0.340 N 
HETATM   12  H   UNL     1     -41.915 -52.971  11.140  1.00  0.00     0.164 HD
HETATM   13  H   UNL     1     -40.809 -51.163  10.465  1.00  0.00     0.172 HD
BRANCH  11  14
HETATM   14  C   UNL     1     -43.365 -53.144  12.668  1.00  0.00     0.156 C 
BRANCH  14  15
HETATM   15  C   UNL     1     -42.750 -54.238  13.538  1.00  0.00     0.139 C 
HETATM   16  C   UNL     1     -43.693 -54.937  14.505  1.00  0.00     0.035 C 
HETATM   17  C   UNL     1     -42.799 -55.326  15.670  1.00  0.00     0.029 C 
HETATM   18  C   UNL     1     -41.452 -54.704  15.351  1.00  0.00     0.168 C 
HETATM   19  O   UNL     1     -41.720 -53.687  14.376  1.00  0.00    -0.384 OA
ENDBRANCH  14  15
ENDBRANCH  11  14
ENDBRANCH   7   8
BRANCH   5  20
HETATM   20  C   UNL     1     -39.933 -45.781  10.853  1.00  0.00     0.067 C 
BRANCH  20  21
HETATM   21  C   UNL     1     -40.428 -44.743  11.898  1.00  0.00    -0.046 C 
HETATM   22  C   UNL     1     -41.675 -45.242  12.653  1.00  0.00     0.015 C 
HETATM   23  C   UNL     1     -39.299 -44.521  12.923  1.00  0.00     0.015 C 
HETATM   24  C   UNL     1     -40.751 -43.392  11.237  1.00  0.00     0.015 C 
ENDBRANCH  20  21
ENDBRANCH   5  20
TORSDOF 5
ENDMDL
MODEL 7
REMARK VINA RESULT:      -5.1      2.227      3.712
REMARK  5 active torsions:
REMARK  status: ('A' for Active; 'I' for Inactive)
REMARK    1  A    between atoms: C_5  and  C_6 
REMARK    2  A    between atoms: C_6  and  C_7 
REMARK    3  A    between atoms: C_12  and  N_13 
REMARK       I    between atoms: N_13  and  C_14 
REMARK       I    between atoms: C_14  and  N_16 
REMARK    4  A    between atoms: N_16  and  C_17 
REMARK    5  A    between atoms: C_17  and  C_18 
ROOT
HETATM    1  C   UNL     1     -44.956 -52.101  13.008  1.00  0.00     0.179 C 
HETATM    2  N   UNL     1     -43.869 -52.952  13.433  1.00  0.00    -0.281 N 
HETATM    3  N   UNL     1     -44.098 -53.862  14.400  1.00  0.00    -0.301 N 
ATOM      4  HN  UNL     1     -44.955 -54.006  14.934  1.00  0.00     0.187 HD
HETATM    5  C   UNL     1     -42.947 -54.533  14.498  1.00  0.00     0.030 A 
HETATM    6  C   UNL     1     -41.971 -54.009  13.627  1.00  0.00     0.076 A 
HETATM    7  C   UNL     1     -42.601 -53.020  12.905  1.00  0.00     0.127 A 
ENDROOT
BRANCH   7   8
HETATM    8  N   UNL     1     -42.060 -52.258  11.868  1.00  0.00    -0.293 N 
HETATM    9  C   UNL     1     -41.316 -51.074  12.125  1.00  0.00     0.321 C 
HETATM   10  O   UNL     1     -41.042 -50.700  13.253  1.00  0.00    -0.247 OA
HETATM   11  N   UNL     1     -40.945 -50.449  10.976  1.00  0.00    -0.340 N 
HETATM   12  H   UNL     1     -41.264 -50.738  10.063  1.00  0.00     0.164 HD
HETATM   13  H   UNL     1     -42.147 -52.590  10.921  1.00  0.00     0.172 HD
BRANCH  11  14
HETATM   14  C   UNL     1     -40.184 -49.208  11.043  1.00  0.00     0.156 C 
BRANCH  14  15
HETATM   15  C   UNL     1     -41.064 -47.963  11.129  1.00  0.00     0.139 C 
HETATM   16  C   UNL     1     -42.235 -47.900  10.160  1.00  0.00     0.035 C 
HETATM   17  C   UNL     1     -42.417 -46.413   9.906  1.00  0.00     0.029 C 
HETATM   18  C   UNL     1     -41.262 -45.750  10.630  1.00  0.00     0.168 C 
HETATM   19  O   UNL     1     -40.292 -46.786  10.837  1.00  0.00    -0.384 OA
ENDBRANCH  14  15
ENDBRANCH  11  14
ENDBRANCH   7   8
BRANCH   5  20
HETATM   20  C   UNL     1     -42.777 -55.678  15.448  1.00  0.00     0.067 C 
BRANCH  20  21
HETATM   21  C   UNL     1     -41.900 -55.380  16.697  1.00  0.00    -0.046 C 
HETATM   22  C   UNL     1     -40.401 -55.582  16.405  1.00  0.00     0.015 C 
HETATM   23  C   UNL     1     -42.121 -53.907  17.095  1.00  0.00     0.015 C 
HETATM   24  C   UNL     1     -42.302 -56.267  17.888  1.00  0.00     0.015 C 
ENDBRANCH  20  21
ENDBRANCH   5  20
TORSDOF 5
ENDMDL
MODEL 8
REMARK VINA RESULT:      -5.1      2.374      2.908
REMARK  5 active torsions:
REMARK  status: ('A' for Active; 'I' for Inactive)
REMARK    1  A    between atoms: C_5  and  C_6 
REMARK    2  A    between atoms: C_6  and  C_7 
REMARK    3  A    between atoms: C_12  and  N_13 
REMARK       I    between atoms: N_13  and  C_14 
REMARK       I    between atoms: C_14  and  N_16 
REMARK    4  A    between atoms: N_16  and  C_17 
REMARK    5  A    between atoms: C_17  and  C_18 
ROOT
HETATM    1  C   UNL     1     -38.273 -48.901  13.395  1.00  0.00     0.179 C 
HETATM    2  N   UNL     1     -39.143 -49.902  12.823  1.00  0.00    -0.281 N 
HETATM    3  N   UNL     1     -39.236 -51.102  13.428  1.00  0.00    -0.301 N 
ATOM      4  HN  UNL     1     -38.716 -51.436  14.239  1.00  0.00     0.187 HD
HETATM    5  C   UNL     1     -40.166 -51.754  12.722  1.00  0.00     0.030 A 
HETATM    6  C   UNL     1     -40.621 -50.980  11.636  1.00  0.00     0.076 A 
HETATM    7  C   UNL     1     -39.989 -49.762  11.748  1.00  0.00     0.127 A 
ENDROOT
BRANCH   7   8
HETATM    8  N   UNL     1     -40.172 -48.640  10.938  1.00  0.00    -0.293 N 
HETATM    9  C   UNL     1     -41.266 -47.753  11.131  1.00  0.00     0.321 C 
HETATM   10  O   UNL     1     -42.056 -47.872  12.052  1.00  0.00    -0.247 OA
HETATM   11  N   UNL     1     -41.295 -46.771  10.191  1.00  0.00    -0.340 N 
HETATM   12  H   UNL     1     -40.678 -46.754   9.392  1.00  0.00     0.164 HD
HETATM   13  H   UNL     1     -39.477 -48.421  10.241  1.00  0.00     0.172 HD
BRANCH  11  14
HETATM   14  C   UNL     1     -42.357 -45.774  10.221  1.00  0.00     0.156 C 
BRANCH  14  15
HETATM   15  C   UNL     1     -42.006 -44.544  11.055  1.00  0.00     0.139 C 
HETATM   16  C   UNL     1     -42.906 -43.331  10.876  1.00  0.00     0.035 C 
HETATM   17  C   UNL     1     -41.984 -42.151  11.132  1.00  0.00     0.029 C 
HETATM   18  C   UNL     1     -40.607 -42.764  11.301  1.00  0.00     0.168 C 
HETATM   19  O   UNL     1     -40.693 -44.070  10.714  1.00  0.00    -0.384 OA
ENDBRANCH  14  15
ENDBRANCH  11  14
ENDBRANCH   7   8
BRANCH   5  20
HETATM   20  C   UNL     1     -40.608 -53.137  13.084  1.00  0.00     0.067 C 
BRANCH  20  21
HETATM   21  C   UNL     1     -41.995 -53.231  13.779  1.00  0.00    -0.046 C 
HETATM   22  C   UNL     1     -43.138 -53.388  12.758  1.00  0.00     0.015 C 
HETATM   23  C   UNL     1     -41.988 -54.474  14.692  1.00  0.00     0.015 C 
HETATM   24  C   UNL     1     -42.269 -51.994  14.652  1.00  0.00     0.015 C 
ENDBRANCH  20  21
ENDBRANCH   5  20
TORSDOF 5
ENDMDL
MODEL 9
REMARK VINA RESULT:      -4.8      4.717      9.041
REMARK  5 active torsions:
REMARK  status: ('A' for Active; 'I' for Inactive)
REMARK    1  A    between atoms: C_5  and  C_6 
REMARK    2  A    between atoms: C_6  and  C_7 
REMARK    3  A    between atoms: C_12  and  N_13 
REMARK       I    between atoms: N_13  and  C_14 
REMARK       I    between atoms: C_14  and  N_16 
REMARK    4  A    between atoms: N_16  and  C_17 
REMARK    5  A    between atoms: C_17  and  C_18 
ROOT
HETATM    1  C   UNL     1     -39.299 -51.591  13.768  1.00  0.00     0.179 C 
HETATM    2  N   UNL     1     -40.391 -52.508  13.541  1.00  0.00    -0.281 N 
HETATM    3  N   UNL     1     -41.542 -52.031  13.028  1.00  0.00    -0.301 N 
ATOM      4  HN  UNL     1     -41.780 -51.062  12.818  1.00  0.00     0.187 HD
HETATM    5  C   UNL     1     -42.301 -53.118  12.858  1.00  0.00     0.030 A 
HETATM    6  C   UNL     1     -41.645 -54.279  13.316  1.00  0.00     0.076 A 
HETATM    7  C   UNL     1     -40.388 -53.874  13.704  1.00  0.00     0.127 A 
ENDROOT
BRANCH   7   8
HETATM    8  N   UNL     1     -39.347 -54.682  14.165  1.00  0.00    -0.293 N 
HETATM    9  C   UNL     1     -39.024 -54.763  15.547  1.00  0.00     0.321 C 
HETATM   10  O   UNL     1     -39.677 -54.202  16.410  1.00  0.00    -0.247 OA
HETATM   11  N   UNL     1     -37.935 -55.546  15.768  1.00  0.00    -0.340 N 
HETATM   12  H   UNL     1     -37.366 -55.923  15.024  1.00  0.00     0.164 HD
HETATM   13  H   UNL     1     -38.855 -55.267  13.508  1.00  0.00     0.172 HD
BRANCH  11  14
HETATM   14  C   UNL     1     -37.447 -55.737  17.128  1.00  0.00     0.156 C 
BRANCH  14  15
HETATM   15  C   UNL     1     -38.075 -56.937  17.832  1.00  0.00     0.139 C 
HETATM   16  C   UNL     1     -39.110 -56.622  18.903  1.00  0.00     0.035 C 
HETATM   17  C   UNL     1     -38.976 -57.771  19.887  1.00  0.00     0.029 C 
HETATM   18  C   UNL     1     -37.793 -58.577  19.387  1.00  0.00     0.168 C 
HETATM   19  O   UNL     1     -37.066 -57.696  18.520  1.00  0.00    -0.384 OA
ENDBRANCH  14  15
ENDBRANCH  11  14
ENDBRANCH   7   8
BRANCH   5  20
HETATM   20  C   UNL     1     -43.674 -53.040  12.267  1.00  0.00     0.067 C 
BRANCH  20  21
HETATM   21  C   UNL     1     -44.843 -53.119  13.288  1.00  0.00    -0.046 C 
HETATM   22  C   UNL     1     -44.508 -52.382  14.599  1.00  0.00     0.015 C 
HETATM   23  C   UNL     1     -46.076 -52.443  12.655  1.00  0.00     0.015 C 
HETATM   24  C   UNL     1     -45.207 -54.578  13.613  1.00  0.00     0.015 C 
ENDBRANCH  20  21
ENDBRANCH   5  20
TORSDOF 5
ENDMDL
