MODEL 1
REMARK VINA RESULT:      -5.2      0.000      0.000
REMARK  3 active torsions:
REMARK  status: ('A' for Active; 'I' for Inactive)
REMARK    1  A    between atoms: C_3  and  N_4 
REMARK    2  A    between atoms: C_5  and  N_12 
REMARK    3  A    between atoms: C_14  and  O_15 
ROOT
HETATM    1  N   UNL     1     -42.273 -53.877  12.931  1.00  0.00    -0.319 N 
ATOM      2  HN  UNL     1     -43.006 -53.625  12.268  1.00  0.00     0.170 HD
HETATM    3  C   UNL     1     -42.579 -54.308  14.170  1.00  0.00     0.106 A 
HETATM    4  C   UNL     1     -40.983 -53.788  12.594  1.00  0.00     0.156 A 
HETATM    5  N   UNL     1     -39.957 -54.051  13.402  1.00  0.00    -0.343 N 
ATOM      6  HN  UNL     1     -38.988 -53.940  13.104  1.00  0.00     0.167 HD
HETATM    7  C   UNL     1     -41.575 -54.628  15.064  1.00  0.00     0.065 A 
HETATM    8  C   UNL     1     -40.280 -54.473  14.633  1.00  0.00     0.094 A 
ENDROOT
BRANCH   3   9
HETATM    9  N   UNL     1     -43.904 -54.324  14.560  1.00  0.00    -0.365 N 
HETATM   10  C   UNL     1     -44.998 -54.409  13.594  1.00  0.00     0.156 C 
HETATM   11  C   UNL     1     -46.265 -54.275  14.468  1.00  0.00     0.137 C 
HETATM   12  C   UNL     1     -45.762 -53.943  15.878  1.00  0.00     0.053 C 
HETATM   13  C   UNL     1     -44.329 -53.475  15.665  1.00  0.00     0.127 C 
BRANCH  11  14
HETATM   14  O   UNL     1     -47.006 -55.494  14.499  1.00  0.00    -0.394 OA
HETATM   15  H   UNL     1     -47.949 -55.258  14.414  1.00  0.00     0.210 HD
ENDBRANCH  11  14
ENDBRANCH   3   9
BRANCH   4  16
HETATM   16  N   UNL     1     -40.681 -53.316  11.330  1.00  0.00    -0.274 NA
HETATM   17  H   UNL     1     -40.837 -52.319  11.309  1.00  0.00     0.127 HD
HETATM   18  H   UNL     1     -39.762 -53.646  11.072  1.00  0.00     0.127 HD
ENDBRANCH   4  16
TORSDOF 3
ENDMDL
MODEL 2
REMARK VINA RESULT:      -5.2      2.946      4.971
REMARK  3 active torsions:
REMARK  status: ('A' for Active; 'I' for Inactive)
REMARK    1  A    between atoms: C_3  and  N_4 
REMARK    2  A    between atoms: C_5  and  N_12 
REMARK    3  A    between atoms: C_14  and  O_15 
ROOT
HETATM    1  N   UNL     1     -44.193 -52.908  12.627  1.00  0.00    -0.319 N 
ATOM      2  HN  UNL     1     -43.792 -52.219  11.990  1.00  0.00     0.170 HD
HETATM    3  C   UNL     1     -43.413 -53.597  13.481  1.00  0.00     0.106 A 
HETATM    4  C   UNL     1     -45.507 -53.150  12.634  1.00  0.00     0.156 A 
HETATM    5  N   UNL     1     -46.117 -54.058  13.395  1.00  0.00    -0.343 N 
ATOM      6  HN  UNL     1     -47.122 -54.224  13.342  1.00  0.00     0.167 HD
HETATM    7  C   UNL     1     -43.968 -54.539  14.325  1.00  0.00     0.065 A 
HETATM    8  C   UNL     1     -45.325 -54.739  14.235  1.00  0.00     0.094 A 
ENDROOT
BRANCH   3   9
HETATM    9  N   UNL     1     -42.045 -53.417  13.425  1.00  0.00    -0.365 N 
HETATM   10  C   UNL     1     -41.127 -54.165  14.282  1.00  0.00     0.156 C 
HETATM   11  C   UNL     1     -39.747 -53.552  13.957  1.00  0.00     0.137 C 
HETATM   12  C   UNL     1     -40.030 -52.355  13.042  1.00  0.00     0.053 C 
HETATM   13  C   UNL     1     -41.513 -52.073  13.241  1.00  0.00     0.127 C 
BRANCH  11  14
HETATM   14  O   UNL     1     -38.910 -54.487  13.276  1.00  0.00    -0.394 OA
HETATM   15  H   UNL     1     -38.852 -54.197  12.347  1.00  0.00     0.210 HD
ENDBRANCH  11  14
ENDBRANCH   3   9
BRANCH   4  16
HETATM   16  N   UNL     1     -46.293 -52.459  11.732  1.00  0.00    -0.274 NA
HETATM   17  H   UNL     1     -45.965 -52.654  10.797  1.00  0.00     0.127 HD
HETATM   18  H   UNL     1     -47.263 -52.654  11.931  1.00  0.00     0.127 HD
ENDBRANCH   4  16
TORSDOF 3
ENDMDL
MODEL 3
REMARK VINA RESULT:      -5.2      3.033      5.430
REMARK  3 active torsions:
REMARK  status: ('A' for Active; 'I' for Inactive)
REMARK    1  A    between atoms: C_3  and  N_4 
REMARK    2  A    between atoms: C_5  and  N_12 
REMARK    3  A    between atoms: C_14  and  O_15 
ROOT
HETATM    1  N   UNL     1     -44.991 -53.870  13.582  1.00  0.00    -0.319 N 
ATOM      2  HN  UNL     1     -44.392 -54.680  13.425  1.00  0.00     0.170 HD
HETATM    3  C   UNL     1     -44.572 -52.629  13.268  1.00  0.00     0.106 A 
HETATM    4  C   UNL     1     -46.212 -54.010  14.106  1.00  0.00     0.156 A 
HETATM    5  N   UNL     1     -47.047 -53.011  14.387  1.00  0.00    -0.343 N 
ATOM      6  HN  UNL     1     -47.960 -53.171  14.814  1.00  0.00     0.167 HD
HETATM    7  C   UNL     1     -45.387 -51.538  13.502  1.00  0.00     0.065 A 
HETATM    8  C   UNL     1     -46.612 -51.784  14.074  1.00  0.00     0.094 A 
ENDROOT
BRANCH   3   9
HETATM    9  N   UNL     1     -43.281 -52.460  12.804  1.00  0.00    -0.365 N 
HETATM   10  C   UNL     1     -42.245 -53.470  13.006  1.00  0.00     0.156 C 
HETATM   11  C   UNL     1     -40.972 -52.801  12.439  1.00  0.00     0.137 C 
HETATM   12  C   UNL     1     -41.373 -51.359  12.111  1.00  0.00     0.053 C 
HETATM   13  C   UNL     1     -42.665 -51.142  12.888  1.00  0.00     0.127 C 
BRANCH  11  14
HETATM   14  O   UNL     1     -40.526 -53.456  11.252  1.00  0.00    -0.394 OA
HETATM   15  H   UNL     1     -39.980 -52.816  10.759  1.00  0.00     0.210 HD
ENDBRANCH  11  14
ENDBRANCH   3   9
BRANCH   4  16
HETATM   16  N   UNL     1     -46.619 -55.285  14.453  1.00  0.00    -0.274 NA
HETATM   17  H   UNL     1     -46.726 -55.832  13.611  1.00  0.00     0.127 HD
HETATM   18  H   UNL     1     -45.994 -55.644  15.160  1.00  0.00     0.127 HD
ENDBRANCH   4  16
TORSDOF 3
ENDMDL
MODEL 4
REMARK VINA RESULT:      -5.0      2.072      2.264
REMARK  3 active torsions:
REMARK  status: ('A' for Active; 'I' for Inactive)
REMARK    1  A    between atoms: C_3  and  N_4 
REMARK    2  A    between atoms: C_5  and  N_12 
REMARK    3  A    between atoms: C_14  and  O_15 
ROOT
HETATM    1  N   UNL     1     -42.467 -51.719  12.107  1.00  0.00    -0.319 N 
ATOM      2  HN  UNL     1     -42.982 -50.875  11.856  1.00  0.00     0.170 HD
HETATM    3  C   UNL     1     -43.037 -52.681  12.857  1.00  0.00     0.106 A 
HETATM    4  C   UNL     1     -41.207 -51.899  11.700  1.00  0.00     0.156 A 
HETATM    5  N   UNL     1     -40.440 -52.943  12.012  1.00  0.00    -0.343 N 
ATOM      6  HN  UNL     1     -39.472 -53.018  11.698  1.00  0.00     0.167 HD
HETATM    7  C   UNL     1     -42.321 -53.810  13.204  1.00  0.00     0.065 A 
HETATM    8  C   UNL     1     -41.021 -53.887  12.764  1.00  0.00     0.094 A 
ENDROOT
BRANCH   3   9
HETATM    9  N   UNL     1     -44.309 -52.470  13.355  1.00  0.00    -0.365 N 
HETATM   10  C   UNL     1     -45.483 -53.136  12.794  1.00  0.00     0.156 C 
HETATM   11  C   UNL     1     -46.661 -52.510  13.574  1.00  0.00     0.137 C 
HETATM   12  C   UNL     1     -46.049 -51.385  14.416  1.00  0.00     0.053 C 
HETATM   13  C   UNL     1     -44.693 -51.128  13.772  1.00  0.00     0.127 C 
BRANCH  11  14
HETATM   14  O   UNL     1     -47.282 -53.467  14.432  1.00  0.00    -0.394 OA
HETATM   15  H   UNL     1     -48.243 -53.407  14.280  1.00  0.00     0.210 HD
ENDBRANCH  11  14
ENDBRANCH   3   9
BRANCH   4  16
HETATM   16  N   UNL     1     -40.622 -50.891  10.956  1.00  0.00    -0.274 NA
HETATM   17  H   UNL     1     -39.650 -50.816  11.218  1.00  0.00     0.127 HD
HETATM   18  H   UNL     1     -40.828 -51.048   9.980  1.00  0.00     0.127 HD
ENDBRANCH   4  16
TORSDOF 3
ENDMDL
MODEL 5
REMARK VINA RESULT:      -5.0      6.412      7.997
REMARK  3 active torsions:
REMARK  status: ('A' for Active; 'I' for Inactive)
REMARK    1  A    between atoms: C_3  and  N_4 
REMARK    2  A    between atoms: C_5  and  N_12 
REMARK    3  A    between atoms: C_14  and  O_15 
ROOT
HETATM    1  N   UNL     1     -41.952 -48.222   9.219  1.00  0.00    -0.319 N 
ATOM      2  HN  UNL     1     -41.145 -48.505   8.663  1.00  0.00     0.170 HD
HETATM    3  C   UNL     1     -41.918 -48.275  10.564  1.00  0.00     0.106 A 
HETATM    4  C   UNL     1     -43.071 -47.790   8.631  1.00  0.00     0.156 A 
HETATM    5  N   UNL     1     -44.189 -47.442   9.268  1.00  0.00    -0.343 N 
ATOM      6  HN  UNL     1     -45.027 -47.146   8.769  1.00  0.00     0.167 HD
HETATM    7  C   UNL     1     -43.026 -47.906  11.304  1.00  0.00     0.065 A 
HETATM    8  C   UNL     1     -44.140 -47.506  10.605  1.00  0.00     0.094 A 
ENDROOT
BRANCH   3   9
HETATM    9  N   UNL     1     -40.799 -48.799  11.182  1.00  0.00    -0.365 N 
HETATM   10  C   UNL     1     -40.770 -50.159  11.715  1.00  0.00     0.156 C 
HETATM   11  C   UNL     1     -39.389 -50.249  12.403  1.00  0.00     0.137 C 
HETATM   12  C   UNL     1     -38.805 -48.834  12.347  1.00  0.00     0.053 C 
HETATM   13  C   UNL     1     -40.005 -47.943  12.054  1.00  0.00     0.127 C 
BRANCH  11  14
HETATM   14  O   UNL     1     -38.524 -51.152  11.713  1.00  0.00    -0.394 OA
HETATM   15  H   UNL     1     -38.069 -51.686  12.391  1.00  0.00     0.210 HD
ENDBRANCH  11  14
ENDBRANCH   3   9
BRANCH   4  16
HETATM   16  N   UNL     1     -43.104 -47.769   7.250  1.00  0.00    -0.274 NA
HETATM   17  H   UNL     1     -43.907 -48.295   6.935  1.00  0.00     0.127 HD
HETATM   18  H   UNL     1     -43.027 -46.812   6.938  1.00  0.00     0.127 HD
ENDBRANCH   4  16
TORSDOF 3
ENDMDL
MODEL 6
REMARK VINA RESULT:      -4.9      7.835      9.242
REMARK  3 active torsions:
REMARK  status: ('A' for Active; 'I' for Inactive)
REMARK    1  A    between atoms: C_3  and  N_4 
REMARK    2  A    between atoms: C_5  and  N_12 
REMARK    3  A    between atoms: C_14  and  O_15 
ROOT
HETATM    1  N   UNL     1     -42.626 -45.631  10.329  1.00  0.00    -0.319 N 
ATOM      2  HN  UNL     1     -41.961 -45.112  10.902  1.00  0.00     0.170 HD
HETATM    3  C   UNL     1     -42.484 -46.956  10.135  1.00  0.00     0.106 A 
HETATM    4  C   UNL     1     -43.660 -45.015   9.749  1.00  0.00     0.156 A 
HETATM    5  N   UNL     1     -44.553 -45.597   8.950  1.00  0.00    -0.343 N 
ATOM      6  HN  UNL     1     -45.309 -45.074   8.508  1.00  0.00     0.167 HD
HETATM    7  C   UNL     1     -43.382 -47.644   9.341  1.00  0.00     0.065 A 
HETATM    8  C   UNL     1     -44.393 -46.914   8.763  1.00  0.00     0.094 A 
ENDROOT
BRANCH   3   9
HETATM    9  N   UNL     1     -41.374 -47.590  10.658  1.00  0.00    -0.365 N 
HETATM   10  C   UNL     1     -41.372 -49.016  10.979  1.00  0.00     0.156 C 
HETATM   11  C   UNL     1     -39.991 -49.238  11.635  1.00  0.00     0.137 C 
HETATM   12  C   UNL     1     -39.377 -47.843  11.790  1.00  0.00     0.053 C 
HETATM   13  C   UNL     1     -40.559 -46.893  11.644  1.00  0.00     0.127 C 
BRANCH  11  14
HETATM   14  O   UNL     1     -39.148 -50.044  10.811  1.00  0.00    -0.394 OA
HETATM   15  H   UNL     1     -39.711 -50.735  10.416  1.00  0.00     0.210 HD
ENDBRANCH  11  14
ENDBRANCH   3   9
BRANCH   4  16
HETATM   16  N   UNL     1     -43.777 -43.649   9.930  1.00  0.00    -0.274 NA
HETATM   17  H   UNL     1     -44.493 -43.299   9.311  1.00  0.00     0.127 HD
HETATM   18  H   UNL     1     -43.887 -43.462  10.916  1.00  0.00     0.127 HD
ENDBRANCH   4  16
TORSDOF 3
ENDMDL
MODEL 7
REMARK VINA RESULT:      -4.9      4.433      5.893
REMARK  3 active torsions:
REMARK  status: ('A' for Active; 'I' for Inactive)
REMARK    1  A    between atoms: C_3  and  N_4 
REMARK    2  A    between atoms: C_5  and  N_12 
REMARK    3  A    between atoms: C_14  and  O_15 
ROOT
HETATM    1  N   UNL     1     -41.494 -49.708  10.968  1.00  0.00    -0.319 N 
ATOM      2  HN  UNL     1     -42.210 -50.387  10.709  1.00  0.00     0.170 HD
HETATM    3  C   UNL     1     -40.463 -50.057  11.760  1.00  0.00     0.106 A 
HETATM    4  C   UNL     1     -41.556 -48.447  10.529  1.00  0.00     0.156 A 
HETATM    5  N   UNL     1     -40.696 -47.480  10.847  1.00  0.00    -0.343 N 
ATOM      6  HN  UNL     1     -40.804 -46.525  10.507  1.00  0.00     0.167 HD
HETATM    7  C   UNL     1     -39.511 -49.122  12.117  1.00  0.00     0.065 A 
HETATM    8  C   UNL     1     -39.679 -47.844  11.640  1.00  0.00     0.094 A 
ENDROOT
BRANCH   3   9
HETATM    9  N   UNL     1     -40.432 -51.333  12.288  1.00  0.00    -0.365 N 
HETATM   10  C   UNL     1     -41.514 -52.291  12.071  1.00  0.00     0.156 C 
HETATM   11  C   UNL     1     -41.103 -53.505  12.934  1.00  0.00     0.137 C 
HETATM   12  C   UNL     1     -39.872 -53.052  13.726  1.00  0.00     0.053 C 
HETATM   13  C   UNL     1     -39.902 -51.532  13.631  1.00  0.00     0.127 C 
BRANCH  11  14
HETATM   14  O   UNL     1     -40.764 -54.629  12.122  1.00  0.00    -0.394 OA
HETATM   15  H   UNL     1     -41.221 -55.403  12.499  1.00  0.00     0.210 HD
ENDBRANCH  11  14
ENDBRANCH   3   9
BRANCH   4  16
HETATM   16  N   UNL     1     -42.635 -48.093   9.741  1.00  0.00    -0.274 NA
HETATM   17  H   UNL     1     -43.035 -47.240  10.103  1.00  0.00     0.127 HD
HETATM   18  H   UNL     1     -42.345 -48.095   8.774  1.00  0.00     0.127 HD
ENDBRANCH   4  16
TORSDOF 3
ENDMDL
MODEL 8
REMARK VINA RESULT:      -4.9      8.369      9.406
REMARK  3 active torsions:
REMARK  status: ('A' for Active; 'I' for Inactive)
REMARK    1  A    between atoms: C_3  and  N_4 
REMARK    2  A    between atoms: C_5  and  N_12 
REMARK    3  A    between atoms: C_14  and  O_15 
ROOT
HETATM    1  N   UNL     1     -45.042 -47.180   9.869  1.00  0.00    -0.319 N 
ATOM      2  HN  UNL     1     -45.512 -46.815  10.697  1.00  0.00     0.170 HD
HETATM    3  C   UNL     1     -43.698 -47.180   9.780  1.00  0.00     0.106 A 
HETATM    4  C   UNL     1     -45.743 -47.670   8.843  1.00  0.00     0.156 A 
HETATM    5  N   UNL     1     -45.222 -48.127   7.704  1.00  0.00    -0.343 N 
ATOM      6  HN  UNL     1     -45.805 -48.465   6.938  1.00  0.00     0.167 HD
HETATM    7  C   UNL     1     -43.075 -47.661   8.645  1.00  0.00     0.065 A 
HETATM    8  C   UNL     1     -43.884 -48.114   7.631  1.00  0.00     0.094 A 
ENDROOT
BRANCH   3   9
HETATM    9  N   UNL     1     -42.964 -46.600  10.797  1.00  0.00    -0.365 N 
HETATM   10  C   UNL     1     -41.584 -46.159  10.605  1.00  0.00     0.156 C 
HETATM   11  C   UNL     1     -41.151 -45.702  12.016  1.00  0.00     0.137 C 
HETATM   12  C   UNL     1     -42.301 -46.094  12.950  1.00  0.00     0.053 C 
HETATM   13  C   UNL     1     -43.101 -47.115  12.153  1.00  0.00     0.127 C 
BRANCH  11  14
HETATM   14  O   UNL     1     -40.954 -44.288  12.066  1.00  0.00    -0.394 OA
HETATM   15  H   UNL     1     -41.660 -43.920  12.629  1.00  0.00     0.210 HD
ENDBRANCH  11  14
ENDBRANCH   3   9
BRANCH   4  16
HETATM   16  N   UNL     1     -47.122 -47.637   8.933  1.00  0.00    -0.274 NA
HETATM   17  H   UNL     1     -47.432 -46.682   8.832  1.00  0.00     0.127 HD
HETATM   18  H   UNL     1     -47.505 -48.317   8.292  1.00  0.00     0.127 HD
ENDBRANCH   4  16
TORSDOF 3
ENDMDL
MODEL 9
REMARK VINA RESULT:      -4.8      2.920      5.270
REMARK  3 active torsions:
REMARK  status: ('A' for Active; 'I' for Inactive)
REMARK    1  A    between atoms: C_3  and  N_4 
REMARK    2  A    between atoms: C_5  and  N_12 
REMARK    3  A    between atoms: C_14  and  O_15 
ROOT
HETATM    1  N   UNL     1     -45.199 -52.486  14.221  1.00  0.00    -0.319 N 
ATOM      2  HN  UNL     1     -44.916 -51.507  14.274  1.00  0.00     0.170 HD
HETATM    3  C   UNL     1     -44.400 -53.407  13.650  1.00  0.00     0.106 A 
HETATM    4  C   UNL     1     -46.373 -52.887  14.717  1.00  0.00     0.156 A 
HETATM    5  N   UNL     1     -46.847 -54.131  14.658  1.00  0.00    -0.343 N 
ATOM      6  HN  UNL     1     -47.765 -54.380  15.028  1.00  0.00     0.167 HD
HETATM    7  C   UNL     1     -44.804 -54.726  13.570  1.00  0.00     0.065 A 
HETATM    8  C   UNL     1     -46.042 -55.033  14.081  1.00  0.00     0.094 A 
ENDROOT
BRANCH   3   9
HETATM    9  N   UNL     1     -43.223 -52.992  13.059  1.00  0.00    -0.365 N 
HETATM   10  C   UNL     1     -41.987 -53.765  13.159  1.00  0.00     0.156 C 
HETATM   11  C   UNL     1     -40.939 -52.867  12.464  1.00  0.00     0.137 C 
HETATM   12  C   UNL     1     -41.656 -51.544  12.172  1.00  0.00     0.053 C 
HETATM   13  C   UNL     1     -42.883 -51.574  13.073  1.00  0.00     0.127 C 
BRANCH  11  14
HETATM   14  O   UNL     1     -40.487 -53.447  11.241  1.00  0.00    -0.394 OA
HETATM   15  H   UNL     1     -41.041 -54.232  11.074  1.00  0.00     0.210 HD
ENDBRANCH  11  14
ENDBRANCH   3   9
BRANCH   4  16
HETATM   16  N   UNL     1     -47.197 -51.928  15.274  1.00  0.00    -0.274 NA
HETATM   17  H   UNL     1     -47.474 -51.278  14.552  1.00  0.00     0.127 HD
HETATM   18  H   UNL     1     -47.933 -52.390  15.787  1.00  0.00     0.127 HD
ENDBRANCH   4  16
TORSDOF 3
ENDMDL
