MODEL 1
REMARK VINA RESULT:      -5.0      0.000      0.000
REMARK  4 active torsions:
REMARK  status: ('A' for Active; 'I' for Inactive)
REMARK    1  A    between atoms: C_4  and  C_5 
REMARK    2  A    between atoms: C_5  and  C_6 
REMARK    3  A    between atoms: C_6  and  N_7 
REMARK       I    between atoms: N_7  and  C_8 
REMARK    4  A    between atoms: C_8  and  C_10 
ROOT
HETATM    1  C   UNL     1     -41.184 -48.410  10.806  1.00  0.00     0.127 C 
ENDROOT
BRANCH   1   2
HETATM    2  C   UNL     1     -42.143 -47.218  10.787  1.00  0.00     0.061 C 
BRANCH   2   3
HETATM    3  C   UNL     1     -43.305 -47.456   9.887  1.00  0.00    -0.023 A 
HETATM    4  C   UNL     1     -44.639 -47.567  10.223  1.00  0.00     0.118 A 
HETATM    5  N   UNL     1     -45.317 -47.750   9.052  1.00  0.00    -0.308 N 
HETATM    6  C   UNL     1     -46.742 -47.888   8.882  1.00  0.00     0.177 C 
HETATM    7  N   UNL     1     -44.515 -47.784   7.974  1.00  0.00    -0.310 N 
HETATM    8  C   UNL     1     -43.294 -47.601   8.480  1.00  0.00     0.115 A 
ATOM      9  HN  UNL     1     -44.778 -47.918   6.998  1.00  0.00     0.186 HD
ENDBRANCH   2   3
ENDBRANCH   1   2
BRANCH   1  10
HETATM   10  N   UNL     1     -41.829 -49.644  11.214  1.00  0.00    -0.359 N 
HETATM   11  C   UNL     1     -41.081 -50.673  11.757  1.00  0.00     0.241 C 
HETATM   12  O   UNL     1     -39.853 -50.609  11.838  1.00  0.00    -0.271 OA
HETATM   13  H   UNL     1     -42.824 -49.655  11.418  1.00  0.00     0.162 HD
BRANCH  11  14
HETATM   14  C   UNL     1     -41.849 -51.927  12.198  1.00  0.00     0.200 C 
HETATM   15  S   UNL     1     -43.165 -51.473  13.380  1.00  0.00    -0.143 SA
HETATM   16  C   UNL     1     -42.891 -52.809  14.580  1.00  0.00     0.086 C 
HETATM   17  C   UNL     1     -42.133 -53.945  13.918  1.00  0.00     0.086 C 
HETATM   18  S   UNL     1     -40.792 -53.199  12.961  1.00  0.00    -0.143 SA
ENDBRANCH  11  14
ENDBRANCH   1  10
TORSDOF 4
ENDMDL
MODEL 2
REMARK VINA RESULT:      -4.8      1.913      2.449
REMARK  4 active torsions:
REMARK  status: ('A' for Active; 'I' for Inactive)
REMARK    1  A    between atoms: C_4  and  C_5 
REMARK    2  A    between atoms: C_5  and  C_6 
REMARK    3  A    between atoms: C_6  and  N_7 
REMARK       I    between atoms: N_7  and  C_8 
REMARK    4  A    between atoms: C_8  and  C_10 
ROOT
HETATM    1  C   UNL     1     -40.608 -50.215  11.403  1.00  0.00     0.127 C 
ENDROOT
BRANCH   1   2
HETATM    2  C   UNL     1     -41.057 -48.929  12.100  1.00  0.00     0.061 C 
BRANCH   2   3
HETATM    3  C   UNL     1     -41.491 -47.893  11.123  1.00  0.00    -0.023 A 
HETATM    4  C   UNL     1     -42.622 -47.883  10.332  1.00  0.00     0.118 A 
HETATM    5  N   UNL     1     -42.592 -46.711   9.633  1.00  0.00    -0.308 N 
HETATM    6  C   UNL     1     -43.576 -46.229   8.695  1.00  0.00     0.177 C 
HETATM    7  N   UNL     1     -41.510 -45.960   9.900  1.00  0.00    -0.310 N 
HETATM    8  C   UNL     1     -40.844 -46.675  10.808  1.00  0.00     0.115 A 
ATOM      9  HN  UNL     1     -41.257 -45.056   9.502  1.00  0.00     0.186 HD
ENDBRANCH   2   3
ENDBRANCH   1   2
BRANCH   1  10
HETATM   10  N   UNL     1     -41.412 -51.365  11.771  1.00  0.00    -0.359 N 
HETATM   11  C   UNL     1     -40.847 -52.412  12.476  1.00  0.00     0.241 C 
HETATM   12  O   UNL     1     -39.644 -52.441  12.743  1.00  0.00    -0.271 OA
HETATM   13  H   UNL     1     -42.424 -51.284  11.819  1.00  0.00     0.162 HD
BRANCH  11  14
HETATM   14  C   UNL     1     -41.781 -53.570  12.858  1.00  0.00     0.200 C 
HETATM   15  S   UNL     1     -43.524 -53.068  12.643  1.00  0.00    -0.143 SA
HETATM   16  C   UNL     1     -44.172 -53.756  14.194  1.00  0.00     0.086 C 
HETATM   17  C   UNL     1     -43.227 -54.820  14.718  1.00  0.00     0.086 C 
HETATM   18  S   UNL     1     -41.550 -54.160  14.566  1.00  0.00    -0.143 SA
ENDBRANCH  11  14
ENDBRANCH   1  10
TORSDOF 4
ENDMDL
MODEL 3
REMARK VINA RESULT:      -4.7      4.518      6.249
REMARK  4 active torsions:
REMARK  status: ('A' for Active; 'I' for Inactive)
REMARK    1  A    between atoms: C_4  and  C_5 
REMARK    2  A    between atoms: C_5  and  C_6 
REMARK    3  A    between atoms: C_6  and  N_7 
REMARK       I    between atoms: N_7  and  C_8 
REMARK    4  A    between atoms: C_8  and  C_10 
ROOT
HETATM    1  C   UNL     1     -41.560 -53.998  14.936  1.00  0.00     0.127 C 
ENDROOT
BRANCH   1   2
HETATM    2  C   UNL     1     -40.873 -54.181  13.581  1.00  0.00     0.061 C 
BRANCH   2   3
HETATM    3  C   UNL     1     -40.670 -52.882  12.883  1.00  0.00    -0.023 A 
HETATM    4  C   UNL     1     -39.743 -51.897  13.160  1.00  0.00     0.118 A 
HETATM    5  N   UNL     1     -39.931 -50.919  12.227  1.00  0.00    -0.308 N 
HETATM    6  C   UNL     1     -39.182 -49.695  12.083  1.00  0.00     0.177 C 
HETATM    7  N   UNL     1     -40.930 -51.188  11.368  1.00  0.00    -0.310 N 
HETATM    8  C   UNL     1     -41.375 -52.382  11.764  1.00  0.00     0.115 A 
ATOM      9  HN  UNL     1     -41.268 -50.614  10.596  1.00  0.00     0.186 HD
ENDBRANCH   2   3
ENDBRANCH   1   2
BRANCH   1  10
HETATM   10  N   UNL     1     -42.939 -53.566  14.814  1.00  0.00    -0.359 N 
HETATM   11  C   UNL     1     -43.968 -54.484  14.926  1.00  0.00     0.241 C 
HETATM   12  O   UNL     1     -43.750 -55.690  15.051  1.00  0.00    -0.271 OA
HETATM   13  H   UNL     1     -43.184 -52.593  14.977  1.00  0.00     0.162 HD
BRANCH  11  14
HETATM   14  C   UNL     1     -45.398 -53.934  14.824  1.00  0.00     0.200 C 
HETATM   15  S   UNL     1     -45.533 -52.800  13.397  1.00  0.00    -0.143 SA
HETATM   16  C   UNL     1     -46.480 -51.484  14.217  1.00  0.00     0.086 C 
HETATM   17  C   UNL     1     -47.166 -52.039  15.451  1.00  0.00     0.086 C 
HETATM   18  S   UNL     1     -45.950 -53.056  16.321  1.00  0.00    -0.143 SA
ENDBRANCH  11  14
ENDBRANCH   1  10
TORSDOF 4
ENDMDL
MODEL 4
REMARK VINA RESULT:      -4.7      4.348      6.723
REMARK  4 active torsions:
REMARK  status: ('A' for Active; 'I' for Inactive)
REMARK    1  A    between atoms: C_4  and  C_5 
REMARK    2  A    between atoms: C_5  and  C_6 
REMARK    3  A    between atoms: C_6  and  N_7 
REMARK       I    between atoms: N_7  and  C_8 
REMARK    4  A    between atoms: C_8  and  C_10 
ROOT
HETATM    1  C   UNL     1     -46.001 -52.438  12.722  1.00  0.00     0.127 C 
ENDROOT
BRANCH   1   2
HETATM    2  C   UNL     1     -46.664 -51.451  13.684  1.00  0.00     0.061 C 
BRANCH   2   3
HETATM    3  C   UNL     1     -46.659 -51.955  15.085  1.00  0.00    -0.023 A 
HETATM    4  C   UNL     1     -46.023 -53.069  15.592  1.00  0.00     0.118 A 
HETATM    5  N   UNL     1     -46.292 -53.091  16.930  1.00  0.00    -0.308 N 
HETATM    6  C   UNL     1     -45.820 -54.049  17.899  1.00  0.00     0.177 C 
HETATM    7  N   UNL     1     -47.076 -52.075  17.331  1.00  0.00    -0.310 N 
HETATM    8  C   UNL     1     -47.295 -51.383  16.212  1.00  0.00     0.115 A 
ATOM      9  HN  UNL     1     -47.421 -51.880  18.271  1.00  0.00     0.186 HD
ENDBRANCH   2   3
ENDBRANCH   1   2
BRANCH   1  10
HETATM   10  N   UNL     1     -44.625 -52.092  12.420  1.00  0.00    -0.359 N 
HETATM   11  C   UNL     1     -43.627 -53.043  12.535  1.00  0.00     0.241 C 
HETATM   12  O   UNL     1     -43.856 -54.174  12.966  1.00  0.00    -0.271 OA
HETATM   13  H   UNL     1     -44.420 -51.293  11.826  1.00  0.00     0.162 HD
BRANCH  11  14
HETATM   14  C   UNL     1     -42.206 -52.601  12.158  1.00  0.00     0.200 C 
HETATM   15  S   UNL     1     -40.976 -53.644  13.015  1.00  0.00    -0.143 SA
HETATM   16  C   UNL     1     -39.848 -52.319  13.535  1.00  0.00     0.086 C 
HETATM   17  C   UNL     1     -40.071 -51.089  12.676  1.00  0.00     0.086 C 
HETATM   18  S   UNL     1     -41.859 -50.855  12.542  1.00  0.00    -0.143 SA
ENDBRANCH  11  14
ENDBRANCH   1  10
TORSDOF 4
ENDMDL
MODEL 5
REMARK VINA RESULT:      -4.7      2.865      3.332
REMARK  4 active torsions:
REMARK  status: ('A' for Active; 'I' for Inactive)
REMARK    1  A    between atoms: C_4  and  C_5 
REMARK    2  A    between atoms: C_5  and  C_6 
REMARK    3  A    between atoms: C_6  and  N_7 
REMARK       I    between atoms: N_7  and  C_8 
REMARK    4  A    between atoms: C_8  and  C_10 
ROOT
HETATM    1  C   UNL     1     -42.837 -49.514  12.831  1.00  0.00     0.127 C 
ENDROOT
BRANCH   1   2
HETATM    2  C   UNL     1     -41.758 -49.276  11.773  1.00  0.00     0.061 C 
BRANCH   2   3
HETATM    3  C   UNL     1     -42.052 -48.075  10.942  1.00  0.00    -0.023 A 
HETATM    4  C   UNL     1     -43.229 -47.743  10.304  1.00  0.00     0.118 A 
HETATM    5  N   UNL     1     -43.013 -46.538   9.700  1.00  0.00    -0.308 N 
HETATM    6  C   UNL     1     -43.959 -45.764   8.935  1.00  0.00     0.177 C 
HETATM    7  N   UNL     1     -41.768 -46.067   9.885  1.00  0.00    -0.310 N 
HETATM    8  C   UNL     1     -41.186 -46.997  10.643  1.00  0.00     0.115 A 
ATOM      9  HN  UNL     1     -41.363 -45.201   9.529  1.00  0.00     0.186 HD
ENDBRANCH   2   3
ENDBRANCH   1   2
BRANCH   1  10
HETATM   10  N   UNL     1     -43.573 -50.746  12.617  1.00  0.00    -0.359 N 
HETATM   11  C   UNL     1     -44.326 -51.292  13.640  1.00  0.00     0.241 C 
HETATM   12  O   UNL     1     -44.335 -50.804  14.771  1.00  0.00    -0.271 OA
HETATM   13  H   UNL     1     -43.816 -51.036  11.674  1.00  0.00     0.162 HD
BRANCH  11  14
HETATM   14  C   UNL     1     -45.104 -52.576  13.314  1.00  0.00     0.200 C 
HETATM   15  S   UNL     1     -46.563 -52.719  14.405  1.00  0.00    -0.143 SA
HETATM   16  C   UNL     1     -46.391 -54.480  14.815  1.00  0.00     0.086 C 
HETATM   17  C   UNL     1     -45.529 -55.168  13.774  1.00  0.00     0.086 C 
HETATM   18  S   UNL     1     -44.107 -54.092  13.471  1.00  0.00    -0.143 SA
ENDBRANCH  11  14
ENDBRANCH   1  10
TORSDOF 4
ENDMDL
MODEL 6
REMARK VINA RESULT:      -4.6      4.522      6.061
REMARK  4 active torsions:
REMARK  status: ('A' for Active; 'I' for Inactive)
REMARK    1  A    between atoms: C_4  and  C_5 
REMARK    2  A    between atoms: C_5  and  C_6 
REMARK    3  A    between atoms: C_6  and  N_7 
REMARK       I    between atoms: N_7  and  C_8 
REMARK    4  A    between atoms: C_8  and  C_10 
ROOT
HETATM    1  C   UNL     1     -41.445 -54.011  13.082  1.00  0.00     0.127 C 
ENDROOT
BRANCH   1   2
HETATM    2  C   UNL     1     -42.457 -54.492  14.123  1.00  0.00     0.061 C 
BRANCH   2   3
HETATM    3  C   UNL     1     -43.848 -54.099  13.767  1.00  0.00    -0.023 A 
HETATM    4  C   UNL     1     -44.270 -52.988  13.066  1.00  0.00     0.118 A 
HETATM    5  N   UNL     1     -45.629 -53.086  12.970  1.00  0.00    -0.308 N 
HETATM    6  C   UNL     1     -46.524 -52.177  12.299  1.00  0.00     0.177 C 
HETATM    7  N   UNL     1     -46.126 -54.178  13.576  1.00  0.00    -0.310 N 
HETATM    8  C   UNL     1     -45.045 -54.795  14.056  1.00  0.00     0.115 A 
ATOM      9  HN  UNL     1     -47.101 -54.467  13.651  1.00  0.00     0.186 HD
ENDBRANCH   2   3
ENDBRANCH   1   2
BRANCH   1  10
HETATM   10  N   UNL     1     -40.794 -52.770  13.461  1.00  0.00    -0.359 N 
HETATM   11  C   UNL     1     -39.441 -52.753  13.744  1.00  0.00     0.241 C 
HETATM   12  O   UNL     1     -38.769 -53.785  13.762  1.00  0.00    -0.271 OA
HETATM   13  H   UNL     1     -41.214 -51.879  13.210  1.00  0.00     0.162 HD
BRANCH  11  14
HETATM   14  C   UNL     1     -38.827 -51.390  14.097  1.00  0.00     0.200 C 
HETATM   15  S   UNL     1     -40.145 -50.142  14.298  1.00  0.00    -0.143 SA
HETATM   16  C   UNL     1     -39.354 -48.795  13.371  1.00  0.00     0.086 C 
HETATM   17  C   UNL     1     -37.859 -49.042  13.285  1.00  0.00     0.086 C 
HETATM   18  S   UNL     1     -37.635 -50.785  12.861  1.00  0.00    -0.143 SA
ENDBRANCH  11  14
ENDBRANCH   1  10
TORSDOF 4
ENDMDL
MODEL 7
REMARK VINA RESULT:      -4.5      2.750      4.102
REMARK  4 active torsions:
REMARK  status: ('A' for Active; 'I' for Inactive)
REMARK    1  A    between atoms: C_4  and  C_5 
REMARK    2  A    between atoms: C_5  and  C_6 
REMARK    3  A    between atoms: C_6  and  N_7 
REMARK       I    between atoms: N_7  and  C_8 
REMARK    4  A    between atoms: C_8  and  C_10 
ROOT
HETATM    1  C   UNL     1     -39.134 -51.415  14.322  1.00  0.00     0.127 C 
ENDROOT
BRANCH   1   2
HETATM    2  C   UNL     1     -39.151 -49.927  13.968  1.00  0.00     0.061 C 
BRANCH   2   3
HETATM    3  C   UNL     1     -39.816 -49.676  12.660  1.00  0.00    -0.023 A 
HETATM    4  C   UNL     1     -40.820 -48.775  12.369  1.00  0.00     0.118 A 
HETATM    5  N   UNL     1     -41.071 -48.896  11.033  1.00  0.00    -0.308 N 
HETATM    6  C   UNL     1     -42.019 -48.141  10.251  1.00  0.00     0.177 C 
HETATM    7  N   UNL     1     -40.311 -49.827  10.432  1.00  0.00    -0.310 N 
HETATM    8  C   UNL     1     -39.546 -50.297  11.419  1.00  0.00     0.115 A 
ATOM      9  HN  UNL     1     -40.317 -50.109   9.452  1.00  0.00     0.186 HD
ENDBRANCH   2   3
ENDBRANCH   1   2
BRANCH   1  10
HETATM   10  N   UNL     1     -40.397 -52.074  14.045  1.00  0.00    -0.359 N 
HETATM   11  C   UNL     1     -40.416 -53.384  13.604  1.00  0.00     0.241 C 
HETATM   12  O   UNL     1     -39.378 -54.001  13.359  1.00  0.00    -0.271 OA
HETATM   13  H   UNL     1     -41.254 -51.728  14.468  1.00  0.00     0.162 HD
BRANCH  11  14
HETATM   14  C   UNL     1     -41.797 -54.015  13.374  1.00  0.00     0.200 C 
HETATM   15  S   UNL     1     -42.932 -52.788  12.638  1.00  0.00    -0.143 SA
HETATM   16  C   UNL     1     -44.384 -53.146  13.669  1.00  0.00     0.086 C 
HETATM   17  C   UNL     1     -44.253 -54.529  14.278  1.00  0.00     0.086 C 
HETATM   18  S   UNL     1     -42.557 -54.678  14.890  1.00  0.00    -0.143 SA
ENDBRANCH  11  14
ENDBRANCH   1  10
TORSDOF 4
ENDMDL
MODEL 8
REMARK VINA RESULT:      -4.2      3.307      6.439
REMARK  4 active torsions:
REMARK  status: ('A' for Active; 'I' for Inactive)
REMARK    1  A    between atoms: C_4  and  C_5 
REMARK    2  A    between atoms: C_5  and  C_6 
REMARK    3  A    between atoms: C_6  and  N_7 
REMARK       I    between atoms: N_7  and  C_8 
REMARK    4  A    between atoms: C_8  and  C_10 
ROOT
HETATM    1  C   UNL     1     -40.421 -51.413  12.130  1.00  0.00     0.127 C 
ENDROOT
BRANCH   1   2
HETATM    2  C   UNL     1     -41.261 -52.672  11.911  1.00  0.00     0.061 C 
BRANCH   2   3
HETATM    3  C   UNL     1     -42.321 -52.819  12.947  1.00  0.00    -0.023 A 
HETATM    4  C   UNL     1     -42.455 -53.806  13.901  1.00  0.00     0.118 A 
HETATM    5  N   UNL     1     -43.562 -53.487  14.633  1.00  0.00    -0.308 N 
HETATM    6  C   UNL     1     -44.094 -54.203  15.766  1.00  0.00     0.177 C 
HETATM    7  N   UNL     1     -44.172 -52.366  14.212  1.00  0.00    -0.310 N 
HETATM    8  C   UNL     1     -43.416 -51.958  13.191  1.00  0.00     0.115 A 
ATOM      9  HN  UNL     1     -45.016 -51.930  14.584  1.00  0.00     0.186 HD
ENDBRANCH   2   3
ENDBRANCH   1   2
BRANCH   1  10
HETATM   10  N   UNL     1     -40.745 -50.350  11.196  1.00  0.00    -0.359 N 
HETATM   11  C   UNL     1     -41.242 -49.146  11.659  1.00  0.00     0.241 C 
HETATM   12  O   UNL     1     -41.497 -48.964  12.851  1.00  0.00    -0.271 OA
HETATM   13  H   UNL     1     -40.322 -50.338  10.273  1.00  0.00     0.162 HD
BRANCH  11  14
HETATM   14  C   UNL     1     -41.521 -48.064  10.606  1.00  0.00     0.200 C 
HETATM   15  S   UNL     1     -40.570 -46.552  10.993  1.00  0.00    -0.143 SA
HETATM   16  C   UNL     1     -41.893 -45.345  10.690  1.00  0.00     0.086 C 
HETATM   17  C   UNL     1     -42.963 -45.966   9.812  1.00  0.00     0.086 C 
HETATM   18  S   UNL     1     -43.282 -47.624  10.460  1.00  0.00    -0.143 SA
ENDBRANCH  11  14
ENDBRANCH   1  10
TORSDOF 4
ENDMDL
MODEL 9
REMARK VINA RESULT:      -4.1      4.780      6.782
REMARK  4 active torsions:
REMARK  status: ('A' for Active; 'I' for Inactive)
REMARK    1  A    between atoms: C_4  and  C_5 
REMARK    2  A    between atoms: C_5  and  C_6 
REMARK    3  A    between atoms: C_6  and  N_7 
REMARK       I    between atoms: N_7  and  C_8 
REMARK    4  A    between atoms: C_8  and  C_10 
ROOT
HETATM    1  C   UNL     1     -39.100 -53.006  14.212  1.00  0.00     0.127 C 
ENDROOT
BRANCH   1   2
HETATM    2  C   UNL     1     -40.030 -53.935  13.430  1.00  0.00     0.061 C 
BRANCH   2   3
HETATM    3  C   UNL     1     -41.410 -53.935  13.987  1.00  0.00    -0.023 A 
HETATM    4  C   UNL     1     -42.596 -54.213  13.338  1.00  0.00     0.118 A 
HETATM    5  N   UNL     1     -43.582 -54.112  14.277  1.00  0.00    -0.308 N 
HETATM    6  C   UNL     1     -44.993 -54.344  14.089  1.00  0.00     0.177 C 
HETATM    7  N   UNL     1     -43.124 -53.769  15.493  1.00  0.00    -0.310 N 
HETATM    8  C   UNL     1     -41.805 -53.666  15.319  1.00  0.00     0.115 A 
ATOM      9  HN  UNL     1     -43.659 -53.623  16.349  1.00  0.00     0.186 HD
ENDBRANCH   2   3
ENDBRANCH   1   2
BRANCH   1  10
HETATM   10  N   UNL     1     -39.126 -51.640  13.723  1.00  0.00    -0.359 N 
HETATM   11  C   UNL     1     -38.118 -51.177  12.897  1.00  0.00     0.241 C 
HETATM   12  O   UNL     1     -37.139 -51.871  12.617  1.00  0.00    -0.271 OA
HETATM   13  H   UNL     1     -40.003 -51.127  13.695  1.00  0.00     0.162 HD
BRANCH  11  14
HETATM   14  C   UNL     1     -38.246 -49.732  12.395  1.00  0.00     0.200 C 
HETATM   15  S   UNL     1     -38.056 -48.565  13.787  1.00  0.00    -0.143 SA
HETATM   16  C   UNL     1     -39.430 -47.454  13.367  1.00  0.00     0.086 C 
HETATM   17  C   UNL     1     -39.790 -47.614  11.902  1.00  0.00     0.086 C 
HETATM   18  S   UNL     1     -39.827 -49.389  11.558  1.00  0.00    -0.143 SA
ENDBRANCH  11  14
ENDBRANCH   1  10
TORSDOF 4
ENDMDL
