MODEL 1
REMARK VINA RESULT:      -6.7      0.000      0.000
REMARK  5 active torsions:
REMARK  status: ('A' for Active; 'I' for Inactive)
REMARK    1  A    between atoms: O_2  and  C_3 
REMARK    2  A    between atoms: C_3  and  C_4 
REMARK    3  A    between atoms: C_4  and  N_5 
REMARK    4  A    between atoms: C_8  and  C_13 
REMARK       I    between atoms: C_13  and  N_15 
REMARK    5  A    between atoms: N_15  and  C_16 
REMARK       I    between atoms: N_19  and  C_22 
ROOT
HETATM    1  C   UNL     1     -40.941 -49.073  11.340  1.00  0.00     0.269 C 
HETATM    2  O   UNL     1     -39.750 -48.904  11.559  1.00  0.00    -0.266 OA
HETATM    3  N   UNL     1     -41.646 -50.219  11.662  1.00  0.00    -0.351 N 
HETATM    4  H   UNL     1     -42.602 -50.285  11.323  1.00  0.00     0.163 HD
ENDROOT
BRANCH   1   5
HETATM    5  C   UNL     1     -41.756 -47.944  10.696  1.00  0.00     0.116 A 
HETATM    6  N   UNL     1     -42.739 -48.226   9.894  1.00  0.00    -0.290 N 
HETATM    7  N   UNL     1     -43.406 -47.146   9.320  1.00  0.00    -0.255 N 
ATOM      8  HN  UNL     1     -43.009 -49.190   9.695  1.00  0.00     0.187 HD
HETATM    9  C   UNL     1     -43.057 -45.812   9.525  1.00  0.00     0.262 A 
HETATM   10  C   UNL     1     -41.953 -45.565  10.470  1.00  0.00     0.078 A 
HETATM   11  O   UNL     1     -43.608 -44.850   8.999  1.00  0.00    -0.267 OA
HETATM   12  C   UNL     1     -41.323 -46.577  11.061  1.00  0.00     0.042 A 
BRANCH   7  13
HETATM   13  C   UNL     1     -44.588 -47.444   8.515  1.00  0.00     0.178 C 
BRANCH  13  14
HETATM   14  C   UNL     1     -45.880 -47.576   9.326  1.00  0.00     0.189 C 
BRANCH  14  15
HETATM   15  O   UNL     1     -46.943 -47.964   8.448  1.00  0.00    -0.394 OA
HETATM   16  C   UNL     1     -46.622 -49.150   7.730  1.00  0.00     0.201 C 
ENDBRANCH  14  15
ENDBRANCH  13  14
ENDBRANCH   7  13
ENDBRANCH   1   5
BRANCH   3  17
HETATM   17  C   UNL     1     -40.988 -51.342  12.324  1.00  0.00     0.087 C 
HETATM   18  C   UNL     1     -41.477 -52.701  11.822  1.00  0.00     0.045 C 
HETATM   19  C   UNL     1     -42.840 -53.105  12.378  1.00  0.00     0.127 C 
HETATM   20  N   UNL     1     -42.992 -52.881  13.815  1.00  0.00    -0.352 N 
HETATM   21  C   UNL     1     -42.479 -51.620  14.348  1.00  0.00     0.127 C 
HETATM   22  C   UNL     1     -43.986 -53.499  14.579  1.00  0.00     0.215 C 
HETATM   23  C   UNL     1     -41.088 -51.275  13.844  1.00  0.00     0.045 C 
HETATM   24  O   UNL     1     -44.198 -53.191  15.754  1.00  0.00    -0.274 OA
HETATM   25  C   UNL     1     -44.815 -54.590  13.946  1.00  0.00     0.117 C 
ENDBRANCH   3  17
TORSDOF 5
ENDMDL
MODEL 2
REMARK VINA RESULT:      -6.2      2.834      6.910
REMARK  5 active torsions:
REMARK  status: ('A' for Active; 'I' for Inactive)
REMARK    1  A    between atoms: O_2  and  C_3 
REMARK    2  A    between atoms: C_3  and  C_4 
REMARK    3  A    between atoms: C_4  and  N_5 
REMARK    4  A    between atoms: C_8  and  C_13 
REMARK       I    between atoms: C_13  and  N_15 
REMARK    5  A    between atoms: N_15  and  C_16 
REMARK       I    between atoms: N_19  and  C_22 
ROOT
HETATM    1  C   UNL     1     -41.326 -51.579  12.132  1.00  0.00     0.269 C 
HETATM    2  O   UNL     1     -40.168 -51.955  12.021  1.00  0.00    -0.266 OA
HETATM    3  N   UNL     1     -41.788 -50.331  11.752  1.00  0.00    -0.351 N 
HETATM    4  H   UNL     1     -42.744 -50.095  12.003  1.00  0.00     0.163 HD
ENDROOT
BRANCH   1   5
HETATM    5  C   UNL     1     -42.380 -52.541  12.694  1.00  0.00     0.116 A 
HETATM    6  N   UNL     1     -43.644 -52.302  12.508  1.00  0.00    -0.290 N 
HETATM    7  N   UNL     1     -44.540 -53.202  13.081  1.00  0.00    -0.255 N 
ATOM      8  HN  UNL     1     -43.964 -51.496  11.970  1.00  0.00     0.187 HD
HETATM    9  C   UNL     1     -44.161 -54.295  13.858  1.00  0.00     0.262 A 
HETATM   10  C   UNL     1     -42.711 -54.523  14.001  1.00  0.00     0.078 A 
HETATM   11  O   UNL     1     -44.936 -55.076  14.402  1.00  0.00    -0.267 OA
HETATM   12  C   UNL     1     -41.834 -53.700  13.432  1.00  0.00     0.042 A 
BRANCH   7  13
HETATM   13  C   UNL     1     -45.957 -53.016  12.779  1.00  0.00     0.178 C 
BRANCH  13  14
HETATM   14  C   UNL     1     -46.475 -51.602  13.060  1.00  0.00     0.189 C 
BRANCH  14  15
HETATM   15  O   UNL     1     -45.954 -51.158  14.318  1.00  0.00    -0.394 OA
HETATM   16  C   UNL     1     -46.844 -51.457  15.387  1.00  0.00     0.201 C 
ENDBRANCH  14  15
ENDBRANCH  13  14
ENDBRANCH   7  13
ENDBRANCH   1   5
BRANCH   3  17
HETATM   17  C   UNL     1     -40.886 -49.347  11.158  1.00  0.00     0.087 C 
HETATM   18  C   UNL     1     -39.901 -48.754  12.166  1.00  0.00     0.045 C 
HETATM   19  C   UNL     1     -40.522 -47.707  13.086  1.00  0.00     0.127 C 
HETATM   20  N   UNL     1     -41.372 -46.734  12.400  1.00  0.00    -0.352 N 
HETATM   21  C   UNL     1     -42.284 -47.251  11.383  1.00  0.00     0.127 C 
HETATM   22  C   UNL     1     -41.732 -45.508  12.967  1.00  0.00     0.215 C 
HETATM   23  C   UNL     1     -41.626 -48.231  10.427  1.00  0.00     0.045 C 
HETATM   24  O   UNL     1     -42.564 -44.763  12.446  1.00  0.00    -0.274 OA
HETATM   25  C   UNL     1     -41.064 -45.078  14.252  1.00  0.00     0.117 C 
ENDBRANCH   3  17
TORSDOF 5
ENDMDL
MODEL 3
REMARK VINA RESULT:      -5.9      3.824      7.154
REMARK  5 active torsions:
REMARK  status: ('A' for Active; 'I' for Inactive)
REMARK    1  A    between atoms: O_2  and  C_3 
REMARK    2  A    between atoms: C_3  and  C_4 
REMARK    3  A    between atoms: C_4  and  N_5 
REMARK    4  A    between atoms: C_8  and  C_13 
REMARK       I    between atoms: C_13  and  N_15 
REMARK    5  A    between atoms: N_15  and  C_16 
REMARK       I    between atoms: N_19  and  C_22 
ROOT
HETATM    1  C   UNL     1     -40.284 -52.932  13.423  1.00  0.00     0.269 C 
HETATM    2  O   UNL     1     -39.342 -53.712  13.415  1.00  0.00    -0.266 OA
HETATM    3  N   UNL     1     -40.185 -51.577  13.161  1.00  0.00    -0.351 N 
HETATM    4  H   UNL     1     -41.018 -51.014  13.314  1.00  0.00     0.163 HD
ENDROOT
BRANCH   1   5
HETATM    5  C   UNL     1     -41.696 -53.460  13.704  1.00  0.00     0.116 A 
HETATM    6  N   UNL     1     -42.724 -52.903  13.134  1.00  0.00    -0.290 N 
HETATM    7  N   UNL     1     -43.976 -53.416  13.469  1.00  0.00    -0.255 N 
ATOM      8  HN  UNL     1     -42.619 -52.131  12.476  1.00  0.00     0.187 HD
HETATM    9  C   UNL     1     -44.181 -54.441  14.390  1.00  0.00     0.262 A 
HETATM   10  C   UNL     1     -42.969 -55.046  14.973  1.00  0.00     0.078 A 
HETATM   11  O   UNL     1     -45.277 -54.879  14.725  1.00  0.00    -0.267 OA
HETATM   12  C   UNL     1     -41.760 -54.601  14.642  1.00  0.00     0.042 A 
BRANCH   7  13
HETATM   13  C   UNL     1     -45.129 -52.883  12.746  1.00  0.00     0.178 C 
BRANCH  13  14
HETATM   14  C   UNL     1     -45.483 -51.439  13.114  1.00  0.00     0.189 C 
BRANCH  14  15
HETATM   15  O   UNL     1     -46.796 -51.414  13.685  1.00  0.00    -0.394 OA
HETATM   16  C   UNL     1     -46.748 -51.435  15.107  1.00  0.00     0.201 C 
ENDBRANCH  14  15
ENDBRANCH  13  14
ENDBRANCH   7  13
ENDBRANCH   1   5
BRANCH   3  17
HETATM   17  C   UNL     1     -38.898 -50.969  12.832  1.00  0.00     0.087 C 
HETATM   18  C   UNL     1     -38.218 -50.321  14.038  1.00  0.00     0.045 C 
HETATM   19  C   UNL     1     -38.816 -48.972  14.428  1.00  0.00     0.127 C 
HETATM   20  N   UNL     1     -39.062 -48.077  13.298  1.00  0.00    -0.352 N 
HETATM   21  C   UNL     1     -39.653 -48.669  12.099  1.00  0.00     0.127 C 
HETATM   22  C   UNL     1     -39.251 -46.700  13.447  1.00  0.00     0.215 C 
HETATM   23  C   UNL     1     -38.992 -49.971  11.682  1.00  0.00     0.045 C 
HETATM   24  O   UNL     1     -39.604 -45.980  12.510  1.00  0.00    -0.274 OA
HETATM   25  C   UNL     1     -38.998 -46.075  14.798  1.00  0.00     0.117 C 
ENDBRANCH   3  17
TORSDOF 5
ENDMDL
MODEL 4
REMARK VINA RESULT:      -5.8      3.532      6.001
REMARK  5 active torsions:
REMARK  status: ('A' for Active; 'I' for Inactive)
REMARK    1  A    between atoms: O_2  and  C_3 
REMARK    2  A    between atoms: C_3  and  C_4 
REMARK    3  A    between atoms: C_4  and  N_5 
REMARK    4  A    between atoms: C_8  and  C_13 
REMARK       I    between atoms: C_13  and  N_15 
REMARK    5  A    between atoms: N_15  and  C_16 
REMARK       I    between atoms: N_19  and  C_22 
ROOT
HETATM    1  C   UNL     1     -43.900 -52.923  12.826  1.00  0.00     0.269 C 
HETATM    2  O   UNL     1     -44.314 -53.744  12.020  1.00  0.00    -0.266 OA
HETATM    3  N   UNL     1     -44.650 -52.384  13.857  1.00  0.00    -0.351 N 
HETATM    4  H   UNL     1     -44.231 -51.624  14.386  1.00  0.00     0.163 HD
ENDROOT
BRANCH   1   5
HETATM    5  C   UNL     1     -42.441 -52.457  12.744  1.00  0.00     0.116 A 
HETATM    6  N   UNL     1     -42.119 -51.458  11.977  1.00  0.00    -0.290 N 
HETATM    7  N   UNL     1     -40.768 -51.119  11.929  1.00  0.00    -0.255 N 
ATOM      8  HN  UNL     1     -42.820 -50.948  11.438  1.00  0.00     0.187 HD
HETATM    9  C   UNL     1     -39.765 -51.804  12.611  1.00  0.00     0.262 A 
HETATM   10  C   UNL     1     -40.207 -52.905  13.487  1.00  0.00     0.078 A 
HETATM   11  O   UNL     1     -38.567 -51.544  12.551  1.00  0.00    -0.267 OA
HETATM   12  C   UNL     1     -41.494 -53.226  13.580  1.00  0.00     0.042 A 
BRANCH   7  13
HETATM   13  C   UNL     1     -40.408 -49.925  11.168  1.00  0.00     0.178 C 
BRANCH  13  14
HETATM   14  C   UNL     1     -41.312 -48.718  11.435  1.00  0.00     0.189 C 
BRANCH  14  15
HETATM   15  O   UNL     1     -41.498 -48.581  12.849  1.00  0.00    -0.394 OA
HETATM   16  C   UNL     1     -42.800 -48.099  13.161  1.00  0.00     0.201 C 
ENDBRANCH  14  15
ENDBRANCH  13  14
ENDBRANCH   7  13
ENDBRANCH   1   5
BRANCH   3  17
HETATM   17  C   UNL     1     -46.038 -52.789  14.065  1.00  0.00     0.087 C 
HETATM   18  C   UNL     1     -46.924 -51.650  14.569  1.00  0.00     0.045 C 
HETATM   19  C   UNL     1     -46.737 -51.339  16.052  1.00  0.00     0.127 C 
HETATM   20  N   UNL     1     -46.695 -52.522  16.911  1.00  0.00    -0.352 N 
HETATM   21  C   UNL     1     -45.911 -53.660  16.436  1.00  0.00     0.127 C 
HETATM   22  C   UNL     1     -46.898 -52.465  18.293  1.00  0.00     0.215 C 
HETATM   23  C   UNL     1     -46.170 -54.003  14.979  1.00  0.00     0.045 C 
HETATM   24  O   UNL     1     -46.714 -53.439  19.025  1.00  0.00    -0.274 OA
HETATM   25  C   UNL     1     -47.373 -51.168  18.903  1.00  0.00     0.117 C 
ENDBRANCH   3  17
TORSDOF 5
ENDMDL
MODEL 5
REMARK VINA RESULT:      -5.6      4.563      7.826
REMARK  5 active torsions:
REMARK  status: ('A' for Active; 'I' for Inactive)
REMARK    1  A    between atoms: O_2  and  C_3 
REMARK    2  A    between atoms: C_3  and  C_4 
REMARK    3  A    between atoms: C_4  and  N_5 
REMARK    4  A    between atoms: C_8  and  C_13 
REMARK       I    between atoms: C_13  and  N_15 
REMARK    5  A    between atoms: N_15  and  C_16 
REMARK       I    between atoms: N_19  and  C_22 
ROOT
HETATM    1  C   UNL     1     -43.981 -53.456  13.433  1.00  0.00     0.269 C 
HETATM    2  O   UNL     1     -44.323 -54.104  12.455  1.00  0.00    -0.266 OA
HETATM    3  N   UNL     1     -42.675 -53.107  13.729  1.00  0.00    -0.351 N 
HETATM    4  H   UNL     1     -42.506 -52.669  14.631  1.00  0.00     0.163 HD
ENDROOT
BRANCH   1   5
HETATM    5  C   UNL     1     -45.049 -52.944  14.408  1.00  0.00     0.116 A 
HETATM    6  N   UNL     1     -45.155 -53.470  15.592  1.00  0.00    -0.290 N 
HETATM    7  N   UNL     1     -46.173 -52.976  16.405  1.00  0.00    -0.255 N 
ATOM      8  HN  UNL     1     -44.525 -54.207  15.910  1.00  0.00     0.187 HD
HETATM    9  C   UNL     1     -47.087 -52.001  16.010  1.00  0.00     0.262 A 
HETATM   10  C   UNL     1     -46.887 -51.427  14.666  1.00  0.00     0.078 A 
HETATM   11  O   UNL     1     -48.012 -51.581  16.697  1.00  0.00    -0.267 OA
HETATM   12  C   UNL     1     -45.900 -51.853  13.884  1.00  0.00     0.042 A 
BRANCH   7  13
HETATM   13  C   UNL     1     -46.228 -53.471  17.779  1.00  0.00     0.178 C 
BRANCH  13  14
HETATM   14  C   UNL     1     -45.295 -52.735  18.745  1.00  0.00     0.189 C 
BRANCH  14  15
HETATM   15  O   UNL     1     -43.942 -52.913  18.311  1.00  0.00    -0.394 OA
HETATM   16  C   UNL     1     -43.412 -54.158  18.749  1.00  0.00     0.201 C 
ENDBRANCH  14  15
ENDBRANCH  13  14
ENDBRANCH   7  13
ENDBRANCH   1   5
BRANCH   3  17
HETATM   17  C   UNL     1     -41.577 -53.496  12.848  1.00  0.00     0.087 C 
HETATM   18  C   UNL     1     -40.274 -53.768  13.600  1.00  0.00     0.045 C 
HETATM   19  C   UNL     1     -39.544 -52.502  14.038  1.00  0.00     0.127 C 
HETATM   20  N   UNL     1     -39.462 -51.469  13.005  1.00  0.00    -0.352 N 
HETATM   21  C   UNL     1     -40.668 -51.221  12.218  1.00  0.00     0.127 C 
HETATM   22  C   UNL     1     -38.548 -50.413  13.059  1.00  0.00     0.215 C 
HETATM   23  C   UNL     1     -41.336 -52.493  11.725  1.00  0.00     0.045 C 
HETATM   24  O   UNL     1     -38.586 -49.471  12.265  1.00  0.00    -0.274 OA
HETATM   25  C   UNL     1     -37.470 -50.439  14.116  1.00  0.00     0.117 C 
ENDBRANCH   3  17
TORSDOF 5
ENDMDL
MODEL 6
REMARK VINA RESULT:      -5.5      3.201      4.984
REMARK  5 active torsions:
REMARK  status: ('A' for Active; 'I' for Inactive)
REMARK    1  A    between atoms: O_2  and  C_3 
REMARK    2  A    between atoms: C_3  and  C_4 
REMARK    3  A    between atoms: C_4  and  N_5 
REMARK    4  A    between atoms: C_8  and  C_13 
REMARK       I    between atoms: C_13  and  N_15 
REMARK    5  A    between atoms: N_15  and  C_16 
REMARK       I    between atoms: N_19  and  C_22 
ROOT
HETATM    1  C   UNL     1     -40.372 -52.356  13.153  1.00  0.00     0.269 C 
HETATM    2  O   UNL     1     -39.772 -53.386  12.881  1.00  0.00    -0.266 OA
HETATM    3  N   UNL     1     -41.748 -52.248  13.247  1.00  0.00    -0.351 N 
HETATM    4  H   UNL     1     -42.132 -51.314  13.362  1.00  0.00     0.163 HD
ENDROOT
BRANCH   1   5
HETATM    5  C   UNL     1     -39.577 -51.079  13.454  1.00  0.00     0.116 A 
HETATM    6  N   UNL     1     -40.130 -49.914  13.286  1.00  0.00    -0.290 N 
HETATM    7  N   UNL     1     -39.331 -48.801  13.544  1.00  0.00    -0.255 N 
ATOM      8  HN  UNL     1     -41.099 -49.819  12.980  1.00  0.00     0.187 HD
HETATM    9  C   UNL     1     -37.992 -48.871  13.925  1.00  0.00     0.262 A 
HETATM   10  C   UNL     1     -37.441 -50.224  14.127  1.00  0.00     0.078 A 
HETATM   11  O   UNL     1     -37.264 -47.903  14.120  1.00  0.00    -0.267 OA
HETATM   12  C   UNL     1     -38.193 -51.302  13.923  1.00  0.00     0.042 A 
BRANCH   7  13
HETATM   13  C   UNL     1     -39.973 -47.490  13.478  1.00  0.00     0.178 C 
BRANCH  13  14
HETATM   14  C   UNL     1     -41.166 -47.427  12.520  1.00  0.00     0.189 C 
BRANCH  14  15
HETATM   15  O   UNL     1     -40.719 -47.759  11.200  1.00  0.00    -0.394 OA
HETATM   16  C   UNL     1     -41.804 -48.141  10.362  1.00  0.00     0.201 C 
ENDBRANCH  14  15
ENDBRANCH  13  14
ENDBRANCH   7  13
ENDBRANCH   1   5
BRANCH   3  17
HETATM   17  C   UNL     1     -42.607 -53.409  13.030  1.00  0.00     0.087 C 
HETATM   18  C   UNL     1     -43.985 -53.039  12.481  1.00  0.00     0.045 C 
HETATM   19  C   UNL     1     -44.931 -52.469  13.534  1.00  0.00     0.127 C 
HETATM   20  N   UNL     1     -44.943 -53.212  14.794  1.00  0.00    -0.352 N 
HETATM   21  C   UNL     1     -43.650 -53.641  15.323  1.00  0.00     0.127 C 
HETATM   22  C   UNL     1     -45.971 -53.096  15.734  1.00  0.00     0.215 C 
HETATM   23  C   UNL     1     -42.753 -54.278  14.275  1.00  0.00     0.045 C 
HETATM   24  O   UNL     1     -45.899 -53.609  16.852  1.00  0.00    -0.274 OA
HETATM   25  C   UNL     1     -47.216 -52.330  15.357  1.00  0.00     0.117 C 
ENDBRANCH   3  17
TORSDOF 5
ENDMDL
MODEL 7
REMARK VINA RESULT:      -5.5      2.192      3.053
REMARK  5 active torsions:
REMARK  status: ('A' for Active; 'I' for Inactive)
REMARK    1  A    between atoms: O_2  and  C_3 
REMARK    2  A    between atoms: C_3  and  C_4 
REMARK    3  A    between atoms: C_4  and  N_5 
REMARK    4  A    between atoms: C_8  and  C_13 
REMARK       I    between atoms: C_13  and  N_15 
REMARK    5  A    between atoms: N_15  and  C_16 
REMARK       I    between atoms: N_19  and  C_22 
ROOT
HETATM    1  C   UNL     1     -39.256 -49.691  12.242  1.00  0.00     0.269 C 
HETATM    2  O   UNL     1     -38.254 -50.149  11.711  1.00  0.00    -0.266 OA
HETATM    3  N   UNL     1     -40.253 -50.450  12.830  1.00  0.00    -0.351 N 
HETATM    4  H   UNL     1     -41.090 -49.960  13.131  1.00  0.00     0.163 HD
ENDROOT
BRANCH   1   5
HETATM    5  C   UNL     1     -39.441 -48.170  12.314  1.00  0.00     0.116 A 
HETATM    6  N   UNL     1     -39.955 -47.528  11.306  1.00  0.00    -0.290 N 
HETATM    7  N   UNL     1     -40.056 -46.145  11.434  1.00  0.00    -0.255 N 
ATOM      8  HN  UNL     1     -40.269 -48.014  10.465  1.00  0.00     0.187 HD
HETATM    9  C   UNL     1     -39.608 -45.426  12.541  1.00  0.00     0.262 A 
HETATM   10  C   UNL     1     -39.066 -46.221  13.659  1.00  0.00     0.078 A 
HETATM   11  O   UNL     1     -39.654 -44.206  12.655  1.00  0.00    -0.267 OA
HETATM   12  C   UNL     1     -38.992 -47.547  13.578  1.00  0.00     0.042 A 
BRANCH   7  13
HETATM   13  C   UNL     1     -40.742 -45.425  10.363  1.00  0.00     0.178 C 
BRANCH  13  14
HETATM   14  C   UNL     1     -42.250 -45.683  10.304  1.00  0.00     0.189 C 
BRANCH  14  15
HETATM   15  O   UNL     1     -42.474 -47.049   9.938  1.00  0.00    -0.394 OA
HETATM   16  C   UNL     1     -43.849 -47.399  10.039  1.00  0.00     0.201 C 
ENDBRANCH  14  15
ENDBRANCH  13  14
ENDBRANCH   7  13
ENDBRANCH   1   5
BRANCH   3  17
HETATM   17  C   UNL     1     -40.162 -51.907  12.866  1.00  0.00     0.087 C 
HETATM   18  C   UNL     1     -41.112 -52.590  11.881  1.00  0.00     0.045 C 
HETATM   19  C   UNL     1     -42.564 -52.616  12.350  1.00  0.00     0.127 C 
HETATM   20  N   UNL     1     -42.735 -53.003  13.750  1.00  0.00    -0.352 N 
HETATM   21  C   UNL     1     -41.806 -52.422  14.717  1.00  0.00     0.127 C 
HETATM   22  C   UNL     1     -43.956 -53.440  14.273  1.00  0.00     0.215 C 
HETATM   23  C   UNL     1     -40.357 -52.478  14.267  1.00  0.00     0.045 C 
HETATM   24  O   UNL     1     -44.126 -53.621  15.480  1.00  0.00    -0.274 OA
HETATM   25  C   UNL     1     -45.096 -53.714  13.322  1.00  0.00     0.117 C 
ENDBRANCH   3  17
TORSDOF 5
ENDMDL
MODEL 8
REMARK VINA RESULT:      -5.5      4.716      6.338
REMARK  5 active torsions:
REMARK  status: ('A' for Active; 'I' for Inactive)
REMARK    1  A    between atoms: O_2  and  C_3 
REMARK    2  A    between atoms: C_3  and  C_4 
REMARK    3  A    between atoms: C_4  and  N_5 
REMARK    4  A    between atoms: C_8  and  C_13 
REMARK       I    between atoms: C_13  and  N_15 
REMARK    5  A    between atoms: N_15  and  C_16 
REMARK       I    between atoms: N_19  and  C_22 
ROOT
HETATM    1  C   UNL     1     -38.810 -51.433  13.418  1.00  0.00     0.269 C 
HETATM    2  O   UNL     1     -37.866 -51.985  12.872  1.00  0.00    -0.266 OA
HETATM    3  N   UNL     1     -39.893 -52.092  13.974  1.00  0.00    -0.351 N 
HETATM    4  H   UNL     1     -40.669 -51.518  14.292  1.00  0.00     0.163 HD
ENDROOT
BRANCH   1   5
HETATM    5  C   UNL     1     -38.816 -49.905  13.548  1.00  0.00     0.116 A 
HETATM    6  N   UNL     1     -38.377 -49.343  14.636  1.00  0.00    -0.290 N 
HETATM    7  N   UNL     1     -38.450 -47.952  14.692  1.00  0.00    -0.255 N 
ATOM      8  HN  UNL     1     -37.999 -49.892  15.408  1.00  0.00     0.187 HD
HETATM    9  C   UNL     1     -38.992 -47.156  13.685  1.00  0.00     0.262 A 
HETATM   10  C   UNL     1     -39.441 -47.858  12.468  1.00  0.00     0.078 A 
HETATM   11  O   UNL     1     -39.099 -45.935  13.733  1.00  0.00    -0.267 OA
HETATM   12  C   UNL     1     -39.348 -49.182  12.374  1.00  0.00     0.042 A 
BRANCH   7  13
HETATM   13  C   UNL     1     -37.850 -47.300  15.854  1.00  0.00     0.178 C 
BRANCH  13  14
HETATM   14  C   UNL     1     -36.466 -47.838  16.226  1.00  0.00     0.189 C 
BRANCH  14  15
HETATM   15  O   UNL     1     -36.620 -49.096  16.894  1.00  0.00    -0.394 OA
HETATM   16  C   UNL     1     -35.491 -49.938  16.691  1.00  0.00     0.201 C 
ENDBRANCH  14  15
ENDBRANCH  13  14
ENDBRANCH   7  13
ENDBRANCH   1   5
BRANCH   3  17
HETATM   17  C   UNL     1     -39.974 -53.550  13.954  1.00  0.00     0.087 C 
HETATM   18  C   UNL     1     -40.859 -54.084  12.827  1.00  0.00     0.045 C 
HETATM   19  C   UNL     1     -42.353 -53.952  13.107  1.00  0.00     0.127 C 
HETATM   20  N   UNL     1     -42.749 -54.360  14.455  1.00  0.00    -0.352 N 
HETATM   21  C   UNL     1     -41.894 -53.924  15.557  1.00  0.00     0.127 C 
HETATM   22  C   UNL     1     -44.069 -54.665  14.799  1.00  0.00     0.215 C 
HETATM   23  C   UNL     1     -40.414 -54.136  15.291  1.00  0.00     0.045 C 
HETATM   24  O   UNL     1     -44.415 -54.862  15.965  1.00  0.00    -0.274 OA
HETATM   25  C   UNL     1     -45.099 -54.772  13.700  1.00  0.00     0.117 C 
ENDBRANCH   3  17
TORSDOF 5
ENDMDL
MODEL 9
REMARK VINA RESULT:      -5.4      2.892      7.718
REMARK  5 active torsions:
REMARK  status: ('A' for Active; 'I' for Inactive)
REMARK    1  A    between atoms: O_2  and  C_3 
REMARK    2  A    between atoms: C_3  and  C_4 
REMARK    3  A    between atoms: C_4  and  N_5 
REMARK    4  A    between atoms: C_8  and  C_13 
REMARK       I    between atoms: C_13  and  N_15 
REMARK    5  A    between atoms: N_15  and  C_16 
REMARK       I    between atoms: N_19  and  C_22 
ROOT
HETATM    1  C   UNL     1     -40.821 -49.169  12.159  1.00  0.00     0.269 C 
HETATM    2  O   UNL     1     -39.793 -49.518  11.598  1.00  0.00    -0.266 OA
HETATM    3  N   UNL     1     -41.158 -47.856  12.440  1.00  0.00    -0.351 N 
HETATM    4  H   UNL     1     -41.982 -47.703  13.016  1.00  0.00     0.163 HD
ENDROOT
BRANCH   1   5
HETATM    5  C   UNL     1     -41.853 -50.227  12.566  1.00  0.00     0.116 A 
HETATM    6  N   UNL     1     -41.566 -51.491  12.459  1.00  0.00    -0.290 N 
HETATM    7  N   UNL     1     -42.570 -52.391  12.814  1.00  0.00    -0.255 N 
ATOM      8  HN  UNL     1     -40.653 -51.808  12.133  1.00  0.00     0.187 HD
HETATM    9  C   UNL     1     -43.847 -52.016  13.227  1.00  0.00     0.262 A 
HETATM   10  C   UNL     1     -44.091 -50.567  13.356  1.00  0.00     0.078 A 
HETATM   11  O   UNL     1     -44.754 -52.793  13.507  1.00  0.00    -0.267 OA
HETATM   12  C   UNL     1     -43.139 -49.687  13.060  1.00  0.00     0.042 A 
BRANCH   7  13
HETATM   13  C   UNL     1     -42.222 -53.810  12.815  1.00  0.00     0.178 C 
BRANCH  13  14
HETATM   14  C   UNL     1     -41.189 -54.198  13.877  1.00  0.00     0.189 C 
BRANCH  14  15
HETATM   15  O   UNL     1     -39.877 -54.079  13.315  1.00  0.00    -0.394 OA
HETATM   16  C   UNL     1     -38.987 -53.410  14.201  1.00  0.00     0.201 C 
ENDBRANCH  14  15
ENDBRANCH  13  14
ENDBRANCH   7  13
ENDBRANCH   1   5
BRANCH   3  17
HETATM   17  C   UNL     1     -40.276 -46.757  12.056  1.00  0.00     0.087 C 
HETATM   18  C   UNL     1     -40.277 -45.609  13.066  1.00  0.00     0.045 C 
HETATM   19  C   UNL     1     -41.513 -44.717  12.977  1.00  0.00     0.127 C 
HETATM   20  N   UNL     1     -41.889 -44.347  11.613  1.00  0.00    -0.352 N 
HETATM   21  C   UNL     1     -41.840 -45.401  10.602  1.00  0.00     0.127 C 
HETATM   22  C   UNL     1     -42.735 -43.273  11.324  1.00  0.00     0.215 C 
HETATM   23  C   UNL     1     -40.566 -46.227  10.656  1.00  0.00     0.045 C 
HETATM   24  O   UNL     1     -43.162 -43.061  10.188  1.00  0.00    -0.274 OA
HETATM   25  C   UNL     1     -43.122 -42.333  12.441  1.00  0.00     0.117 C 
ENDBRANCH   3  17
TORSDOF 5
ENDMDL
