MODEL 1
REMARK VINA RESULT:      -6.1      0.000      0.000
REMARK  3 active torsions:
REMARK  status: ('A' for Active; 'I' for Inactive)
REMARK    1  A    between atoms: N_5  and  C_6 
REMARK    2  A    between atoms: C_6  and  C_7 
REMARK    3  A    between atoms: C_7  and  O_8 
ROOT
HETATM    1  C   UNL     1     -45.891 -52.600  12.431  1.00  0.00     0.070 C 
HETATM    2  C   UNL     1     -44.509 -53.098  12.803  1.00  0.00     0.029 A 
HETATM    3  N   UNL     1     -43.509 -52.625  12.127  1.00  0.00    -0.300 N 
ATOM      4  HN  UNL     1     -43.661 -51.981  11.350  1.00  0.00     0.187 HD
HETATM    5  N   UNL     1     -42.237 -53.012  12.484  1.00  0.00    -0.253 N 
HETATM    6  C   UNL     1     -41.958 -53.871  13.532  1.00  0.00     0.283 A 
HETATM    7  O   UNL     1     -40.817 -54.164  13.883  1.00  0.00    -0.265 OA
HETATM    8  C   UNL     1     -43.132 -54.444  14.237  1.00  0.00     0.121 A 
HETATM    9  C   UNL     1     -42.863 -55.376  15.279  1.00  0.00     0.105 C 
HETATM   10  N   UNL     1     -42.712 -56.145  16.132  1.00  0.00    -0.191 NA
HETATM   11  C   UNL     1     -44.385 -54.088  13.911  1.00  0.00    -0.012 A 
HETATM   12  C   UNL     1     -45.644 -54.605  14.554  1.00  0.00     0.052 C 
ENDROOT
BRANCH   5  13
HETATM   13  C   UNL     1     -41.128 -52.332  11.802  1.00  0.00     0.190 C 
BRANCH  13  14
HETATM   14  C   UNL     1     -41.006 -50.820  12.127  1.00  0.00     0.076 C 
HETATM   15  C   UNL     1     -39.893 -50.048  11.384  1.00  0.00     0.040 C 
HETATM   16  C   UNL     1     -38.495 -50.087  12.009  1.00  0.00     0.003 C 
HETATM   17  C   UNL     1     -38.512 -49.896  13.520  1.00  0.00     0.000 C 
HETATM   18  C   UNL     1     -39.463 -50.890  14.167  1.00  0.00     0.003 C 
HETATM   19  C   UNL     1     -40.881 -50.651  13.655  1.00  0.00     0.040 C 
BRANCH  14  20
HETATM   20  O   UNL     1     -42.251 -50.201  11.743  1.00  0.00    -0.388 OA
HETATM   21  H   UNL     1     -42.810 -50.201  12.547  1.00  0.00     0.210 HD
ENDBRANCH  14  20
ENDBRANCH  13  14
ENDBRANCH   5  13
TORSDOF 3
ENDMDL
MODEL 2
REMARK VINA RESULT:      -5.9      2.685      3.735
REMARK  3 active torsions:
REMARK  status: ('A' for Active; 'I' for Inactive)
REMARK    1  A    between atoms: N_5  and  C_6 
REMARK    2  A    between atoms: C_6  and  C_7 
REMARK    3  A    between atoms: C_7  and  O_8 
ROOT
HETATM    1  C   UNL     1     -46.410 -52.265  12.242  1.00  0.00     0.070 C 
HETATM    2  C   UNL     1     -45.252 -51.865  13.135  1.00  0.00     0.029 A 
HETATM    3  N   UNL     1     -44.058 -51.997  12.648  1.00  0.00    -0.300 N 
ATOM      4  HN  UNL     1     -43.912 -52.397  11.720  1.00  0.00     0.187 HD
HETATM    5  N   UNL     1     -42.990 -51.584  13.413  1.00  0.00    -0.253 N 
HETATM    6  C   UNL     1     -43.115 -51.024  14.672  1.00  0.00     0.283 A 
HETATM    7  O   UNL     1     -42.162 -50.601  15.324  1.00  0.00    -0.265 OA
HETATM    8  C   UNL     1     -44.492 -50.952  15.222  1.00  0.00     0.121 A 
HETATM    9  C   UNL     1     -44.632 -50.433  16.540  1.00  0.00     0.105 C 
HETATM   10  N   UNL     1     -44.812 -50.027  17.610  1.00  0.00    -0.191 NA
HETATM   11  C   UNL     1     -45.553 -51.349  14.501  1.00  0.00    -0.012 A 
HETATM   12  C   UNL     1     -46.988 -51.324  14.957  1.00  0.00     0.052 C 
ENDROOT
BRANCH   5  13
HETATM   13  C   UNL     1     -41.673 -51.600  12.765  1.00  0.00     0.190 C 
BRANCH  13  14
HETATM   14  C   UNL     1     -40.982 -52.990  12.752  1.00  0.00     0.076 C 
HETATM   15  C   UNL     1     -41.842 -54.185  13.224  1.00  0.00     0.040 C 
HETATM   16  C   UNL     1     -41.885 -54.447  14.732  1.00  0.00     0.003 C 
HETATM   17  C   UNL     1     -40.519 -54.335  15.396  1.00  0.00     0.000 C 
HETATM   18  C   UNL     1     -39.876 -52.999  15.060  1.00  0.00     0.003 C 
HETATM   19  C   UNL     1     -39.666 -52.897  13.551  1.00  0.00     0.040 C 
BRANCH  14  20
HETATM   20  O   UNL     1     -40.618 -53.270  11.385  1.00  0.00    -0.388 OA
HETATM   21  H   UNL     1     -39.946 -52.600  11.144  1.00  0.00     0.210 HD
ENDBRANCH  14  20
ENDBRANCH  13  14
ENDBRANCH   5  13
TORSDOF 3
ENDMDL
MODEL 3
REMARK VINA RESULT:      -5.7      3.095      5.735
REMARK  3 active torsions:
REMARK  status: ('A' for Active; 'I' for Inactive)
REMARK    1  A    between atoms: N_5  and  C_6 
REMARK    2  A    between atoms: C_6  and  C_7 
REMARK    3  A    between atoms: C_7  and  O_8 
ROOT
HETATM    1  C   UNL     1     -41.978 -56.109  18.441  1.00  0.00     0.070 C 
HETATM    2  C   UNL     1     -42.034 -55.220  17.215  1.00  0.00     0.029 A 
HETATM    3  N   UNL     1     -43.129 -54.557  17.015  1.00  0.00    -0.300 N 
ATOM      4  HN  UNL     1     -43.930 -54.672  17.637  1.00  0.00     0.187 HD
HETATM    5  N   UNL     1     -43.186 -53.695  15.944  1.00  0.00    -0.253 N 
HETATM    6  C   UNL     1     -42.136 -53.483  15.069  1.00  0.00     0.283 A 
HETATM    7  O   UNL     1     -42.172 -52.666  14.150  1.00  0.00    -0.265 OA
HETATM    8  C   UNL     1     -40.924 -54.311  15.289  1.00  0.00     0.121 A 
HETATM    9  C   UNL     1     -39.856 -54.148  14.361  1.00  0.00     0.105 C 
HETATM   10  N   UNL     1     -38.955 -54.067  13.638  1.00  0.00    -0.191 NA
HETATM   11  C   UNL     1     -40.839 -55.162  16.324  1.00  0.00    -0.012 A 
HETATM   12  C   UNL     1     -39.664 -56.049  16.642  1.00  0.00     0.052 C 
ENDROOT
BRANCH   5  13
HETATM   13  C   UNL     1     -44.381 -52.846  15.846  1.00  0.00     0.190 C 
BRANCH  13  14
HETATM   14  C   UNL     1     -45.567 -53.495  15.085  1.00  0.00     0.076 C 
HETATM   15  C   UNL     1     -45.242 -54.103  13.702  1.00  0.00     0.040 C 
HETATM   16  C   UNL     1     -45.266 -53.146  12.508  1.00  0.00     0.003 C 
HETATM   17  C   UNL     1     -46.455 -52.195  12.529  1.00  0.00     0.000 C 
HETATM   18  C   UNL     1     -46.522 -51.462  13.859  1.00  0.00     0.003 C 
HETATM   19  C   UNL     1     -46.715 -52.469  14.990  1.00  0.00     0.040 C 
BRANCH  14  20
HETATM   20  O   UNL     1     -46.050 -54.583  15.900  1.00  0.00    -0.388 OA
HETATM   21  H   UNL     1     -46.744 -54.199  16.476  1.00  0.00     0.210 HD
ENDBRANCH  14  20
ENDBRANCH  13  14
ENDBRANCH   5  13
TORSDOF 3
ENDMDL
MODEL 4
REMARK VINA RESULT:      -5.7      4.681      7.525
REMARK  3 active torsions:
REMARK  status: ('A' for Active; 'I' for Inactive)
REMARK    1  A    between atoms: N_5  and  C_6 
REMARK    2  A    between atoms: C_6  and  C_7 
REMARK    3  A    between atoms: C_7  and  O_8 
ROOT
HETATM    1  C   UNL     1     -39.148 -44.517  13.072  1.00  0.00     0.070 C 
HETATM    2  C   UNL     1     -40.106 -45.449  12.356  1.00  0.00     0.029 A 
HETATM    3  N   UNL     1     -40.032 -46.709  12.648  1.00  0.00    -0.300 N 
ATOM      4  HN  UNL     1     -39.326 -47.056  13.298  1.00  0.00     0.187 HD
HETATM    5  N   UNL     1     -40.932 -47.570  12.059  1.00  0.00    -0.253 N 
HETATM    6  C   UNL     1     -41.920 -47.168  11.180  1.00  0.00     0.283 A 
HETATM    7  O   UNL     1     -42.759 -47.934  10.706  1.00  0.00    -0.265 OA
HETATM    8  C   UNL     1     -41.929 -45.729  10.818  1.00  0.00     0.121 A 
HETATM    9  C   UNL     1     -42.903 -45.310   9.868  1.00  0.00     0.105 C 
HETATM   10  N   UNL     1     -43.666 -44.907   9.096  1.00  0.00    -0.191 NA
HETATM   11  C   UNL     1     -41.063 -44.865  11.373  1.00  0.00    -0.012 A 
HETATM   12  C   UNL     1     -40.980 -43.390  11.080  1.00  0.00     0.052 C 
ENDROOT
BRANCH   5  13
HETATM   13  C   UNL     1     -40.920 -48.959  12.537  1.00  0.00     0.190 C 
BRANCH  13  14
HETATM   14  C   UNL     1     -39.974 -49.900  11.747  1.00  0.00     0.076 C 
HETATM   15  C   UNL     1     -39.861 -51.351  12.267  1.00  0.00     0.040 C 
HETATM   16  C   UNL     1     -38.845 -51.604  13.385  1.00  0.00     0.003 C 
HETATM   17  C   UNL     1     -37.516 -50.898  13.152  1.00  0.00     0.000 C 
HETATM   18  C   UNL     1     -37.741 -49.416  12.899  1.00  0.00     0.003 C 
HETATM   19  C   UNL     1     -38.586 -49.234  11.642  1.00  0.00     0.040 C 
BRANCH  14  20
HETATM   20  O   UNL     1     -40.491 -49.993  10.403  1.00  0.00    -0.388 OA
HETATM   21  H   UNL     1     -41.185 -50.684  10.430  1.00  0.00     0.210 HD
ENDBRANCH  14  20
ENDBRANCH  13  14
ENDBRANCH   5  13
TORSDOF 3
ENDMDL
MODEL 5
REMARK VINA RESULT:      -5.7      2.838      4.846
REMARK  3 active torsions:
REMARK  status: ('A' for Active; 'I' for Inactive)
REMARK    1  A    between atoms: N_5  and  C_6 
REMARK    2  A    between atoms: C_6  and  C_7 
REMARK    3  A    between atoms: C_7  and  O_8 
ROOT
HETATM    1  C   UNL     1     -39.252 -54.004  13.997  1.00  0.00     0.070 C 
HETATM    2  C   UNL     1     -40.674 -54.203  14.482  1.00  0.00     0.029 A 
HETATM    3  N   UNL     1     -41.622 -53.700  13.756  1.00  0.00    -0.300 N 
ATOM      4  HN  UNL     1     -41.408 -53.155  12.920  1.00  0.00     0.187 HD
HETATM    5  N   UNL     1     -42.926 -53.920  14.139  1.00  0.00    -0.253 N 
HETATM    6  C   UNL     1     -43.289 -54.657  15.252  1.00  0.00     0.283 A 
HETATM    7  O   UNL     1     -44.456 -54.900  15.554  1.00  0.00    -0.265 OA
HETATM    8  C   UNL     1     -42.175 -55.158  16.096  1.00  0.00     0.121 A 
HETATM    9  C   UNL     1     -42.532 -55.868  17.277  1.00  0.00     0.105 C 
HETATM   10  N   UNL     1     -42.756 -56.447  18.255  1.00  0.00    -0.191 NA
HETATM   11  C   UNL     1     -40.893 -54.959  15.749  1.00  0.00    -0.012 A 
HETATM   12  C   UNL     1     -39.688 -55.418  16.527  1.00  0.00     0.052 C 
ENDROOT
BRANCH   5  13
HETATM   13  C   UNL     1     -43.969 -53.473  13.207  1.00  0.00     0.190 C 
BRANCH  13  14
HETATM   14  C   UNL     1     -44.336 -51.970  13.328  1.00  0.00     0.076 C 
HETATM   15  C   UNL     1     -44.178 -51.339  14.730  1.00  0.00     0.040 C 
HETATM   16  C   UNL     1     -45.360 -51.495  15.691  1.00  0.00     0.003 C 
HETATM   17  C   UNL     1     -46.707 -51.252  15.024  1.00  0.00     0.000 C 
HETATM   18  C   UNL     1     -46.849 -52.123  13.787  1.00  0.00     0.003 C 
HETATM   19  C   UNL     1     -45.762 -51.762  12.778  1.00  0.00     0.040 C 
BRANCH  14  20
HETATM   20  O   UNL     1     -43.445 -51.244  12.456  1.00  0.00    -0.388 OA
HETATM   21  H   UNL     1     -44.020 -50.766  11.823  1.00  0.00     0.210 HD
ENDBRANCH  14  20
ENDBRANCH  13  14
ENDBRANCH   5  13
TORSDOF 3
ENDMDL
MODEL 6
REMARK VINA RESULT:      -5.6      2.059      5.808
REMARK  3 active torsions:
REMARK  status: ('A' for Active; 'I' for Inactive)
REMARK    1  A    between atoms: N_5  and  C_6 
REMARK    2  A    between atoms: C_6  and  C_7 
REMARK    3  A    between atoms: C_7  and  O_8 
ROOT
HETATM    1  C   UNL     1     -42.632 -48.037  11.717  1.00  0.00     0.070 C 
HETATM    2  C   UNL     1     -41.973 -49.373  12.000  1.00  0.00     0.029 A 
HETATM    3  N   UNL     1     -42.755 -50.380  12.229  1.00  0.00    -0.300 N 
ATOM      4  HN  UNL     1     -43.768 -50.260  12.261  1.00  0.00     0.187 HD
HETATM    5  N   UNL     1     -42.185 -51.618  12.427  1.00  0.00    -0.253 N 
HETATM    6  C   UNL     1     -40.823 -51.855  12.386  1.00  0.00     0.283 A 
HETATM    7  O   UNL     1     -40.325 -52.973  12.503  1.00  0.00    -0.265 OA
HETATM    8  C   UNL     1     -39.958 -50.665  12.190  1.00  0.00     0.121 A 
HETATM    9  C   UNL     1     -38.551 -50.883  12.206  1.00  0.00     0.105 C 
HETATM   10  N   UNL     1     -37.398 -50.992  12.214  1.00  0.00    -0.191 NA
HETATM   11  C   UNL     1     -40.483 -49.444  11.996  1.00  0.00    -0.012 A 
HETATM   12  C   UNL     1     -39.705 -48.172  11.791  1.00  0.00     0.052 C 
ENDROOT
BRANCH   5  13
HETATM   13  C   UNL     1     -43.106 -52.758  12.522  1.00  0.00     0.190 C 
BRANCH  13  14
HETATM   14  C   UNL     1     -43.548 -53.106  13.968  1.00  0.00     0.076 C 
HETATM   15  C   UNL     1     -43.964 -54.573  14.221  1.00  0.00     0.040 C 
HETATM   16  C   UNL     1     -45.417 -54.939  13.907  1.00  0.00     0.003 C 
HETATM   17  C   UNL     1     -46.414 -53.894  14.393  1.00  0.00     0.000 C 
HETATM   18  C   UNL     1     -46.037 -52.519  13.866  1.00  0.00     0.003 C 
HETATM   19  C   UNL     1     -44.660 -52.127  14.396  1.00  0.00     0.040 C 
BRANCH  14  20
HETATM   20  O   UNL     1     -42.419 -52.853  14.829  1.00  0.00    -0.388 OA
HETATM   21  H   UNL     1     -42.788 -52.745  15.730  1.00  0.00     0.210 HD
ENDBRANCH  14  20
ENDBRANCH  13  14
ENDBRANCH   5  13
TORSDOF 3
ENDMDL
MODEL 7
REMARK VINA RESULT:      -5.6      2.265      5.086
REMARK  3 active torsions:
REMARK  status: ('A' for Active; 'I' for Inactive)
REMARK    1  A    between atoms: N_5  and  C_6 
REMARK    2  A    between atoms: C_6  and  C_7 
REMARK    3  A    between atoms: C_7  and  O_8 
ROOT
HETATM    1  C   UNL     1     -42.302 -55.678  16.229  1.00  0.00     0.070 C 
HETATM    2  C   UNL     1     -42.152 -54.662  15.114  1.00  0.00     0.029 A 
HETATM    3  N   UNL     1     -43.225 -54.334  14.465  1.00  0.00    -0.300 N 
ATOM      4  HN  UNL     1     -44.119 -54.782  14.672  1.00  0.00     0.187 HD
HETATM    5  N   UNL     1     -43.129 -53.367  13.489  1.00  0.00    -0.253 N 
HETATM    6  C   UNL     1     -41.955 -52.713  13.165  1.00  0.00     0.283 A 
HETATM    7  O   UNL     1     -41.889 -51.808  12.336  1.00  0.00    -0.265 OA
HETATM    8  C   UNL     1     -40.736 -53.164  13.883  1.00  0.00     0.121 A 
HETATM    9  C   UNL     1     -39.508 -52.542  13.518  1.00  0.00     0.105 C 
HETATM   10  N   UNL     1     -38.477 -52.080  13.264  1.00  0.00    -0.191 NA
HETATM   11  C   UNL     1     -40.796 -54.106  14.838  1.00  0.00    -0.012 A 
HETATM   12  C   UNL     1     -39.629 -54.639  15.626  1.00  0.00     0.052 C 
ENDROOT
BRANCH   5  13
HETATM   13  C   UNL     1     -44.390 -52.911  12.891  1.00  0.00     0.190 C 
BRANCH  13  14
HETATM   14  C   UNL     1     -44.911 -51.559  13.445  1.00  0.00     0.076 C 
HETATM   15  C   UNL     1     -44.361 -51.128  14.824  1.00  0.00     0.040 C 
HETATM   16  C   UNL     1     -45.086 -51.678  16.055  1.00  0.00     0.003 C 
HETATM   17  C   UNL     1     -46.602 -51.633  15.925  1.00  0.00     0.000 C 
HETATM   18  C   UNL     1     -47.043 -52.317  14.641  1.00  0.00     0.003 C 
HETATM   19  C   UNL     1     -46.453 -51.582  13.440  1.00  0.00     0.040 C 
BRANCH  14  20
HETATM   20  O   UNL     1     -44.508 -50.535  12.513  1.00  0.00    -0.388 OA
HETATM   21  H   UNL     1     -45.126 -49.787  12.653  1.00  0.00     0.210 HD
ENDBRANCH  14  20
ENDBRANCH  13  14
ENDBRANCH   5  13
TORSDOF 3
ENDMDL
MODEL 8
REMARK VINA RESULT:      -5.6      1.862      6.323
REMARK  3 active torsions:
REMARK  status: ('A' for Active; 'I' for Inactive)
REMARK    1  A    between atoms: N_5  and  C_6 
REMARK    2  A    between atoms: C_6  and  C_7 
REMARK    3  A    between atoms: C_7  and  O_8 
ROOT
HETATM    1  C   UNL     1     -37.632 -51.339  13.285  1.00  0.00     0.070 C 
HETATM    2  C   UNL     1     -39.092 -51.050  12.995  1.00  0.00     0.029 A 
HETATM    3  N   UNL     1     -39.969 -51.836  13.536  1.00  0.00    -0.300 N 
ATOM      4  HN  UNL     1     -39.677 -52.639  14.093  1.00  0.00     0.187 HD
HETATM    5  N   UNL     1     -41.303 -51.559  13.341  1.00  0.00    -0.253 N 
HETATM    6  C   UNL     1     -41.768 -50.482  12.608  1.00  0.00     0.283 A 
HETATM    7  O   UNL     1     -42.961 -50.206  12.488  1.00  0.00    -0.265 OA
HETATM    8  C   UNL     1     -40.735 -49.646  11.947  1.00  0.00     0.121 A 
HETATM    9  C   UNL     1     -41.198 -48.569  11.140  1.00  0.00     0.105 C 
HETATM   10  N   UNL     1     -41.511 -47.681  10.465  1.00  0.00    -0.191 NA
HETATM   11  C   UNL     1     -39.425 -49.891  12.117  1.00  0.00    -0.012 A 
HETATM   12  C   UNL     1     -38.295 -49.113  11.497  1.00  0.00     0.052 C 
ENDROOT
BRANCH   5  13
HETATM   13  C   UNL     1     -42.261 -52.374  14.100  1.00  0.00     0.190 C 
BRANCH  13  14
HETATM   14  C   UNL     1     -42.690 -53.685  13.390  1.00  0.00     0.076 C 
HETATM   15  C   UNL     1     -43.898 -53.580  12.432  1.00  0.00     0.040 C 
HETATM   16  C   UNL     1     -45.288 -53.707  13.062  1.00  0.00     0.003 C 
HETATM   17  C   UNL     1     -45.377 -54.828  14.089  1.00  0.00     0.000 C 
HETATM   18  C   UNL     1     -44.281 -54.677  15.131  1.00  0.00     0.003 C 
HETATM   19  C   UNL     1     -42.915 -54.776  14.457  1.00  0.00     0.040 C 
BRANCH  14  20
HETATM   20  O   UNL     1     -41.574 -54.117  12.584  1.00  0.00    -0.388 OA
HETATM   21  H   UNL     1     -40.820 -54.215  13.202  1.00  0.00     0.210 HD
ENDBRANCH  14  20
ENDBRANCH  13  14
ENDBRANCH   5  13
TORSDOF 3
ENDMDL
MODEL 9
REMARK VINA RESULT:      -5.6      1.449      3.200
REMARK  3 active torsions:
REMARK  status: ('A' for Active; 'I' for Inactive)
REMARK    1  A    between atoms: N_5  and  C_6 
REMARK    2  A    between atoms: C_6  and  C_7 
REMARK    3  A    between atoms: C_7  and  O_8 
ROOT
HETATM    1  C   UNL     1     -42.645 -55.562  15.407  1.00  0.00     0.070 C 
HETATM    2  C   UNL     1     -42.901 -54.243  14.705  1.00  0.00     0.029 A 
HETATM    3  N   UNL     1     -41.983 -53.334  14.803  1.00  0.00    -0.300 N 
ATOM      4  HN  UNL     1     -41.149 -53.492  15.369  1.00  0.00     0.187 HD
HETATM    5  N   UNL     1     -42.161 -52.149  14.124  1.00  0.00    -0.253 N 
HETATM    6  C   UNL     1     -43.260 -51.873  13.332  1.00  0.00     0.283 A 
HETATM    7  O   UNL     1     -43.384 -50.837  12.680  1.00  0.00    -0.265 OA
HETATM    8  C   UNL     1     -44.321 -52.910  13.300  1.00  0.00     0.121 A 
HETATM    9  C   UNL     1     -45.486 -52.616  12.536  1.00  0.00     0.105 C 
HETATM   10  N   UNL     1     -46.461 -52.435  11.938  1.00  0.00    -0.191 NA
HETATM   11  C   UNL     1     -44.178 -54.075  13.952  1.00  0.00    -0.012 A 
HETATM   12  C   UNL     1     -45.185 -55.194  13.991  1.00  0.00     0.052 C 
ENDROOT
BRANCH   5  13
HETATM   13  C   UNL     1     -41.030 -51.212  14.130  1.00  0.00     0.190 C 
BRANCH  13  14
HETATM   14  C   UNL     1     -39.896 -51.571  13.134  1.00  0.00     0.076 C 
HETATM   15  C   UNL     1     -38.465 -51.616  13.714  1.00  0.00     0.040 C 
HETATM   16  C   UNL     1     -37.708 -50.287  13.780  1.00  0.00     0.003 C 
HETATM   17  C   UNL     1     -37.864 -49.448  12.519  1.00  0.00     0.000 C 
HETATM   18  C   UNL     1     -39.336 -49.260  12.189  1.00  0.00     0.003 C 
HETATM   19  C   UNL     1     -39.980 -50.618  11.924  1.00  0.00     0.040 C 
BRANCH  14  20
HETATM   20  O   UNL     1     -40.171 -52.897  12.637  1.00  0.00    -0.388 OA
HETATM   21  H   UNL     1     -39.382 -53.434  12.855  1.00  0.00     0.210 HD
ENDBRANCH  14  20
ENDBRANCH  13  14
ENDBRANCH   5  13
TORSDOF 3
ENDMDL
