MODEL 1
REMARK VINA RESULT:      -6.2      0.000      0.000
REMARK  7 active torsions:
REMARK  status: ('A' for Active; 'I' for Inactive)
REMARK    1  A    between atoms: O_2  and  C_3 
REMARK    2  A    between atoms: C_3  and  C_4 
REMARK    3  A    between atoms: C_4  and  N_5 
REMARK    4  A    between atoms: C_8  and  C_13 
REMARK       I    between atoms: C_13  and  N_15 
REMARK    5  A    between atoms: N_15  and  C_16 
REMARK    6  A    between atoms: C_16  and  C_17 
REMARK    7  A    between atoms: C_17  and  N_19 
ROOT
HETATM    1  C   UNL     1     -41.284 -50.254  11.740  1.00  0.00     0.269 C 
HETATM    2  O   UNL     1     -40.217 -50.848  11.693  1.00  0.00    -0.266 OA
HETATM    3  N   UNL     1     -42.471 -50.810  12.160  1.00  0.00    -0.354 N 
HETATM    4  H   UNL     1     -43.290 -50.209  12.177  1.00  0.00     0.162 HD
ENDROOT
BRANCH   1   5
HETATM    5  C   UNL     1     -41.381 -48.794  11.275  1.00  0.00     0.116 A 
HETATM    6  N   UNL     1     -42.312 -48.463  10.428  1.00  0.00    -0.290 N 
HETATM    7  N   UNL     1     -42.334 -47.135  10.013  1.00  0.00    -0.255 N 
ATOM      8  HN  UNL     1     -42.992 -49.143  10.085  1.00  0.00     0.187 HD
HETATM    9  C   UNL     1     -41.364 -46.195  10.356  1.00  0.00     0.262 A 
HETATM   10  C   UNL     1     -40.367 -46.631  11.355  1.00  0.00     0.078 A 
HETATM   11  O   UNL     1     -41.278 -45.056   9.903  1.00  0.00    -0.267 OA
HETATM   12  C   UNL     1     -40.368 -47.878  11.826  1.00  0.00     0.042 A 
BRANCH   7  13
HETATM   13  C   UNL     1     -43.413 -46.743   9.107  1.00  0.00     0.178 C 
BRANCH  13  14
HETATM   14  C   UNL     1     -43.703 -47.793   8.034  1.00  0.00     0.189 C 
BRANCH  14  15
HETATM   15  O   UNL     1     -45.091 -48.139   8.038  1.00  0.00    -0.394 OA
HETATM   16  C   UNL     1     -45.750 -47.649   9.197  1.00  0.00     0.201 C 
ENDBRANCH  14  15
ENDBRANCH  13  14
ENDBRANCH   7  13
ENDBRANCH   1   5
BRANCH   3  17
HETATM   17  C   UNL     1     -42.581 -52.227  12.474  1.00  0.00     0.158 C 
BRANCH  17  18
HETATM   18  C   UNL     1     -43.214 -52.520  13.870  1.00  0.00     0.236 C 
HETATM   19  C   UNL     1     -42.610 -51.499  14.860  1.00  0.00     0.044 C 
BRANCH  18  20
HETATM   20  N   UNL     1     -44.703 -52.421  13.863  1.00  0.00     0.098 N 
HETATM   21  C   UNL     1     -45.310 -52.482  15.220  1.00  0.00     0.299 C 
HETATM   22  C   UNL     1     -45.241 -53.878  15.860  1.00  0.00     0.198 C 
HETATM   23  O   UNL     1     -45.935 -54.837  15.055  1.00  0.00    -0.388 OA
HETATM   24  C   UNL     1     -45.392 -54.877  13.729  1.00  0.00     0.198 C 
HETATM   25  C   UNL     1     -45.380 -53.484  13.070  1.00  0.00     0.299 C 
ENDBRANCH  18  20
ENDBRANCH  17  18
ENDBRANCH   3  17
TORSDOF 7
ENDMDL
MODEL 2
REMARK VINA RESULT:      -6.1      1.753      2.236
REMARK  7 active torsions:
REMARK  status: ('A' for Active; 'I' for Inactive)
REMARK    1  A    between atoms: O_2  and  C_3 
REMARK    2  A    between atoms: C_3  and  C_4 
REMARK    3  A    between atoms: C_4  and  N_5 
REMARK    4  A    between atoms: C_8  and  C_13 
REMARK       I    between atoms: C_13  and  N_15 
REMARK    5  A    between atoms: N_15  and  C_16 
REMARK    6  A    between atoms: C_16  and  C_17 
REMARK    7  A    between atoms: C_17  and  N_19 
ROOT
HETATM    1  C   UNL     1     -42.436 -48.822  12.643  1.00  0.00     0.269 C 
HETATM    2  O   UNL     1     -41.315 -48.806  13.133  1.00  0.00    -0.266 OA
HETATM    3  N   UNL     1     -43.388 -49.782  12.900  1.00  0.00    -0.354 N 
HETATM    4  H   UNL     1     -44.293 -49.676  12.451  1.00  0.00     0.162 HD
ENDROOT
BRANCH   1   5
HETATM    5  C   UNL     1     -42.858 -47.743  11.635  1.00  0.00     0.116 A 
HETATM    6  N   UNL     1     -43.687 -48.061  10.683  1.00  0.00    -0.290 N 
HETATM    7  N   UNL     1     -44.009 -47.055   9.777  1.00  0.00    -0.255 N 
ATOM      8  HN  UNL     1     -44.080 -48.999  10.605  1.00  0.00     0.187 HD
HETATM    9  C   UNL     1     -43.415 -45.795   9.767  1.00  0.00     0.262 A 
HETATM   10  C   UNL     1     -42.519 -45.493  10.902  1.00  0.00     0.078 A 
HETATM   11  O   UNL     1     -43.575 -44.934   8.905  1.00  0.00    -0.267 OA
HETATM   12  C   UNL     1     -42.250 -46.415  11.827  1.00  0.00     0.042 A 
BRANCH   7  13
HETATM   13  C   UNL     1     -44.985 -47.388   8.740  1.00  0.00     0.178 C 
BRANCH  13  14
HETATM   14  C   UNL     1     -46.406 -46.944   9.092  1.00  0.00     0.189 C 
BRANCH  14  15
HETATM   15  O   UNL     1     -47.359 -47.899   8.617  1.00  0.00    -0.394 OA
HETATM   16  C   UNL     1     -46.726 -49.084   8.155  1.00  0.00     0.201 C 
ENDBRANCH  14  15
ENDBRANCH  13  14
ENDBRANCH   7  13
ENDBRANCH   1   5
BRANCH   3  17
HETATM   17  C   UNL     1     -43.087 -50.959  13.701  1.00  0.00     0.158 C 
BRANCH  17  18
HETATM   18  C   UNL     1     -44.237 -52.014  13.732  1.00  0.00     0.236 C 
HETATM   19  C   UNL     1     -45.491 -51.331  13.141  1.00  0.00     0.044 C 
BRANCH  18  20
HETATM   20  N   UNL     1     -43.909 -53.252  12.967  1.00  0.00     0.098 N 
HETATM   21  C   UNL     1     -45.050 -54.200  12.848  1.00  0.00     0.299 C 
HETATM   22  C   UNL     1     -45.398 -54.909  14.167  1.00  0.00     0.198 C 
HETATM   23  O   UNL     1     -44.280 -55.668  14.641  1.00  0.00    -0.388 OA
HETATM   24  C   UNL     1     -43.134 -54.827  14.823  1.00  0.00     0.198 C 
HETATM   25  C   UNL     1     -42.786 -54.044  13.542  1.00  0.00     0.299 C 
ENDBRANCH  18  20
ENDBRANCH  17  18
ENDBRANCH   3  17
TORSDOF 7
ENDMDL
MODEL 3
REMARK VINA RESULT:      -6.1      2.268      7.021
REMARK  7 active torsions:
REMARK  status: ('A' for Active; 'I' for Inactive)
REMARK    1  A    between atoms: O_2  and  C_3 
REMARK    2  A    between atoms: C_3  and  C_4 
REMARK    3  A    between atoms: C_4  and  N_5 
REMARK    4  A    between atoms: C_8  and  C_13 
REMARK       I    between atoms: C_13  and  N_15 
REMARK    5  A    between atoms: N_15  and  C_16 
REMARK    6  A    between atoms: C_16  and  C_17 
REMARK    7  A    between atoms: C_17  and  N_19 
ROOT
HETATM    1  C   UNL     1     -40.957 -52.016  12.250  1.00  0.00     0.269 C 
HETATM    2  O   UNL     1     -39.804 -52.350  12.481  1.00  0.00    -0.266 OA
HETATM    3  N   UNL     1     -41.320 -50.890  11.547  1.00  0.00    -0.354 N 
HETATM    4  H   UNL     1     -42.312 -50.728  11.399  1.00  0.00     0.162 HD
ENDROOT
BRANCH   1   5
HETATM    5  C   UNL     1     -42.129 -52.848  12.790  1.00  0.00     0.116 A 
HETATM    6  N   UNL     1     -43.344 -52.513  12.462  1.00  0.00    -0.290 N 
HETATM    7  N   UNL     1     -44.370 -53.280  13.006  1.00  0.00    -0.255 N 
ATOM      8  HN  UNL     1     -43.533 -51.728  11.838  1.00  0.00     0.187 HD
HETATM    9  C   UNL     1     -44.175 -54.284  13.952  1.00  0.00     0.262 A 
HETATM   10  C   UNL     1     -42.770 -54.637  14.241  1.00  0.00     0.078 A 
HETATM   11  O   UNL     1     -45.064 -54.886  14.551  1.00  0.00    -0.267 OA
HETATM   12  C   UNL     1     -41.765 -53.967  13.676  1.00  0.00     0.042 A 
BRANCH   7  13
HETATM   13  C   UNL     1     -45.733 -52.946  12.595  1.00  0.00     0.178 C 
BRANCH  13  14
HETATM   14  C   UNL     1     -46.113 -51.497  12.905  1.00  0.00     0.189 C 
BRANCH  14  15
HETATM   15  O   UNL     1     -45.689 -51.142  14.224  1.00  0.00    -0.394 OA
HETATM   16  C   UNL     1     -46.692 -51.422  15.190  1.00  0.00     0.201 C 
ENDBRANCH  14  15
ENDBRANCH  13  14
ENDBRANCH   7  13
ENDBRANCH   1   5
BRANCH   3  17
HETATM   17  C   UNL     1     -40.334 -49.911  11.114  1.00  0.00     0.158 C 
BRANCH  17  18
HETATM   18  C   UNL     1     -40.136 -48.727  12.111  1.00  0.00     0.236 C 
HETATM   19  C   UNL     1     -38.726 -48.883  12.721  1.00  0.00     0.044 C 
BRANCH  18  20
HETATM   20  N   UNL     1     -40.278 -47.391  11.460  1.00  0.00     0.098 N 
HETATM   21  C   UNL     1     -40.272 -46.256  12.422  1.00  0.00     0.299 C 
HETATM   22  C   UNL     1     -41.552 -46.163  13.269  1.00  0.00     0.198 C 
HETATM   23  O   UNL     1     -42.699 -45.986  12.430  1.00  0.00    -0.388 OA
HETATM   24  C   UNL     1     -42.810 -47.060  11.486  1.00  0.00     0.198 C 
HETATM   25  C   UNL     1     -41.523 -47.233  10.658  1.00  0.00     0.299 C 
ENDBRANCH  18  20
ENDBRANCH  17  18
ENDBRANCH   3  17
TORSDOF 7
ENDMDL
MODEL 4
REMARK VINA RESULT:      -6.0      1.950      2.761
REMARK  7 active torsions:
REMARK  status: ('A' for Active; 'I' for Inactive)
REMARK    1  A    between atoms: O_2  and  C_3 
REMARK    2  A    between atoms: C_3  and  C_4 
REMARK    3  A    between atoms: C_4  and  N_5 
REMARK    4  A    between atoms: C_8  and  C_13 
REMARK       I    between atoms: C_13  and  N_15 
REMARK    5  A    between atoms: N_15  and  C_16 
REMARK    6  A    between atoms: C_16  and  C_17 
REMARK    7  A    between atoms: C_17  and  N_19 
ROOT
HETATM    1  C   UNL     1     -41.097 -50.413  11.768  1.00  0.00     0.269 C 
HETATM    2  O   UNL     1     -40.003 -50.954  11.854  1.00  0.00    -0.266 OA
HETATM    3  N   UNL     1     -42.300 -51.039  12.001  1.00  0.00    -0.354 N 
HETATM    4  H   UNL     1     -43.143 -50.479  11.920  1.00  0.00     0.162 HD
ENDROOT
BRANCH   1   5
HETATM    5  C   UNL     1     -41.204 -48.943  11.338  1.00  0.00     0.116 A 
HETATM    6  N   UNL     1     -42.211 -48.575  10.599  1.00  0.00    -0.290 N 
HETATM    7  N   UNL     1     -42.241 -47.239  10.209  1.00  0.00    -0.255 N 
ATOM      8  HN  UNL     1     -42.940 -49.232  10.321  1.00  0.00     0.187 HD
HETATM    9  C   UNL     1     -41.216 -46.330  10.460  1.00  0.00     0.262 A 
HETATM   10  C   UNL     1     -40.130 -46.807  11.340  1.00  0.00     0.078 A 
HETATM   11  O   UNL     1     -41.149 -45.186  10.016  1.00  0.00    -0.267 OA
HETATM   12  C   UNL     1     -40.114 -48.062  11.791  1.00  0.00     0.042 A 
BRANCH   7  13
HETATM   13  C   UNL     1     -43.400 -46.805   9.428  1.00  0.00     0.178 C 
BRANCH  13  14
HETATM   14  C   UNL     1     -43.627 -47.652   8.175  1.00  0.00     0.189 C 
BRANCH  14  15
HETATM   15  O   UNL     1     -44.975 -48.129   8.134  1.00  0.00    -0.394 OA
HETATM   16  C   UNL     1     -45.775 -47.527   9.142  1.00  0.00     0.201 C 
ENDBRANCH  14  15
ENDBRANCH  13  14
ENDBRANCH   7  13
ENDBRANCH   1   5
BRANCH   3  17
HETATM   17  C   UNL     1     -42.378 -52.470  12.254  1.00  0.00     0.158 C 
BRANCH  17  18
HETATM   18  C   UNL     1     -42.295 -52.852  13.765  1.00  0.00     0.236 C 
HETATM   19  C   UNL     1     -43.746 -52.932  14.289  1.00  0.00     0.044 C 
BRANCH  18  20
HETATM   20  N   UNL     1     -41.584 -54.143  13.998  1.00  0.00     0.098 N 
HETATM   21  C   UNL     1     -41.504 -54.529  15.433  1.00  0.00     0.299 C 
HETATM   22  C   UNL     1     -40.536 -53.658  16.249  1.00  0.00     0.198 C 
HETATM   23  O   UNL     1     -39.207 -53.753  15.723  1.00  0.00    -0.388 OA
HETATM   24  C   UNL     1     -39.177 -53.363  14.344  1.00  0.00     0.198 C 
HETATM   25  C   UNL     1     -40.182 -54.166  13.496  1.00  0.00     0.299 C 
ENDBRANCH  18  20
ENDBRANCH  17  18
ENDBRANCH   3  17
TORSDOF 7
ENDMDL
MODEL 5
REMARK VINA RESULT:      -5.9      2.251      7.544
REMARK  7 active torsions:
REMARK  status: ('A' for Active; 'I' for Inactive)
REMARK    1  A    between atoms: O_2  and  C_3 
REMARK    2  A    between atoms: C_3  and  C_4 
REMARK    3  A    between atoms: C_4  and  N_5 
REMARK    4  A    between atoms: C_8  and  C_13 
REMARK       I    between atoms: C_13  and  N_15 
REMARK    5  A    between atoms: N_15  and  C_16 
REMARK    6  A    between atoms: C_16  and  C_17 
REMARK    7  A    between atoms: C_17  and  N_19 
ROOT
HETATM    1  C   UNL     1     -41.249 -51.121  12.158  1.00  0.00     0.269 C 
HETATM    2  O   UNL     1     -40.088 -51.217  12.528  1.00  0.00    -0.266 OA
HETATM    3  N   UNL     1     -41.754 -50.068  11.430  1.00  0.00    -0.354 N 
HETATM    4  H   UNL     1     -42.733 -50.111  11.160  1.00  0.00     0.162 HD
ENDROOT
BRANCH   1   5
HETATM    5  C   UNL     1     -42.276 -52.199  12.535  1.00  0.00     0.116 A 
HETATM    6  N   UNL     1     -43.543 -51.935  12.405  1.00  0.00    -0.290 N 
HETATM    7  N   UNL     1     -44.431 -52.935  12.793  1.00  0.00    -0.255 N 
ATOM      8  HN  UNL     1     -43.870 -51.042  12.037  1.00  0.00     0.187 HD
HETATM    9  C   UNL     1     -44.045 -54.124  13.408  1.00  0.00     0.262 A 
HETATM   10  C   UNL     1     -42.591 -54.372  13.481  1.00  0.00     0.078 A 
HETATM   11  O   UNL     1     -44.806 -54.964  13.884  1.00  0.00    -0.267 OA
HETATM   12  C   UNL     1     -41.718 -53.462  13.049  1.00  0.00     0.042 A 
BRANCH   7  13
HETATM   13  C   UNL     1     -45.855 -52.668  12.593  1.00  0.00     0.178 C 
BRANCH  13  14
HETATM   14  C   UNL     1     -46.471 -51.837  13.720  1.00  0.00     0.189 C 
BRANCH  14  15
HETATM   15  O   UNL     1     -45.469 -51.035  14.352  1.00  0.00    -0.394 OA
HETATM   16  C   UNL     1     -45.655 -50.976  15.759  1.00  0.00     0.201 C 
ENDBRANCH  14  15
ENDBRANCH  13  14
ENDBRANCH   7  13
ENDBRANCH   1   5
BRANCH   3  17
HETATM   17  C   UNL     1     -40.952 -48.889  11.137  1.00  0.00     0.158 C 
BRANCH  17  18
HETATM   18  C   UNL     1     -41.778 -47.568  11.047  1.00  0.00     0.236 C 
HETATM   19  C   UNL     1     -43.248 -47.935  11.349  1.00  0.00     0.044 C 
BRANCH  18  20
HETATM   20  N   UNL     1     -41.298 -46.519  11.994  1.00  0.00     0.098 N 
HETATM   21  C   UNL     1     -42.241 -45.378  12.149  1.00  0.00     0.299 C 
HETATM   22  C   UNL     1     -42.308 -44.467  10.913  1.00  0.00     0.198 C 
HETATM   23  O   UNL     1     -41.022 -43.902  10.632  1.00  0.00    -0.388 OA
HETATM   24  C   UNL     1     -40.047 -44.933  10.431  1.00  0.00     0.198 C 
HETATM   25  C   UNL     1     -39.990 -45.912  11.619  1.00  0.00     0.299 C 
ENDBRANCH  18  20
ENDBRANCH  17  18
ENDBRANCH   3  17
TORSDOF 7
ENDMDL
MODEL 6
REMARK VINA RESULT:      -5.7      1.787      3.198
REMARK  7 active torsions:
REMARK  status: ('A' for Active; 'I' for Inactive)
REMARK    1  A    between atoms: O_2  and  C_3 
REMARK    2  A    between atoms: C_3  and  C_4 
REMARK    3  A    between atoms: C_4  and  N_5 
REMARK    4  A    between atoms: C_8  and  C_13 
REMARK       I    between atoms: C_13  and  N_15 
REMARK    5  A    between atoms: N_15  and  C_16 
REMARK    6  A    between atoms: C_16  and  C_17 
REMARK    7  A    between atoms: C_17  and  N_19 
ROOT
HETATM    1  C   UNL     1     -40.825 -49.736  11.417  1.00  0.00     0.269 C 
HETATM    2  O   UNL     1     -39.635 -50.015  11.426  1.00  0.00    -0.266 OA
HETATM    3  N   UNL     1     -41.837 -50.613  11.736  1.00  0.00    -0.354 N 
HETATM    4  H   UNL     1     -42.788 -50.258  11.715  1.00  0.00     0.162 HD
ENDROOT
BRANCH   1   5
HETATM    5  C   UNL     1     -41.291 -48.336  10.993  1.00  0.00     0.116 A 
HETATM    6  N   UNL     1     -40.411 -47.382  10.892  1.00  0.00    -0.290 N 
HETATM    7  N   UNL     1     -40.892 -46.125  10.537  1.00  0.00    -0.255 N 
ATOM      8  HN  UNL     1     -39.419 -47.548  11.065  1.00  0.00     0.187 HD
HETATM    9  C   UNL     1     -42.244 -45.817  10.405  1.00  0.00     0.262 A 
HETATM   10  C   UNL     1     -43.178 -46.958  10.489  1.00  0.00     0.078 A 
HETATM   11  O   UNL     1     -42.708 -44.693  10.226  1.00  0.00    -0.267 OA
HETATM   12  C   UNL     1     -42.737 -48.187  10.755  1.00  0.00     0.042 A 
BRANCH   7  13
HETATM   13  C   UNL     1     -39.901 -45.063  10.365  1.00  0.00     0.178 C 
BRANCH  13  14
HETATM   14  C   UNL     1     -39.488 -44.411  11.686  1.00  0.00     0.189 C 
BRANCH  14  15
HETATM   15  O   UNL     1     -39.477 -45.380  12.738  1.00  0.00    -0.394 OA
HETATM   16  C   UNL     1     -39.472 -44.764  14.018  1.00  0.00     0.201 C 
ENDBRANCH  14  15
ENDBRANCH  13  14
ENDBRANCH   7  13
ENDBRANCH   1   5
BRANCH   3  17
HETATM   17  C   UNL     1     -41.572 -52.020  11.997  1.00  0.00     0.158 C 
BRANCH  17  18
HETATM   18  C   UNL     1     -42.071 -52.511  13.392  1.00  0.00     0.236 C 
HETATM   19  C   UNL     1     -41.147 -51.868  14.451  1.00  0.00     0.044 C 
BRANCH  18  20
HETATM   20  N   UNL     1     -43.495 -52.152  13.657  1.00  0.00     0.098 N 
HETATM   21  C   UNL     1     -43.922 -52.403  15.060  1.00  0.00     0.299 C 
HETATM   22  C   UNL     1     -44.061 -53.895  15.402  1.00  0.00     0.198 C 
HETATM   23  O   UNL     1     -45.037 -54.517  14.558  1.00  0.00    -0.388 OA
HETATM   24  C   UNL     1     -44.689 -54.359  13.176  1.00  0.00     0.198 C 
HETATM   25  C   UNL     1     -44.475 -52.879  12.802  1.00  0.00     0.299 C 
ENDBRANCH  18  20
ENDBRANCH  17  18
ENDBRANCH   3  17
TORSDOF 7
ENDMDL
MODEL 7
REMARK VINA RESULT:      -5.1      2.360      2.918
REMARK  7 active torsions:
REMARK  status: ('A' for Active; 'I' for Inactive)
REMARK    1  A    between atoms: O_2  and  C_3 
REMARK    2  A    between atoms: C_3  and  C_4 
REMARK    3  A    between atoms: C_4  and  N_5 
REMARK    4  A    between atoms: C_8  and  C_13 
REMARK       I    between atoms: C_13  and  N_15 
REMARK    5  A    between atoms: N_15  and  C_16 
REMARK    6  A    between atoms: C_16  and  C_17 
REMARK    7  A    between atoms: C_17  and  N_19 
ROOT
HETATM    1  C   UNL     1     -41.695 -51.382  12.507  1.00  0.00     0.269 C 
HETATM    2  O   UNL     1     -40.898 -52.254  12.820  1.00  0.00    -0.266 OA
HETATM    3  N   UNL     1     -43.050 -51.576  12.362  1.00  0.00    -0.354 N 
HETATM    4  H   UNL     1     -43.617 -50.768  12.121  1.00  0.00     0.162 HD
ENDROOT
BRANCH   1   5
HETATM    5  C   UNL     1     -41.209 -49.957  12.205  1.00  0.00     0.116 A 
HETATM    6  N   UNL     1     -42.089 -49.012  12.046  1.00  0.00    -0.290 N 
HETATM    7  N   UNL     1     -41.596 -47.747  11.739  1.00  0.00    -0.255 N 
ATOM      8  HN  UNL     1     -43.090 -49.189  12.141  1.00  0.00     0.187 HD
HETATM    9  C   UNL     1     -40.254 -47.474  11.484  1.00  0.00     0.262 A 
HETATM   10  C   UNL     1     -39.311 -48.584  11.727  1.00  0.00     0.078 A 
HETATM   11  O   UNL     1     -39.805 -46.404  11.080  1.00  0.00    -0.267 OA
HETATM   12  C   UNL     1     -39.750 -49.789  12.094  1.00  0.00     0.042 A 
BRANCH   7  13
HETATM   13  C   UNL     1     -42.576 -46.667  11.618  1.00  0.00     0.178 C 
BRANCH  13  14
HETATM   14  C   UNL     1     -42.764 -45.882  12.917  1.00  0.00     0.189 C 
BRANCH  14  15
HETATM   15  O   UNL     1     -42.121 -44.608  12.826  1.00  0.00    -0.394 OA
HETATM   16  C   UNL     1     -42.384 -43.975  11.582  1.00  0.00     0.201 C 
ENDBRANCH  14  15
ENDBRANCH  13  14
ENDBRANCH   7  13
ENDBRANCH   1   5
BRANCH   3  17
HETATM   17  C   UNL     1     -43.644 -52.903  12.449  1.00  0.00     0.158 C 
BRANCH  17  18
HETATM   18  C   UNL     1     -44.923 -52.966  13.341  1.00  0.00     0.236 C 
HETATM   19  C   UNL     1     -46.097 -52.450  12.480  1.00  0.00     0.044 C 
BRANCH  18  20
HETATM   20  N   UNL     1     -45.211 -54.342  13.844  1.00  0.00     0.098 N 
HETATM   21  C   UNL     1     -46.305 -54.391  14.852  1.00  0.00     0.299 C 
HETATM   22  C   UNL     1     -45.911 -53.797  16.214  1.00  0.00     0.198 C 
HETATM   23  O   UNL     1     -44.802 -54.511  16.773  1.00  0.00    -0.388 OA
HETATM   24  C   UNL     1     -43.679 -54.487  15.882  1.00  0.00     0.198 C 
HETATM   25  C   UNL     1     -44.045 -55.013  14.481  1.00  0.00     0.299 C 
ENDBRANCH  18  20
ENDBRANCH  17  18
ENDBRANCH   3  17
TORSDOF 7
ENDMDL
MODEL 8
REMARK VINA RESULT:      -5.0      3.813      8.065
REMARK  7 active torsions:
REMARK  status: ('A' for Active; 'I' for Inactive)
REMARK    1  A    between atoms: O_2  and  C_3 
REMARK    2  A    between atoms: C_3  and  C_4 
REMARK    3  A    between atoms: C_4  and  N_5 
REMARK    4  A    between atoms: C_8  and  C_13 
REMARK       I    between atoms: C_13  and  N_15 
REMARK    5  A    between atoms: N_15  and  C_16 
REMARK    6  A    between atoms: C_16  and  C_17 
REMARK    7  A    between atoms: C_17  and  N_19 
ROOT
HETATM    1  C   UNL     1     -43.361 -52.560  13.361  1.00  0.00     0.269 C 
HETATM    2  O   UNL     1     -43.153 -53.735  13.092  1.00  0.00    -0.266 OA
HETATM    3  N   UNL     1     -42.574 -51.511  12.945  1.00  0.00    -0.354 N 
HETATM    4  H   UNL     1     -42.861 -50.574  13.212  1.00  0.00     0.162 HD
ENDROOT
BRANCH   1   5
HETATM    5  C   UNL     1     -44.548 -52.166  14.252  1.00  0.00     0.116 A 
HETATM    6  N   UNL     1     -44.455 -52.342  15.538  1.00  0.00    -0.290 N 
HETATM    7  N   UNL     1     -45.572 -52.000  16.296  1.00  0.00    -0.255 N 
ATOM      8  HN  UNL     1     -43.607 -52.712  15.969  1.00  0.00     0.187 HD
HETATM    9  C   UNL     1     -46.791 -51.604  15.752  1.00  0.00     0.262 A 
HETATM   10  C   UNL     1     -46.807 -51.384  14.291  1.00  0.00     0.078 A 
HETATM   11  O   UNL     1     -47.832 -51.426  16.380  1.00  0.00    -0.267 OA
HETATM   12  C   UNL     1     -45.727 -51.633  13.549  1.00  0.00     0.042 A 
BRANCH   7  13
HETATM   13  C   UNL     1     -45.453 -52.140  17.747  1.00  0.00     0.178 C 
BRANCH  13  14
HETATM   14  C   UNL     1     -44.746 -53.430  18.168  1.00  0.00     0.189 C 
BRANCH  14  15
HETATM   15  O   UNL     1     -45.512 -54.570  17.770  1.00  0.00    -0.394 OA
HETATM   16  C   UNL     1     -46.322 -55.054  18.832  1.00  0.00     0.201 C 
ENDBRANCH  14  15
ENDBRANCH  13  14
ENDBRANCH   7  13
ENDBRANCH   1   5
BRANCH   3  17
HETATM   17  C   UNL     1     -41.322 -51.731  12.236  1.00  0.00     0.158 C 
BRANCH  17  18
HETATM   18  C   UNL     1     -40.049 -51.483  13.104  1.00  0.00     0.236 C 
HETATM   19  C   UNL     1     -39.676 -52.836  13.751  1.00  0.00     0.044 C 
BRANCH  18  20
HETATM   20  N   UNL     1     -38.903 -50.949  12.313  1.00  0.00     0.098 N 
HETATM   21  C   UNL     1     -37.630 -50.877  13.081  1.00  0.00     0.299 C 
HETATM   22  C   UNL     1     -37.621 -49.772  14.150  1.00  0.00     0.198 C 
HETATM   23  O   UNL     1     -37.812 -48.487  13.547  1.00  0.00    -0.388 OA
HETATM   24  C   UNL     1     -39.041 -48.448  12.809  1.00  0.00     0.198 C 
HETATM   25  C   UNL     1     -39.123 -49.581  11.768  1.00  0.00     0.299 C 
ENDBRANCH  18  20
ENDBRANCH  17  18
ENDBRANCH   3  17
TORSDOF 7
ENDMDL
MODEL 9
REMARK VINA RESULT:      -4.9      2.094      3.586
REMARK  7 active torsions:
REMARK  status: ('A' for Active; 'I' for Inactive)
REMARK    1  A    between atoms: O_2  and  C_3 
REMARK    2  A    between atoms: C_3  and  C_4 
REMARK    3  A    between atoms: C_4  and  N_5 
REMARK    4  A    between atoms: C_8  and  C_13 
REMARK       I    between atoms: C_13  and  N_15 
REMARK    5  A    between atoms: N_15  and  C_16 
REMARK    6  A    between atoms: C_16  and  C_17 
REMARK    7  A    between atoms: C_17  and  N_19 
ROOT
HETATM    1  C   UNL     1     -42.108 -48.532  13.557  1.00  0.00     0.269 C 
HETATM    2  O   UNL     1     -41.115 -48.453  14.266  1.00  0.00    -0.266 OA
HETATM    3  N   UNL     1     -43.203 -49.321  13.830  1.00  0.00    -0.354 N 
HETATM    4  H   UNL     1     -43.980 -49.286  13.177  1.00  0.00     0.162 HD
ENDROOT
BRANCH   1   5
HETATM    5  C   UNL     1     -42.185 -47.752  12.237  1.00  0.00     0.116 A 
HETATM    6  N   UNL     1     -41.204 -46.959  11.916  1.00  0.00    -0.290 N 
HETATM    7  N   UNL     1     -41.340 -46.250  10.726  1.00  0.00    -0.255 N 
ATOM      8  HN  UNL     1     -40.377 -46.863  12.506  1.00  0.00     0.187 HD
HETATM    9  C   UNL     1     -42.492 -46.254   9.943  1.00  0.00     0.262 A 
HETATM   10  C   UNL     1     -43.544 -47.210  10.346  1.00  0.00     0.078 A 
HETATM   11  O   UNL     1     -42.696 -45.539   8.965  1.00  0.00    -0.267 OA
HETATM   12  C   UNL     1     -43.408 -47.957  11.442  1.00  0.00     0.042 A 
BRANCH   7  13
HETATM   13  C   UNL     1     -40.215 -45.403  10.330  1.00  0.00     0.178 C 
BRANCH  13  14
HETATM   14  C   UNL     1     -40.183 -44.066  11.073  1.00  0.00     0.189 C 
BRANCH  14  15
HETATM   15  O   UNL     1     -39.728 -44.253  12.416  1.00  0.00    -0.394 OA
HETATM   16  C   UNL     1     -39.879 -43.072  13.190  1.00  0.00     0.201 C 
ENDBRANCH  14  15
ENDBRANCH  13  14
ENDBRANCH   7  13
ENDBRANCH   1   5
BRANCH   3  17
HETATM   17  C   UNL     1     -43.215 -50.246  14.953  1.00  0.00     0.158 C 
BRANCH  17  18
HETATM   18  C   UNL     1     -42.956 -51.732  14.553  1.00  0.00     0.236 C 
HETATM   19  C   UNL     1     -41.685 -52.186  15.304  1.00  0.00     0.044 C 
BRANCH  18  20
HETATM   20  N   UNL     1     -44.103 -52.629  14.881  1.00  0.00     0.098 N 
HETATM   21  C   UNL     1     -43.981 -53.992  14.297  1.00  0.00     0.299 C 
HETATM   22  C   UNL     1     -44.175 -54.026  12.773  1.00  0.00     0.198 C 
HETATM   23  O   UNL     1     -45.477 -53.543  12.420  1.00  0.00    -0.388 OA
HETATM   24  C   UNL     1     -45.676 -52.212  12.912  1.00  0.00     0.198 C 
HETATM   25  C   UNL     1     -45.426 -52.115  14.429  1.00  0.00     0.299 C 
ENDBRANCH  18  20
ENDBRANCH  17  18
ENDBRANCH   3  17
TORSDOF 7
ENDMDL
