MODEL 1
REMARK VINA RESULT:      -6.0      0.000      0.000
REMARK  3 active torsions:
REMARK  status: ('A' for Active; 'I' for Inactive)
REMARK    1  A    between atoms: C_9  and  C_10 
REMARK    2  A    between atoms: C_10  and  C_11 
REMARK       I    between atoms: C_11  and  N_13 
REMARK    3  A    between atoms: N_13  and  C_14 
ROOT
HETATM    1  C   UNL     1     -41.873 -53.584  12.916  1.00  0.00     0.222 C 
HETATM    2  O   UNL     1     -41.981 -52.698  12.071  1.00  0.00    -0.273 OA
HETATM    3  N   UNL     1     -42.943 -54.011  13.679  1.00  0.00    -0.348 N 
HETATM    4  H   UNL     1     -42.897 -54.922  14.128  1.00  0.00     0.163 HD
ENDROOT
BRANCH   1   5
HETATM    5  C   UNL     1     -40.533 -54.207  13.254  1.00  0.00     0.145 C 
BRANCH   5   6
HETATM    6  C   UNL     1     -39.760 -53.577  14.370  1.00  0.00    -0.002 A 
HETATM    7  C   UNL     1     -39.114 -52.310  14.451  1.00  0.00     0.030 A 
HETATM    8  C   UNL     1     -38.997 -51.237  13.430  1.00  0.00     0.070 C 
HETATM    9  N   UNL     1     -38.565 -52.111  15.655  1.00  0.00    -0.303 N 
HETATM   10  N   UNL     1     -38.869 -53.212  16.353  1.00  0.00    -0.300 N 
ATOM     11  HN  UNL     1     -38.034 -51.300  15.971  1.00  0.00     0.186 HD
HETATM   12  C   UNL     1     -38.421 -53.317  17.723  1.00  0.00     0.177 C 
HETATM   13  C   UNL     1     -39.605 -54.121  15.641  1.00  0.00     0.033 A 
HETATM   14  C   UNL     1     -40.121 -55.395  16.208  1.00  0.00     0.070 C 
ENDBRANCH   5   6
ENDBRANCH   1   5
BRANCH   3  15
HETATM   15  C   UNL     1     -44.270 -53.404  13.511  1.00  0.00     0.170 C 
HETATM   16  C   UNL     1     -44.312 -52.034  14.194  1.00  0.00     0.034 C 
HETATM   17  C   UNL     1     -45.499 -51.205  13.712  1.00  0.00     0.004 C 
HETATM   18  C   UNL     1     -46.792 -51.462  14.474  1.00  0.00     0.015 C 
HETATM   19  C   UNL     1     -46.995 -52.874  15.003  1.00  0.00     0.095 C 
HETATM   20  N   UNL     1     -46.658 -53.948  14.091  1.00  0.00    -0.261 NA
HETATM   21  C   UNL     1     -45.363 -54.393  13.964  1.00  0.00     0.220 C 
HETATM   22  H   UNL     1     -47.256 -54.759  14.216  1.00  0.00     0.130 HD
HETATM   23  O   UNL     1     -45.140 -55.600  14.089  1.00  0.00    -0.278 OA
ENDBRANCH   3  15
TORSDOF 3
ENDMDL
MODEL 2
REMARK VINA RESULT:      -5.8      1.742      6.376
REMARK  3 active torsions:
REMARK  status: ('A' for Active; 'I' for Inactive)
REMARK    1  A    between atoms: C_9  and  C_10 
REMARK    2  A    between atoms: C_10  and  C_11 
REMARK       I    between atoms: C_11  and  N_13 
REMARK    3  A    between atoms: N_13  and  C_14 
ROOT
HETATM    1  C   UNL     1     -43.708 -54.752  14.376  1.00  0.00     0.222 C 
HETATM    2  O   UNL     1     -43.394 -55.690  15.107  1.00  0.00    -0.273 OA
HETATM    3  N   UNL     1     -42.810 -53.766  14.013  1.00  0.00    -0.348 N 
HETATM    4  H   UNL     1     -43.004 -53.201  13.191  1.00  0.00     0.163 HD
ENDROOT
BRANCH   1   5
HETATM    5  C   UNL     1     -45.133 -54.553  13.900  1.00  0.00     0.145 C 
BRANCH   5   6
HETATM    6  C   UNL     1     -45.847 -53.338  14.401  1.00  0.00    -0.002 A 
HETATM    7  C   UNL     1     -46.432 -52.247  13.694  1.00  0.00     0.030 A 
HETATM    8  C   UNL     1     -46.485 -51.983  12.233  1.00  0.00     0.070 C 
HETATM    9  N   UNL     1     -47.018 -51.377  14.524  1.00  0.00    -0.303 N 
HETATM   10  N   UNL     1     -46.844 -51.900  15.743  1.00  0.00    -0.300 N 
ATOM     11  HN  UNL     1     -47.493 -50.508  14.280  1.00  0.00     0.186 HD
HETATM   12  C   UNL     1     -47.374 -51.195  16.888  1.00  0.00     0.177 C 
HETATM   13  C   UNL     1     -46.165 -53.089  15.733  1.00  0.00     0.033 A 
HETATM   14  C   UNL     1     -45.898 -53.900  16.949  1.00  0.00     0.070 C 
ENDBRANCH   5   6
ENDBRANCH   1   5
BRANCH   3  15
HETATM   15  C   UNL     1     -41.425 -53.799  14.503  1.00  0.00     0.170 C 
HETATM   16  C   UNL     1     -41.301 -52.972  15.785  1.00  0.00     0.034 C 
HETATM   17  C   UNL     1     -40.016 -53.300  16.540  1.00  0.00     0.004 C 
HETATM   18  C   UNL     1     -38.801 -52.505  16.082  1.00  0.00     0.015 C 
HETATM   19  C   UNL     1     -38.760 -52.122  14.610  1.00  0.00     0.095 C 
HETATM   20  N   UNL     1     -39.137 -53.160  13.673  1.00  0.00    -0.261 NA
HETATM   21  C   UNL     1     -40.457 -53.401  13.371  1.00  0.00     0.220 C 
HETATM   22  H   UNL     1     -38.624 -53.093  12.800  1.00  0.00     0.130 HD
HETATM   23  O   UNL     1     -40.796 -53.419  12.186  1.00  0.00    -0.278 OA
ENDBRANCH   3  15
TORSDOF 3
ENDMDL
MODEL 3
REMARK VINA RESULT:      -5.8      1.683      2.079
REMARK  3 active torsions:
REMARK  status: ('A' for Active; 'I' for Inactive)
REMARK    1  A    between atoms: C_9  and  C_10 
REMARK    2  A    between atoms: C_10  and  C_11 
REMARK       I    between atoms: C_11  and  N_13 
REMARK    3  A    between atoms: N_13  and  C_14 
ROOT
HETATM    1  C   UNL     1     -41.774 -51.880  12.629  1.00  0.00     0.222 C 
HETATM    2  O   UNL     1     -42.079 -50.757  12.232  1.00  0.00    -0.273 OA
HETATM    3  N   UNL     1     -42.696 -52.737  13.200  1.00  0.00    -0.348 N 
HETATM    4  H   UNL     1     -42.492 -53.732  13.229  1.00  0.00     0.163 HD
ENDROOT
BRANCH   1   5
HETATM    5  C   UNL     1     -40.341 -52.371  12.612  1.00  0.00     0.145 C 
BRANCH   5   6
HETATM    6  C   UNL     1     -39.336 -51.545  13.351  1.00  0.00    -0.002 A 
HETATM    7  C   UNL     1     -38.533 -50.451  12.915  1.00  0.00     0.030 A 
HETATM    8  C   UNL     1     -38.439 -49.818  11.574  1.00  0.00     0.070 C 
HETATM    9  N   UNL     1     -37.789 -49.956  13.911  1.00  0.00    -0.303 N 
HETATM   10  N   UNL     1     -38.118 -50.692  14.980  1.00  0.00    -0.300 N 
ATOM     11  HN  UNL     1     -37.119 -49.188  13.866  1.00  0.00     0.186 HD
HETATM   12  C   UNL     1     -37.485 -50.406  16.247  1.00  0.00     0.177 C 
HETATM   13  C   UNL     1     -39.060 -51.649  14.711  1.00  0.00     0.033 A 
HETATM   14  C   UNL     1     -39.638 -52.553  15.740  1.00  0.00     0.070 C 
ENDBRANCH   5   6
ENDBRANCH   1   5
BRANCH   3  15
HETATM   15  C   UNL     1     -44.097 -52.326  13.365  1.00  0.00     0.170 C 
HETATM   16  C   UNL     1     -44.326 -51.795  14.782  1.00  0.00     0.034 C 
HETATM   17  C   UNL     1     -45.621 -50.994  14.876  1.00  0.00     0.004 C 
HETATM   18  C   UNL     1     -46.859 -51.838  15.149  1.00  0.00     0.015 C 
HETATM   19  C   UNL     1     -46.857 -53.246  14.574  1.00  0.00     0.095 C 
HETATM   20  N   UNL     1     -46.380 -53.375  13.212  1.00  0.00    -0.261 NA
HETATM   21  C   UNL     1     -45.036 -53.472  12.936  1.00  0.00     0.220 C 
HETATM   22  H   UNL     1     -46.856 -54.115  12.707  1.00  0.00     0.130 HD
HETATM   23  O   UNL     1     -44.644 -54.410  12.239  1.00  0.00    -0.278 OA
ENDBRANCH   3  15
TORSDOF 3
ENDMDL
MODEL 4
REMARK VINA RESULT:      -5.7      1.657      2.924
REMARK  3 active torsions:
REMARK  status: ('A' for Active; 'I' for Inactive)
REMARK    1  A    between atoms: C_9  and  C_10 
REMARK    2  A    between atoms: C_10  and  C_11 
REMARK       I    between atoms: C_11  and  N_13 
REMARK    3  A    between atoms: N_13  and  C_14 
ROOT
HETATM    1  C   UNL     1     -41.834 -51.612  12.593  1.00  0.00     0.222 C 
HETATM    2  O   UNL     1     -42.241 -50.539  12.153  1.00  0.00    -0.273 OA
HETATM    3  N   UNL     1     -42.671 -52.524  13.209  1.00  0.00    -0.348 N 
HETATM    4  H   UNL     1     -42.378 -53.495  13.278  1.00  0.00     0.163 HD
ENDROOT
BRANCH   1   5
HETATM    5  C   UNL     1     -40.362 -51.973  12.584  1.00  0.00     0.145 C 
BRANCH   5   6
HETATM    6  C   UNL     1     -39.493 -51.285  13.590  1.00  0.00    -0.002 A 
HETATM    7  C   UNL     1     -39.060 -51.703  14.882  1.00  0.00     0.030 A 
HETATM    8  C   UNL     1     -39.365 -52.952  15.627  1.00  0.00     0.070 C 
HETATM    9  N   UNL     1     -38.247 -50.803  15.446  1.00  0.00    -0.303 N 
HETATM   10  N   UNL     1     -38.131 -49.830  14.534  1.00  0.00    -0.300 N 
ATOM     11  HN  UNL     1     -37.813 -50.847  16.368  1.00  0.00     0.186 HD
HETATM   12  C   UNL     1     -37.302 -48.686  14.834  1.00  0.00     0.177 C 
HETATM   13  C   UNL     1     -38.840 -50.073  13.388  1.00  0.00     0.033 A 
HETATM   14  C   UNL     1     -38.827 -49.178  12.201  1.00  0.00     0.070 C 
ENDBRANCH   5   6
ENDBRANCH   1   5
BRANCH   3  15
HETATM   15  C   UNL     1     -44.102 -52.234  13.369  1.00  0.00     0.170 C 
HETATM   16  C   UNL     1     -44.381 -51.729  14.786  1.00  0.00     0.034 C 
HETATM   17  C   UNL     1     -45.741 -51.042  14.878  1.00  0.00     0.004 C 
HETATM   18  C   UNL     1     -46.903 -51.988  15.143  1.00  0.00     0.015 C 
HETATM   19  C   UNL     1     -46.779 -53.390  14.564  1.00  0.00     0.095 C 
HETATM   20  N   UNL     1     -46.287 -53.473  13.204  1.00  0.00    -0.261 NA
HETATM   21  C   UNL     1     -44.939 -53.454  12.934  1.00  0.00     0.220 C 
HETATM   22  H   UNL     1     -46.697 -54.250  12.695  1.00  0.00     0.130 HD
HETATM   23  O   UNL     1     -44.466 -54.354  12.235  1.00  0.00    -0.278 OA
ENDBRANCH   3  15
TORSDOF 3
ENDMDL
MODEL 5
REMARK VINA RESULT:      -5.6      1.854      2.845
REMARK  3 active torsions:
REMARK  status: ('A' for Active; 'I' for Inactive)
REMARK    1  A    between atoms: C_9  and  C_10 
REMARK    2  A    between atoms: C_10  and  C_11 
REMARK       I    between atoms: C_11  and  N_13 
REMARK    3  A    between atoms: N_13  and  C_14 
ROOT
HETATM    1  C   UNL     1     -43.349 -53.908  13.211  1.00  0.00     0.222 C 
HETATM    2  O   UNL     1     -44.255 -54.120  12.407  1.00  0.00    -0.273 OA
HETATM    3  N   UNL     1     -43.591 -53.453  14.493  1.00  0.00    -0.348 N 
HETATM    4  H   UNL     1     -42.877 -53.582  15.205  1.00  0.00     0.163 HD
ENDROOT
BRANCH   1   5
HETATM    5  C   UNL     1     -41.890 -54.034  12.821  1.00  0.00     0.145 C 
BRANCH   5   6
HETATM    6  C   UNL     1     -40.932 -53.095  13.484  1.00  0.00    -0.002 A 
HETATM    7  C   UNL     1     -39.916 -53.337  14.453  1.00  0.00     0.030 A 
HETATM    8  C   UNL     1     -39.520 -54.606  15.116  1.00  0.00     0.070 C 
HETATM    9  N   UNL     1     -39.246 -52.220  14.757  1.00  0.00    -0.303 N 
HETATM   10  N   UNL     1     -39.794 -51.274  13.984  1.00  0.00    -0.300 N 
ATOM     11  HN  UNL     1     -38.486 -52.112  15.429  1.00  0.00     0.186 HD
HETATM   12  C   UNL     1     -39.285 -49.924  14.065  1.00  0.00     0.177 C 
HETATM   13  C   UNL     1     -40.798 -51.743  13.181  1.00  0.00     0.033 A 
HETATM   14  C   UNL     1     -41.522 -50.908  12.187  1.00  0.00     0.070 C 
ENDBRANCH   5   6
ENDBRANCH   1   5
BRANCH   3  15
HETATM   15  C   UNL     1     -44.964 -53.194  14.948  1.00  0.00     0.170 C 
HETATM   16  C   UNL     1     -45.299 -51.709  14.789  1.00  0.00     0.034 C 
HETATM   17  C   UNL     1     -46.804 -51.465  14.857  1.00  0.00     0.004 C 
HETATM   18  C   UNL     1     -47.346 -51.287  16.268  1.00  0.00     0.015 C 
HETATM   19  C   UNL     1     -46.636 -52.063  17.368  1.00  0.00     0.095 C 
HETATM   20  N   UNL     1     -46.307 -53.440  17.062  1.00  0.00    -0.261 NA
HETATM   21  C   UNL     1     -45.164 -53.762  16.368  1.00  0.00     0.220 C 
HETATM   22  H   UNL     1     -46.352 -54.036  17.883  1.00  0.00     0.130 HD
HETATM   23  O   UNL     1     -44.398 -54.599  16.850  1.00  0.00    -0.278 OA
ENDBRANCH   3  15
TORSDOF 3
ENDMDL
MODEL 6
REMARK VINA RESULT:      -5.6      3.664      6.407
REMARK  3 active torsions:
REMARK  status: ('A' for Active; 'I' for Inactive)
REMARK    1  A    between atoms: C_9  and  C_10 
REMARK    2  A    between atoms: C_10  and  C_11 
REMARK       I    between atoms: C_11  and  N_13 
REMARK    3  A    between atoms: N_13  and  C_14 
ROOT
HETATM    1  C   UNL     1     -42.079 -51.286  12.782  1.00  0.00     0.222 C 
HETATM    2  O   UNL     1     -41.916 -50.974  13.960  1.00  0.00    -0.273 OA
HETATM    3  N   UNL     1     -42.022 -50.359  11.758  1.00  0.00    -0.348 N 
HETATM    4  H   UNL     1     -41.855 -50.683  10.809  1.00  0.00     0.163 HD
ENDROOT
BRANCH   1   5
HETATM    5  C   UNL     1     -42.457 -52.696  12.373  1.00  0.00     0.145 C 
BRANCH   5   6
HETATM    6  C   UNL     1     -43.329 -53.460  13.318  1.00  0.00    -0.002 A 
HETATM    7  C   UNL     1     -42.992 -54.292  14.426  1.00  0.00     0.030 A 
HETATM    8  C   UNL     1     -41.657 -54.666  14.960  1.00  0.00     0.070 C 
HETATM    9  N   UNL     1     -44.083 -54.759  15.043  1.00  0.00    -0.303 N 
HETATM   10  N   UNL     1     -45.110 -54.224  14.371  1.00  0.00    -0.300 N 
ATOM     11  HN  UNL     1     -44.124 -55.385  15.848  1.00  0.00     0.186 HD
HETATM   12  C   UNL     1     -46.457 -54.530  14.794  1.00  0.00     0.177 C 
HETATM   13  C   UNL     1     -44.720 -53.417  13.336  1.00  0.00     0.033 A 
HETATM   14  C   UNL     1     -45.666 -52.657  12.477  1.00  0.00     0.070 C 
ENDBRANCH   5   6
ENDBRANCH   1   5
BRANCH   3  15
HETATM   15  C   UNL     1     -41.767 -48.942  12.046  1.00  0.00     0.170 C 
HETATM   16  C   UNL     1     -42.874 -48.075  11.442  1.00  0.00     0.034 C 
HETATM   17  C   UNL     1     -42.879 -46.673  12.047  1.00  0.00     0.004 C 
HETATM   18  C   UNL     1     -41.938 -45.693  11.360  1.00  0.00     0.015 C 
HETATM   19  C   UNL     1     -40.664 -46.279  10.771  1.00  0.00     0.095 C 
HETATM   20  N   UNL     1     -39.966 -47.241  11.600  1.00  0.00    -0.261 NA
HETATM   21  C   UNL     1     -40.334 -48.566  11.616  1.00  0.00     0.220 C 
HETATM   22  H   UNL     1     -38.960 -47.198  11.472  1.00  0.00     0.130 HD
HETATM   23  O   UNL     1     -39.469 -49.421  11.413  1.00  0.00    -0.278 OA
ENDBRANCH   3  15
TORSDOF 3
ENDMDL
MODEL 7
REMARK VINA RESULT:      -5.6      5.152      7.252
REMARK  3 active torsions:
REMARK  status: ('A' for Active; 'I' for Inactive)
REMARK    1  A    between atoms: C_9  and  C_10 
REMARK    2  A    between atoms: C_10  and  C_11 
REMARK       I    between atoms: C_11  and  N_13 
REMARK    3  A    between atoms: N_13  and  C_14 
ROOT
HETATM    1  C   UNL     1     -40.817 -48.806  11.945  1.00  0.00     0.222 C 
HETATM    2  O   UNL     1     -41.138 -48.934  10.765  1.00  0.00    -0.273 OA
HETATM    3  N   UNL     1     -40.953 -49.832  12.862  1.00  0.00    -0.348 N 
HETATM    4  H   UNL     1     -40.411 -49.800  13.721  1.00  0.00     0.163 HD
ENDROOT
BRANCH   1   5
HETATM    5  C   UNL     1     -40.343 -47.481  12.506  1.00  0.00     0.145 C 
BRANCH   5   6
HETATM    6  C   UNL     1     -41.299 -46.333  12.424  1.00  0.00    -0.002 A 
HETATM    7  C   UNL     1     -42.415 -45.995  13.243  1.00  0.00     0.030 A 
HETATM    8  C   UNL     1     -42.976 -46.704  14.422  1.00  0.00     0.070 C 
HETATM    9  N   UNL     1     -42.987 -44.850  12.852  1.00  0.00    -0.303 N 
HETATM   10  N   UNL     1     -42.246 -44.437  11.816  1.00  0.00    -0.300 N 
ATOM     11  HN  UNL     1     -43.806 -44.394  13.254  1.00  0.00     0.186 HD
HETATM   12  C   UNL     1     -42.600 -43.203  11.153  1.00  0.00     0.177 C 
HETATM   13  C   UNL     1     -41.204 -45.276  11.525  1.00  0.00     0.033 A 
HETATM   14  C   UNL     1     -40.200 -45.009  10.461  1.00  0.00     0.070 C 
ENDBRANCH   5   6
ENDBRANCH   1   5
BRANCH   3  15
HETATM   15  C   UNL     1     -41.503 -51.132  12.453  1.00  0.00     0.170 C 
HETATM   16  C   UNL     1     -42.713 -51.487  13.321  1.00  0.00     0.034 C 
HETATM   17  C   UNL     1     -43.548 -52.596  12.689  1.00  0.00     0.004 C 
HETATM   18  C   UNL     1     -43.077 -54.004  13.027  1.00  0.00     0.015 C 
HETATM   19  C   UNL     1     -41.581 -54.183  13.237  1.00  0.00     0.095 C 
HETATM   20  N   UNL     1     -40.721 -53.518  12.280  1.00  0.00    -0.261 NA
HETATM   21  C   UNL     1     -40.384 -52.192  12.427  1.00  0.00     0.220 C 
HETATM   22  H   UNL     1     -39.868 -54.039  12.104  1.00  0.00     0.130 HD
HETATM   23  O   UNL     1     -39.191 -51.881  12.401  1.00  0.00    -0.278 OA
ENDBRANCH   3  15
TORSDOF 3
ENDMDL
MODEL 8
REMARK VINA RESULT:      -5.6      5.337      6.873
REMARK  3 active torsions:
REMARK  status: ('A' for Active; 'I' for Inactive)
REMARK    1  A    between atoms: C_9  and  C_10 
REMARK    2  A    between atoms: C_10  and  C_11 
REMARK       I    between atoms: C_11  and  N_13 
REMARK    3  A    between atoms: N_13  and  C_14 
ROOT
HETATM    1  C   UNL     1     -40.460 -47.054  12.987  1.00  0.00     0.222 C 
HETATM    2  O   UNL     1     -41.295 -46.910  13.878  1.00  0.00    -0.273 OA
HETATM    3  N   UNL     1     -40.783 -46.940  11.648  1.00  0.00    -0.348 N 
HETATM    4  H   UNL     1     -40.041 -46.760  10.976  1.00  0.00     0.163 HD
ENDROOT
BRANCH   1   5
HETATM    5  C   UNL     1     -39.033 -47.467  13.288  1.00  0.00     0.145 C 
BRANCH   5   6
HETATM    6  C   UNL     1     -38.790 -48.925  13.524  1.00  0.00    -0.002 A 
HETATM    7  C   UNL     1     -38.167 -49.906  12.700  1.00  0.00     0.030 A 
HETATM    8  C   UNL     1     -37.590 -49.774  11.337  1.00  0.00     0.070 C 
HETATM    9  N   UNL     1     -38.110 -51.097  13.307  1.00  0.00    -0.303 N 
HETATM   10  N   UNL     1     -38.659 -50.892  14.511  1.00  0.00    -0.300 N 
ATOM     11  HN  UNL     1     -37.732 -51.969  12.935  1.00  0.00     0.186 HD
HETATM   12  C   UNL     1     -38.748 -51.999  15.435  1.00  0.00     0.177 C 
HETATM   13  C   UNL     1     -39.067 -49.601  14.708  1.00  0.00     0.033 A 
HETATM   14  C   UNL     1     -39.650 -49.102  15.982  1.00  0.00     0.070 C 
ENDBRANCH   5   6
ENDBRANCH   1   5
BRANCH   3  15
HETATM   15  C   UNL     1     -42.161 -46.645  11.234  1.00  0.00     0.170 C 
HETATM   16  C   UNL     1     -42.749 -47.840  10.478  1.00  0.00     0.034 C 
HETATM   17  C   UNL     1     -44.270 -47.750  10.388  1.00  0.00     0.004 C 
HETATM   18  C   UNL     1     -44.780 -46.938   9.206  1.00  0.00     0.015 C 
HETATM   19  C   UNL     1     -43.907 -45.775   8.759  1.00  0.00     0.095 C 
HETATM   20  N   UNL     1     -43.361 -44.948   9.815  1.00  0.00    -0.261 NA
HETATM   21  C   UNL     1     -42.208 -45.304  10.474  1.00  0.00     0.220 C 
HETATM   22  H   UNL     1     -43.272 -43.976   9.534  1.00  0.00     0.130 HD
HETATM   23  O   UNL     1     -41.292 -44.481  10.547  1.00  0.00    -0.278 OA
ENDBRANCH   3  15
TORSDOF 3
ENDMDL
MODEL 9
REMARK VINA RESULT:      -5.6      3.906      6.090
REMARK  3 active torsions:
REMARK  status: ('A' for Active; 'I' for Inactive)
REMARK    1  A    between atoms: C_9  and  C_10 
REMARK    2  A    between atoms: C_10  and  C_11 
REMARK       I    between atoms: C_11  and  N_13 
REMARK    3  A    between atoms: N_13  and  C_14 
ROOT
HETATM    1  C   UNL     1     -41.811 -50.967  12.246  1.00  0.00     0.222 C 
HETATM    2  O   UNL     1     -42.696 -50.576  13.003  1.00  0.00    -0.273 OA
HETATM    3  N   UNL     1     -41.041 -50.096  11.498  1.00  0.00    -0.348 N 
HETATM    4  H   UNL     1     -40.147 -50.415  11.135  1.00  0.00     0.163 HD
ENDROOT
BRANCH   1   5
HETATM    5  C   UNL     1     -41.564 -52.442  11.999  1.00  0.00     0.145 C 
BRANCH   5   6
HETATM    6  C   UNL     1     -41.788 -53.365  13.155  1.00  0.00    -0.002 A 
HETATM    7  C   UNL     1     -42.950 -54.089  13.553  1.00  0.00     0.030 A 
HETATM    8  C   UNL     1     -44.303 -54.122  12.940  1.00  0.00     0.070 C 
HETATM    9  N   UNL     1     -42.717 -54.843  14.633  1.00  0.00    -0.303 N 
HETATM   10  N   UNL     1     -41.425 -54.638  14.919  1.00  0.00    -0.300 N 
ATOM     11  HN  UNL     1     -43.377 -55.443  15.128  1.00  0.00     0.186 HD
HETATM   12  C   UNL     1     -40.843 -55.323  16.050  1.00  0.00     0.177 C 
HETATM   13  C   UNL     1     -40.808 -53.775  14.053  1.00  0.00     0.033 A 
HETATM   14  C   UNL     1     -39.363 -53.431  14.118  1.00  0.00     0.070 C 
ENDBRANCH   5   6
ENDBRANCH   1   5
BRANCH   3  15
HETATM   15  C   UNL     1     -41.263 -48.646  11.576  1.00  0.00     0.170 C 
HETATM   16  C   UNL     1     -41.926 -48.145  10.290  1.00  0.00     0.034 C 
HETATM   17  C   UNL     1     -42.537 -46.760  10.479  1.00  0.00     0.004 C 
HETATM   18  C   UNL     1     -41.564 -45.611  10.252  1.00  0.00     0.015 C 
HETATM   19  C   UNL     1     -40.111 -45.874  10.618  1.00  0.00     0.095 C 
HETATM   20  N   UNL     1     -39.886 -46.561  11.874  1.00  0.00    -0.261 NA
HETATM   21  C   UNL     1     -39.951 -47.932  11.956  1.00  0.00     0.220 C 
HETATM   22  H   UNL     1     -39.029 -46.260  12.327  1.00  0.00     0.130 HD
HETATM   23  O   UNL     1     -39.000 -48.537  12.457  1.00  0.00    -0.278 OA
ENDBRANCH   3  15
TORSDOF 3
ENDMDL
