MODEL 1
REMARK VINA RESULT:      -5.5      0.000      0.000
REMARK  4 active torsions:
REMARK  status: ('A' for Active; 'I' for Inactive)
REMARK    1  A    between atoms: C_2  and  C_3 
REMARK    2  A    between atoms: C_2  and  N_10 
REMARK    3  A    between atoms: C_3  and  N_4 
REMARK       I    between atoms: N_10  and  C_11 
REMARK       I    between atoms: C_11  and  N_13 
REMARK    4  A    between atoms: N_13  and  C_14 
ROOT
HETATM    1  C   UNL     1     -42.825 -45.491  10.378  1.00  0.00     0.034 C 
HETATM    2  C   UNL     1     -42.774 -46.962   9.962  1.00  0.00     0.102 C 
ENDROOT
BRANCH   2   3
HETATM    3  C   UNL     1     -43.314 -47.196   8.538  1.00  0.00     0.172 C 
BRANCH   3   4
HETATM    4  N   UNL     1     -44.659 -47.736   8.518  1.00  0.00    -0.302 N 
HETATM    5  C   UNL     1     -45.629 -47.559   9.463  1.00  0.00     0.111 A 
HETATM    6  C   UNL     1     -46.738 -48.228   9.001  1.00  0.00     0.037 A 
HETATM    7  C   UNL     1     -46.330 -48.792   7.778  1.00  0.00     0.108 A 
HETATM    8  N   UNL     1     -45.057 -48.510   7.488  1.00  0.00    -0.310 N 
ATOM      9  HN  UNL     1     -44.514 -48.808   6.677  1.00  0.00     0.186 HD
ENDBRANCH   3   4
ENDBRANCH   2   3
BRANCH   2  10
HETATM   10  N   UNL     1     -41.397 -47.457  10.080  1.00  0.00    -0.337 N 
HETATM   11  C   UNL     1     -41.092 -48.449  10.979  1.00  0.00     0.316 C 
HETATM   12  O   UNL     1     -41.931 -48.999  11.680  1.00  0.00    -0.247 OA
HETATM   13  N   UNL     1     -39.749 -48.745  10.992  1.00  0.00    -0.339 N 
HETATM   14  H   UNL     1     -39.232 -48.520  10.150  1.00  0.00     0.164 HD
HETATM   15  H   UNL     1     -40.643 -46.838   9.817  1.00  0.00     0.164 HD
BRANCH  13  16
HETATM   16  C   UNL     1     -39.234 -49.778  11.834  1.00  0.00     0.086 A 
HETATM   17  C   UNL     1     -38.224 -49.446  12.898  1.00  0.00     0.027 A 
HETATM   18  C   UNL     1     -37.817 -50.267  11.711  1.00  0.00     0.027 A 
ENDBRANCH  13  16
ENDBRANCH   2  10
TORSDOF 4
ENDMDL
MODEL 2
REMARK VINA RESULT:      -5.3      1.611      6.724
REMARK  4 active torsions:
REMARK  status: ('A' for Active; 'I' for Inactive)
REMARK    1  A    between atoms: C_2  and  C_3 
REMARK    2  A    between atoms: C_2  and  N_10 
REMARK    3  A    between atoms: C_3  and  N_4 
REMARK       I    between atoms: N_10  and  C_11 
REMARK       I    between atoms: C_11  and  N_13 
REMARK    4  A    between atoms: N_13  and  C_14 
ROOT
HETATM    1  C   UNL     1     -40.561 -47.009  12.062  1.00  0.00     0.034 C 
HETATM    2  C   UNL     1     -41.209 -48.133  11.253  1.00  0.00     0.102 C 
ENDROOT
BRANCH   2   3
HETATM    3  C   UNL     1     -40.889 -49.531  11.815  1.00  0.00     0.172 C 
BRANCH   3   4
HETATM    4  N   UNL     1     -39.467 -49.793  11.921  1.00  0.00    -0.302 N 
HETATM    5  C   UNL     1     -38.770 -50.092  13.058  1.00  0.00     0.111 A 
HETATM    6  C   UNL     1     -37.467 -50.288  12.666  1.00  0.00     0.037 A 
HETATM    7  C   UNL     1     -37.476 -50.067  11.276  1.00  0.00     0.108 A 
HETATM    8  N   UNL     1     -38.690 -49.747  10.821  1.00  0.00    -0.310 N 
ATOM      9  HN  UNL     1     -38.966 -49.521   9.864  1.00  0.00     0.186 HD
ENDBRANCH   3   4
ENDBRANCH   2   3
BRANCH   2  10
HETATM   10  N   UNL     1     -42.661 -47.920  11.194  1.00  0.00    -0.337 N 
HETATM   11  C   UNL     1     -43.296 -47.809   9.982  1.00  0.00     0.316 C 
HETATM   12  O   UNL     1     -42.719 -47.928   8.909  1.00  0.00    -0.247 OA
HETATM   13  N   UNL     1     -44.641 -47.557  10.121  1.00  0.00    -0.339 N 
HETATM   14  H   UNL     1     -45.064 -47.847  10.995  1.00  0.00     0.164 HD
HETATM   15  H   UNL     1     -43.110 -47.476  11.983  1.00  0.00     0.164 HD
BRANCH  13  16
HETATM   16  C   UNL     1     -45.488 -47.445   8.976  1.00  0.00     0.086 A 
HETATM   17  C   UNL     1     -46.935 -47.071   9.144  1.00  0.00     0.027 A 
HETATM   18  C   UNL     1     -46.568 -48.452   8.689  1.00  0.00     0.027 A 
ENDBRANCH  13  16
ENDBRANCH   2  10
TORSDOF 4
ENDMDL
MODEL 3
REMARK VINA RESULT:      -4.9      3.500      4.330
REMARK  4 active torsions:
REMARK  status: ('A' for Active; 'I' for Inactive)
REMARK    1  A    between atoms: C_2  and  C_3 
REMARK    2  A    between atoms: C_2  and  N_10 
REMARK    3  A    between atoms: C_3  and  N_4 
REMARK       I    between atoms: N_10  and  C_11 
REMARK       I    between atoms: C_11  and  N_13 
REMARK    4  A    between atoms: N_13  and  C_14 
ROOT
HETATM    1  C   UNL     1     -40.371 -48.608  12.796  1.00  0.00     0.034 C 
HETATM    2  C   UNL     1     -41.642 -48.681  11.949  1.00  0.00     0.102 C 
ENDROOT
BRANCH   2   3
HETATM    3  C   UNL     1     -41.466 -48.047  10.557  1.00  0.00     0.172 C 
BRANCH   3   4
HETATM    4  N   UNL     1     -42.722 -47.809   9.872  1.00  0.00    -0.302 N 
HETATM    5  C   UNL     1     -43.913 -47.457  10.442  1.00  0.00     0.111 A 
HETATM    6  C   UNL     1     -44.804 -47.314   9.404  1.00  0.00     0.037 A 
HETATM    7  C   UNL     1     -44.059 -47.620   8.250  1.00  0.00     0.108 A 
HETATM    8  N   UNL     1     -42.793 -47.940   8.533  1.00  0.00    -0.310 N 
ATOM      9  HN  UNL     1     -42.053 -48.218   7.887  1.00  0.00     0.186 HD
ENDBRANCH   3   4
ENDBRANCH   2   3
BRANCH   2  10
HETATM   10  N   UNL     1     -42.072 -50.080  11.829  1.00  0.00    -0.337 N 
HETATM   11  C   UNL     1     -42.978 -50.605  12.717  1.00  0.00     0.316 C 
HETATM   12  O   UNL     1     -43.506 -49.947  13.604  1.00  0.00    -0.247 OA
HETATM   13  N   UNL     1     -43.218 -51.940  12.486  1.00  0.00    -0.339 N 
HETATM   14  H   UNL     1     -43.039 -52.272  11.547  1.00  0.00     0.164 HD
HETATM   15  H   UNL     1     -41.444 -50.734  11.382  1.00  0.00     0.164 HD
BRANCH  13  16
HETATM   16  C   UNL     1     -44.162 -52.662  13.280  1.00  0.00     0.086 A 
HETATM   17  C   UNL     1     -44.387 -54.128  13.030  1.00  0.00     0.027 A 
HETATM   18  C   UNL     1     -45.470 -53.140  12.713  1.00  0.00     0.027 A 
ENDBRANCH  13  16
ENDBRANCH   2  10
TORSDOF 4
ENDMDL
MODEL 4
REMARK VINA RESULT:      -4.9      2.142      6.656
REMARK  4 active torsions:
REMARK  status: ('A' for Active; 'I' for Inactive)
REMARK    1  A    between atoms: C_2  and  C_3 
REMARK    2  A    between atoms: C_2  and  N_10 
REMARK    3  A    between atoms: C_3  and  N_4 
REMARK       I    between atoms: N_10  and  C_11 
REMARK       I    between atoms: C_11  and  N_13 
REMARK    4  A    between atoms: N_13  and  C_14 
ROOT
HETATM    1  C   UNL     1     -42.499 -50.500  14.430  1.00  0.00     0.034 C 
HETATM    2  C   UNL     1     -41.699 -50.164  13.171  1.00  0.00     0.102 C 
ENDROOT
BRANCH   2   3
HETATM    3  C   UNL     1     -40.865 -51.355  12.661  1.00  0.00     0.172 C 
BRANCH   3   4
HETATM    4  N   UNL     1     -39.453 -51.052  12.533  1.00  0.00    -0.302 N 
HETATM    5  C   UNL     1     -38.457 -51.394  13.404  1.00  0.00     0.111 A 
HETATM    6  C   UNL     1     -37.290 -50.922  12.852  1.00  0.00     0.037 A 
HETATM    7  C   UNL     1     -37.688 -50.294  11.657  1.00  0.00     0.108 A 
HETATM    8  N   UNL     1     -39.009 -50.355  11.468  1.00  0.00    -0.310 N 
ATOM      9  HN  UNL     1     -39.554 -49.966  10.697  1.00  0.00     0.186 HD
ENDBRANCH   3   4
ENDBRANCH   2   3
BRANCH   2  10
HETATM   10  N   UNL     1     -42.611 -49.687  12.123  1.00  0.00    -0.337 N 
HETATM   11  C   UNL     1     -42.215 -48.697  11.259  1.00  0.00     0.316 C 
HETATM   12  O   UNL     1     -41.096 -48.201  11.274  1.00  0.00    -0.247 OA
HETATM   13  N   UNL     1     -43.216 -48.339  10.385  1.00  0.00    -0.339 N 
HETATM   14  H   UNL     1     -43.929 -49.036  10.211  1.00  0.00     0.164 HD
HETATM   15  H   UNL     1     -43.605 -49.783  12.277  1.00  0.00     0.164 HD
BRANCH  13  16
HETATM   16  C   UNL     1     -42.990 -47.351   9.378  1.00  0.00     0.086 A 
HETATM   17  C   UNL     1     -44.121 -46.470   8.922  1.00  0.00     0.027 A 
HETATM   18  C   UNL     1     -43.547 -47.494   7.988  1.00  0.00     0.027 A 
ENDBRANCH  13  16
ENDBRANCH   2  10
TORSDOF 4
ENDMDL
MODEL 5
REMARK VINA RESULT:      -4.9      2.459      4.447
REMARK  4 active torsions:
REMARK  status: ('A' for Active; 'I' for Inactive)
REMARK    1  A    between atoms: C_2  and  C_3 
REMARK    2  A    between atoms: C_2  and  N_10 
REMARK    3  A    between atoms: C_3  and  N_4 
REMARK       I    between atoms: N_10  and  C_11 
REMARK       I    between atoms: C_11  and  N_13 
REMARK    4  A    between atoms: N_13  and  C_14 
ROOT
HETATM    1  C   UNL     1     -43.826 -47.460   8.829  1.00  0.00     0.034 C 
HETATM    2  C   UNL     1     -42.720 -47.443   9.885  1.00  0.00     0.102 C 
ENDROOT
BRANCH   2   3
HETATM    3  C   UNL     1     -42.728 -46.158  10.733  1.00  0.00     0.172 C 
BRANCH   3   4
HETATM    4  N   UNL     1     -41.474 -45.431  10.683  1.00  0.00    -0.302 N 
HETATM    5  C   UNL     1     -41.205 -44.219  11.254  1.00  0.00     0.111 A 
HETATM    6  C   UNL     1     -39.888 -43.948  10.967  1.00  0.00     0.037 A 
HETATM    7  C   UNL     1     -39.455 -45.047  10.203  1.00  0.00     0.108 A 
HETATM    8  N   UNL     1     -40.425 -45.946  10.012  1.00  0.00    -0.310 N 
ATOM      9  HN  UNL     1     -40.381 -46.817   9.483  1.00  0.00     0.186 HD
ENDBRANCH   3   4
ENDBRANCH   2   3
BRANCH   2  10
HETATM   10  N   UNL     1     -42.843 -48.629  10.743  1.00  0.00    -0.337 N 
HETATM   11  C   UNL     1     -41.721 -49.235  11.251  1.00  0.00     0.316 C 
HETATM   12  O   UNL     1     -40.588 -48.809  11.069  1.00  0.00    -0.247 OA
HETATM   13  N   UNL     1     -42.024 -50.360  11.983  1.00  0.00    -0.339 N 
HETATM   14  H   UNL     1     -42.957 -50.403  12.374  1.00  0.00     0.164 HD
HETATM   15  H   UNL     1     -43.663 -49.210  10.639  1.00  0.00     0.164 HD
BRANCH  13  16
HETATM   16  C   UNL     1     -40.995 -51.113  12.629  1.00  0.00     0.086 A 
HETATM   17  C   UNL     1     -40.833 -52.577  12.326  1.00  0.00     0.027 A 
HETATM   18  C   UNL     1     -41.309 -52.142  13.680  1.00  0.00     0.027 A 
ENDBRANCH  13  16
ENDBRANCH   2  10
TORSDOF 4
ENDMDL
MODEL 6
REMARK VINA RESULT:      -4.8      2.847      6.419
REMARK  4 active torsions:
REMARK  status: ('A' for Active; 'I' for Inactive)
REMARK    1  A    between atoms: C_2  and  C_3 
REMARK    2  A    between atoms: C_2  and  N_10 
REMARK    3  A    between atoms: C_3  and  N_4 
REMARK       I    between atoms: N_10  and  C_11 
REMARK       I    between atoms: C_11  and  N_13 
REMARK    4  A    between atoms: N_13  and  C_14 
ROOT
HETATM    1  C   UNL     1     -39.456 -47.906  11.795  1.00  0.00     0.034 C 
HETATM    2  C   UNL     1     -40.444 -46.876  11.246  1.00  0.00     0.102 C 
ENDROOT
BRANCH   2   3
HETATM    3  C   UNL     1     -39.743 -45.677  10.579  1.00  0.00     0.172 C 
BRANCH   3   4
HETATM    4  N   UNL     1     -39.879 -44.444  11.330  1.00  0.00    -0.302 N 
HETATM    5  C   UNL     1     -39.372 -44.179  12.571  1.00  0.00     0.111 A 
HETATM    6  C   UNL     1     -39.728 -42.882  12.857  1.00  0.00     0.037 A 
HETATM    7  C   UNL     1     -40.463 -42.457  11.736  1.00  0.00     0.108 A 
HETATM    8  N   UNL     1     -40.573 -43.413  10.809  1.00  0.00    -0.310 N 
ATOM      9  HN  UNL     1     -41.066 -43.372   9.916  1.00  0.00     0.186 HD
ENDBRANCH   3   4
ENDBRANCH   2   3
BRANCH   2  10
HETATM   10  N   UNL     1     -41.359 -47.530  10.301  1.00  0.00    -0.337 N 
HETATM   11  C   UNL     1     -42.562 -46.947   9.986  1.00  0.00     0.316 C 
HETATM   12  O   UNL     1     -42.913 -45.857  10.420  1.00  0.00    -0.247 OA
HETATM   13  N   UNL     1     -43.309 -47.726   9.133  1.00  0.00    -0.339 N 
HETATM   14  H   UNL     1     -42.795 -48.385   8.562  1.00  0.00     0.164 HD
HETATM   15  H   UNL     1     -41.302 -48.533  10.199  1.00  0.00     0.164 HD
BRANCH  13  16
HETATM   16  C   UNL     1     -44.579 -47.277   8.655  1.00  0.00     0.086 A 
HETATM   17  C   UNL     1     -45.821 -47.543   9.460  1.00  0.00     0.027 A 
HETATM   18  C   UNL     1     -45.618 -48.239   8.147  1.00  0.00     0.027 A 
ENDBRANCH  13  16
ENDBRANCH   2  10
TORSDOF 4
ENDMDL
MODEL 7
REMARK VINA RESULT:      -4.8      3.554      6.071
REMARK  4 active torsions:
REMARK  status: ('A' for Active; 'I' for Inactive)
REMARK    1  A    between atoms: C_2  and  C_3 
REMARK    2  A    between atoms: C_2  and  N_10 
REMARK    3  A    between atoms: C_3  and  N_4 
REMARK       I    between atoms: N_10  and  C_11 
REMARK       I    between atoms: C_11  and  N_13 
REMARK    4  A    between atoms: N_13  and  C_14 
ROOT
HETATM    1  C   UNL     1     -41.274 -50.219  13.950  1.00  0.00     0.034 C 
HETATM    2  C   UNL     1     -41.025 -50.450  12.459  1.00  0.00     0.102 C 
ENDROOT
BRANCH   2   3
HETATM    3  C   UNL     1     -40.842 -51.939  12.110  1.00  0.00     0.172 C 
BRANCH   3   4
HETATM    4  N   UNL     1     -41.919 -52.778  12.600  1.00  0.00    -0.302 N 
HETATM    5  C   UNL     1     -41.881 -53.615  13.679  1.00  0.00     0.111 A 
HETATM    6  C   UNL     1     -43.135 -54.173  13.772  1.00  0.00     0.037 A 
HETATM    7  C   UNL     1     -43.850 -53.624  12.691  1.00  0.00     0.108 A 
HETATM    8  N   UNL     1     -43.107 -52.786  11.963  1.00  0.00    -0.310 N 
ATOM      9  HN  UNL     1     -43.375 -52.273  11.123  1.00  0.00     0.186 HD
ENDBRANCH   3   4
ENDBRANCH   2   3
BRANCH   2  10
HETATM   10  N   UNL     1     -42.129 -49.870  11.682  1.00  0.00    -0.337 N 
HETATM   11  C   UNL     1     -41.941 -48.711  10.971  1.00  0.00     0.316 C 
HETATM   12  O   UNL     1     -40.863 -48.135  10.901  1.00  0.00    -0.247 OA
HETATM   13  N   UNL     1     -43.095 -48.287  10.354  1.00  0.00    -0.339 N 
HETATM   14  H   UNL     1     -43.790 -48.998  10.167  1.00  0.00     0.164 HD
HETATM   15  H   UNL     1     -43.075 -50.074  11.973  1.00  0.00     0.164 HD
BRANCH  13  16
HETATM   16  C   UNL     1     -43.098 -47.118   9.532  1.00  0.00     0.086 A 
HETATM   17  C   UNL     1     -44.403 -46.530   9.068  1.00  0.00     0.027 A 
HETATM   18  C   UNL     1     -43.479 -47.174   8.078  1.00  0.00     0.027 A 
ENDBRANCH  13  16
ENDBRANCH   2  10
TORSDOF 4
ENDMDL
MODEL 8
REMARK VINA RESULT:      -4.8      4.964      5.768
REMARK  4 active torsions:
REMARK  status: ('A' for Active; 'I' for Inactive)
REMARK    1  A    between atoms: C_2  and  C_3 
REMARK    2  A    between atoms: C_2  and  N_10 
REMARK    3  A    between atoms: C_3  and  N_4 
REMARK       I    between atoms: N_10  and  C_11 
REMARK       I    between atoms: C_11  and  N_13 
REMARK    4  A    between atoms: N_13  and  C_14 
ROOT
HETATM    1  C   UNL     1     -42.450 -54.030  14.513  1.00  0.00     0.034 C 
HETATM    2  C   UNL     1     -42.899 -53.796  13.070  1.00  0.00     0.102 C 
ENDROOT
BRANCH   2   3
HETATM    3  C   UNL     1     -44.365 -54.202  12.830  1.00  0.00     0.172 C 
BRANCH   3   4
HETATM    4  N   UNL     1     -45.304 -53.121  13.060  1.00  0.00    -0.302 N 
HETATM    5  C   UNL     1     -45.774 -52.686  14.267  1.00  0.00     0.111 A 
HETATM    6  C   UNL     1     -46.609 -51.629  13.990  1.00  0.00     0.037 A 
HETATM    7  C   UNL     1     -46.591 -51.517  12.588  1.00  0.00     0.108 A 
HETATM    8  N   UNL     1     -45.810 -52.437  12.015  1.00  0.00    -0.310 N 
ATOM      9  HN  UNL     1     -45.637 -52.587  11.021  1.00  0.00     0.186 HD
ENDBRANCH   3   4
ENDBRANCH   2   3
BRANCH   2  10
HETATM   10  N   UNL     1     -42.689 -52.387  12.713  1.00  0.00    -0.337 N 
HETATM   11  C   UNL     1     -41.513 -51.988  12.127  1.00  0.00     0.316 C 
HETATM   12  O   UNL     1     -40.616 -52.766  11.828  1.00  0.00    -0.247 OA
HETATM   13  N   UNL     1     -41.471 -50.630  11.917  1.00  0.00    -0.339 N 
HETATM   14  H   UNL     1     -42.365 -50.159  11.847  1.00  0.00     0.164 HD
HETATM   15  H   UNL     1     -43.198 -51.683  13.230  1.00  0.00     0.164 HD
BRANCH  13  16
HETATM   16  C   UNL     1     -40.345 -50.021  11.281  1.00  0.00     0.086 A 
HETATM   17  C   UNL     1     -39.120 -49.684  12.085  1.00  0.00     0.027 A 
HETATM   18  C   UNL     1     -39.977 -48.585  11.530  1.00  0.00     0.027 A 
ENDBRANCH  13  16
ENDBRANCH   2  10
TORSDOF 4
ENDMDL
MODEL 9
REMARK VINA RESULT:      -4.7      3.464      5.408
REMARK  4 active torsions:
REMARK  status: ('A' for Active; 'I' for Inactive)
REMARK    1  A    between atoms: C_2  and  C_3 
REMARK    2  A    between atoms: C_2  and  N_10 
REMARK    3  A    between atoms: C_3  and  N_4 
REMARK       I    between atoms: N_10  and  C_11 
REMARK       I    between atoms: C_11  and  N_13 
REMARK    4  A    between atoms: N_13  and  C_14 
ROOT
HETATM    1  C   UNL     1     -39.398 -49.021  11.664  1.00  0.00     0.034 C 
HETATM    2  C   UNL     1     -40.909 -48.785  11.684  1.00  0.00     0.102 C 
ENDROOT
BRANCH   2   3
HETATM    3  C   UNL     1     -41.360 -47.736  10.651  1.00  0.00     0.172 C 
BRANCH   3   4
HETATM    4  N   UNL     1     -40.823 -46.413  10.905  1.00  0.00    -0.302 N 
HETATM    5  C   UNL     1     -41.027 -45.644  12.016  1.00  0.00     0.111 A 
HETATM    6  C   UNL     1     -40.298 -44.495  11.822  1.00  0.00     0.037 A 
HETATM    7  C   UNL     1     -39.704 -44.658  10.557  1.00  0.00     0.108 A 
HETATM    8  N   UNL     1     -40.036 -45.820   9.986  1.00  0.00    -0.310 N 
ATOM      9  HN  UNL     1     -39.759 -46.174   9.070  1.00  0.00     0.186 HD
ENDBRANCH   3   4
ENDBRANCH   2   3
BRANCH   2  10
HETATM   10  N   UNL     1     -41.606 -50.059  11.464  1.00  0.00    -0.337 N 
HETATM   11  C   UNL     1     -42.212 -50.706  12.512  1.00  0.00     0.316 C 
HETATM   12  O   UNL     1     -42.252 -50.252  13.648  1.00  0.00    -0.247 OA
HETATM   13  N   UNL     1     -42.764 -51.908  12.133  1.00  0.00    -0.339 N 
HETATM   14  H   UNL     1     -43.001 -52.002  11.153  1.00  0.00     0.164 HD
HETATM   15  H   UNL     1     -41.316 -50.633  10.685  1.00  0.00     0.164 HD
BRANCH  13  16
HETATM   16  C   UNL     1     -43.476 -52.716  13.071  1.00  0.00     0.086 A 
HETATM   17  C   UNL     1     -42.920 -54.051  13.486  1.00  0.00     0.027 A 
HETATM   18  C   UNL     1     -44.168 -53.986  12.658  1.00  0.00     0.027 A 
ENDBRANCH  13  16
ENDBRANCH   2  10
TORSDOF 4
ENDMDL
