MODEL 1
REMARK VINA RESULT:      -6.5      0.000      0.000
REMARK  8 active torsions:
REMARK  status: ('A' for Active; 'I' for Inactive)
REMARK    1  A    between atoms: C_2  and  N_3 
REMARK    2  A    between atoms: C_7  and  C_8 
REMARK    3  A    between atoms: C_8  and  N_9 
REMARK    4  A    between atoms: N_9  and  C_10 
REMARK    5  A    between atoms: C_10  and  C_11 
REMARK    6  A    between atoms: C_11  and  O_12 
REMARK    7  A    between atoms: C_11  and  C_13 
REMARK    8  A    between atoms: C_13  and  N_14 
ROOT
HETATM    1  C   UNL     1     -41.819 -52.662  12.158  1.00  0.00     0.164 C 
ENDROOT
BRANCH   1   2
HETATM    2  C   UNL     1     -41.483 -51.158  12.261  1.00  0.00     0.302 C 
BRANCH   2   3
HETATM    3  N   UNL     1     -40.637 -50.777  11.124  1.00  0.00     0.088 N 
HETATM    4  H   UNL     1     -39.802 -51.368  11.065  1.00  0.00     0.316 HD
BRANCH   3   5
HETATM    5  C   UNL     1     -40.127 -49.405  11.226  1.00  0.00     0.303 C 
BRANCH   5   6
HETATM    6  C   UNL     1     -41.341 -48.463  11.305  1.00  0.00     0.177 C 
HETATM    7  O   UNL     1     -41.796 -48.195   9.957  1.00  0.00    -0.381 OA
HETATM    8  C   UNL     1     -42.943 -47.334   9.983  1.00  0.00     0.198 C 
HETATM    9  C   UNL     1     -42.637 -46.010  10.707  1.00  0.00     0.298 C 
HETATM   10  N   UNL     1     -42.095 -46.180  12.078  1.00  0.00     0.092 N 
HETATM   11  C   UNL     1     -40.973 -47.144  12.011  1.00  0.00     0.306 C 
BRANCH  10  12
HETATM   12  C   UNL     1     -43.165 -46.553  13.016  1.00  0.00     0.268 C 
HETATM   13  C   UNL     1     -43.011 -45.961  14.413  1.00  0.00     0.037 C 
ENDBRANCH  10  12
ENDBRANCH   5   6
ENDBRANCH   3   5
ENDBRANCH   2   3
ENDBRANCH   1   2
BRANCH   1  14
HETATM   14  O   UNL     1     -40.632 -53.353  11.743  1.00  0.00    -0.392 OA
HETATM   15  H   UNL     1     -40.078 -53.425  12.546  1.00  0.00     0.210 HD
ENDBRANCH   1  14
BRANCH   1  16
HETATM   16  C   UNL     1     -42.294 -53.211  13.507  1.00  0.00     0.163 C 
BRANCH  16  17
HETATM   17  N   UNL     1     -43.735 -53.287  13.611  1.00  0.00    -0.339 N 
HETATM   18  C   UNL     1     -44.521 -54.181  12.938  1.00  0.00     0.184 A 
HETATM   19  N   UNL     1     -45.774 -54.102  13.321  1.00  0.00    -0.350 N 
HETATM   20  C   UNL     1     -45.797 -53.097  14.258  1.00  0.00     0.060 A 
ATOM     21  HN  UNL     1     -46.560 -54.664  12.993  1.00  0.00     0.166 HD
HETATM   22  C   UNL     1     -46.875 -52.590  14.995  1.00  0.00     0.039 A 
HETATM   23  C   UNL     1     -44.532 -52.564  14.457  1.00  0.00     0.062 A 
HETATM   24  C   UNL     1     -46.657 -51.554  15.925  1.00  0.00    -0.054 A 
HETATM   25  C   UNL     1     -47.836 -51.046  16.708  1.00  0.00     0.049 C 
HETATM   26  C   UNL     1     -45.361 -51.022  16.102  1.00  0.00    -0.054 A 
HETATM   27  C   UNL     1     -45.054 -49.915  17.076  1.00  0.00     0.049 C 
HETATM   28  C   UNL     1     -44.276 -51.530  15.361  1.00  0.00     0.039 A 
ENDBRANCH  16  17
ENDBRANCH   1  16
TORSDOF 8
ENDMDL
MODEL 2
REMARK VINA RESULT:      -6.4      1.900      7.291
REMARK  8 active torsions:
REMARK  status: ('A' for Active; 'I' for Inactive)
REMARK    1  A    between atoms: C_2  and  N_3 
REMARK    2  A    between atoms: C_7  and  C_8 
REMARK    3  A    between atoms: C_8  and  N_9 
REMARK    4  A    between atoms: N_9  and  C_10 
REMARK    5  A    between atoms: C_10  and  C_11 
REMARK    6  A    between atoms: C_11  and  O_12 
REMARK    7  A    between atoms: C_11  and  C_13 
REMARK    8  A    between atoms: C_13  and  N_14 
ROOT
HETATM    1  C   UNL     1     -40.535 -49.669  11.524  1.00  0.00     0.164 C 
ENDROOT
BRANCH   1   2
HETATM    2  C   UNL     1     -40.179 -51.014  12.196  1.00  0.00     0.302 C 
BRANCH   2   3
HETATM    3  N   UNL     1     -40.976 -52.082  11.580  1.00  0.00     0.088 N 
HETATM    4  H   UNL     1     -41.945 -51.784  11.429  1.00  0.00     0.316 HD
BRANCH   3   5
HETATM    5  C   UNL     1     -41.071 -53.280  12.421  1.00  0.00     0.303 C 
BRANCH   5   6
HETATM    6  C   UNL     1     -42.402 -53.203  13.191  1.00  0.00     0.177 C 
HETATM    7  O   UNL     1     -42.587 -54.450  13.902  1.00  0.00    -0.381 OA
HETATM    8  C   UNL     1     -43.809 -54.416  14.653  1.00  0.00     0.198 C 
HETATM    9  C   UNL     1     -45.021 -54.145  13.742  1.00  0.00     0.298 C 
HETATM   10  N   UNL     1     -44.896 -52.921  12.914  1.00  0.00     0.092 N 
HETATM   11  C   UNL     1     -43.583 -52.961  12.232  1.00  0.00     0.306 C 
BRANCH  10  12
HETATM   12  C   UNL     1     -45.122 -51.717  13.730  1.00  0.00     0.268 C 
HETATM   13  C   UNL     1     -46.578 -51.489  14.123  1.00  0.00     0.037 C 
ENDBRANCH  10  12
ENDBRANCH   5   6
ENDBRANCH   3   5
ENDBRANCH   2   3
ENDBRANCH   1   2
BRANCH   1  14
HETATM   14  O   UNL     1     -40.559 -49.876  10.104  1.00  0.00    -0.392 OA
HETATM   15  H   UNL     1     -39.688 -50.261   9.883  1.00  0.00     0.210 HD
ENDBRANCH   1  14
BRANCH   1  16
HETATM   16  C   UNL     1     -41.902 -49.164  11.999  1.00  0.00     0.163 C 
BRANCH  16  17
HETATM   17  N   UNL     1     -42.262 -47.885  11.429  1.00  0.00    -0.339 N 
HETATM   18  C   UNL     1     -43.366 -47.657  10.656  1.00  0.00     0.184 A 
HETATM   19  N   UNL     1     -43.507 -46.380  10.383  1.00  0.00    -0.350 N 
HETATM   20  C   UNL     1     -42.434 -45.768  10.984  1.00  0.00     0.060 A 
ATOM     21  HN  UNL     1     -44.251 -45.939   9.843  1.00  0.00     0.166 HD
HETATM   22  C   UNL     1     -42.084 -44.412  11.017  1.00  0.00     0.039 A 
HETATM   23  C   UNL     1     -41.632 -46.689  11.644  1.00  0.00     0.062 A 
HETATM   24  C   UNL     1     -40.931 -44.006  11.719  1.00  0.00    -0.054 A 
HETATM   25  C   UNL     1     -40.597 -42.541  11.743  1.00  0.00     0.049 C 
HETATM   26  C   UNL     1     -40.127 -44.965  12.375  1.00  0.00    -0.054 A 
HETATM   27  C   UNL     1     -38.882 -44.605  13.143  1.00  0.00     0.049 C 
HETATM   28  C   UNL     1     -40.477 -46.329  12.342  1.00  0.00     0.039 A 
ENDBRANCH  16  17
ENDBRANCH   1  16
TORSDOF 8
ENDMDL
MODEL 3
REMARK VINA RESULT:      -6.3      2.199      3.506
REMARK  8 active torsions:
REMARK  status: ('A' for Active; 'I' for Inactive)
REMARK    1  A    between atoms: C_2  and  N_3 
REMARK    2  A    between atoms: C_7  and  C_8 
REMARK    3  A    between atoms: C_8  and  N_9 
REMARK    4  A    between atoms: N_9  and  C_10 
REMARK    5  A    between atoms: C_10  and  C_11 
REMARK    6  A    between atoms: C_11  and  O_12 
REMARK    7  A    between atoms: C_11  and  C_13 
REMARK    8  A    between atoms: C_13  and  N_14 
ROOT
HETATM    1  C   UNL     1     -41.410 -49.686  11.311  1.00  0.00     0.164 C 
ENDROOT
BRANCH   1   2
HETATM    2  C   UNL     1     -41.484 -48.163  11.558  1.00  0.00     0.302 C 
BRANCH   2   3
HETATM    3  N   UNL     1     -41.203 -47.459  10.301  1.00  0.00     0.088 N 
HETATM    4  H   UNL     1     -40.315 -46.951  10.349  1.00  0.00     0.316 HD
BRANCH   3   5
HETATM    5  C   UNL     1     -42.210 -46.442   9.980  1.00  0.00     0.303 C 
BRANCH   5   6
HETATM    6  C   UNL     1     -41.927 -45.214  10.864  1.00  0.00     0.177 C 
HETATM    7  O   UNL     1     -42.847 -44.162  10.487  1.00  0.00    -0.381 OA
HETATM    8  C   UNL     1     -42.634 -43.001  11.301  1.00  0.00     0.198 C 
HETATM    9  C   UNL     1     -41.184 -42.495  11.190  1.00  0.00     0.298 C 
HETATM   10  N   UNL     1     -40.158 -43.524  11.489  1.00  0.00     0.092 N 
HETATM   11  C   UNL     1     -40.474 -44.731  10.693  1.00  0.00     0.306 C 
BRANCH  10  12
HETATM   12  C   UNL     1     -40.064 -43.757  12.939  1.00  0.00     0.268 C 
HETATM   13  C   UNL     1     -39.009 -44.783  13.343  1.00  0.00     0.037 C 
ENDBRANCH  10  12
ENDBRANCH   5   6
ENDBRANCH   3   5
ENDBRANCH   2   3
ENDBRANCH   1   2
BRANCH   1  14
HETATM   14  O   UNL     1     -40.380 -49.927  10.340  1.00  0.00    -0.392 OA
HETATM   15  H   UNL     1     -40.128 -49.044  10.004  1.00  0.00     0.210 HD
ENDBRANCH   1  14
BRANCH   1  16
HETATM   16  C   UNL     1     -41.088 -50.437  12.607  1.00  0.00     0.163 C 
BRANCH  16  17
HETATM   17  N   UNL     1     -41.627 -51.779  12.633  1.00  0.00    -0.339 N 
HETATM   18  C   UNL     1     -40.934 -52.906  12.289  1.00  0.00     0.184 A 
HETATM   19  N   UNL     1     -41.633 -53.992  12.528  1.00  0.00    -0.350 N 
HETATM   20  C   UNL     1     -42.834 -53.540  13.019  1.00  0.00     0.060 A 
ATOM     21  HN  UNL     1     -41.347 -54.960  12.381  1.00  0.00     0.166 HD
HETATM   22  C   UNL     1     -43.956 -54.266  13.438  1.00  0.00     0.039 A 
HETATM   23  C   UNL     1     -42.861 -52.154  13.091  1.00  0.00     0.062 A 
HETATM   24  C   UNL     1     -45.087 -53.581  13.927  1.00  0.00    -0.054 A 
HETATM   25  C   UNL     1     -46.266 -54.396  14.382  1.00  0.00     0.049 C 
HETATM   26  C   UNL     1     -45.092 -52.170  13.982  1.00  0.00    -0.054 A 
HETATM   27  C   UNL     1     -46.263 -51.372  14.492  1.00  0.00     0.049 C 
HETATM   28  C   UNL     1     -43.965 -51.438  13.560  1.00  0.00     0.039 A 
ENDBRANCH  16  17
ENDBRANCH   1  16
TORSDOF 8
ENDMDL
MODEL 4
REMARK VINA RESULT:      -6.3      1.131      1.659
REMARK  8 active torsions:
REMARK  status: ('A' for Active; 'I' for Inactive)
REMARK    1  A    between atoms: C_2  and  N_3 
REMARK    2  A    between atoms: C_7  and  C_8 
REMARK    3  A    between atoms: C_8  and  N_9 
REMARK    4  A    between atoms: N_9  and  C_10 
REMARK    5  A    between atoms: C_10  and  C_11 
REMARK    6  A    between atoms: C_11  and  O_12 
REMARK    7  A    between atoms: C_11  and  C_13 
REMARK    8  A    between atoms: C_13  and  N_14 
ROOT
HETATM    1  C   UNL     1     -41.940 -52.237  12.095  1.00  0.00     0.164 C 
ENDROOT
BRANCH   1   2
HETATM    2  C   UNL     1     -41.884 -50.713  12.341  1.00  0.00     0.302 C 
BRANCH   2   3
HETATM    3  N   UNL     1     -41.140 -50.079  11.246  1.00  0.00     0.088 N 
HETATM    4  H   UNL     1     -40.466 -50.727  10.827  1.00  0.00     0.316 HD
BRANCH   3   5
HETATM    5  C   UNL     1     -40.342 -48.931  11.688  1.00  0.00     0.303 C 
BRANCH   5   6
HETATM    6  C   UNL     1     -40.866 -47.687  10.947  1.00  0.00     0.177 C 
HETATM    7  O   UNL     1     -39.891 -46.627  11.094  1.00  0.00    -0.381 OA
HETATM    8  C   UNL     1     -40.329 -45.451  10.399  1.00  0.00     0.198 C 
HETATM    9  C   UNL     1     -41.702 -44.976  10.910  1.00  0.00     0.298 C 
HETATM   10  N   UNL     1     -42.759 -46.017  10.867  1.00  0.00     0.092 N 
HETATM   11  C   UNL     1     -42.225 -47.237  11.515  1.00  0.00     0.306 C 
BRANCH  10  12
HETATM   12  C   UNL     1     -43.235 -46.217   9.489  1.00  0.00     0.268 C 
HETATM   13  C   UNL     1     -44.355 -47.245   9.355  1.00  0.00     0.037 C 
ENDBRANCH  10  12
ENDBRANCH   5   6
ENDBRANCH   3   5
ENDBRANCH   2   3
ENDBRANCH   1   2
BRANCH   1  14
HETATM   14  O   UNL     1     -40.635 -52.667  11.680  1.00  0.00    -0.392 OA
HETATM   15  H   UNL     1     -40.471 -53.503  12.161  1.00  0.00     0.210 HD
ENDBRANCH   1  14
BRANCH   1  16
HETATM   16  C   UNL     1     -42.351 -52.983  13.369  1.00  0.00     0.163 C 
BRANCH  16  17
HETATM   17  N   UNL     1     -43.784 -53.109  13.513  1.00  0.00    -0.339 N 
HETATM   18  C   UNL     1     -44.560 -54.014  12.844  1.00  0.00     0.184 A 
HETATM   19  N   UNL     1     -45.804 -53.986  13.264  1.00  0.00    -0.350 N 
HETATM   20  C   UNL     1     -45.832 -53.002  14.223  1.00  0.00     0.060 A 
ATOM     21  HN  UNL     1     -46.579 -54.567  12.948  1.00  0.00     0.166 HD
HETATM   22  C   UNL     1     -46.903 -52.547  15.002  1.00  0.00     0.039 A 
HETATM   23  C   UNL     1     -44.579 -52.431  14.397  1.00  0.00     0.062 A 
HETATM   24  C   UNL     1     -46.692 -51.523  15.948  1.00  0.00    -0.054 A 
HETATM   25  C   UNL     1     -47.864 -51.073  16.775  1.00  0.00     0.049 C 
HETATM   26  C   UNL     1     -45.410 -50.952  16.099  1.00  0.00    -0.054 A 
HETATM   27  C   UNL     1     -45.110 -49.856  17.088  1.00  0.00     0.049 C 
HETATM   28  C   UNL     1     -44.331 -51.408  15.316  1.00  0.00     0.039 A 
ENDBRANCH  16  17
ENDBRANCH   1  16
TORSDOF 8
ENDMDL
MODEL 5
REMARK VINA RESULT:      -6.3      1.786      2.357
REMARK  8 active torsions:
REMARK  status: ('A' for Active; 'I' for Inactive)
REMARK    1  A    between atoms: C_2  and  N_3 
REMARK    2  A    between atoms: C_7  and  C_8 
REMARK    3  A    between atoms: C_8  and  N_9 
REMARK    4  A    between atoms: N_9  and  C_10 
REMARK    5  A    between atoms: C_10  and  C_11 
REMARK    6  A    between atoms: C_11  and  O_12 
REMARK    7  A    between atoms: C_11  and  C_13 
REMARK    8  A    between atoms: C_13  and  N_14 
ROOT
HETATM    1  C   UNL     1     -41.270 -52.091  11.866  1.00  0.00     0.164 C 
ENDROOT
BRANCH   1   2
HETATM    2  C   UNL     1     -40.234 -50.949  11.773  1.00  0.00     0.302 C 
BRANCH   2   3
HETATM    3  N   UNL     1     -40.529 -50.130  10.592  1.00  0.00     0.088 N 
HETATM    4  H   UNL     1     -39.672 -49.872  10.093  1.00  0.00     0.316 HD
BRANCH   3   5
HETATM    5  C   UNL     1     -41.174 -48.856  10.927  1.00  0.00     0.303 C 
BRANCH   5   6
HETATM    6  C   UNL     1     -40.814 -48.524  12.386  1.00  0.00     0.177 C 
HETATM    7  O   UNL     1     -42.034 -48.185  13.088  1.00  0.00    -0.381 OA
HETATM    8  C   UNL     1     -41.750 -47.888  14.462  1.00  0.00     0.198 C 
HETATM    9  C   UNL     1     -40.734 -46.737  14.589  1.00  0.00     0.298 C 
HETATM   10  N   UNL     1     -39.471 -46.957  13.842  1.00  0.00     0.092 N 
HETATM   11  C   UNL     1     -39.821 -47.348  12.458  1.00  0.00     0.306 C 
BRANCH  10  12
HETATM   12  C   UNL     1     -38.611 -47.918  14.549  1.00  0.00     0.268 C 
HETATM   13  C   UNL     1     -37.128 -47.561  14.538  1.00  0.00     0.037 C 
ENDBRANCH  10  12
ENDBRANCH   5   6
ENDBRANCH   3   5
ENDBRANCH   2   3
ENDBRANCH   1   2
BRANCH   1  14
HETATM   14  O   UNL     1     -40.603 -53.321  11.550  1.00  0.00    -0.392 OA
HETATM   15  H   UNL     1     -40.072 -53.131  10.750  1.00  0.00     0.210 HD
ENDBRANCH   1  14
BRANCH   1  16
HETATM   16  C   UNL     1     -41.870 -52.173  13.274  1.00  0.00     0.163 C 
BRANCH  16  17
HETATM   17  N   UNL     1     -43.299 -52.397  13.268  1.00  0.00    -0.339 N 
HETATM   18  C   UNL     1     -43.958 -53.211  12.390  1.00  0.00     0.184 A 
HETATM   19  N   UNL     1     -45.230 -53.321  12.697  1.00  0.00    -0.350 N 
HETATM   20  C   UNL     1     -45.398 -52.523  13.803  1.00  0.00     0.060 A 
ATOM     21  HN  UNL     1     -45.938 -53.878  12.220  1.00  0.00     0.166 HD
HETATM   22  C   UNL     1     -46.554 -52.268  14.551  1.00  0.00     0.039 A 
HETATM   23  C   UNL     1     -44.203 -51.926  14.181  1.00  0.00     0.062 A 
HETATM   24  C   UNL     1     -46.486 -51.415  15.672  1.00  0.00    -0.054 A 
HETATM   25  C   UNL     1     -47.745 -51.178  16.458  1.00  0.00     0.049 C 
HETATM   26  C   UNL     1     -45.260 -50.813  16.030  1.00  0.00    -0.054 A 
HETATM   27  C   UNL     1     -45.111 -49.892  17.213  1.00  0.00     0.049 C 
HETATM   28  C   UNL     1     -44.096 -51.068  15.278  1.00  0.00     0.039 A 
ENDBRANCH  16  17
ENDBRANCH   1  16
TORSDOF 8
ENDMDL
MODEL 6
REMARK VINA RESULT:      -6.2      2.160      6.661
REMARK  8 active torsions:
REMARK  status: ('A' for Active; 'I' for Inactive)
REMARK    1  A    between atoms: C_2  and  N_3 
REMARK    2  A    between atoms: C_7  and  C_8 
REMARK    3  A    between atoms: C_8  and  N_9 
REMARK    4  A    between atoms: N_9  and  C_10 
REMARK    5  A    between atoms: C_10  and  C_11 
REMARK    6  A    between atoms: C_11  and  O_12 
REMARK    7  A    between atoms: C_11  and  C_13 
REMARK    8  A    between atoms: C_13  and  N_14 
ROOT
HETATM    1  C   UNL     1     -40.706 -53.037  12.709  1.00  0.00     0.164 C 
ENDROOT
BRANCH   1   2
HETATM    2  C   UNL     1     -41.459 -54.204  13.386  1.00  0.00     0.302 C 
BRANCH   2   3
HETATM    3  N   UNL     1     -42.846 -54.222  12.906  1.00  0.00     0.088 N 
HETATM    4  H   UNL     1     -43.141 -53.295  12.584  1.00  0.00     0.316 HD
BRANCH   3   5
HETATM    5  C   UNL     1     -43.807 -54.587  13.952  1.00  0.00     0.303 C 
BRANCH   5   6
HETATM    6  C   UNL     1     -45.006 -53.630  13.835  1.00  0.00     0.177 C 
HETATM    7  O   UNL     1     -45.260 -53.389  12.430  1.00  0.00    -0.381 OA
HETATM    8  C   UNL     1     -46.386 -52.516  12.272  1.00  0.00     0.198 C 
HETATM    9  C   UNL     1     -46.167 -51.178  13.003  1.00  0.00     0.298 C 
HETATM   10  N   UNL     1     -45.830 -51.321  14.441  1.00  0.00     0.092 N 
HETATM   11  C   UNL     1     -44.724 -52.298  14.557  1.00  0.00     0.306 C 
BRANCH  10  12
HETATM   12  C   UNL     1     -47.028 -51.660  15.225  1.00  0.00     0.268 C 
HETATM   13  C   UNL     1     -46.964 -51.232  16.688  1.00  0.00     0.037 C 
ENDBRANCH  10  12
ENDBRANCH   5   6
ENDBRANCH   3   5
ENDBRANCH   2   3
ENDBRANCH   1   2
BRANCH   1  14
HETATM   14  O   UNL     1     -40.463 -53.400  11.342  1.00  0.00    -0.392 OA
HETATM   15  H   UNL     1     -39.617 -52.968  11.105  1.00  0.00     0.210 HD
ENDBRANCH   1  14
BRANCH   1  16
HETATM   16  C   UNL     1     -41.532 -51.747  12.764  1.00  0.00     0.163 C 
BRANCH  16  17
HETATM   17  N   UNL     1     -40.717 -50.557  12.869  1.00  0.00    -0.339 N 
HETATM   18  C   UNL     1     -39.576 -50.455  13.614  1.00  0.00     0.184 A 
HETATM   19  N   UNL     1     -38.977 -49.302  13.422  1.00  0.00    -0.350 N 
HETATM   20  C   UNL     1     -39.784 -48.627  12.538  1.00  0.00     0.060 A 
ATOM     21  HN  UNL     1     -38.104 -48.979  13.838  1.00  0.00     0.166 HD
HETATM   22  C   UNL     1     -39.627 -47.349  11.986  1.00  0.00     0.039 A 
HETATM   23  C   UNL     1     -40.886 -49.389  12.177  1.00  0.00     0.062 A 
HETATM   24  C   UNL     1     -40.586 -46.861  11.075  1.00  0.00    -0.054 A 
HETATM   25  C   UNL     1     -40.375 -45.491  10.492  1.00  0.00     0.049 C 
HETATM   26  C   UNL     1     -41.704 -47.653  10.731  1.00  0.00    -0.054 A 
HETATM   27  C   UNL     1     -42.767 -47.197   9.766  1.00  0.00     0.049 C 
HETATM   28  C   UNL     1     -41.863 -48.937  11.286  1.00  0.00     0.039 A 
ENDBRANCH  16  17
ENDBRANCH   1  16
TORSDOF 8
ENDMDL
MODEL 7
REMARK VINA RESULT:      -6.1      2.901      3.869
REMARK  8 active torsions:
REMARK  status: ('A' for Active; 'I' for Inactive)
REMARK    1  A    between atoms: C_2  and  N_3 
REMARK    2  A    between atoms: C_7  and  C_8 
REMARK    3  A    between atoms: C_8  and  N_9 
REMARK    4  A    between atoms: N_9  and  C_10 
REMARK    5  A    between atoms: C_10  and  C_11 
REMARK    6  A    between atoms: C_11  and  O_12 
REMARK    7  A    between atoms: C_11  and  C_13 
REMARK    8  A    between atoms: C_13  and  N_14 
ROOT
HETATM    1  C   UNL     1     -38.169 -51.100  12.979  1.00  0.00     0.164 C 
ENDROOT
BRANCH   1   2
HETATM    2  C   UNL     1     -37.635 -50.014  13.940  1.00  0.00     0.302 C 
BRANCH   2   3
HETATM    3  N   UNL     1     -38.578 -48.890  13.965  1.00  0.00     0.088 N 
HETATM    4  H   UNL     1     -39.467 -49.159  14.397  1.00  0.00     0.316 HD
BRANCH   3   5
HETATM    5  C   UNL     1     -38.933 -48.413  12.624  1.00  0.00     0.303 C 
BRANCH   5   6
HETATM    6  C   UNL     1     -40.441 -48.106  12.625  1.00  0.00     0.177 C 
HETATM    7  O   UNL     1     -41.068 -48.911  13.652  1.00  0.00    -0.381 OA
HETATM    8  C   UNL     1     -42.476 -48.642  13.703  1.00  0.00     0.198 C 
HETATM    9  C   UNL     1     -43.149 -48.908  12.343  1.00  0.00     0.298 C 
HETATM   10  N   UNL     1     -42.531 -48.180  11.208  1.00  0.00     0.092 N 
HETATM   11  C   UNL     1     -41.070 -48.417  11.253  1.00  0.00     0.306 C 
BRANCH  10  12
HETATM   12  C   UNL     1     -42.919 -46.761  11.227  1.00  0.00     0.268 C 
HETATM   13  C   UNL     1     -42.604 -46.005   9.940  1.00  0.00     0.037 C 
ENDBRANCH  10  12
ENDBRANCH   5   6
ENDBRANCH   3   5
ENDBRANCH   2   3
ENDBRANCH   1   2
BRANCH   1  14
HETATM   14  O   UNL     1     -37.042 -51.777  12.406  1.00  0.00    -0.392 OA
HETATM   15  H   UNL     1     -37.421 -52.485  11.846  1.00  0.00     0.210 HD
ENDBRANCH   1  14
BRANCH   1  16
HETATM   16  C   UNL     1     -39.054 -52.104  13.725  1.00  0.00     0.163 C 
BRANCH  16  17
HETATM   17  N   UNL     1     -40.350 -52.284  13.108  1.00  0.00    -0.339 N 
HETATM   18  C   UNL     1     -40.703 -51.803  11.878  1.00  0.00     0.184 A 
HETATM   19  N   UNL     1     -41.894 -52.223  11.521  1.00  0.00    -0.350 N 
HETATM   20  C   UNL     1     -42.335 -52.982  12.578  1.00  0.00     0.060 A 
ATOM     21  HN  UNL     1     -42.386 -52.029  10.649  1.00  0.00     0.166 HD
HETATM   22  C   UNL     1     -43.542 -53.673  12.738  1.00  0.00     0.039 A 
HETATM   23  C   UNL     1     -41.388 -53.033  13.592  1.00  0.00     0.062 A 
HETATM   24  C   UNL     1     -43.774 -54.409  13.918  1.00  0.00    -0.054 A 
HETATM   25  C   UNL     1     -45.076 -55.150  14.046  1.00  0.00     0.049 C 
HETATM   26  C   UNL     1     -42.798 -54.437  14.938  1.00  0.00    -0.054 A 
HETATM   27  C   UNL     1     -42.976 -55.201  16.224  1.00  0.00     0.049 C 
HETATM   28  C   UNL     1     -41.583 -53.742  14.780  1.00  0.00     0.039 A 
ENDBRANCH  16  17
ENDBRANCH   1  16
TORSDOF 8
ENDMDL
MODEL 8
REMARK VINA RESULT:      -6.0      3.002      4.275
REMARK  8 active torsions:
REMARK  status: ('A' for Active; 'I' for Inactive)
REMARK    1  A    between atoms: C_2  and  N_3 
REMARK    2  A    between atoms: C_7  and  C_8 
REMARK    3  A    between atoms: C_8  and  N_9 
REMARK    4  A    between atoms: N_9  and  C_10 
REMARK    5  A    between atoms: C_10  and  C_11 
REMARK    6  A    between atoms: C_11  and  O_12 
REMARK    7  A    between atoms: C_11  and  C_13 
REMARK    8  A    between atoms: C_13  and  N_14 
ROOT
HETATM    1  C   UNL     1     -39.675 -54.205  13.722  1.00  0.00     0.164 C 
ENDROOT
BRANCH   1   2
HETATM    2  C   UNL     1     -39.994 -54.281  15.232  1.00  0.00     0.302 C 
BRANCH   2   3
HETATM    3  N   UNL     1     -39.513 -53.057  15.884  1.00  0.00     0.088 N 
HETATM    4  H   UNL     1     -39.175 -53.248  16.833  1.00  0.00     0.316 HD
BRANCH   3   5
HETATM    5  C   UNL     1     -40.564 -52.047  16.049  1.00  0.00     0.303 C 
BRANCH   5   6
HETATM    6  C   UNL     1     -39.996 -50.702  15.563  1.00  0.00     0.177 C 
HETATM    7  O   UNL     1     -41.040 -50.002  14.844  1.00  0.00    -0.381 OA
HETATM    8  C   UNL     1     -40.561 -48.730  14.388  1.00  0.00     0.198 C 
HETATM    9  C   UNL     1     -39.319 -48.885  13.491  1.00  0.00     0.298 C 
HETATM   10  N   UNL     1     -38.213 -49.654  14.113  1.00  0.00     0.092 N 
HETATM   11  C   UNL     1     -38.776 -50.915  14.646  1.00  0.00     0.306 C 
BRANCH  10  12
HETATM   12  C   UNL     1     -37.506 -48.833  15.109  1.00  0.00     0.268 C 
HETATM   13  C   UNL     1     -37.024 -47.485  14.583  1.00  0.00     0.037 C 
ENDBRANCH  10  12
ENDBRANCH   5   6
ENDBRANCH   3   5
ENDBRANCH   2   3
ENDBRANCH   1   2
BRANCH   1  14
HETATM   14  O   UNL     1     -38.761 -55.266  13.409  1.00  0.00    -0.392 OA
HETATM   15  H   UNL     1     -38.575 -55.175  12.452  1.00  0.00     0.210 HD
ENDBRANCH   1  14
BRANCH   1  16
HETATM   16  C   UNL     1     -40.950 -54.354  12.885  1.00  0.00     0.163 C 
BRANCH  16  17
HETATM   17  N   UNL     1     -41.740 -53.143  12.836  1.00  0.00    -0.339 N 
HETATM   18  C   UNL     1     -41.410 -52.023  12.126  1.00  0.00     0.184 A 
HETATM   19  N   UNL     1     -42.369 -51.127  12.165  1.00  0.00    -0.350 N 
HETATM   20  C   UNL     1     -43.343 -51.686  12.957  1.00  0.00     0.060 A 
ATOM     21  HN  UNL     1     -42.387 -50.216  11.708  1.00  0.00     0.166 HD
HETATM   22  C   UNL     1     -44.588 -51.169  13.337  1.00  0.00     0.039 A 
HETATM   23  C   UNL     1     -42.973 -52.949  13.397  1.00  0.00     0.062 A 
HETATM   24  C   UNL     1     -45.442 -51.937  14.154  1.00  0.00    -0.054 A 
HETATM   25  C   UNL     1     -46.776 -51.354  14.528  1.00  0.00     0.049 C 
HETATM   26  C   UNL     1     -45.038 -53.217  14.595  1.00  0.00    -0.054 A 
HETATM   27  C   UNL     1     -45.898 -54.093  15.469  1.00  0.00     0.049 C 
HETATM   28  C   UNL     1     -43.786 -53.738  14.215  1.00  0.00     0.039 A 
ENDBRANCH  16  17
ENDBRANCH   1  16
TORSDOF 8
ENDMDL
MODEL 9
REMARK VINA RESULT:      -5.7      2.290      2.950
REMARK  8 active torsions:
REMARK  status: ('A' for Active; 'I' for Inactive)
REMARK    1  A    between atoms: C_2  and  N_3 
REMARK    2  A    between atoms: C_7  and  C_8 
REMARK    3  A    between atoms: C_8  and  N_9 
REMARK    4  A    between atoms: N_9  and  C_10 
REMARK    5  A    between atoms: C_10  and  C_11 
REMARK    6  A    between atoms: C_11  and  O_12 
REMARK    7  A    between atoms: C_11  and  C_13 
REMARK    8  A    between atoms: C_13  and  N_14 
ROOT
HETATM    1  C   UNL     1     -40.826 -53.290  12.999  1.00  0.00     0.164 C 
ENDROOT
BRANCH   1   2
HETATM    2  C   UNL     1     -39.492 -53.479  13.756  1.00  0.00     0.302 C 
BRANCH   2   3
HETATM    3  N   UNL     1     -39.128 -52.216  14.408  1.00  0.00     0.088 N 
HETATM    4  H   UNL     1     -39.959 -51.667  14.649  1.00  0.00     0.316 HD
BRANCH   3   5
HETATM    5  C   UNL     1     -38.328 -51.339  13.547  1.00  0.00     0.303 C 
BRANCH   5   6
HETATM    6  C   UNL     1     -39.193 -50.114  13.199  1.00  0.00     0.177 C 
HETATM    7  O   UNL     1     -39.641 -50.250  11.829  1.00  0.00    -0.381 OA
HETATM    8  C   UNL     1     -40.471 -49.138  11.466  1.00  0.00     0.198 C 
HETATM    9  C   UNL     1     -39.729 -47.801  11.646  1.00  0.00     0.298 C 
HETATM   10  N   UNL     1     -39.166 -47.596  13.003  1.00  0.00     0.092 N 
HETATM   11  C   UNL     1     -38.395 -48.807  13.366  1.00  0.00     0.306 C 
BRANCH  10  12
HETATM   12  C   UNL     1     -40.228 -47.242  13.958  1.00  0.00     0.268 C 
HETATM   13  C   UNL     1     -39.777 -47.204  15.414  1.00  0.00     0.037 C 
ENDBRANCH  10  12
ENDBRANCH   5   6
ENDBRANCH   3   5
ENDBRANCH   2   3
ENDBRANCH   1   2
BRANCH   1  14
HETATM   14  O   UNL     1     -40.536 -53.245  11.595  1.00  0.00    -0.392 OA
HETATM   15  H   UNL     1     -41.144 -52.574  11.225  1.00  0.00     0.210 HD
ENDBRANCH   1  14
BRANCH   1  16
HETATM   16  C   UNL     1     -41.790 -54.444  13.294  1.00  0.00     0.163 C 
BRANCH  16  17
HETATM   17  N   UNL     1     -42.634 -54.197  14.441  1.00  0.00    -0.339 N 
HETATM   18  C   UNL     1     -42.333 -54.559  15.725  1.00  0.00     0.184 A 
HETATM   19  N   UNL     1     -43.220 -54.098  16.576  1.00  0.00    -0.350 N 
HETATM   20  C   UNL     1     -44.143 -53.436  15.803  1.00  0.00     0.060 A 
ATOM     21  HN  UNL     1     -43.224 -54.207  17.590  1.00  0.00     0.166 HD
HETATM   22  C   UNL     1     -45.303 -52.751  16.188  1.00  0.00     0.039 A 
HETATM   23  C   UNL     1     -43.803 -53.486  14.458  1.00  0.00     0.062 A 
HETATM   24  C   UNL     1     -46.100 -52.125  15.209  1.00  0.00    -0.054 A 
HETATM   25  C   UNL     1     -47.329 -51.387  15.664  1.00  0.00     0.049 C 
HETATM   26  C   UNL     1     -45.737 -52.198  13.847  1.00  0.00    -0.054 A 
HETATM   27  C   UNL     1     -46.541 -51.554  12.747  1.00  0.00     0.049 C 
HETATM   28  C   UNL     1     -44.572 -52.887  13.457  1.00  0.00     0.039 A 
ENDBRANCH  16  17
ENDBRANCH   1  16
TORSDOF 8
ENDMDL
