MODEL 1
REMARK VINA RESULT:      -6.2      0.000      0.000
REMARK  4 active torsions:
REMARK  status: ('A' for Active; 'I' for Inactive)
REMARK    1  A    between atoms: C_2  and  C_3 
REMARK    2  A    between atoms: C_5  and  N_6 
REMARK       I    between atoms: N_6  and  C_7 
REMARK       I    between atoms: C_7  and  N_9 
REMARK    3  A    between atoms: N_9  and  C_10 
REMARK    4  A    between atoms: C_12  and  O_14 
ROOT
HETATM    1  N   UNL     1     -42.117 -49.381  11.249  1.00  0.00    -0.293 N 
HETATM    2  C   UNL     1     -42.749 -49.688  12.488  1.00  0.00     0.322 C 
HETATM    3  O   UNL     1     -42.959 -48.848  13.344  1.00  0.00    -0.247 OA
HETATM    4  N   UNL     1     -43.048 -51.014  12.576  1.00  0.00    -0.337 N 
HETATM    5  H   UNL     1     -41.863 -50.129  10.628  1.00  0.00     0.172 HD
HETATM    6  H   UNL     1     -42.813 -51.639  11.818  1.00  0.00     0.164 HD
ENDROOT
BRANCH   1   7
HETATM    7  C   UNL     1     -41.796 -48.075  10.878  1.00  0.00     0.127 A 
HETATM    8  C   UNL     1     -40.713 -47.330  11.282  1.00  0.00     0.076 A 
HETATM    9  C   UNL     1     -40.834 -46.084  10.632  1.00  0.00     0.029 A 
HETATM   10  N   UNL     1     -41.939 -46.030   9.883  1.00  0.00    -0.301 N 
HETATM   11  N   UNL     1     -42.506 -47.242  10.041  1.00  0.00    -0.281 N 
ATOM     12  HN  UNL     1     -42.278 -45.249   9.321  1.00  0.00     0.187 HD
HETATM   13  C   UNL     1     -43.693 -47.532   9.278  1.00  0.00     0.179 C 
BRANCH   9  14
HETATM   14  C   UNL     1     -39.894 -44.929  10.708  1.00  0.00     0.054 C 
HETATM   15  C   UNL     1     -39.012 -44.828   9.472  1.00  0.00     0.011 C 
ENDBRANCH   9  14
ENDBRANCH   1   7
BRANCH   4  16
HETATM   16  C   UNL     1     -43.670 -51.559  13.806  1.00  0.00     0.099 C 
HETATM   17  C   UNL     1     -43.147 -52.955  14.213  1.00  0.00     0.064 C 
HETATM   18  C   UNL     1     -44.589 -53.294  14.710  1.00  0.00     0.067 C 
HETATM   19  C   UNL     1     -45.066 -54.718  14.437  1.00  0.00     0.047 C 
HETATM   20  C   UNL     1     -45.096 -52.196  13.660  1.00  0.00     0.004 C 
HETATM   21  C   UNL     1     -46.226 -51.299  14.178  1.00  0.00     0.020 C 
HETATM   22  C   UNL     1     -45.452 -52.705  12.255  1.00  0.00     0.020 C 
BRANCH  18  23
HETATM   23  O   UNL     1     -44.859 -52.943  16.097  1.00  0.00    -0.384 OA
HETATM   24  C   UNL     1     -45.551 -53.876  16.918  1.00  0.00     0.202 C 
ENDBRANCH  18  23
ENDBRANCH   4  16
TORSDOF 4
ENDMDL
MODEL 2
REMARK VINA RESULT:      -5.9      2.031      8.071
REMARK  4 active torsions:
REMARK  status: ('A' for Active; 'I' for Inactive)
REMARK    1  A    between atoms: C_2  and  C_3 
REMARK    2  A    between atoms: C_5  and  N_6 
REMARK       I    between atoms: N_6  and  C_7 
REMARK       I    between atoms: C_7  and  N_9 
REMARK    3  A    between atoms: N_9  and  C_10 
REMARK    4  A    between atoms: C_12  and  O_14 
ROOT
HETATM    1  N   UNL     1     -42.425 -51.790  11.883  1.00  0.00    -0.293 N 
HETATM    2  C   UNL     1     -42.538 -50.435  12.306  1.00  0.00     0.322 C 
HETATM    3  O   UNL     1     -43.172 -50.105  13.292  1.00  0.00    -0.247 OA
HETATM    4  N   UNL     1     -41.876 -49.596  11.461  1.00  0.00    -0.337 N 
HETATM    5  H   UNL     1     -41.989 -51.995  11.001  1.00  0.00     0.172 HD
HETATM    6  H   UNL     1     -41.395 -49.963  10.653  1.00  0.00     0.164 HD
ENDROOT
BRANCH   1   7
HETATM    7  C   UNL     1     -42.936 -52.851  12.631  1.00  0.00     0.127 A 
HETATM    8  C   UNL     1     -44.231 -53.314  12.653  1.00  0.00     0.076 A 
HETATM    9  C   UNL     1     -44.242 -54.396  13.557  1.00  0.00     0.029 A 
HETATM   10  N   UNL     1     -43.035 -54.591  14.097  1.00  0.00    -0.301 N 
HETATM   11  N   UNL     1     -42.259 -53.651  13.523  1.00  0.00    -0.281 N 
ATOM     12  HN  UNL     1     -42.763 -55.292  14.787  1.00  0.00     0.187 HD
HETATM   13  C   UNL     1     -40.853 -53.656  13.841  1.00  0.00     0.179 C 
BRANCH   9  14
HETATM   14  C   UNL     1     -45.399 -55.266  13.915  1.00  0.00     0.054 C 
HETATM   15  C   UNL     1     -46.456 -54.513  14.708  1.00  0.00     0.011 C 
ENDBRANCH   9  14
ENDBRANCH   1   7
BRANCH   4  16
HETATM   16  C   UNL     1     -41.904 -48.131  11.690  1.00  0.00     0.099 C 
HETATM   17  C   UNL     1     -41.761 -47.288  10.403  1.00  0.00     0.064 C 
HETATM   18  C   UNL     1     -40.947 -46.247  11.237  1.00  0.00     0.067 C 
HETATM   19  C   UNL     1     -39.759 -45.609  10.523  1.00  0.00     0.047 C 
HETATM   20  C   UNL     1     -40.581 -47.467  12.208  1.00  0.00     0.004 C 
HETATM   21  C   UNL     1     -40.610 -47.120  13.701  1.00  0.00     0.020 C 
HETATM   22  C   UNL     1     -39.288 -48.232  11.887  1.00  0.00     0.020 C 
BRANCH  18  23
HETATM   23  O   UNL     1     -41.748 -45.213  11.878  1.00  0.00    -0.384 OA
HETATM   24  C   UNL     1     -41.261 -43.876  11.888  1.00  0.00     0.202 C 
ENDBRANCH  18  23
ENDBRANCH   4  16
TORSDOF 4
ENDMDL
MODEL 3
REMARK VINA RESULT:      -5.5      2.302      7.757
REMARK  4 active torsions:
REMARK  status: ('A' for Active; 'I' for Inactive)
REMARK    1  A    between atoms: C_2  and  C_3 
REMARK    2  A    between atoms: C_5  and  N_6 
REMARK       I    between atoms: N_6  and  C_7 
REMARK       I    between atoms: C_7  and  N_9 
REMARK    3  A    between atoms: N_9  and  C_10 
REMARK    4  A    between atoms: C_12  and  O_14 
ROOT
HETATM    1  N   UNL     1     -41.925 -51.585  11.902  1.00  0.00    -0.293 N 
HETATM    2  C   UNL     1     -42.145 -50.240  12.316  1.00  0.00     0.322 C 
HETATM    3  O   UNL     1     -42.437 -49.944  13.461  1.00  0.00    -0.247 OA
HETATM    4  N   UNL     1     -42.009 -49.373  11.274  1.00  0.00    -0.337 N 
HETATM    5  H   UNL     1     -41.801 -51.784  10.926  1.00  0.00     0.172 HD
HETATM    6  H   UNL     1     -41.786 -49.718  10.352  1.00  0.00     0.164 HD
ENDROOT
BRANCH   1   7
HETATM    7  C   UNL     1     -41.915 -52.650  12.802  1.00  0.00     0.127 A 
HETATM    8  C   UNL     1     -40.875 -53.062  13.603  1.00  0.00     0.076 A 
HETATM    9  C   UNL     1     -41.357 -54.171  14.327  1.00  0.00     0.029 A 
HETATM   10  N   UNL     1     -42.616 -54.465  13.988  1.00  0.00    -0.301 N 
HETATM   11  N   UNL     1     -42.937 -53.534  13.069  1.00  0.00    -0.281 N 
ATOM     12  HN  UNL     1     -43.200 -55.221  14.344  1.00  0.00     0.187 HD
HETATM   13  C   UNL     1     -44.286 -53.529  12.561  1.00  0.00     0.179 C 
BRANCH   9  14
HETATM   14  C   UNL     1     -40.630 -54.964  15.360  1.00  0.00     0.054 C 
HETATM   15  C   UNL     1     -39.131 -55.000  15.102  1.00  0.00     0.011 C 
ENDBRANCH   9  14
ENDBRANCH   1   7
BRANCH   4  16
HETATM   16  C   UNL     1     -42.242 -47.922  11.475  1.00  0.00     0.099 C 
HETATM   17  C   UNL     1     -42.140 -47.081  10.182  1.00  0.00     0.064 C 
HETATM   18  C   UNL     1     -41.518 -45.933  11.039  1.00  0.00     0.067 C 
HETATM   19  C   UNL     1     -40.386 -45.151  10.379  1.00  0.00     0.047 C 
HETATM   20  C   UNL     1     -41.048 -47.084  12.050  1.00  0.00     0.004 C 
HETATM   21  C   UNL     1     -41.206 -46.727  13.533  1.00  0.00     0.020 C 
HETATM   22  C   UNL     1     -39.650 -47.674  11.814  1.00  0.00     0.020 C 
BRANCH  18  23
HETATM   23  O   UNL     1     -42.482 -45.007  11.617  1.00  0.00    -0.384 OA
HETATM   24  C   UNL     1     -42.444 -43.642  11.220  1.00  0.00     0.202 C 
ENDBRANCH  18  23
ENDBRANCH   4  16
TORSDOF 4
ENDMDL
MODEL 4
REMARK VINA RESULT:      -5.4      1.715      2.303
REMARK  4 active torsions:
REMARK  status: ('A' for Active; 'I' for Inactive)
REMARK    1  A    between atoms: C_2  and  C_3 
REMARK    2  A    between atoms: C_5  and  N_6 
REMARK       I    between atoms: N_6  and  C_7 
REMARK       I    between atoms: C_7  and  N_9 
REMARK    3  A    between atoms: N_9  and  C_10 
REMARK    4  A    between atoms: C_12  and  O_14 
ROOT
HETATM    1  N   UNL     1     -41.652 -49.277  11.892  1.00  0.00    -0.293 N 
HETATM    2  C   UNL     1     -42.849 -49.273  12.663  1.00  0.00     0.322 C 
HETATM    3  O   UNL     1     -43.214 -48.305  13.306  1.00  0.00    -0.247 OA
HETATM    4  N   UNL     1     -43.486 -50.475  12.596  1.00  0.00    -0.337 N 
HETATM    5  H   UNL     1     -41.339 -50.135  11.475  1.00  0.00     0.172 HD
HETATM    6  H   UNL     1     -43.092 -51.229  12.051  1.00  0.00     0.164 HD
ENDROOT
BRANCH   1   7
HETATM    7  C   UNL     1     -40.870 -48.135  11.723  1.00  0.00     0.127 A 
HETATM    8  C   UNL     1     -40.990 -47.172  10.748  1.00  0.00     0.076 A 
HETATM    9  C   UNL     1     -39.975 -46.228  11.005  1.00  0.00     0.029 A 
HETATM   10  N   UNL     1     -39.237 -46.582  12.062  1.00  0.00    -0.301 N 
HETATM   11  N   UNL     1     -39.794 -47.734  12.483  1.00  0.00    -0.281 N 
ATOM     12  HN  UNL     1     -38.434 -46.093  12.457  1.00  0.00     0.187 HD
HETATM   13  C   UNL     1     -39.266 -48.335  13.682  1.00  0.00     0.179 C 
BRANCH   9  14
HETATM   14  C   UNL     1     -39.697 -44.969  10.255  1.00  0.00     0.054 C 
HETATM   15  C   UNL     1     -40.404 -43.770  10.870  1.00  0.00     0.011 C 
ENDBRANCH   9  14
ENDBRANCH   1   7
BRANCH   4  16
HETATM   16  C   UNL     1     -44.732 -50.705  13.366  1.00  0.00     0.099 C 
HETATM   17  C   UNL     1     -44.500 -51.237  14.798  1.00  0.00     0.064 C 
HETATM   18  C   UNL     1     -45.801 -52.087  14.638  1.00  0.00     0.067 C 
HETATM   19  C   UNL     1     -45.758 -53.485  15.248  1.00  0.00     0.047 C 
HETATM   20  C   UNL     1     -45.522 -52.026  13.061  1.00  0.00     0.004 C 
HETATM   21  C   UNL     1     -46.774 -51.809  12.205  1.00  0.00     0.020 C 
HETATM   22  C   UNL     1     -44.690 -53.172  12.468  1.00  0.00     0.020 C 
BRANCH  18  23
HETATM   23  O   UNL     1     -47.028 -51.414  15.039  1.00  0.00    -0.384 OA
HETATM   24  C   UNL     1     -47.549 -51.657  16.341  1.00  0.00     0.202 C 
ENDBRANCH  18  23
ENDBRANCH   4  16
TORSDOF 4
ENDMDL
MODEL 5
REMARK VINA RESULT:      -5.4      3.000      8.159
REMARK  4 active torsions:
REMARK  status: ('A' for Active; 'I' for Inactive)
REMARK    1  A    between atoms: C_2  and  C_3 
REMARK    2  A    between atoms: C_5  and  N_6 
REMARK       I    between atoms: N_6  and  C_7 
REMARK       I    between atoms: C_7  and  N_9 
REMARK    3  A    between atoms: N_9  and  C_10 
REMARK    4  A    between atoms: C_12  and  O_14 
ROOT
HETATM    1  N   UNL     1     -39.581 -49.695  11.719  1.00  0.00    -0.293 N 
HETATM    2  C   UNL     1     -40.557 -48.658  11.717  1.00  0.00     0.322 C 
HETATM    3  O   UNL     1     -41.673 -48.806  12.181  1.00  0.00    -0.247 OA
HETATM    4  N   UNL     1     -40.080 -47.531  11.119  1.00  0.00    -0.337 N 
HETATM    5  H   UNL     1     -38.719 -49.559  11.222  1.00  0.00     0.172 HD
HETATM    6  H   UNL     1     -39.144 -47.512  10.742  1.00  0.00     0.164 HD
ENDROOT
BRANCH   1   7
HETATM    7  C   UNL     1     -39.792 -50.918  12.357  1.00  0.00     0.127 A 
HETATM    8  C   UNL     1     -40.709 -51.888  12.027  1.00  0.00     0.076 A 
HETATM    9  C   UNL     1     -40.530 -52.927  12.964  1.00  0.00     0.029 A 
HETATM   10  N   UNL     1     -39.577 -52.624  13.851  1.00  0.00    -0.301 N 
HETATM   11  N   UNL     1     -39.140 -51.409  13.466  1.00  0.00    -0.281 N 
ATOM     12  HN  UNL     1     -39.254 -53.185  14.639  1.00  0.00     0.187 HD
HETATM   13  C   UNL     1     -38.032 -50.836  14.187  1.00  0.00     0.179 C 
BRANCH   9  14
HETATM   14  C   UNL     1     -41.257 -54.227  13.024  1.00  0.00     0.054 C 
HETATM   15  C   UNL     1     -42.658 -54.072  13.596  1.00  0.00     0.011 C 
ENDBRANCH   9  14
ENDBRANCH   1   7
BRANCH   4  16
HETATM   16  C   UNL     1     -40.952 -46.341  10.966  1.00  0.00     0.099 C 
HETATM   17  C   UNL     1     -40.277 -45.151  10.247  1.00  0.00     0.064 C 
HETATM   18  C   UNL     1     -41.077 -44.194  11.187  1.00  0.00     0.067 C 
HETATM   19  C   UNL     1     -40.324 -42.960  11.674  1.00  0.00     0.047 C 
HETATM   20  C   UNL     1     -41.119 -45.417  12.222  1.00  0.00     0.004 C 
HETATM   21  C   UNL     1     -42.462 -45.593  12.941  1.00  0.00     0.020 C 
HETATM   22  C   UNL     1     -39.979 -45.483  13.249  1.00  0.00     0.020 C 
BRANCH  18  23
HETATM   23  O   UNL     1     -42.390 -43.805  10.693  1.00  0.00    -0.384 OA
HETATM   24  C   UNL     1     -42.874 -42.500  10.987  1.00  0.00     0.202 C 
ENDBRANCH  18  23
ENDBRANCH   4  16
TORSDOF 4
ENDMDL
MODEL 6
REMARK VINA RESULT:      -5.4      4.133      5.546
REMARK  4 active torsions:
REMARK  status: ('A' for Active; 'I' for Inactive)
REMARK    1  A    between atoms: C_2  and  C_3 
REMARK    2  A    between atoms: C_5  and  N_6 
REMARK       I    between atoms: N_6  and  C_7 
REMARK       I    between atoms: C_7  and  N_9 
REMARK    3  A    between atoms: N_9  and  C_10 
REMARK    4  A    between atoms: C_12  and  O_14 
ROOT
HETATM    1  N   UNL     1     -41.066 -48.054  10.797  1.00  0.00    -0.293 N 
HETATM    2  C   UNL     1     -40.972 -48.486  12.151  1.00  0.00     0.322 C 
HETATM    3  O   UNL     1     -41.763 -48.137  13.008  1.00  0.00    -0.247 OA
HETATM    4  N   UNL     1     -39.894 -49.297  12.338  1.00  0.00    -0.337 N 
HETATM    5  H   UNL     1     -40.324 -48.278  10.157  1.00  0.00     0.172 HD
HETATM    6  H   UNL     1     -39.279 -49.513  11.566  1.00  0.00     0.164 HD
ENDROOT
BRANCH   1   7
HETATM    7  C   UNL     1     -42.136 -47.292  10.329  1.00  0.00     0.127 A 
HETATM    8  C   UNL     1     -43.300 -47.745   9.753  1.00  0.00     0.076 A 
HETATM    9  C   UNL     1     -44.060 -46.595   9.456  1.00  0.00     0.029 A 
HETATM   10  N   UNL     1     -43.408 -45.478   9.795  1.00  0.00    -0.301 N 
HETATM   11  N   UNL     1     -42.250 -45.919  10.324  1.00  0.00    -0.281 N 
ATOM     12  HN  UNL     1     -43.717 -44.513   9.680  1.00  0.00     0.187 HD
HETATM   13  C   UNL     1     -41.348 -44.939  10.874  1.00  0.00     0.179 C 
BRANCH   9  14
HETATM   14  C   UNL     1     -45.422 -46.541   8.851  1.00  0.00     0.054 C 
HETATM   15  C   UNL     1     -46.136 -47.882   8.930  1.00  0.00     0.011 C 
ENDBRANCH   9  14
ENDBRANCH   1   7
BRANCH   4  16
HETATM   16  C   UNL     1     -39.581 -49.824  13.688  1.00  0.00     0.099 C 
HETATM   17  C   UNL     1     -38.712 -48.879  14.549  1.00  0.00     0.064 C 
HETATM   18  C   UNL     1     -38.020 -50.144  15.149  1.00  0.00     0.067 C 
HETATM   19  C   UNL     1     -36.519 -50.025  15.393  1.00  0.00     0.047 C 
HETATM   20  C   UNL     1     -38.430 -50.884  13.788  1.00  0.00     0.004 C 
HETATM   21  C   UNL     1     -38.932 -52.321  13.975  1.00  0.00     0.020 C 
HETATM   22  C   UNL     1     -37.397 -50.849  12.652  1.00  0.00     0.020 C 
BRANCH  18  23
HETATM   23  O   UNL     1     -38.668 -50.697  16.330  1.00  0.00    -0.384 OA
HETATM   24  C   UNL     1     -37.858 -51.126  17.418  1.00  0.00     0.202 C 
ENDBRANCH  18  23
ENDBRANCH   4  16
TORSDOF 4
ENDMDL
MODEL 7
REMARK VINA RESULT:      -5.2      2.456      8.130
REMARK  4 active torsions:
REMARK  status: ('A' for Active; 'I' for Inactive)
REMARK    1  A    between atoms: C_2  and  C_3 
REMARK    2  A    between atoms: C_5  and  N_6 
REMARK       I    between atoms: N_6  and  C_7 
REMARK       I    between atoms: C_7  and  N_9 
REMARK    3  A    between atoms: N_9  and  C_10 
REMARK    4  A    between atoms: C_12  and  O_14 
ROOT
HETATM    1  N   UNL     1     -41.906 -51.125  14.260  1.00  0.00    -0.293 N 
HETATM    2  C   UNL     1     -41.526 -50.377  13.109  1.00  0.00     0.322 C 
HETATM    3  O   UNL     1     -41.555 -50.842  11.984  1.00  0.00    -0.247 OA
HETATM    4  N   UNL     1     -41.118 -49.122  13.446  1.00  0.00    -0.337 N 
HETATM    5  H   UNL     1     -41.755 -50.734  15.172  1.00  0.00     0.172 HD
HETATM    6  H   UNL     1     -41.109 -48.834  14.414  1.00  0.00     0.164 HD
ENDROOT
BRANCH   1   7
HETATM    7  C   UNL     1     -42.449 -52.407  14.171  1.00  0.00     0.127 A 
HETATM    8  C   UNL     1     -43.780 -52.754  14.138  1.00  0.00     0.076 A 
HETATM    9  C   UNL     1     -43.813 -54.160  14.042  1.00  0.00     0.029 A 
HETATM   10  N   UNL     1     -42.581 -54.678  14.043  1.00  0.00    -0.301 N 
HETATM   11  N   UNL     1     -41.771 -53.604  14.117  1.00  0.00    -0.281 N 
ATOM     12  HN  UNL     1     -42.315 -55.661  13.997  1.00  0.00     0.187 HD
HETATM   13  C   UNL     1     -40.349 -53.830  14.050  1.00  0.00     0.179 C 
BRANCH   9  14
HETATM   14  C   UNL     1     -45.018 -55.033  13.941  1.00  0.00     0.054 C 
HETATM   15  C   UNL     1     -46.234 -54.409  14.611  1.00  0.00     0.011 C 
ENDBRANCH   9  14
ENDBRANCH   1   7
BRANCH   4  16
HETATM   16  C   UNL     1     -40.633 -48.188  12.402  1.00  0.00     0.099 C 
HETATM   17  C   UNL     1     -39.972 -46.907  12.958  1.00  0.00     0.064 C 
HETATM   18  C   UNL     1     -40.583 -46.128  11.750  1.00  0.00     0.067 C 
HETATM   19  C   UNL     1     -41.100 -44.726  12.058  1.00  0.00     0.047 C 
HETATM   20  C   UNL     1     -41.704 -47.272  11.715  1.00  0.00     0.004 C 
HETATM   21  C   UNL     1     -42.095 -47.733  10.306  1.00  0.00     0.020 C 
HETATM   22  C   UNL     1     -42.975 -47.010  12.536  1.00  0.00     0.020 C 
BRANCH  18  23
HETATM   23  O   UNL     1     -39.749 -46.094  10.557  1.00  0.00    -0.384 OA
HETATM   24  C   UNL     1     -39.453 -44.835   9.963  1.00  0.00     0.202 C 
ENDBRANCH  18  23
ENDBRANCH   4  16
TORSDOF 4
ENDMDL
MODEL 8
REMARK VINA RESULT:      -5.1      1.672      2.569
REMARK  4 active torsions:
REMARK  status: ('A' for Active; 'I' for Inactive)
REMARK    1  A    between atoms: C_2  and  C_3 
REMARK    2  A    between atoms: C_5  and  N_6 
REMARK       I    between atoms: N_6  and  C_7 
REMARK       I    between atoms: C_7  and  N_9 
REMARK    3  A    between atoms: N_9  and  C_10 
REMARK    4  A    between atoms: C_12  and  O_14 
ROOT
HETATM    1  N   UNL     1     -41.953 -50.434  11.888  1.00  0.00    -0.293 N 
HETATM    2  C   UNL     1     -42.902 -50.675  12.922  1.00  0.00     0.322 C 
HETATM    3  O   UNL     1     -43.448 -49.776  13.535  1.00  0.00    -0.247 OA
HETATM    4  N   UNL     1     -43.079 -52.010  13.130  1.00  0.00    -0.337 N 
HETATM    5  H   UNL     1     -41.447 -51.208  11.495  1.00  0.00     0.172 HD
HETATM    6  H   UNL     1     -42.560 -52.683  12.584  1.00  0.00     0.164 HD
ENDROOT
BRANCH   1   7
HETATM    7  C   UNL     1     -41.667 -49.151  11.422  1.00  0.00     0.127 A 
HETATM    8  C   UNL     1     -42.533 -48.260  10.832  1.00  0.00     0.076 A 
HETATM    9  C   UNL     1     -41.771 -47.110  10.543  1.00  0.00     0.029 A 
HETATM   10  N   UNL     1     -40.493 -47.269  10.901  1.00  0.00    -0.301 N 
HETATM   11  N   UNL     1     -40.450 -48.506  11.433  1.00  0.00    -0.281 N 
ATOM     12  HN  UNL     1     -39.726 -46.605  10.796  1.00  0.00     0.187 HD
HETATM   13  C   UNL     1     -39.202 -48.949  12.001  1.00  0.00     0.179 C 
BRANCH   9  14
HETATM   14  C   UNL     1     -42.249 -45.837   9.930  1.00  0.00     0.054 C 
HETATM   15  C   UNL     1     -43.593 -46.007   9.236  1.00  0.00     0.011 C 
ENDBRANCH   9  14
ENDBRANCH   1   7
BRANCH   4  16
HETATM   16  C   UNL     1     -43.991 -52.485  14.199  1.00  0.00     0.099 C 
HETATM   17  C   UNL     1     -43.515 -52.150  15.630  1.00  0.00     0.064 C 
HETATM   18  C   UNL     1     -44.117 -53.515  16.094  1.00  0.00     0.067 C 
HETATM   19  C   UNL     1     -43.306 -54.276  17.139  1.00  0.00     0.047 C 
HETATM   20  C   UNL     1     -43.905 -54.003  14.583  1.00  0.00     0.004 C 
HETATM   21  C   UNL     1     -45.057 -54.845  14.022  1.00  0.00     0.020 C 
HETATM   22  C   UNL     1     -42.569 -54.691  14.267  1.00  0.00     0.020 C 
BRANCH  18  23
HETATM   23  O   UNL     1     -45.515 -53.463  16.499  1.00  0.00    -0.384 OA
HETATM   24  C   UNL     1     -45.892 -54.057  17.736  1.00  0.00     0.202 C 
ENDBRANCH  18  23
ENDBRANCH   4  16
TORSDOF 4
ENDMDL
MODEL 9
REMARK VINA RESULT:      -5.1      4.632      6.404
REMARK  4 active torsions:
REMARK  status: ('A' for Active; 'I' for Inactive)
REMARK    1  A    between atoms: C_2  and  C_3 
REMARK    2  A    between atoms: C_5  and  N_6 
REMARK       I    between atoms: N_6  and  C_7 
REMARK       I    between atoms: C_7  and  N_9 
REMARK    3  A    between atoms: N_9  and  C_10 
REMARK    4  A    between atoms: C_12  and  O_14 
ROOT
HETATM    1  N   UNL     1     -39.815 -47.704  11.414  1.00  0.00    -0.293 N 
HETATM    2  C   UNL     1     -39.732 -47.633  12.834  1.00  0.00     0.322 C 
HETATM    3  O   UNL     1     -40.601 -47.124  13.518  1.00  0.00    -0.247 OA
HETATM    4  N   UNL     1     -38.570 -48.178  13.291  1.00  0.00    -0.337 N 
HETATM    5  H   UNL     1     -39.021 -48.029  10.891  1.00  0.00     0.172 HD
HETATM    6  H   UNL     1     -37.897 -48.558  12.641  1.00  0.00     0.164 HD
ENDROOT
BRANCH   1   7
HETATM    7  C   UNL     1     -40.949 -47.299  10.711  1.00  0.00     0.127 A 
HETATM    8  C   UNL     1     -41.961 -48.092  10.223  1.00  0.00     0.076 A 
HETATM    9  C   UNL     1     -42.872 -47.218   9.595  1.00  0.00     0.029 A 
HETATM   10  N   UNL     1     -42.452 -45.951   9.656  1.00  0.00    -0.301 N 
HETATM   11  N   UNL     1     -41.291 -46.019  10.336  1.00  0.00    -0.281 N 
ATOM     12  HN  UNL     1     -42.907 -45.122   9.274  1.00  0.00     0.187 HD
HETATM   13  C   UNL     1     -40.623 -44.781  10.647  1.00  0.00     0.179 C 
BRANCH   9  14
HETATM   14  C   UNL     1     -44.161 -47.575   8.935  1.00  0.00     0.054 C 
HETATM   15  C   UNL     1     -45.169 -46.437   8.999  1.00  0.00     0.011 C 
ENDBRANCH   9  14
ENDBRANCH   1   7
BRANCH   4  16
HETATM   16  C   UNL     1     -38.258 -48.166  14.740  1.00  0.00     0.099 C 
HETATM   17  C   UNL     1     -36.804 -47.763  15.070  1.00  0.00     0.064 C 
HETATM   18  C   UNL     1     -36.844 -48.780  16.255  1.00  0.00     0.067 C 
HETATM   19  C   UNL     1     -35.561 -49.570  16.494  1.00  0.00     0.047 C 
HETATM   20  C   UNL     1     -37.970 -49.552  15.416  1.00  0.00     0.004 C 
HETATM   21  C   UNL     1     -39.137 -50.079  16.259  1.00  0.00     0.020 C 
HETATM   22  C   UNL     1     -37.481 -50.659  14.472  1.00  0.00     0.020 C 
BRANCH  18  23
HETATM   23  O   UNL     1     -37.328 -48.235  17.516  1.00  0.00    -0.384 OA
HETATM   24  C   UNL     1     -36.487 -48.307  18.661  1.00  0.00     0.202 C 
ENDBRANCH  18  23
ENDBRANCH   4  16
TORSDOF 4
ENDMDL
