MODEL 1
REMARK VINA RESULT:      -5.8      0.000      0.000
REMARK  6 active torsions:
REMARK  status: ('A' for Active; 'I' for Inactive)
REMARK    1  A    between atoms: C_2  and  C_3 
REMARK       I    between atoms: N_8  and  C_9 
REMARK    2  A    between atoms: C_9  and  C_11 
REMARK    3  A    between atoms: C_11  and  N_13 
REMARK    4  A    between atoms: N_13  and  C_14 
REMARK    5  A    between atoms: C_14  and  C_15 
REMARK    6  A    between atoms: C_15  and  C_16 
ROOT
HETATM    1  C   UNL     1     -42.421 -53.012  12.997  1.00  0.00     0.307 C 
HETATM    2  C   UNL     1     -41.625 -54.297  13.217  1.00  0.00     0.053 C 
ENDROOT
BRANCH   1   3
HETATM    3  C   UNL     1     -43.938 -53.324  13.065  1.00  0.00     0.253 C 
HETATM    4  N   UNL     1     -44.702 -52.677  14.040  1.00  0.00    -0.346 N 
HETATM    5  C   UNL     1     -44.204 -52.382  15.400  1.00  0.00     0.087 C 
HETATM    6  C   UNL     1     -46.160 -52.750  13.907  1.00  0.00     0.126 C 
HETATM    7  C   UNL     1     -44.828 -51.070  15.888  1.00  0.00     0.025 C 
HETATM    8  C   UNL     1     -46.352 -51.112  15.860  1.00  0.00     0.004 C 
HETATM    9  C   UNL     1     -46.865 -51.522  14.483  1.00  0.00     0.020 C 
HETATM   10  O   UNL     1     -44.457 -54.028  12.190  1.00  0.00    -0.271 OA
BRANCH   5  11
HETATM   11  C   UNL     1     -44.457 -53.604  16.313  1.00  0.00     0.021 C 
HETATM   12  C   UNL     1     -43.230 -54.452  16.597  1.00  0.00     0.007 C 
ENDBRANCH   5  11
ENDBRANCH   1   3
BRANCH   1  13
HETATM   13  N   UNL     1     -42.077 -52.459  11.657  1.00  0.00     0.097 N 
HETATM   14  H   UNL     1     -42.952 -52.105  11.258  1.00  0.00     0.317 HD
BRANCH  13  15
HETATM   15  C   UNL     1     -41.134 -51.326  11.726  1.00  0.00     0.276 C 
BRANCH  15  16
HETATM   16  C   UNL     1     -41.503 -50.266  12.769  1.00  0.00     0.087 C 
BRANCH  16  17
HETATM   17  C   UNL     1     -42.030 -49.014  12.117  1.00  0.00     0.010 A 
HETATM   18  C   UNL     1     -42.565 -47.986  12.885  1.00  0.00     0.025 A 
HETATM   19  C   UNL     1     -43.061 -46.857  12.240  1.00  0.00     0.003 A 
HETATM   20  C   UNL     1     -43.002 -46.783  10.853  1.00  0.00     0.017 A 
HETATM   21  C   UNL     1     -42.440 -47.843  10.167  1.00  0.00     0.088 A 
HETATM   22  N   UNL     1     -41.956 -48.952  10.764  1.00  0.00    -0.369 N 
ATOM     23  HN  UNL     1     -41.551 -49.714  10.220  1.00  0.00     0.165 HD
ENDBRANCH  16  17
ENDBRANCH  15  16
ENDBRANCH  13  15
ENDBRANCH   1  13
TORSDOF 6
ENDMDL
MODEL 2
REMARK VINA RESULT:      -5.7      1.797      2.852
REMARK  6 active torsions:
REMARK  status: ('A' for Active; 'I' for Inactive)
REMARK    1  A    between atoms: C_2  and  C_3 
REMARK       I    between atoms: N_8  and  C_9 
REMARK    2  A    between atoms: C_9  and  C_11 
REMARK    3  A    between atoms: C_11  and  N_13 
REMARK    4  A    between atoms: N_13  and  C_14 
REMARK    5  A    between atoms: C_14  and  C_15 
REMARK    6  A    between atoms: C_15  and  C_16 
ROOT
HETATM    1  C   UNL     1     -42.389 -52.770  13.039  1.00  0.00     0.307 C 
HETATM    2  C   UNL     1     -41.550 -54.033  12.845  1.00  0.00     0.053 C 
ENDROOT
BRANCH   1   3
HETATM    3  C   UNL     1     -43.891 -53.149  13.087  1.00  0.00     0.253 C 
HETATM    4  N   UNL     1     -44.685 -52.572  14.083  1.00  0.00    -0.346 N 
HETATM    5  C   UNL     1     -44.204 -52.309  15.455  1.00  0.00     0.087 C 
HETATM    6  C   UNL     1     -46.138 -52.701  13.940  1.00  0.00     0.126 C 
HETATM    7  C   UNL     1     -44.885 -51.044  15.990  1.00  0.00     0.025 C 
HETATM    8  C   UNL     1     -46.405 -51.149  15.953  1.00  0.00     0.004 C 
HETATM    9  C   UNL     1     -46.896 -51.527  14.559  1.00  0.00     0.020 C 
HETATM   10  O   UNL     1     -44.377 -53.839  12.184  1.00  0.00    -0.271 OA
BRANCH   5  11
HETATM   11  C   UNL     1     -44.408 -53.575  16.320  1.00  0.00     0.021 C 
HETATM   12  C   UNL     1     -43.219 -54.518  16.359  1.00  0.00     0.007 C 
ENDBRANCH   5  11
ENDBRANCH   1   3
BRANCH   1  13
HETATM   13  N   UNL     1     -42.136 -51.847  11.897  1.00  0.00     0.097 N 
HETATM   14  H   UNL     1     -42.916 -51.974  11.245  1.00  0.00     0.317 HD
BRANCH  13  15
HETATM   15  C   UNL     1     -42.122 -50.427  12.296  1.00  0.00     0.276 C 
BRANCH  15  16
HETATM   16  C   UNL     1     -41.034 -49.593  11.610  1.00  0.00     0.087 C 
BRANCH  16  17
HETATM   17  C   UNL     1     -39.657 -50.069  11.991  1.00  0.00     0.010 A 
HETATM   18  C   UNL     1     -39.395 -50.529  13.276  1.00  0.00     0.025 A 
HETATM   19  C   UNL     1     -38.102 -50.938  13.590  1.00  0.00     0.003 A 
HETATM   20  C   UNL     1     -37.114 -50.884  12.615  1.00  0.00     0.017 A 
HETATM   21  C   UNL     1     -37.462 -50.427  11.357  1.00  0.00     0.088 A 
HETATM   22  N   UNL     1     -38.705 -50.019  11.025  1.00  0.00    -0.369 N 
ATOM     23  HN  UNL     1     -38.920 -49.686  10.086  1.00  0.00     0.165 HD
ENDBRANCH  16  17
ENDBRANCH  15  16
ENDBRANCH  13  15
ENDBRANCH   1  13
TORSDOF 6
ENDMDL
MODEL 3
REMARK VINA RESULT:      -5.7      2.061      3.692
REMARK  6 active torsions:
REMARK  status: ('A' for Active; 'I' for Inactive)
REMARK    1  A    between atoms: C_2  and  C_3 
REMARK       I    between atoms: N_8  and  C_9 
REMARK    2  A    between atoms: C_9  and  C_11 
REMARK    3  A    between atoms: C_11  and  N_13 
REMARK    4  A    between atoms: N_13  and  C_14 
REMARK    5  A    between atoms: C_14  and  C_15 
REMARK    6  A    between atoms: C_15  and  C_16 
ROOT
HETATM    1  C   UNL     1     -42.837 -49.371  12.866  1.00  0.00     0.307 C 
HETATM    2  C   UNL     1     -42.111 -48.290  13.666  1.00  0.00     0.053 C 
ENDROOT
BRANCH   1   3
HETATM    3  C   UNL     1     -42.585 -50.754  13.518  1.00  0.00     0.253 C 
HETATM    4  N   UNL     1     -43.609 -51.705  13.464  1.00  0.00    -0.346 N 
HETATM    5  C   UNL     1     -45.042 -51.365  13.582  1.00  0.00     0.087 C 
HETATM    6  C   UNL     1     -43.260 -53.085  13.812  1.00  0.00     0.126 C 
HETATM    7  C   UNL     1     -45.859 -52.332  12.719  1.00  0.00     0.025 C 
HETATM    8  C   UNL     1     -45.610 -53.788  13.093  1.00  0.00     0.004 C 
HETATM    9  C   UNL     1     -44.120 -54.113  13.075  1.00  0.00     0.020 C 
HETATM   10  O   UNL     1     -41.460 -51.031  13.950  1.00  0.00    -0.271 OA
BRANCH   5  11
HETATM   11  C   UNL     1     -45.438 -51.331  15.077  1.00  0.00     0.021 C 
HETATM   12  C   UNL     1     -46.932 -51.326  15.341  1.00  0.00     0.007 C 
ENDBRANCH   5  11
ENDBRANCH   1   3
BRANCH   1  13
HETATM   13  N   UNL     1     -42.316 -49.365  11.471  1.00  0.00     0.097 N 
HETATM   14  H   UNL     1     -43.135 -49.380  10.856  1.00  0.00     0.317 HD
BRANCH  13  15
HETATM   15  C   UNL     1     -41.545 -48.149  11.148  1.00  0.00     0.276 C 
BRANCH  15  16
HETATM   16  C   UNL     1     -42.401 -46.975  10.661  1.00  0.00     0.087 C 
BRANCH  16  17
HETATM   17  C   UNL     1     -43.390 -47.415   9.613  1.00  0.00     0.010 A 
HETATM   18  C   UNL     1     -44.755 -47.394   9.872  1.00  0.00     0.025 A 
HETATM   19  C   UNL     1     -45.631 -47.830   8.883  1.00  0.00     0.003 A 
HETATM   20  C   UNL     1     -45.122 -48.265   7.664  1.00  0.00     0.017 A 
HETATM   21  C   UNL     1     -43.751 -48.239   7.484  1.00  0.00     0.088 A 
HETATM   22  N   UNL     1     -42.878 -47.827   8.426  1.00  0.00    -0.369 N 
ATOM     23  HN  UNL     1     -41.873 -47.826   8.253  1.00  0.00     0.165 HD
ENDBRANCH  16  17
ENDBRANCH  15  16
ENDBRANCH  13  15
ENDBRANCH   1  13
TORSDOF 6
ENDMDL
MODEL 4
REMARK VINA RESULT:      -5.6      2.018      5.882
REMARK  6 active torsions:
REMARK  status: ('A' for Active; 'I' for Inactive)
REMARK    1  A    between atoms: C_2  and  C_3 
REMARK       I    between atoms: N_8  and  C_9 
REMARK    2  A    between atoms: C_9  and  C_11 
REMARK    3  A    between atoms: C_11  and  N_13 
REMARK    4  A    between atoms: N_13  and  C_14 
REMARK    5  A    between atoms: C_14  and  C_15 
REMARK    6  A    between atoms: C_15  and  C_16 
ROOT
HETATM    1  C   UNL     1     -41.910 -53.042  12.803  1.00  0.00     0.307 C 
HETATM    2  C   UNL     1     -42.059 -54.288  13.675  1.00  0.00     0.053 C 
ENDROOT
BRANCH   1   3
HETATM    3  C   UNL     1     -41.783 -51.790  13.708  1.00  0.00     0.253 C 
HETATM    4  N   UNL     1     -41.037 -50.707  13.234  1.00  0.00    -0.346 N 
HETATM    5  C   UNL     1     -39.803 -50.857  12.435  1.00  0.00     0.087 C 
HETATM    6  C   UNL     1     -41.168 -49.437  13.954  1.00  0.00     0.126 C 
HETATM    7  C   UNL     1     -39.706 -49.695  11.441  1.00  0.00     0.025 C 
HETATM    8  C   UNL     1     -39.745 -48.339  12.136  1.00  0.00     0.004 C 
HETATM    9  C   UNL     1     -40.964 -48.223  13.047  1.00  0.00     0.020 C 
HETATM   10  O   UNL     1     -42.438 -51.722  14.754  1.00  0.00    -0.271 OA
BRANCH   5  11
HETATM   11  C   UNL     1     -38.592 -51.006  13.386  1.00  0.00     0.021 C 
HETATM   12  C   UNL     1     -37.242 -51.061  12.695  1.00  0.00     0.007 C 
ENDBRANCH   5  11
ENDBRANCH   1   3
BRANCH   1  13
HETATM   13  N   UNL     1     -43.113 -52.920  11.934  1.00  0.00     0.097 N 
HETATM   14  H   UNL     1     -42.883 -53.390  11.053  1.00  0.00     0.317 HD
BRANCH  13  15
HETATM   15  C   UNL     1     -44.301 -53.593  12.495  1.00  0.00     0.276 C 
BRANCH  15  16
HETATM   16  C   UNL     1     -45.530 -52.687  12.629  1.00  0.00     0.087 C 
BRANCH  16  17
HETATM   17  C   UNL     1     -45.879 -52.446  14.075  1.00  0.00     0.010 A 
HETATM   18  C   UNL     1     -46.822 -51.488  14.426  1.00  0.00     0.025 A 
HETATM   19  C   UNL     1     -47.098 -51.283  15.775  1.00  0.00     0.003 A 
HETATM   20  C   UNL     1     -46.433 -52.043  16.730  1.00  0.00     0.017 A 
HETATM   21  C   UNL     1     -45.520 -52.986  16.294  1.00  0.00     0.088 A 
HETATM   22  N   UNL     1     -45.229 -53.202  14.994  1.00  0.00    -0.369 N 
ATOM     23  HN  UNL     1     -44.547 -53.907  14.714  1.00  0.00     0.165 HD
ENDBRANCH  16  17
ENDBRANCH  15  16
ENDBRANCH  13  15
ENDBRANCH   1  13
TORSDOF 6
ENDMDL
MODEL 5
REMARK VINA RESULT:      -5.6      2.571      7.010
REMARK  6 active torsions:
REMARK  status: ('A' for Active; 'I' for Inactive)
REMARK    1  A    between atoms: C_2  and  C_3 
REMARK       I    between atoms: N_8  and  C_9 
REMARK    2  A    between atoms: C_9  and  C_11 
REMARK    3  A    between atoms: C_11  and  N_13 
REMARK    4  A    between atoms: N_13  and  C_14 
REMARK    5  A    between atoms: C_14  and  C_15 
REMARK    6  A    between atoms: C_15  and  C_16 
ROOT
HETATM    1  C   UNL     1     -41.673 -49.104  12.157  1.00  0.00     0.307 C 
HETATM    2  C   UNL     1     -43.077 -49.394  12.684  1.00  0.00     0.053 C 
ENDROOT
BRANCH   1   3
HETATM    3  C   UNL     1     -41.734 -47.938  11.137  1.00  0.00     0.253 C 
HETATM    4  N   UNL     1     -41.128 -46.727  11.482  1.00  0.00    -0.346 N 
HETATM    5  C   UNL     1     -41.136 -46.175  12.853  1.00  0.00     0.087 C 
HETATM    6  C   UNL     1     -40.934 -45.745  10.411  1.00  0.00     0.126 C 
HETATM    7  C   UNL     1     -39.831 -45.409  13.093  1.00  0.00     0.025 C 
HETATM    8  C   UNL     1     -39.613 -44.308  12.061  1.00  0.00     0.004 C 
HETATM    9  C   UNL     1     -39.711 -44.858  10.641  1.00  0.00     0.020 C 
HETATM   10  O   UNL     1     -42.195 -48.138  10.007  1.00  0.00    -0.271 OA
BRANCH   5  11
HETATM   11  C   UNL     1     -42.427 -45.348  13.064  1.00  0.00     0.021 C 
HETATM   12  C   UNL     1     -43.342 -45.863  14.159  1.00  0.00     0.007 C 
ENDBRANCH   5  11
ENDBRANCH   1   3
BRANCH   1  13
HETATM   13  N   UNL     1     -41.148 -50.330  11.494  1.00  0.00     0.097 N 
HETATM   14  H   UNL     1     -40.327 -50.037  10.954  1.00  0.00     0.317 HD
BRANCH  13  15
HETATM   15  C   UNL     1     -40.699 -51.357  12.454  1.00  0.00     0.276 C 
BRANCH  15  16
HETATM   16  C   UNL     1     -40.980 -52.796  12.010  1.00  0.00     0.087 C 
BRANCH  16  17
HETATM   17  C   UNL     1     -42.234 -53.333  12.649  1.00  0.00     0.010 A 
HETATM   18  C   UNL     1     -42.169 -54.098  13.807  1.00  0.00     0.025 A 
HETATM   19  C   UNL     1     -43.350 -54.593  14.350  1.00  0.00     0.003 A 
HETATM   20  C   UNL     1     -44.560 -54.303  13.730  1.00  0.00     0.017 A 
HETATM   21  C   UNL     1     -44.537 -53.522  12.589  1.00  0.00     0.088 A 
HETATM   22  N   UNL     1     -43.407 -53.033  12.037  1.00  0.00    -0.369 N 
ATOM     23  HN  UNL     1     -43.434 -52.462  11.193  1.00  0.00     0.165 HD
ENDBRANCH  16  17
ENDBRANCH  15  16
ENDBRANCH  13  15
ENDBRANCH   1  13
TORSDOF 6
ENDMDL
MODEL 6
REMARK VINA RESULT:      -5.5      1.861      3.251
REMARK  6 active torsions:
REMARK  status: ('A' for Active; 'I' for Inactive)
REMARK    1  A    between atoms: C_2  and  C_3 
REMARK       I    between atoms: N_8  and  C_9 
REMARK    2  A    between atoms: C_9  and  C_11 
REMARK    3  A    between atoms: C_11  and  N_13 
REMARK    4  A    between atoms: N_13  and  C_14 
REMARK    5  A    between atoms: C_14  and  C_15 
REMARK    6  A    between atoms: C_15  and  C_16 
ROOT
HETATM    1  C   UNL     1     -43.316 -50.271  13.239  1.00  0.00     0.307 C 
HETATM    2  C   UNL     1     -43.138 -48.828  13.709  1.00  0.00     0.053 C 
ENDROOT
BRANCH   1   3
HETATM    3  C   UNL     1     -43.026 -51.238  14.415  1.00  0.00     0.253 C 
HETATM    4  N   UNL     1     -43.614 -52.505  14.388  1.00  0.00    -0.346 N 
HETATM    5  C   UNL     1     -44.977 -52.758  13.874  1.00  0.00     0.087 C 
HETATM    6  C   UNL     1     -43.105 -53.501  15.335  1.00  0.00     0.126 C 
HETATM    7  C   UNL     1     -45.018 -54.147  13.227  1.00  0.00     0.025 C 
HETATM    8  C   UNL     1     -44.584 -55.244  14.192  1.00  0.00     0.004 C 
HETATM    9  C   UNL     1     -43.223 -54.930  14.806  1.00  0.00     0.020 C 
HETATM   10  O   UNL     1     -42.192 -50.924  15.273  1.00  0.00    -0.271 OA
BRANCH   5  11
HETATM   11  C   UNL     1     -46.001 -52.538  15.012  1.00  0.00     0.021 C 
HETATM   12  C   UNL     1     -46.899 -51.326  14.835  1.00  0.00     0.007 C 
ENDBRANCH   5  11
ENDBRANCH   1   3
BRANCH   1  13
HETATM   13  N   UNL     1     -42.365 -50.531  12.123  1.00  0.00     0.097 N 
HETATM   14  H   UNL     1     -42.892 -50.387  11.255  1.00  0.00     0.317 HD
BRANCH  13  15
HETATM   15  C   UNL     1     -41.225 -49.594  12.106  1.00  0.00     0.276 C 
BRANCH  15  16
HETATM   16  C   UNL     1     -40.854 -49.084  10.709  1.00  0.00     0.087 C 
BRANCH  16  17
HETATM   17  C   UNL     1     -41.762 -47.963  10.275  1.00  0.00     0.010 A 
HETATM   18  C   UNL     1     -41.762 -46.748  10.950  1.00  0.00     0.025 A 
HETATM   19  C   UNL     1     -42.633 -45.748  10.529  1.00  0.00     0.003 A 
HETATM   20  C   UNL     1     -43.471 -45.985   9.446  1.00  0.00     0.017 A 
HETATM   21  C   UNL     1     -43.397 -47.217   8.822  1.00  0.00     0.088 A 
HETATM   22  N   UNL     1     -42.567 -48.207   9.211  1.00  0.00    -0.369 N 
ATOM     23  HN  UNL     1     -42.545 -49.102   8.724  1.00  0.00     0.165 HD
ENDBRANCH  16  17
ENDBRANCH  15  16
ENDBRANCH  13  15
ENDBRANCH   1  13
TORSDOF 6
ENDMDL
MODEL 7
REMARK VINA RESULT:      -5.4      2.719      3.302
REMARK  6 active torsions:
REMARK  status: ('A' for Active; 'I' for Inactive)
REMARK    1  A    between atoms: C_2  and  C_3 
REMARK       I    between atoms: N_8  and  C_9 
REMARK    2  A    between atoms: C_9  and  C_11 
REMARK    3  A    between atoms: C_11  and  N_13 
REMARK    4  A    between atoms: N_13  and  C_14 
REMARK    5  A    between atoms: C_14  and  C_15 
REMARK    6  A    between atoms: C_15  and  C_16 
ROOT
HETATM    1  C   UNL     1     -42.019 -53.832  14.477  1.00  0.00     0.307 C 
HETATM    2  C   UNL     1     -40.900 -54.603  15.176  1.00  0.00     0.053 C 
ENDROOT
BRANCH   1   3
HETATM    3  C   UNL     1     -43.379 -54.193  15.126  1.00  0.00     0.253 C 
HETATM    4  N   UNL     1     -44.437 -53.290  14.985  1.00  0.00    -0.346 N 
HETATM    5  C   UNL     1     -44.262 -51.823  15.003  1.00  0.00     0.087 C 
HETATM    6  C   UNL     1     -45.777 -53.767  15.338  1.00  0.00     0.126 C 
HETATM    7  C   UNL     1     -45.295 -51.183  14.069  1.00  0.00     0.025 C 
HETATM    8  C   UNL     1     -46.723 -51.568  14.441  1.00  0.00     0.004 C 
HETATM    9  C   UNL     1     -46.878 -53.084  14.527  1.00  0.00     0.020 C 
HETATM   10  O   UNL     1     -43.538 -55.308  15.635  1.00  0.00    -0.271 OA
BRANCH   5  11
HETATM   11  C   UNL     1     -44.305 -51.321  16.466  1.00  0.00     0.021 C 
HETATM   12  C   UNL     1     -44.237 -49.813  16.625  1.00  0.00     0.007 C 
ENDBRANCH   5  11
ENDBRANCH   1   3
BRANCH   1  13
HETATM   13  N   UNL     1     -42.030 -54.208  13.036  1.00  0.00     0.097 N 
HETATM   14  H   UNL     1     -42.962 -53.971  12.682  1.00  0.00     0.317 HD
BRANCH  13  15
HETATM   15  C   UNL     1     -41.050 -53.449  12.235  1.00  0.00     0.276 C 
BRANCH  15  16
HETATM   16  C   UNL     1     -41.244 -51.930  12.281  1.00  0.00     0.087 C 
BRANCH  16  17
HETATM   17  C   UNL     1     -39.924 -51.210  12.374  1.00  0.00     0.010 A 
HETATM   18  C   UNL     1     -39.054 -51.456  13.429  1.00  0.00     0.025 A 
HETATM   19  C   UNL     1     -37.855 -50.753  13.488  1.00  0.00     0.003 A 
HETATM   20  C   UNL     1     -37.555 -49.832  12.490  1.00  0.00     0.017 A 
HETATM   21  C   UNL     1     -38.470 -49.658  11.467  1.00  0.00     0.088 A 
HETATM   22  N   UNL     1     -39.642 -50.322  11.388  1.00  0.00    -0.369 N 
ATOM     23  HN  UNL     1     -40.290 -50.163  10.617  1.00  0.00     0.165 HD
ENDBRANCH  16  17
ENDBRANCH  15  16
ENDBRANCH  13  15
ENDBRANCH   1  13
TORSDOF 6
ENDMDL
MODEL 8
REMARK VINA RESULT:      -5.3      2.713      6.328
REMARK  6 active torsions:
REMARK  status: ('A' for Active; 'I' for Inactive)
REMARK    1  A    between atoms: C_2  and  C_3 
REMARK       I    between atoms: N_8  and  C_9 
REMARK    2  A    between atoms: C_9  and  C_11 
REMARK    3  A    between atoms: C_11  and  N_13 
REMARK    4  A    between atoms: N_13  and  C_14 
REMARK    5  A    between atoms: C_14  and  C_15 
REMARK    6  A    between atoms: C_15  and  C_16 
ROOT
HETATM    1  C   UNL     1     -42.195 -50.538  13.056  1.00  0.00     0.307 C 
HETATM    2  C   UNL     1     -43.356 -49.644  13.489  1.00  0.00     0.053 C 
ENDROOT
BRANCH   1   3
HETATM    3  C   UNL     1     -41.078 -49.667  12.426  1.00  0.00     0.253 C 
HETATM    4  N   UNL     1     -39.749 -50.051  12.626  1.00  0.00    -0.346 N 
HETATM    5  C   UNL     1     -39.254 -50.639  13.888  1.00  0.00     0.087 C 
HETATM    6  C   UNL     1     -38.732 -49.405  11.793  1.00  0.00     0.126 C 
HETATM    7  C   UNL     1     -38.140 -51.643  13.571  1.00  0.00     0.025 C 
HETATM    8  C   UNL     1     -37.003 -51.008  12.779  1.00  0.00     0.004 C 
HETATM    9  C   UNL     1     -37.526 -50.308  11.529  1.00  0.00     0.020 C 
HETATM   10  O   UNL     1     -41.381 -48.741  11.664  1.00  0.00    -0.271 OA
BRANCH   5  11
HETATM   11  C   UNL     1     -38.852 -49.503  14.858  1.00  0.00     0.021 C 
HETATM   12  C   UNL     1     -38.295 -49.969  16.191  1.00  0.00     0.007 C 
ENDBRANCH   5  11
ENDBRANCH   1   3
BRANCH   1  13
HETATM   13  N   UNL     1     -42.695 -51.522  12.056  1.00  0.00     0.097 N 
HETATM   14  H   UNL     1     -42.039 -51.493  11.269  1.00  0.00     0.317 HD
BRANCH  13  15
HETATM   15  C   UNL     1     -42.709 -52.906  12.566  1.00  0.00     0.276 C 
BRANCH  15  16
HETATM   16  C   UNL     1     -44.103 -53.540  12.622  1.00  0.00     0.087 C 
BRANCH  16  17
HETATM   17  C   UNL     1     -44.988 -52.832  13.614  1.00  0.00     0.010 A 
HETATM   18  C   UNL     1     -46.069 -52.071  13.184  1.00  0.00     0.025 A 
HETATM   19  C   UNL     1     -46.847 -51.416  14.134  1.00  0.00     0.003 A 
HETATM   20  C   UNL     1     -46.531 -51.544  15.481  1.00  0.00     0.017 A 
HETATM   21  C   UNL     1     -45.447 -52.332  15.824  1.00  0.00     0.088 A 
HETATM   22  N   UNL     1     -44.672 -52.974  14.926  1.00  0.00    -0.369 N 
ATOM     23  HN  UNL     1     -43.880 -53.545  15.221  1.00  0.00     0.165 HD
ENDBRANCH  16  17
ENDBRANCH  15  16
ENDBRANCH  13  15
ENDBRANCH   1  13
TORSDOF 6
ENDMDL
MODEL 9
REMARK VINA RESULT:      -5.3      1.996      2.711
REMARK  6 active torsions:
REMARK  status: ('A' for Active; 'I' for Inactive)
REMARK    1  A    between atoms: C_2  and  C_3 
REMARK       I    between atoms: N_8  and  C_9 
REMARK    2  A    between atoms: C_9  and  C_11 
REMARK    3  A    between atoms: C_11  and  N_13 
REMARK    4  A    between atoms: N_13  and  C_14 
REMARK    5  A    between atoms: C_14  and  C_15 
REMARK    6  A    between atoms: C_15  and  C_16 
ROOT
HETATM    1  C   UNL     1     -40.052 -51.179  13.044  1.00  0.00     0.307 C 
HETATM    2  C   UNL     1     -38.813 -51.528  13.866  1.00  0.00     0.053 C 
ENDROOT
BRANCH   1   3
HETATM    3  C   UNL     1     -40.935 -52.442  12.876  1.00  0.00     0.253 C 
HETATM    4  N   UNL     1     -42.301 -52.334  13.151  1.00  0.00    -0.346 N 
HETATM    5  C   UNL     1     -42.847 -51.500  14.241  1.00  0.00     0.087 C 
HETATM    6  C   UNL     1     -43.162 -53.434  12.710  1.00  0.00     0.126 C 
HETATM    7  C   UNL     1     -44.209 -50.942  13.812  1.00  0.00     0.025 C 
HETATM    8  C   UNL     1     -45.186 -52.046  13.425  1.00  0.00     0.004 C 
HETATM    9  C   UNL     1     -44.581 -52.973  12.375  1.00  0.00     0.020 C 
HETATM   10  O   UNL     1     -40.447 -53.468  12.387  1.00  0.00    -0.271 OA
BRANCH   5  11
HETATM   11  C   UNL     1     -42.862 -52.319  15.553  1.00  0.00     0.021 C 
HETATM   12  C   UNL     1     -41.798 -51.925  16.563  1.00  0.00     0.007 C 
ENDBRANCH   5  11
ENDBRANCH   1   3
BRANCH   1  13
HETATM   13  N   UNL     1     -39.617 -50.684  11.708  1.00  0.00     0.097 N 
HETATM   14  H   UNL     1     -39.441 -51.515  11.135  1.00  0.00     0.317 HD
BRANCH  13  15
HETATM   15  C   UNL     1     -40.654 -49.888  11.022  1.00  0.00     0.276 C 
BRANCH  15  16
HETATM   16  C   UNL     1     -40.634 -48.397  11.373  1.00  0.00     0.087 C 
BRANCH  16  17
HETATM   17  C   UNL     1     -41.656 -47.631  10.573  1.00  0.00     0.010 A 
HETATM   18  C   UNL     1     -41.942 -46.304  10.872  1.00  0.00     0.025 A 
HETATM   19  C   UNL     1     -42.909 -45.642  10.122  1.00  0.00     0.003 A 
HETATM   20  C   UNL     1     -43.555 -46.318   9.094  1.00  0.00     0.017 A 
HETATM   21  C   UNL     1     -43.201 -47.633   8.854  1.00  0.00     0.088 A 
HETATM   22  N   UNL     1     -42.271 -48.302   9.567  1.00  0.00    -0.369 N 
ATOM     23  HN  UNL     1     -42.041 -49.273   9.358  1.00  0.00     0.165 HD
ENDBRANCH  16  17
ENDBRANCH  15  16
ENDBRANCH  13  15
ENDBRANCH   1  13
TORSDOF 6
ENDMDL
