MODEL 1
REMARK VINA RESULT:      -5.5      0.000      0.000
REMARK  3 active torsions:
REMARK  status: ('A' for Active; 'I' for Inactive)
REMARK    1  A    between atoms: O_2  and  C_3 
REMARK    2  A    between atoms: C_8  and  N_9 
REMARK    3  A    between atoms: N_9  and  C_10 
ROOT
HETATM    1  C   UNL     1     -42.470 -46.440  10.051  1.00  0.00     0.044 A 
HETATM    2  C   UNL     1     -43.233 -45.723   9.123  1.00  0.00     0.033 A 
HETATM    3  C   UNL     1     -44.530 -46.123   8.795  1.00  0.00     0.043 A 
HETATM    4  C   UNL     1     -45.039 -47.264   9.393  1.00  0.00     0.113 A 
HETATM    5  C   UNL     1     -46.365 -47.729   9.084  1.00  0.00     0.117 C 
HETATM    6  N   UNL     1     -47.441 -48.059   8.805  1.00  0.00    -0.190 NA
HETATM    7  N   UNL     1     -44.339 -48.007  10.282  1.00  0.00    -0.355 N 
ATOM      8  HN  UNL     1     -44.736 -48.842  10.711  1.00  0.00     0.166 HD
HETATM    9  C   UNL     1     -43.078 -47.583  10.573  1.00  0.00     0.118 A 
ENDROOT
BRANCH   1  10
HETATM   10  N   UNL     1     -41.156 -46.045  10.305  1.00  0.00    -0.382 N 
HETATM   11  H   UNL     1     -40.720 -45.616   9.496  1.00  0.00     0.160 HD
BRANCH  10  12
HETATM   12  C   UNL     1     -40.794 -45.402  11.583  1.00  0.00     0.110 C 
HETATM   13  C   UNL     1     -41.852 -44.354  12.053  1.00  0.00     0.143 C 
HETATM   14  C   UNL     1     -41.448 -43.889  13.465  1.00  0.00     0.034 C 
HETATM   15  C   UNL     1     -40.058 -43.242  13.453  1.00  0.00     0.003 C 
HETATM   16  C   UNL     1     -38.999 -44.156  12.837  1.00  0.00     0.002 C 
HETATM   17  C   UNL     1     -39.421 -44.729  11.482  1.00  0.00     0.028 C 
BRANCH  13  18
HETATM   18  O   UNL     1     -41.914 -43.141  11.285  1.00  0.00    -0.389 OA
HETATM   19  C   UNL     1     -43.192 -42.568  11.097  1.00  0.00     0.202 C 
ENDBRANCH  13  18
ENDBRANCH  10  12
ENDBRANCH   1  10
TORSDOF 3
ENDMDL
MODEL 2
REMARK VINA RESULT:      -5.3      1.504      2.166
REMARK  3 active torsions:
REMARK  status: ('A' for Active; 'I' for Inactive)
REMARK    1  A    between atoms: O_2  and  C_3 
REMARK    2  A    between atoms: C_8  and  N_9 
REMARK    3  A    between atoms: N_9  and  C_10 
ROOT
HETATM    1  C   UNL     1     -42.044 -47.030  10.178  1.00  0.00     0.044 A 
HETATM    2  C   UNL     1     -42.562 -46.363   9.063  1.00  0.00     0.033 A 
HETATM    3  C   UNL     1     -43.914 -46.464   8.727  1.00  0.00     0.043 A 
HETATM    4  C   UNL     1     -44.729 -47.263   9.512  1.00  0.00     0.113 A 
HETATM    5  C   UNL     1     -46.127 -47.412   9.206  1.00  0.00     0.117 C 
HETATM    6  N   UNL     1     -47.249 -47.496   8.921  1.00  0.00    -0.190 NA
HETATM    7  N   UNL     1     -44.278 -47.947  10.589  1.00  0.00    -0.355 N 
ATOM      8  HN  UNL     1     -44.899 -48.527  11.153  1.00  0.00     0.166 HD
HETATM    9  C   UNL     1     -42.955 -47.822  10.880  1.00  0.00     0.118 A 
ENDROOT
BRANCH   1  10
HETATM   10  N   UNL     1     -40.676 -46.956  10.444  1.00  0.00    -0.382 N 
HETATM   11  H   UNL     1     -40.114 -47.288   9.666  1.00  0.00     0.160 HD
BRANCH  10  12
HETATM   12  C   UNL     1     -40.103 -45.781  11.129  1.00  0.00     0.110 C 
HETATM   13  C   UNL     1     -39.768 -46.060  12.629  1.00  0.00     0.143 C 
HETATM   14  C   UNL     1     -39.025 -44.826  13.175  1.00  0.00     0.034 C 
HETATM   15  C   UNL     1     -39.898 -43.569  13.070  1.00  0.00     0.003 C 
HETATM   16  C   UNL     1     -40.409 -43.335  11.648  1.00  0.00     0.002 C 
HETATM   17  C   UNL     1     -41.051 -44.581  11.033  1.00  0.00     0.028 C 
BRANCH  13  18
HETATM   18  O   UNL     1     -40.898 -46.209  13.503  1.00  0.00    -0.389 OA
HETATM   19  C   UNL     1     -41.025 -47.444  14.178  1.00  0.00     0.202 C 
ENDBRANCH  13  18
ENDBRANCH  10  12
ENDBRANCH   1  10
TORSDOF 3
ENDMDL
MODEL 3
REMARK VINA RESULT:      -5.3      4.923      7.005
REMARK  3 active torsions:
REMARK  status: ('A' for Active; 'I' for Inactive)
REMARK    1  A    between atoms: O_2  and  C_3 
REMARK    2  A    between atoms: C_8  and  N_9 
REMARK    3  A    between atoms: N_9  and  C_10 
ROOT
HETATM    1  C   UNL     1     -40.725 -49.062  11.037  1.00  0.00     0.044 A 
HETATM    2  C   UNL     1     -39.764 -48.262  11.664  1.00  0.00     0.033 A 
HETATM    3  C   UNL     1     -39.836 -46.868  11.601  1.00  0.00     0.043 A 
HETATM    4  C   UNL     1     -40.870 -46.294  10.880  1.00  0.00     0.113 A 
HETATM    5  C   UNL     1     -40.987 -44.864  10.773  1.00  0.00     0.117 C 
HETATM    6  N   UNL     1     -41.040 -43.706  10.720  1.00  0.00    -0.190 NA
HETATM    7  N   UNL     1     -41.815 -47.019  10.238  1.00  0.00    -0.355 N 
ATOM      8  HN  UNL     1     -42.568 -46.573   9.715  1.00  0.00     0.166 HD
HETATM    9  C   UNL     1     -41.707 -48.373  10.323  1.00  0.00     0.118 A 
ENDROOT
BRANCH   1  10
HETATM   10  N   UNL     1     -40.583 -50.450  11.068  1.00  0.00    -0.382 N 
HETATM   11  H   UNL     1     -39.747 -50.763  10.586  1.00  0.00     0.160 HD
BRANCH  10  12
HETATM   12  C   UNL     1     -40.876 -51.211  12.299  1.00  0.00     0.110 C 
HETATM   13  C   UNL     1     -39.718 -51.137  13.345  1.00  0.00     0.143 C 
HETATM   14  C   UNL     1     -40.215 -51.817  14.635  1.00  0.00     0.034 C 
HETATM   15  C   UNL     1     -40.577 -53.285  14.375  1.00  0.00     0.003 C 
HETATM   16  C   UNL     1     -41.582 -53.441  13.234  1.00  0.00     0.002 C 
HETATM   17  C   UNL     1     -41.173 -52.678  11.971  1.00  0.00     0.028 C 
BRANCH  13  18
HETATM   18  O   UNL     1     -38.521 -51.854  13.004  1.00  0.00    -0.389 OA
HETATM   19  C   UNL     1     -37.357 -51.085  12.782  1.00  0.00     0.202 C 
ENDBRANCH  13  18
ENDBRANCH  10  12
ENDBRANCH   1  10
TORSDOF 3
ENDMDL
MODEL 4
REMARK VINA RESULT:      -5.3      6.405      8.784
REMARK  3 active torsions:
REMARK  status: ('A' for Active; 'I' for Inactive)
REMARK    1  A    between atoms: O_2  and  C_3 
REMARK    2  A    between atoms: C_8  and  N_9 
REMARK    3  A    between atoms: N_9  and  C_10 
ROOT
HETATM    1  C   UNL     1     -42.397 -51.938  12.626  1.00  0.00     0.044 A 
HETATM    2  C   UNL     1     -41.554 -52.869  13.241  1.00  0.00     0.033 A 
HETATM    3  C   UNL     1     -40.188 -52.617  13.385  1.00  0.00     0.043 A 
HETATM    4  C   UNL     1     -39.680 -51.430  12.882  1.00  0.00     0.113 A 
HETATM    5  C   UNL     1     -38.278 -51.123  12.993  1.00  0.00     0.117 C 
HETATM    6  N   UNL     1     -37.142 -50.921  13.112  1.00  0.00    -0.190 NA
HETATM    7  N   UNL     1     -40.445 -50.504  12.260  1.00  0.00    -0.355 N 
ATOM      8  HN  UNL     1     -40.049 -49.636  11.900  1.00  0.00     0.166 HD
HETATM    9  C   UNL     1     -41.771 -50.789  12.139  1.00  0.00     0.118 A 
ENDROOT
BRANCH   1  10
HETATM   10  N   UNL     1     -43.744 -52.254  12.443  1.00  0.00    -0.382 N 
HETATM   11  H   UNL     1     -43.875 -53.023  11.795  1.00  0.00     0.160 HD
BRANCH  10  12
HETATM   12  C   UNL     1     -44.676 -52.280  13.588  1.00  0.00     0.110 C 
HETATM   13  C   UNL     1     -46.152 -52.556  13.160  1.00  0.00     0.143 C 
HETATM   14  C   UNL     1     -46.983 -52.729  14.446  1.00  0.00     0.034 C 
HETATM   15  C   UNL     1     -46.928 -51.462  15.309  1.00  0.00     0.003 C 
HETATM   16  C   UNL     1     -45.494 -51.034  15.619  1.00  0.00     0.002 C 
HETATM   17  C   UNL     1     -44.609 -50.964  14.371  1.00  0.00     0.028 C 
BRANCH  13  18
HETATM   18  O   UNL     1     -46.808 -51.488  12.456  1.00  0.00    -0.389 OA
HETATM   19  C   UNL     1     -47.271 -51.773  11.151  1.00  0.00     0.202 C 
ENDBRANCH  13  18
ENDBRANCH  10  12
ENDBRANCH   1  10
TORSDOF 3
ENDMDL
MODEL 5
REMARK VINA RESULT:      -5.2      5.075      7.008
REMARK  3 active torsions:
REMARK  status: ('A' for Active; 'I' for Inactive)
REMARK    1  A    between atoms: O_2  and  C_3 
REMARK    2  A    between atoms: C_8  and  N_9 
REMARK    3  A    between atoms: N_9  and  C_10 
ROOT
HETATM    1  C   UNL     1     -41.941 -49.531  12.167  1.00  0.00     0.044 A 
HETATM    2  C   UNL     1     -43.054 -48.705  12.358  1.00  0.00     0.033 A 
HETATM    3  C   UNL     1     -43.422 -47.760  11.398  1.00  0.00     0.043 A 
HETATM    4  C   UNL     1     -42.642 -47.639  10.260  1.00  0.00     0.113 A 
HETATM    5  C   UNL     1     -42.968 -46.674   9.243  1.00  0.00     0.117 C 
HETATM    6  N   UNL     1     -43.275 -45.884   8.451  1.00  0.00    -0.190 NA
HETATM    7  N   UNL     1     -41.544 -48.396  10.033  1.00  0.00    -0.355 N 
ATOM      8  HN  UNL     1     -40.987 -48.291   9.185  1.00  0.00     0.166 HD
HETATM    9  C   UNL     1     -41.220 -49.305  10.993  1.00  0.00     0.118 A 
ENDROOT
BRANCH   1  10
HETATM   10  N   UNL     1     -41.568 -50.419  13.177  1.00  0.00    -0.382 N 
HETATM   11  H   UNL     1     -41.738 -50.042  14.104  1.00  0.00     0.160 HD
BRANCH  10  12
HETATM   12  C   UNL     1     -41.865 -51.860  13.062  1.00  0.00     0.110 C 
HETATM   13  C   UNL     1     -43.391 -52.175  13.185  1.00  0.00     0.143 C 
HETATM   14  C   UNL     1     -43.580 -53.673  12.878  1.00  0.00     0.034 C 
HETATM   15  C   UNL     1     -42.797 -54.540  13.871  1.00  0.00     0.003 C 
HETATM   16  C   UNL     1     -41.317 -54.161  13.929  1.00  0.00     0.002 C 
HETATM   17  C   UNL     1     -41.094 -52.659  14.119  1.00  0.00     0.028 C 
BRANCH  13  18
HETATM   18  O   UNL     1     -43.959 -52.007  14.494  1.00  0.00    -0.389 OA
HETATM   19  C   UNL     1     -45.038 -51.102  14.610  1.00  0.00     0.202 C 
ENDBRANCH  13  18
ENDBRANCH  10  12
ENDBRANCH   1  10
TORSDOF 3
ENDMDL
MODEL 6
REMARK VINA RESULT:      -5.1      5.488      7.507
REMARK  3 active torsions:
REMARK  status: ('A' for Active; 'I' for Inactive)
REMARK    1  A    between atoms: O_2  and  C_3 
REMARK    2  A    between atoms: C_8  and  N_9 
REMARK    3  A    between atoms: N_9  and  C_10 
ROOT
HETATM    1  C   UNL     1     -41.633 -49.860  11.998  1.00  0.00     0.044 A 
HETATM    2  C   UNL     1     -42.737 -49.091  12.381  1.00  0.00     0.033 A 
HETATM    3  C   UNL     1     -43.195 -48.042  11.580  1.00  0.00     0.043 A 
HETATM    4  C   UNL     1     -42.513 -47.762  10.407  1.00  0.00     0.113 A 
HETATM    5  C   UNL     1     -42.933 -46.686   9.549  1.00  0.00     0.117 C 
HETATM    6  N   UNL     1     -43.315 -45.810   8.891  1.00  0.00    -0.190 NA
HETATM    7  N   UNL     1     -41.427 -48.460   9.999  1.00  0.00    -0.355 N 
ATOM      8  HN  UNL     1     -40.944 -48.237   9.129  1.00  0.00     0.166 HD
HETATM    9  C   UNL     1     -41.014 -49.473  10.808  1.00  0.00     0.118 A 
ENDROOT
BRANCH   1  10
HETATM   10  N   UNL     1     -41.167 -50.859  12.855  1.00  0.00    -0.382 N 
HETATM   11  H   UNL     1     -40.482 -50.509  13.518  1.00  0.00     0.160 HD
BRANCH  10  12
HETATM   12  C   UNL     1     -42.095 -51.852  13.432  1.00  0.00     0.110 C 
HETATM   13  C   UNL     1     -41.410 -52.777  14.488  1.00  0.00     0.143 C 
HETATM   14  C   UNL     1     -42.511 -53.640  15.131  1.00  0.00     0.034 C 
HETATM   15  C   UNL     1     -43.218 -54.502  14.077  1.00  0.00     0.003 C 
HETATM   16  C   UNL     1     -43.762 -53.668  12.917  1.00  0.00     0.002 C 
HETATM   17  C   UNL     1     -42.720 -52.713  12.329  1.00  0.00     0.028 C 
BRANCH  13  18
HETATM   18  O   UNL     1     -40.471 -53.731  13.966  1.00  0.00    -0.389 OA
HETATM   19  C   UNL     1     -39.112 -53.542  14.307  1.00  0.00     0.202 C 
ENDBRANCH  13  18
ENDBRANCH  10  12
ENDBRANCH   1  10
TORSDOF 3
ENDMDL
MODEL 7
REMARK VINA RESULT:      -5.1      6.963      8.991
REMARK  3 active torsions:
REMARK  status: ('A' for Active; 'I' for Inactive)
REMARK    1  A    between atoms: O_2  and  C_3 
REMARK    2  A    between atoms: C_8  and  N_9 
REMARK    3  A    between atoms: N_9  and  C_10 
ROOT
HETATM    1  C   UNL     1     -41.775 -51.993  13.351  1.00  0.00     0.044 A 
HETATM    2  C   UNL     1     -40.752 -51.520  14.180  1.00  0.00     0.033 A 
HETATM    3  C   UNL     1     -39.606 -50.927  13.644  1.00  0.00     0.043 A 
HETATM    4  C   UNL     1     -39.493 -50.840  12.266  1.00  0.00     0.113 A 
HETATM    5  C   UNL     1     -38.331 -50.250  11.658  1.00  0.00     0.117 C 
HETATM    6  N   UNL     1     -37.375 -49.761  11.217  1.00  0.00    -0.190 NA
HETATM    7  N   UNL     1     -40.442 -51.299  11.416  1.00  0.00    -0.355 N 
ATOM      8  HN  UNL     1     -40.337 -51.222  10.405  1.00  0.00     0.166 HD
HETATM    9  C   UNL     1     -41.541 -51.870  11.980  1.00  0.00     0.118 A 
ENDROOT
BRANCH   1  10
HETATM   10  N   UNL     1     -42.874 -52.635  13.922  1.00  0.00    -0.382 N 
HETATM   11  H   UNL     1     -42.606 -53.260  14.675  1.00  0.00     0.160 HD
BRANCH  10  12
HETATM   12  C   UNL     1     -44.127 -51.900  14.181  1.00  0.00     0.110 C 
HETATM   13  C   UNL     1     -44.647 -52.088  15.642  1.00  0.00     0.143 C 
HETATM   14  C   UNL     1     -45.849 -51.143  15.831  1.00  0.00     0.034 C 
HETATM   15  C   UNL     1     -46.971 -51.479  14.841  1.00  0.00     0.003 C 
HETATM   16  C   UNL     1     -46.484 -51.486  13.392  1.00  0.00     0.002 C 
HETATM   17  C   UNL     1     -45.219 -52.326  13.193  1.00  0.00     0.028 C 
BRANCH  13  18
HETATM   18  O   UNL     1     -45.167 -53.390  15.958  1.00  0.00    -0.389 OA
HETATM   19  C   UNL     1     -44.722 -53.980  17.162  1.00  0.00     0.202 C 
ENDBRANCH  13  18
ENDBRANCH  10  12
ENDBRANCH   1  10
TORSDOF 3
ENDMDL
MODEL 8
REMARK VINA RESULT:      -5.1      4.727      7.119
REMARK  3 active torsions:
REMARK  status: ('A' for Active; 'I' for Inactive)
REMARK    1  A    between atoms: O_2  and  C_3 
REMARK    2  A    between atoms: C_8  and  N_9 
REMARK    3  A    between atoms: N_9  and  C_10 
ROOT
HETATM    1  C   UNL     1     -42.368 -49.323  11.931  1.00  0.00     0.044 A 
HETATM    2  C   UNL     1     -43.109 -48.141  12.041  1.00  0.00     0.033 A 
HETATM    3  C   UNL     1     -42.606 -46.929  11.563  1.00  0.00     0.043 A 
HETATM    4  C   UNL     1     -41.341 -46.917  10.998  1.00  0.00     0.113 A 
HETATM    5  C   UNL     1     -40.769 -45.695  10.500  1.00  0.00     0.117 C 
HETATM    6  N   UNL     1     -40.354 -44.684  10.109  1.00  0.00    -0.190 NA
HETATM    7  N   UNL     1     -40.573 -48.025  10.885  1.00  0.00    -0.355 N 
ATOM      8  HN  UNL     1     -39.645 -47.992  10.462  1.00  0.00     0.166 HD
HETATM    9  C   UNL     1     -41.100 -49.185  11.363  1.00  0.00     0.118 A 
ENDROOT
BRANCH   1  10
HETATM   10  N   UNL     1     -42.878 -50.502  12.477  1.00  0.00    -0.382 N 
HETATM   11  H   UNL     1     -42.145 -51.157  12.730  1.00  0.00     0.160 HD
BRANCH  10  12
HETATM   12  C   UNL     1     -43.998 -50.467  13.437  1.00  0.00     0.110 C 
HETATM   13  C   UNL     1     -43.544 -50.740  14.906  1.00  0.00     0.143 C 
HETATM   14  C   UNL     1     -44.762 -50.505  15.819  1.00  0.00     0.034 C 
HETATM   15  C   UNL     1     -45.911 -51.453  15.453  1.00  0.00     0.003 C 
HETATM   16  C   UNL     1     -46.290 -51.363  13.975  1.00  0.00     0.002 C 
HETATM   17  C   UNL     1     -45.081 -51.476  13.043  1.00  0.00     0.028 C 
BRANCH  13  18
HETATM   18  O   UNL     1     -43.139 -52.088  15.194  1.00  0.00    -0.389 OA
HETATM   19  C   UNL     1     -41.802 -52.278  15.609  1.00  0.00     0.202 C 
ENDBRANCH  13  18
ENDBRANCH  10  12
ENDBRANCH   1  10
TORSDOF 3
ENDMDL
MODEL 9
REMARK VINA RESULT:      -5.1      3.876      4.619
REMARK  3 active torsions:
REMARK  status: ('A' for Active; 'I' for Inactive)
REMARK    1  A    between atoms: O_2  and  C_3 
REMARK    2  A    between atoms: C_8  and  N_9 
REMARK    3  A    between atoms: N_9  and  C_10 
ROOT
HETATM    1  C   UNL     1     -41.072 -47.603  11.113  1.00  0.00     0.044 A 
HETATM    2  C   UNL     1     -41.438 -46.567  10.247  1.00  0.00     0.033 A 
HETATM    3  C   UNL     1     -42.747 -46.457   9.772  1.00  0.00     0.043 A 
HETATM    4  C   UNL     1     -43.672 -47.413  10.158  1.00  0.00     0.113 A 
HETATM    5  C   UNL     1     -45.031 -47.355   9.690  1.00  0.00     0.117 C 
HETATM    6  N   UNL     1     -46.116 -47.260   9.288  1.00  0.00    -0.190 NA
HETATM    7  N   UNL     1     -43.368 -48.447  10.976  1.00  0.00    -0.355 N 
ATOM      8  HN  UNL     1     -44.066 -49.138  11.249  1.00  0.00     0.166 HD
HETATM    9  C   UNL     1     -42.082 -48.519  11.416  1.00  0.00     0.118 A 
ENDROOT
BRANCH   1  10
HETATM   10  N   UNL     1     -39.741 -47.717  11.516  1.00  0.00    -0.382 N 
HETATM   11  H   UNL     1     -39.393 -46.864  11.941  1.00  0.00     0.160 HD
BRANCH  10  12
HETATM   12  C   UNL     1     -39.252 -48.946  12.171  1.00  0.00     0.110 C 
HETATM   13  C   UNL     1     -39.089 -48.784  13.716  1.00  0.00     0.143 C 
HETATM   14  C   UNL     1     -38.746 -50.170  14.294  1.00  0.00     0.034 C 
HETATM   15  C   UNL     1     -37.440 -50.705  13.695  1.00  0.00     0.003 C 
HETATM   16  C   UNL     1     -37.468 -50.725  12.167  1.00  0.00     0.002 C 
HETATM   17  C   UNL     1     -37.919 -49.392  11.562  1.00  0.00     0.028 C 
BRANCH  13  18
HETATM   18  O   UNL     1     -38.005 -47.943  14.144  1.00  0.00    -0.389 OA
HETATM   19  C   UNL     1     -38.307 -46.953  15.107  1.00  0.00     0.202 C 
ENDBRANCH  13  18
ENDBRANCH  10  12
ENDBRANCH   1  10
TORSDOF 3
ENDMDL
