MODEL 1
REMARK VINA RESULT:      -5.9      0.000      0.000
REMARK  6 active torsions:
REMARK  status: ('A' for Active; 'I' for Inactive)
REMARK    1  A    between atoms: N_4  and  C_9 
REMARK    2  A    between atoms: C_12  and  N_13 
REMARK       I    between atoms: N_13  and  C_14 
REMARK       I    between atoms: C_14  and  N_16 
REMARK    3  A    between atoms: N_16  and  C_17 
REMARK    4  A    between atoms: C_17  and  C_18 
REMARK    5  A    between atoms: C_18  and  C_19 
REMARK    6  A    between atoms: C_19  and  O_20 
ROOT
HETATM    1  C   UNL     1     -41.841 -51.410  12.275  1.00  0.00     0.103 A 
HETATM    2  C   UNL     1     -42.654 -50.325  12.582  1.00  0.00     0.051 A 
HETATM    3  C   UNL     1     -42.447 -49.081  11.989  1.00  0.00     0.035 A 
HETATM    4  C   UNL     1     -41.401 -48.901  11.098  1.00  0.00     0.051 A 
HETATM    5  C   UNL     1     -40.623 -50.020  10.843  1.00  0.00     0.119 A 
HETATM    6  N   UNL     1     -40.818 -51.245  11.405  1.00  0.00    -0.350 N 
ATOM      7  HN  UNL     1     -40.204 -52.025  11.174  1.00  0.00     0.166 HD
ENDROOT
BRANCH   4   8
HETATM    8  N   UNL     1     -41.132 -47.666  10.462  1.00  0.00    -0.308 N 
HETATM    9  C   UNL     1     -40.473 -46.614  11.054  1.00  0.00     0.320 C 
HETATM   10  O   UNL     1     -39.907 -46.641  12.144  1.00  0.00    -0.247 OA
HETATM   11  N   UNL     1     -40.521 -45.459  10.316  1.00  0.00    -0.343 N 
HETATM   12  H   UNL     1     -41.099 -45.411   9.490  1.00  0.00     0.164 HD
HETATM   13  H   UNL     1     -41.289 -47.609   9.467  1.00  0.00     0.170 HD
BRANCH  11  14
HETATM   14  C   UNL     1     -39.943 -44.233  10.843  1.00  0.00     0.126 C 
BRANCH  14  15
HETATM   15  C   UNL     1     -40.965 -43.124  11.106  1.00  0.00     0.046 C 
BRANCH  15  16
HETATM   16  C   UNL     1     -42.350 -43.591  11.547  1.00  0.00     0.165 C 
BRANCH  16  17
HETATM   17  O   UNL     1     -43.118 -44.045  10.443  1.00  0.00    -0.401 OA
HETATM   18  H   UNL     1     -43.524 -44.898  10.716  1.00  0.00     0.209 HD
ENDBRANCH  16  17
ENDBRANCH  15  16
ENDBRANCH  14  15
ENDBRANCH  11  14
ENDBRANCH   4   8
BRANCH   1  19
HETATM   19  N   UNL     1     -42.020 -52.631  12.881  1.00  0.00    -0.362 N 
HETATM   20  C   UNL     1     -40.865 -53.425  13.315  1.00  0.00     0.156 C 
HETATM   21  C   UNL     1     -41.191 -54.092  14.675  1.00  0.00     0.136 C 
HETATM   22  C   UNL     1     -41.149 -53.086  15.826  1.00  0.00     0.041 C 
HETATM   23  O   UNL     1     -42.445 -54.813  14.654  1.00  0.00    -0.378 OA
HETATM   24  C   UNL     1     -43.546 -54.008  14.192  1.00  0.00     0.136 C 
HETATM   25  C   UNL     1     -43.253 -53.419  12.798  1.00  0.00     0.156 C 
HETATM   26  C   UNL     1     -44.794 -54.881  14.152  1.00  0.00     0.041 C 
ENDBRANCH   1  19
TORSDOF 6
ENDMDL
MODEL 2
REMARK VINA RESULT:      -5.9      2.683      3.624
REMARK  6 active torsions:
REMARK  status: ('A' for Active; 'I' for Inactive)
REMARK    1  A    between atoms: N_4  and  C_9 
REMARK    2  A    between atoms: C_12  and  N_13 
REMARK       I    between atoms: N_13  and  C_14 
REMARK       I    between atoms: C_14  and  N_16 
REMARK    3  A    between atoms: N_16  and  C_17 
REMARK    4  A    between atoms: C_17  and  C_18 
REMARK    5  A    between atoms: C_18  and  C_19 
REMARK    6  A    between atoms: C_19  and  O_20 
ROOT
HETATM    1  C   UNL     1     -40.403 -53.165  13.833  1.00  0.00     0.103 A 
HETATM    2  C   UNL     1     -39.568 -52.056  13.896  1.00  0.00     0.051 A 
HETATM    3  C   UNL     1     -39.656 -51.035  12.953  1.00  0.00     0.035 A 
HETATM    4  C   UNL     1     -40.568 -51.125  11.914  1.00  0.00     0.051 A 
HETATM    5  C   UNL     1     -41.364 -52.260  11.903  1.00  0.00     0.119 A 
HETATM    6  N   UNL     1     -41.298 -53.262  12.823  1.00  0.00    -0.350 N 
ATOM      7  HN  UNL     1     -41.914 -54.072  12.753  1.00  0.00     0.166 HD
ENDROOT
BRANCH   4   8
HETATM    8  N   UNL     1     -40.710 -50.127  10.921  1.00  0.00    -0.308 N 
HETATM    9  C   UNL     1     -41.533 -49.031  11.031  1.00  0.00     0.320 C 
HETATM   10  O   UNL     1     -42.143 -48.688  12.042  1.00  0.00    -0.247 OA
HETATM   11  N   UNL     1     -41.659 -48.326   9.862  1.00  0.00    -0.343 N 
HETATM   12  H   UNL     1     -41.264 -48.690   9.008  1.00  0.00     0.164 HD
HETATM   13  H   UNL     1     -40.051 -50.131  10.157  1.00  0.00     0.170 HD
BRANCH  11  14
HETATM   14  C   UNL     1     -42.561 -47.187   9.791  1.00  0.00     0.126 C 
BRANCH  14  15
HETATM   15  C   UNL     1     -43.935 -47.515   9.198  1.00  0.00     0.046 C 
BRANCH  15  16
HETATM   16  C   UNL     1     -43.935 -47.967   7.740  1.00  0.00     0.165 C 
BRANCH  16  17
HETATM   17  O   UNL     1     -42.843 -47.410   7.025  1.00  0.00    -0.401 OA
HETATM   18  H   UNL     1     -42.752 -47.935   6.199  1.00  0.00     0.209 HD
ENDBRANCH  16  17
ENDBRANCH  15  16
ENDBRANCH  14  15
ENDBRANCH  11  14
ENDBRANCH   4   8
BRANCH   1  19
HETATM   19  N   UNL     1     -40.299 -54.192  14.742  1.00  0.00    -0.362 N 
HETATM   20  C   UNL     1     -39.057 -54.963  14.858  1.00  0.00     0.156 C 
HETATM   21  C   UNL     1     -38.785 -55.265  16.353  1.00  0.00     0.136 C 
HETATM   22  C   UNL     1     -38.289 -54.027  17.102  1.00  0.00     0.041 C 
HETATM   23  O   UNL     1     -39.926 -55.856  17.016  1.00  0.00    -0.378 OA
HETATM   24  C   UNL     1     -41.132 -55.086  16.851  1.00  0.00     0.136 C 
HETATM   25  C   UNL     1     -41.446 -54.865  15.359  1.00  0.00     0.156 C 
HETATM   26  C   UNL     1     -42.273 -55.831  17.533  1.00  0.00     0.041 C 
ENDBRANCH   1  19
TORSDOF 6
ENDMDL
MODEL 3
REMARK VINA RESULT:      -5.7      1.362      1.693
REMARK  6 active torsions:
REMARK  status: ('A' for Active; 'I' for Inactive)
REMARK    1  A    between atoms: N_4  and  C_9 
REMARK    2  A    between atoms: C_12  and  N_13 
REMARK       I    between atoms: N_13  and  C_14 
REMARK       I    between atoms: C_14  and  N_16 
REMARK    3  A    between atoms: N_16  and  C_17 
REMARK    4  A    between atoms: C_17  and  C_18 
REMARK    5  A    between atoms: C_18  and  C_19 
REMARK    6  A    between atoms: C_19  and  O_20 
ROOT
HETATM    1  C   UNL     1     -41.713 -52.312  12.975  1.00  0.00     0.103 A 
HETATM    2  C   UNL     1     -40.335 -52.153  12.886  1.00  0.00     0.051 A 
HETATM    3  C   UNL     1     -39.778 -51.009  12.317  1.00  0.00     0.035 A 
HETATM    4  C   UNL     1     -40.599 -50.018  11.803  1.00  0.00     0.051 A 
HETATM    5  C   UNL     1     -41.963 -50.243  11.914  1.00  0.00     0.119 A 
HETATM    6  N   UNL     1     -42.523 -51.349  12.477  1.00  0.00    -0.350 N 
ATOM      7  HN  UNL     1     -43.537 -51.451  12.523  1.00  0.00     0.166 HD
ENDROOT
BRANCH   4   8
HETATM    8  N   UNL     1     -40.102 -48.834  11.210  1.00  0.00    -0.308 N 
HETATM    9  C   UNL     1     -40.070 -47.607  11.831  1.00  0.00     0.320 C 
HETATM   10  O   UNL     1     -40.328 -47.392  13.013  1.00  0.00    -0.247 OA
HETATM   11  N   UNL     1     -39.744 -46.578  10.985  1.00  0.00    -0.343 N 
HETATM   12  H   UNL     1     -39.666 -46.746   9.993  1.00  0.00     0.164 HD
HETATM   13  H   UNL     1     -39.594 -48.923  10.342  1.00  0.00     0.170 HD
BRANCH  11  14
HETATM   14  C   UNL     1     -39.749 -45.207  11.469  1.00  0.00     0.126 C 
BRANCH  14  15
HETATM   15  C   UNL     1     -40.931 -44.372  10.966  1.00  0.00     0.046 C 
BRANCH  15  16
HETATM   16  C   UNL     1     -42.189 -45.156  10.604  1.00  0.00     0.165 C 
BRANCH  16  17
HETATM   17  O   UNL     1     -42.092 -45.721   9.305  1.00  0.00    -0.401 OA
HETATM   18  H   UNL     1     -42.413 -45.035   8.678  1.00  0.00     0.209 HD
ENDBRANCH  16  17
ENDBRANCH  15  16
ENDBRANCH  14  15
ENDBRANCH  11  14
ENDBRANCH   4   8
BRANCH   1  19
HETATM   19  N   UNL     1     -42.268 -53.452  13.505  1.00  0.00    -0.362 N 
HETATM   20  C   UNL     1     -41.444 -54.403  14.259  1.00  0.00     0.156 C 
HETATM   21  C   UNL     1     -42.258 -54.933  15.466  1.00  0.00     0.136 C 
HETATM   22  C   UNL     1     -42.373 -53.888  16.577  1.00  0.00     0.041 C 
HETATM   23  O   UNL     1     -43.558 -55.435  15.082  1.00  0.00    -0.378 OA
HETATM   24  C   UNL     1     -44.323 -54.484  14.316  1.00  0.00     0.136 C 
HETATM   25  C   UNL     1     -43.544 -54.027  13.068  1.00  0.00     0.156 C 
HETATM   26  C   UNL     1     -45.639 -55.138  13.916  1.00  0.00     0.041 C 
ENDBRANCH   1  19
TORSDOF 6
ENDMDL
MODEL 4
REMARK VINA RESULT:      -5.6      2.181      2.918
REMARK  6 active torsions:
REMARK  status: ('A' for Active; 'I' for Inactive)
REMARK    1  A    between atoms: N_4  and  C_9 
REMARK    2  A    between atoms: C_12  and  N_13 
REMARK       I    between atoms: N_13  and  C_14 
REMARK       I    between atoms: C_14  and  N_16 
REMARK    3  A    between atoms: N_16  and  C_17 
REMARK    4  A    between atoms: C_17  and  C_18 
REMARK    5  A    between atoms: C_18  and  C_19 
REMARK    6  A    between atoms: C_19  and  O_20 
ROOT
HETATM    1  C   UNL     1     -41.431 -49.489  11.790  1.00  0.00     0.103 A 
HETATM    2  C   UNL     1     -42.225 -48.809  12.707  1.00  0.00     0.051 A 
HETATM    3  C   UNL     1     -42.815 -47.590  12.381  1.00  0.00     0.035 A 
HETATM    4  C   UNL     1     -42.595 -47.020  11.137  1.00  0.00     0.051 A 
HETATM    5  C   UNL     1     -41.786 -47.744  10.274  1.00  0.00     0.119 A 
HETATM    6  N   UNL     1     -41.211 -48.942  10.572  1.00  0.00    -0.350 N 
ATOM      7  HN  UNL     1     -40.624 -49.420   9.888  1.00  0.00     0.166 HD
ENDROOT
BRANCH   4   8
HETATM    8  N   UNL     1     -43.160 -45.785  10.742  1.00  0.00    -0.308 N 
HETATM    9  C   UNL     1     -42.583 -44.557  10.971  1.00  0.00     0.320 C 
HETATM   10  O   UNL     1     -41.453 -44.364  11.413  1.00  0.00    -0.247 OA
HETATM   11  N   UNL     1     -43.415 -43.505  10.687  1.00  0.00    -0.343 N 
HETATM   12  H   UNL     1     -44.382 -43.675  10.454  1.00  0.00     0.164 HD
HETATM   13  H   UNL     1     -43.950 -45.811  10.115  1.00  0.00     0.170 HD
BRANCH  11  14
HETATM   14  C   UNL     1     -42.985 -42.142  10.955  1.00  0.00     0.126 C 
BRANCH  14  15
HETATM   15  C   UNL     1     -43.865 -41.396  11.962  1.00  0.00     0.046 C 
BRANCH  15  16
HETATM   16  C   UNL     1     -43.489 -41.575  13.430  1.00  0.00     0.165 C 
BRANCH  16  17
HETATM   17  O   UNL     1     -43.224 -42.936  13.734  1.00  0.00    -0.401 OA
HETATM   18  H   UNL     1     -43.199 -43.415  12.875  1.00  0.00     0.209 HD
ENDBRANCH  16  17
ENDBRANCH  15  16
ENDBRANCH  14  15
ENDBRANCH  11  14
ENDBRANCH   4   8
BRANCH   1  19
HETATM   19  N   UNL     1     -40.819 -50.677  12.116  1.00  0.00    -0.362 N 
HETATM   20  C   UNL     1     -39.358 -50.765  12.201  1.00  0.00     0.156 C 
HETATM   21  C   UNL     1     -38.974 -51.666  13.401  1.00  0.00     0.136 C 
HETATM   22  C   UNL     1     -39.181 -50.953  14.738  1.00  0.00     0.041 C 
HETATM   23  O   UNL     1     -39.654 -52.942  13.377  1.00  0.00    -0.378 OA
HETATM   24  C   UNL     1     -41.084 -52.813  13.260  1.00  0.00     0.136 C 
HETATM   25  C   UNL     1     -41.463 -51.989  12.014  1.00  0.00     0.156 C 
HETATM   26  C   UNL     1     -41.686 -54.210  13.182  1.00  0.00     0.041 C 
ENDBRANCH   1  19
TORSDOF 6
ENDMDL
MODEL 5
REMARK VINA RESULT:      -5.5      1.354      2.262
REMARK  6 active torsions:
REMARK  status: ('A' for Active; 'I' for Inactive)
REMARK    1  A    between atoms: N_4  and  C_9 
REMARK    2  A    between atoms: C_12  and  N_13 
REMARK       I    between atoms: N_13  and  C_14 
REMARK       I    between atoms: C_14  and  N_16 
REMARK    3  A    between atoms: N_16  and  C_17 
REMARK    4  A    between atoms: C_17  and  C_18 
REMARK    5  A    between atoms: C_18  and  C_19 
REMARK    6  A    between atoms: C_19  and  O_20 
ROOT
HETATM    1  C   UNL     1     -42.864 -51.644  13.655  1.00  0.00     0.103 A 
HETATM    2  C   UNL     1     -43.558 -50.442  13.569  1.00  0.00     0.051 A 
HETATM    3  C   UNL     1     -43.138 -49.430  12.707  1.00  0.00     0.035 A 
HETATM    4  C   UNL     1     -41.997 -49.599  11.939  1.00  0.00     0.051 A 
HETATM    5  C   UNL     1     -41.347 -50.816  12.080  1.00  0.00     0.119 A 
HETATM    6  N   UNL     1     -41.750 -51.819  12.908  1.00  0.00    -0.350 N 
ATOM      7  HN  UNL     1     -41.221 -52.690  12.964  1.00  0.00     0.166 HD
ENDROOT
BRANCH   4   8
HETATM    8  N   UNL     1     -41.514 -48.614  11.047  1.00  0.00    -0.308 N 
HETATM    9  C   UNL     1     -40.674 -47.585  11.405  1.00  0.00     0.320 C 
HETATM   10  O   UNL     1     -40.119 -47.456  12.494  1.00  0.00    -0.247 OA
HETATM   11  N   UNL     1     -40.517 -46.644  10.421  1.00  0.00    -0.343 N 
HETATM   12  H   UNL     1     -41.080 -46.689   9.585  1.00  0.00     0.164 HD
HETATM   13  H   UNL     1     -41.660 -48.764  10.060  1.00  0.00     0.170 HD
BRANCH  11  14
HETATM   14  C   UNL     1     -39.726 -45.450  10.673  1.00  0.00     0.126 C 
BRANCH  14  15
HETATM   15  C   UNL     1     -40.557 -44.173  10.828  1.00  0.00     0.046 C 
BRANCH  15  16
HETATM   16  C   UNL     1     -42.012 -44.376  11.242  1.00  0.00     0.165 C 
BRANCH  16  17
HETATM   17  O   UNL     1     -42.821 -44.730  10.131  1.00  0.00    -0.401 OA
HETATM   18  H   UNL     1     -42.210 -45.046   9.429  1.00  0.00     0.209 HD
ENDBRANCH  16  17
ENDBRANCH  15  16
ENDBRANCH  14  15
ENDBRANCH  11  14
ENDBRANCH   4   8
BRANCH   1  19
HETATM   19  N   UNL     1     -43.254 -52.633  14.527  1.00  0.00    -0.362 N 
HETATM   20  C   UNL     1     -44.647 -52.725  14.977  1.00  0.00     0.156 C 
HETATM   21  C   UNL     1     -45.061 -54.216  15.045  1.00  0.00     0.136 C 
HETATM   22  C   UNL     1     -45.291 -54.807  13.654  1.00  0.00     0.041 C 
HETATM   23  O   UNL     1     -44.127 -55.016  15.807  1.00  0.00    -0.378 OA
HETATM   24  C   UNL     1     -42.767 -54.874  15.354  1.00  0.00     0.136 C 
HETATM   25  C   UNL     1     -42.332 -53.396  15.373  1.00  0.00     0.156 C 
HETATM   26  C   UNL     1     -41.870 -55.707  16.261  1.00  0.00     0.041 C 
ENDBRANCH   1  19
TORSDOF 6
ENDMDL
MODEL 6
REMARK VINA RESULT:      -5.5      2.629      3.731
REMARK  6 active torsions:
REMARK  status: ('A' for Active; 'I' for Inactive)
REMARK    1  A    between atoms: N_4  and  C_9 
REMARK    2  A    between atoms: C_12  and  N_13 
REMARK       I    between atoms: N_13  and  C_14 
REMARK       I    between atoms: C_14  and  N_16 
REMARK    3  A    between atoms: N_16  and  C_17 
REMARK    4  A    between atoms: C_17  and  C_18 
REMARK    5  A    between atoms: C_18  and  C_19 
REMARK    6  A    between atoms: C_19  and  O_20 
ROOT
HETATM    1  C   UNL     1     -40.583 -52.439  14.179  1.00  0.00     0.103 A 
HETATM    2  C   UNL     1     -41.797 -52.373  13.506  1.00  0.00     0.051 A 
HETATM    3  C   UNL     1     -41.966 -51.527  12.411  1.00  0.00     0.035 A 
HETATM    4  C   UNL     1     -40.926 -50.714  11.992  1.00  0.00     0.051 A 
HETATM    5  C   UNL     1     -39.746 -50.821  12.712  1.00  0.00     0.119 A 
HETATM    6  N   UNL     1     -39.560 -51.651  13.777  1.00  0.00    -0.350 N 
ATOM      7  HN  UNL     1     -38.663 -51.677  14.263  1.00  0.00     0.166 HD
ENDROOT
BRANCH   4   8
HETATM    8  N   UNL     1     -41.029 -49.832  10.891  1.00  0.00    -0.308 N 
HETATM    9  C   UNL     1     -41.783 -48.681  10.885  1.00  0.00     0.320 C 
HETATM   10  O   UNL     1     -42.348 -48.186  11.858  1.00  0.00    -0.247 OA
HETATM   11  N   UNL     1     -41.893 -48.110   9.644  1.00  0.00    -0.343 N 
HETATM   12  H   UNL     1     -41.540 -48.595   8.832  1.00  0.00     0.164 HD
HETATM   13  H   UNL     1     -40.389 -49.965  10.123  1.00  0.00     0.170 HD
BRANCH  11  14
HETATM   14  C   UNL     1     -42.726 -46.934   9.453  1.00  0.00     0.126 C 
BRANCH  14  15
HETATM   15  C   UNL     1     -43.808 -47.101   8.382  1.00  0.00     0.046 C 
BRANCH  15  16
HETATM   16  C   UNL     1     -45.176 -47.551   8.887  1.00  0.00     0.165 C 
BRANCH  16  17
HETATM   17  O   UNL     1     -45.070 -48.235  10.127  1.00  0.00    -0.401 OA
HETATM   18  H   UNL     1     -44.932 -47.547  10.815  1.00  0.00     0.209 HD
ENDBRANCH  16  17
ENDBRANCH  15  16
ENDBRANCH  14  15
ENDBRANCH  11  14
ENDBRANCH   4   8
BRANCH   1  19
HETATM   19  N   UNL     1     -40.419 -53.247  15.279  1.00  0.00    -0.362 N 
HETATM   20  C   UNL     1     -41.409 -53.244  16.361  1.00  0.00     0.156 C 
HETATM   21  C   UNL     1     -41.609 -54.695  16.868  1.00  0.00     0.136 C 
HETATM   22  C   UNL     1     -42.429 -55.532  15.887  1.00  0.00     0.041 C 
HETATM   23  O   UNL     1     -40.360 -55.345  17.196  1.00  0.00    -0.378 OA
HETATM   24  C   UNL     1     -39.403 -55.297  16.120  1.00  0.00     0.136 C 
HETATM   25  C   UNL     1     -39.141 -53.845  15.679  1.00  0.00     0.156 C 
HETATM   26  C   UNL     1     -38.113 -55.953  16.596  1.00  0.00     0.041 C 
ENDBRANCH   1  19
TORSDOF 6
ENDMDL
MODEL 7
REMARK VINA RESULT:      -5.5      4.002      5.146
REMARK  6 active torsions:
REMARK  status: ('A' for Active; 'I' for Inactive)
REMARK    1  A    between atoms: N_4  and  C_9 
REMARK    2  A    between atoms: C_12  and  N_13 
REMARK       I    between atoms: N_13  and  C_14 
REMARK       I    between atoms: C_14  and  N_16 
REMARK    3  A    between atoms: N_16  and  C_17 
REMARK    4  A    between atoms: C_17  and  C_18 
REMARK    5  A    between atoms: C_18  and  C_19 
REMARK    6  A    between atoms: C_19  and  O_20 
ROOT
HETATM    1  C   UNL     1     -39.952 -49.544  14.000  1.00  0.00     0.103 A 
HETATM    2  C   UNL     1     -41.257 -50.012  13.900  1.00  0.00     0.051 A 
HETATM    3  C   UNL     1     -42.023 -49.767  12.762  1.00  0.00     0.035 A 
HETATM    4  C   UNL     1     -41.499 -49.024  11.717  1.00  0.00     0.051 A 
HETATM    5  C   UNL     1     -40.196 -48.578  11.884  1.00  0.00     0.119 A 
HETATM    6  N   UNL     1     -39.430 -48.819  12.984  1.00  0.00    -0.350 N 
ATOM      7  HN  UNL     1     -38.477 -48.458  13.042  1.00  0.00     0.166 HD
ENDROOT
BRANCH   4   8
HETATM    8  N   UNL     1     -42.221 -48.735  10.535  1.00  0.00    -0.308 N 
HETATM    9  C   UNL     1     -43.040 -47.642  10.371  1.00  0.00     0.320 C 
HETATM   10  O   UNL     1     -43.150 -46.702  11.154  1.00  0.00    -0.247 OA
HETATM   11  N   UNL     1     -43.790 -47.693   9.225  1.00  0.00    -0.343 N 
HETATM   12  H   UNL     1     -43.792 -48.529   8.659  1.00  0.00     0.164 HD
HETATM   13  H   UNL     1     -42.000 -49.271   9.709  1.00  0.00     0.170 HD
BRANCH  11  14
HETATM   14  C   UNL     1     -44.768 -46.653   8.948  1.00  0.00     0.126 C 
BRANCH  14  15
HETATM   15  C   UNL     1     -46.223 -47.105   9.108  1.00  0.00     0.046 C 
BRANCH  15  16
HETATM   16  C   UNL     1     -46.534 -48.518   8.623  1.00  0.00     0.165 C 
BRANCH  16  17
HETATM   17  O   UNL     1     -46.149 -48.697   7.268  1.00  0.00    -0.401 OA
HETATM   18  H   UNL     1     -46.579 -49.526   6.962  1.00  0.00     0.209 HD
ENDBRANCH  16  17
ENDBRANCH  15  16
ENDBRANCH  14  15
ENDBRANCH  11  14
ENDBRANCH   4   8
BRANCH   1  19
HETATM   19  N   UNL     1     -39.202 -49.755  15.133  1.00  0.00    -0.362 N 
HETATM   20  C   UNL     1     -39.834 -50.225  16.370  1.00  0.00     0.156 C 
HETATM   21  C   UNL     1     -38.899 -51.251  17.058  1.00  0.00     0.136 C 
HETATM   22  C   UNL     1     -38.907 -52.600  16.338  1.00  0.00     0.041 C 
HETATM   23  O   UNL     1     -37.552 -50.752  17.221  1.00  0.00    -0.378 OA
HETATM   24  C   UNL     1     -36.979 -50.271  15.991  1.00  0.00     0.136 C 
HETATM   25  C   UNL     1     -37.869 -49.186  15.355  1.00  0.00     0.156 C 
HETATM   26  C   UNL     1     -35.592 -49.716  16.292  1.00  0.00     0.041 C 
ENDBRANCH   1  19
TORSDOF 6
ENDMDL
MODEL 8
REMARK VINA RESULT:      -5.4      2.338      8.546
REMARK  6 active torsions:
REMARK  status: ('A' for Active; 'I' for Inactive)
REMARK    1  A    between atoms: N_4  and  C_9 
REMARK    2  A    between atoms: C_12  and  N_13 
REMARK       I    between atoms: N_13  and  C_14 
REMARK       I    between atoms: C_14  and  N_16 
REMARK    3  A    between atoms: N_16  and  C_17 
REMARK    4  A    between atoms: C_17  and  C_18 
REMARK    5  A    between atoms: C_18  and  C_19 
REMARK    6  A    between atoms: C_19  and  O_20 
ROOT
HETATM    1  C   UNL     1     -41.474 -48.605  12.073  1.00  0.00     0.103 A 
HETATM    2  C   UNL     1     -40.509 -48.708  13.069  1.00  0.00     0.051 A 
HETATM    3  C   UNL     1     -40.098 -49.951  13.546  1.00  0.00     0.035 A 
HETATM    4  C   UNL     1     -40.670 -51.111  13.049  1.00  0.00     0.051 A 
HETATM    5  C   UNL     1     -41.633 -50.938  12.065  1.00  0.00     0.119 A 
HETATM    6  N   UNL     1     -42.038 -49.732  11.580  1.00  0.00    -0.350 N 
ATOM      7  HN  UNL     1     -42.755 -49.678  10.856  1.00  0.00     0.166 HD
ENDROOT
BRANCH   4   8
HETATM    8  N   UNL     1     -40.303 -52.404  13.489  1.00  0.00    -0.308 N 
HETATM    9  C   UNL     1     -40.982 -53.123  14.445  1.00  0.00     0.320 C 
HETATM   10  O   UNL     1     -42.063 -52.817  14.942  1.00  0.00    -0.247 OA
HETATM   11  N   UNL     1     -40.316 -54.250  14.851  1.00  0.00    -0.343 N 
HETATM   12  H   UNL     1     -39.373 -54.421  14.537  1.00  0.00     0.164 HD
HETATM   13  H   UNL     1     -39.598 -52.896  12.959  1.00  0.00     0.170 HD
BRANCH  11  14
HETATM   14  C   UNL     1     -40.862 -55.074  15.918  1.00  0.00     0.126 C 
BRANCH  14  15
HETATM   15  C   UNL     1     -39.811 -55.887  16.679  1.00  0.00     0.046 C 
BRANCH  15  16
HETATM   16  C   UNL     1     -38.357 -55.566  16.346  1.00  0.00     0.165 C 
BRANCH  16  17
HETATM   17  O   UNL     1     -38.033 -55.951  15.019  1.00  0.00    -0.401 OA
HETATM   18  H   UNL     1     -38.260 -55.187  14.443  1.00  0.00     0.209 HD
ENDBRANCH  16  17
ENDBRANCH  15  16
ENDBRANCH  14  15
ENDBRANCH  11  14
ENDBRANCH   4   8
BRANCH   1  19
HETATM   19  N   UNL     1     -41.908 -47.381  11.622  1.00  0.00    -0.362 N 
HETATM   20  C   UNL     1     -41.442 -46.144  12.256  1.00  0.00     0.156 C 
HETATM   21  C   UNL     1     -41.197 -45.075  11.162  1.00  0.00     0.136 C 
HETATM   22  C   UNL     1     -39.919 -45.353  10.370  1.00  0.00     0.041 C 
HETATM   23  O   UNL     1     -42.333 -44.911  10.282  1.00  0.00    -0.378 OA
HETATM   24  C   UNL     1     -42.779 -46.153   9.705  1.00  0.00     0.136 C 
HETATM   25  C   UNL     1     -43.107 -47.184  10.802  1.00  0.00     0.156 C 
HETATM   26  C   UNL     1     -44.009 -45.870   8.852  1.00  0.00     0.041 C 
ENDBRANCH   1  19
TORSDOF 6
ENDMDL
MODEL 9
REMARK VINA RESULT:      -5.4      1.507      1.978
REMARK  6 active torsions:
REMARK  status: ('A' for Active; 'I' for Inactive)
REMARK    1  A    between atoms: N_4  and  C_9 
REMARK    2  A    between atoms: C_12  and  N_13 
REMARK       I    between atoms: N_13  and  C_14 
REMARK       I    between atoms: C_14  and  N_16 
REMARK    3  A    between atoms: N_16  and  C_17 
REMARK    4  A    between atoms: C_17  and  C_18 
REMARK    5  A    between atoms: C_18  and  C_19 
REMARK    6  A    between atoms: C_19  and  O_20 
ROOT
HETATM    1  C   UNL     1     -42.279 -50.883  12.610  1.00  0.00     0.103 A 
HETATM    2  C   UNL     1     -41.040 -50.895  11.980  1.00  0.00     0.051 A 
HETATM    3  C   UNL     1     -40.594 -49.794  11.250  1.00  0.00     0.035 A 
HETATM    4  C   UNL     1     -41.399 -48.675  11.118  1.00  0.00     0.051 A 
HETATM    5  C   UNL     1     -42.626 -48.731  11.762  1.00  0.00     0.119 A 
HETATM    6  N   UNL     1     -43.072 -49.793  12.488  1.00  0.00    -0.350 N 
ATOM      7  HN  UNL     1     -43.989 -49.768  12.934  1.00  0.00     0.166 HD
ENDROOT
BRANCH   4   8
HETATM    8  N   UNL     1     -41.011 -47.525  10.391  1.00  0.00    -0.308 N 
HETATM    9  C   UNL     1     -40.302 -46.472  10.920  1.00  0.00     0.320 C 
HETATM   10  O   UNL     1     -39.789 -46.439  12.036  1.00  0.00    -0.247 OA
HETATM   11  N   UNL     1     -40.231 -45.390  10.081  1.00  0.00    -0.343 N 
HETATM   12  H   UNL     1     -40.766 -45.377   9.226  1.00  0.00     0.164 HD
HETATM   13  H   UNL     1     -41.117 -47.549   9.387  1.00  0.00     0.170 HD
BRANCH  11  14
HETATM   14  C   UNL     1     -39.587 -44.164  10.527  1.00  0.00     0.126 C 
BRANCH  14  15
HETATM   15  C   UNL     1     -40.480 -43.268  11.390  1.00  0.00     0.046 C 
BRANCH  15  16
HETATM   16  C   UNL     1     -39.885 -42.828  12.725  1.00  0.00     0.165 C 
BRANCH  16  17
HETATM   17  O   UNL     1     -39.026 -43.823  13.260  1.00  0.00    -0.401 OA
HETATM   18  H   UNL     1     -38.155 -43.709  12.818  1.00  0.00     0.209 HD
ENDBRANCH  16  17
ENDBRANCH  15  16
ENDBRANCH  14  15
ENDBRANCH  11  14
ENDBRANCH   4   8
BRANCH   1  19
HETATM   19  N   UNL     1     -42.739 -51.977  13.304  1.00  0.00    -0.362 N 
HETATM   20  C   UNL     1     -42.586 -53.328  12.755  1.00  0.00     0.156 C 
HETATM   21  C   UNL     1     -42.222 -54.304  13.902  1.00  0.00     0.136 C 
HETATM   22  C   UNL     1     -40.770 -54.136  14.352  1.00  0.00     0.041 C 
HETATM   23  O   UNL     1     -43.132 -54.207  15.022  1.00  0.00    -0.378 OA
HETATM   24  C   UNL     1     -43.279 -52.861  15.511  1.00  0.00     0.136 C 
HETATM   25  C   UNL     1     -43.727 -51.910  14.384  1.00  0.00     0.156 C 
HETATM   26  C   UNL     1     -44.300 -52.871  16.641  1.00  0.00     0.041 C 
ENDBRANCH   1  19
TORSDOF 6
ENDMDL
