MODEL 1
REMARK VINA RESULT:      -5.8      0.000      0.000
REMARK  7 active torsions:
REMARK  status: ('A' for Active; 'I' for Inactive)
REMARK    1  A    between atoms: O_2  and  C_3 
REMARK    2  A    between atoms: C_3  and  C_4 
REMARK    3  A    between atoms: C_4  and  N_5 
REMARK    4  A    between atoms: C_8  and  C_9 
REMARK    5  A    between atoms: C_9  and  N_10 
REMARK       I    between atoms: N_10  and  C_11 
REMARK    6  A    between atoms: C_11  and  C_13 
REMARK    7  A    between atoms: C_13  and  N_14 
ROOT
HETATM    1  N   UNL     1     -41.562 -48.310  10.158  1.00  0.00    -0.359 N 
HETATM    2  C   UNL     1     -42.642 -47.572  10.588  1.00  0.00     0.235 C 
HETATM    3  O   UNL     1     -43.027 -47.543  11.755  1.00  0.00    -0.272 OA
HETATM    4  H   UNL     1     -41.159 -48.075   9.252  1.00  0.00     0.162 HD
ENDROOT
BRANCH   1   5
HETATM    5  C   UNL     1     -40.822 -49.187  11.040  1.00  0.00     0.127 C 
BRANCH   5   6
HETATM    6  C   UNL     1     -39.463 -48.611  11.481  1.00  0.00     0.007 C 
HETATM    7  C   UNL     1     -38.449 -49.701  11.871  1.00  0.00     0.036 C 
HETATM    8  C   UNL     1     -38.785 -50.368  13.212  1.00  0.00     0.273 C 
HETATM    9  N   UNL     1     -38.989 -49.421  14.323  1.00  0.00     0.090 N 
HETATM   10  C   UNL     1     -39.985 -48.406  13.960  1.00  0.00     0.273 C 
HETATM   11  C   UNL     1     -39.651 -47.653  12.669  1.00  0.00     0.036 C 
BRANCH   9  12
HETATM   12  C   UNL     1     -37.708 -48.865  14.807  1.00  0.00     0.298 C 
BRANCH  12  13
HETATM   13  C   UNL     1     -36.732 -49.921  15.357  1.00  0.00     0.197 C 
BRANCH  13  14
HETATM   14  O   UNL     1     -35.611 -49.279  15.972  1.00  0.00    -0.394 OA
HETATM   15  C   UNL     1     -35.947 -47.955  16.373  1.00  0.00     0.201 C 
ENDBRANCH  13  14
ENDBRANCH  12  13
ENDBRANCH   9  12
ENDBRANCH   5   6
ENDBRANCH   1   5
BRANCH   2  16
HETATM   16  C   UNL     1     -43.300 -46.730   9.498  1.00  0.00     0.235 C 
BRANCH  16  17
HETATM   17  N   UNL     1     -44.425 -47.454   8.920  1.00  0.00    -0.301 N 
HETATM   18  C   UNL     1     -45.664 -47.379   9.513  1.00  0.00     0.097 A 
HETATM   19  C   UNL     1     -46.713 -48.011   8.989  1.00  0.00     0.034 A 
HETATM   20  C   UNL     1     -46.416 -48.763   7.765  1.00  0.00     0.094 A 
HETATM   21  N   UNL     1     -45.271 -48.833   7.179  1.00  0.00    -0.319 N 
HETATM   22  C   UNL     1     -44.213 -48.143   7.721  1.00  0.00     0.326 A 
ATOM     23  HN  UNL     1     -45.151 -49.387   6.331  1.00  0.00     0.170 HD
HETATM   24  O   UNL     1     -43.114 -48.118   7.169  1.00  0.00    -0.246 OA
ENDBRANCH  16  17
ENDBRANCH   2  16
TORSDOF 7
ENDMDL
MODEL 2
REMARK VINA RESULT:      -5.6      5.035      6.488
REMARK  7 active torsions:
REMARK  status: ('A' for Active; 'I' for Inactive)
REMARK    1  A    between atoms: O_2  and  C_3 
REMARK    2  A    between atoms: C_3  and  C_4 
REMARK    3  A    between atoms: C_4  and  N_5 
REMARK    4  A    between atoms: C_8  and  C_9 
REMARK    5  A    between atoms: C_9  and  N_10 
REMARK       I    between atoms: N_10  and  C_11 
REMARK    6  A    between atoms: C_11  and  C_13 
REMARK    7  A    between atoms: C_13  and  N_14 
ROOT
HETATM    1  N   UNL     1     -42.297 -52.085  11.875  1.00  0.00    -0.359 N 
HETATM    2  C   UNL     1     -42.715 -52.975  12.839  1.00  0.00     0.235 C 
HETATM    3  O   UNL     1     -42.183 -53.087  13.941  1.00  0.00    -0.272 OA
HETATM    4  H   UNL     1     -42.941 -51.876  11.113  1.00  0.00     0.162 HD
ENDROOT
BRANCH   1   5
HETATM    5  C   UNL     1     -41.133 -51.242  12.051  1.00  0.00     0.127 C 
BRANCH   5   6
HETATM    6  C   UNL     1     -41.443 -49.904  12.749  1.00  0.00     0.007 C 
HETATM    7  C   UNL     1     -42.309 -48.968  11.890  1.00  0.00     0.036 C 
HETATM    8  C   UNL     1     -41.534 -48.361  10.712  1.00  0.00     0.273 C 
HETATM    9  N   UNL     1     -40.273 -47.702  11.095  1.00  0.00     0.090 N 
HETATM   10  C   UNL     1     -39.433 -48.613  11.883  1.00  0.00     0.273 C 
HETATM   11  C   UNL     1     -40.137 -49.181  13.118  1.00  0.00     0.036 C 
BRANCH   9  12
HETATM   12  C   UNL     1     -40.515 -46.394  11.739  1.00  0.00     0.298 C 
BRANCH  12  13
HETATM   13  C   UNL     1     -40.041 -45.187  10.910  1.00  0.00     0.197 C 
BRANCH  13  14
HETATM   14  O   UNL     1     -41.163 -44.532  10.310  1.00  0.00    -0.394 OA
HETATM   15  C   UNL     1     -42.291 -44.571  11.178  1.00  0.00     0.201 C 
ENDBRANCH  13  14
ENDBRANCH  12  13
ENDBRANCH   9  12
ENDBRANCH   5   6
ENDBRANCH   1   5
BRANCH   2  16
HETATM   16  C   UNL     1     -43.947 -53.788  12.450  1.00  0.00     0.235 C 
BRANCH  16  17
HETATM   17  N   UNL     1     -45.082 -53.401  13.278  1.00  0.00    -0.301 N 
HETATM   18  C   UNL     1     -45.493 -52.088  13.303  1.00  0.00     0.097 A 
HETATM   19  C   UNL     1     -46.543 -51.715  14.032  1.00  0.00     0.034 A 
HETATM   20  C   UNL     1     -47.185 -52.807  14.772  1.00  0.00     0.094 A 
HETATM   21  N   UNL     1     -46.833 -54.046  14.748  1.00  0.00    -0.319 N 
HETATM   22  C   UNL     1     -45.768 -54.410  13.961  1.00  0.00     0.326 A 
ATOM     23  HN  UNL     1     -47.334 -54.742  15.302  1.00  0.00     0.170 HD
HETATM   24  O   UNL     1     -45.428 -55.588  13.846  1.00  0.00    -0.246 OA
ENDBRANCH  16  17
ENDBRANCH   2  16
TORSDOF 7
ENDMDL
MODEL 3
REMARK VINA RESULT:      -5.6      5.567      6.461
REMARK  7 active torsions:
REMARK  status: ('A' for Active; 'I' for Inactive)
REMARK    1  A    between atoms: O_2  and  C_3 
REMARK    2  A    between atoms: C_3  and  C_4 
REMARK    3  A    between atoms: C_4  and  N_5 
REMARK    4  A    between atoms: C_8  and  C_9 
REMARK    5  A    between atoms: C_9  and  N_10 
REMARK       I    between atoms: N_10  and  C_11 
REMARK    6  A    between atoms: C_11  and  C_13 
REMARK    7  A    between atoms: C_13  and  N_14 
ROOT
HETATM    1  N   UNL     1     -42.946 -54.113  13.929  1.00  0.00    -0.359 N 
HETATM    2  C   UNL     1     -43.790 -55.049  14.484  1.00  0.00     0.235 C 
HETATM    3  O   UNL     1     -43.460 -55.818  15.384  1.00  0.00    -0.272 OA
HETATM    4  H   UNL     1     -43.366 -53.358  13.389  1.00  0.00     0.162 HD
ENDROOT
BRANCH   1   5
HETATM    5  C   UNL     1     -41.555 -54.001  14.314  1.00  0.00     0.127 C 
BRANCH   5   6
HETATM    6  C   UNL     1     -40.644 -53.491  13.180  1.00  0.00     0.007 C 
HETATM    7  C   UNL     1     -39.497 -52.601  13.691  1.00  0.00     0.036 C 
HETATM    8  C   UNL     1     -39.980 -51.217  14.146  1.00  0.00     0.273 C 
HETATM    9  N   UNL     1     -40.792 -50.502  13.145  1.00  0.00     0.090 N 
HETATM   10  C   UNL     1     -41.907 -51.341  12.690  1.00  0.00     0.273 C 
HETATM   11  C   UNL     1     -41.468 -52.704  12.148  1.00  0.00     0.036 C 
BRANCH   9  12
HETATM   12  C   UNL     1     -39.957 -49.961  12.052  1.00  0.00     0.298 C 
BRANCH  12  13
HETATM   13  C   UNL     1     -39.041 -48.799  12.476  1.00  0.00     0.197 C 
BRANCH  13  14
HETATM   14  O   UNL     1     -37.672 -49.213  12.436  1.00  0.00    -0.394 OA
HETATM   15  C   UNL     1     -37.460 -50.146  11.382  1.00  0.00     0.201 C 
ENDBRANCH  13  14
ENDBRANCH  12  13
ENDBRANCH   9  12
ENDBRANCH   5   6
ENDBRANCH   1   5
BRANCH   2  16
HETATM   16  C   UNL     1     -45.211 -55.021  13.925  1.00  0.00     0.235 C 
BRANCH  16  17
HETATM   17  N   UNL     1     -45.835 -53.736  14.213  1.00  0.00    -0.301 N 
HETATM   18  C   UNL     1     -46.252 -53.450  15.492  1.00  0.00     0.097 A 
HETATM   19  C   UNL     1     -46.802 -52.272  15.785  1.00  0.00     0.034 A 
HETATM   20  C   UNL     1     -46.910 -51.355  14.644  1.00  0.00     0.094 A 
HETATM   21  N   UNL     1     -46.508 -51.591  13.443  1.00  0.00    -0.319 N 
HETATM   22  C   UNL     1     -45.913 -52.800  13.176  1.00  0.00     0.326 A 
ATOM     23  HN  UNL     1     -46.629 -50.896  12.707  1.00  0.00     0.170 HD
HETATM   24  O   UNL     1     -45.450 -53.055  12.065  1.00  0.00    -0.246 OA
ENDBRANCH  16  17
ENDBRANCH   2  16
TORSDOF 7
ENDMDL
MODEL 4
REMARK VINA RESULT:      -5.5      4.927      5.518
REMARK  7 active torsions:
REMARK  status: ('A' for Active; 'I' for Inactive)
REMARK    1  A    between atoms: O_2  and  C_3 
REMARK    2  A    between atoms: C_3  and  C_4 
REMARK    3  A    between atoms: C_4  and  N_5 
REMARK    4  A    between atoms: C_8  and  C_9 
REMARK    5  A    between atoms: C_9  and  N_10 
REMARK       I    between atoms: N_10  and  C_11 
REMARK    6  A    between atoms: C_11  and  C_13 
REMARK    7  A    between atoms: C_13  and  N_14 
ROOT
HETATM    1  N   UNL     1     -42.265 -52.439  11.764  1.00  0.00    -0.359 N 
HETATM    2  C   UNL     1     -42.862 -53.191  12.751  1.00  0.00     0.235 C 
HETATM    3  O   UNL     1     -42.356 -53.394  13.853  1.00  0.00    -0.272 OA
HETATM    4  H   UNL     1     -42.853 -52.108  11.000  1.00  0.00     0.162 HD
ENDROOT
BRANCH   1   5
HETATM    5  C   UNL     1     -40.939 -51.876  11.913  1.00  0.00     0.127 C 
BRANCH   5   6
HETATM    6  C   UNL     1     -40.937 -50.345  12.084  1.00  0.00     0.007 C 
HETATM    7  C   UNL     1     -39.736 -49.669  11.400  1.00  0.00     0.036 C 
HETATM    8  C   UNL     1     -38.416 -49.917  12.144  1.00  0.00     0.273 C 
HETATM    9  N   UNL     1     -38.458 -49.582  13.578  1.00  0.00     0.090 N 
HETATM   10  C   UNL     1     -39.583 -50.260  14.233  1.00  0.00     0.273 C 
HETATM   11  C   UNL     1     -40.937 -49.976  13.577  1.00  0.00     0.036 C 
BRANCH   9  12
HETATM   12  C   UNL     1     -38.422 -48.121  13.798  1.00  0.00     0.298 C 
BRANCH  12  13
HETATM   13  C   UNL     1     -37.804 -47.702  15.143  1.00  0.00     0.197 C 
BRANCH  13  14
HETATM   14  O   UNL     1     -36.377 -47.765  15.069  1.00  0.00    -0.394 OA
HETATM   15  C   UNL     1     -35.816 -47.976  16.361  1.00  0.00     0.201 C 
ENDBRANCH  13  14
ENDBRANCH  12  13
ENDBRANCH   9  12
ENDBRANCH   5   6
ENDBRANCH   1   5
BRANCH   2  16
HETATM   16  C   UNL     1     -44.249 -53.713  12.388  1.00  0.00     0.235 C 
BRANCH  16  17
HETATM   17  N   UNL     1     -45.229 -53.244  13.359  1.00  0.00    -0.301 N 
HETATM   18  C   UNL     1     -45.625 -51.927  13.348  1.00  0.00     0.097 A 
HETATM   19  C   UNL     1     -46.538 -51.479  14.209  1.00  0.00     0.034 A 
HETATM   20  C   UNL     1     -47.052 -52.500  15.130  1.00  0.00     0.094 A 
HETATM   21  N   UNL     1     -46.713 -53.743  15.146  1.00  0.00    -0.319 N 
HETATM   22  C   UNL     1     -45.795 -54.185  14.225  1.00  0.00     0.326 A 
ATOM     23  HN  UNL     1     -47.117 -54.385  15.828  1.00  0.00     0.170 HD
HETATM   24  O   UNL     1     -45.484 -55.373  14.150  1.00  0.00    -0.246 OA
ENDBRANCH  16  17
ENDBRANCH   2  16
TORSDOF 7
ENDMDL
MODEL 5
REMARK VINA RESULT:      -5.4      5.841      7.496
REMARK  7 active torsions:
REMARK  status: ('A' for Active; 'I' for Inactive)
REMARK    1  A    between atoms: O_2  and  C_3 
REMARK    2  A    between atoms: C_3  and  C_4 
REMARK    3  A    between atoms: C_4  and  N_5 
REMARK    4  A    between atoms: C_8  and  C_9 
REMARK    5  A    between atoms: C_9  and  N_10 
REMARK       I    between atoms: N_10  and  C_11 
REMARK    6  A    between atoms: C_11  and  C_13 
REMARK    7  A    between atoms: C_13  and  N_14 
ROOT
HETATM    1  N   UNL     1     -43.274 -54.301  14.129  1.00  0.00    -0.359 N 
HETATM    2  C   UNL     1     -44.450 -54.378  13.417  1.00  0.00     0.235 C 
HETATM    3  O   UNL     1     -44.521 -54.232  12.199  1.00  0.00    -0.272 OA
HETATM    4  H   UNL     1     -43.265 -54.688  15.072  1.00  0.00     0.162 HD
ENDROOT
BRANCH   1   5
HETATM    5  C   UNL     1     -42.011 -53.964  13.505  1.00  0.00     0.127 C 
BRANCH   5   6
HETATM    6  C   UNL     1     -41.354 -52.700  14.092  1.00  0.00     0.007 C 
HETATM    7  C   UNL     1     -42.357 -51.557  14.323  1.00  0.00     0.036 C 
HETATM    8  C   UNL     1     -42.822 -50.905  13.013  1.00  0.00     0.273 C 
HETATM    9  N   UNL     1     -41.723 -50.468  12.133  1.00  0.00     0.090 N 
HETATM   10  C   UNL     1     -40.790 -51.573  11.886  1.00  0.00     0.273 C 
HETATM   11  C   UNL     1     -40.232 -52.204  13.165  1.00  0.00     0.036 C 
BRANCH   9  12
HETATM   12  C   UNL     1     -41.081 -49.235  12.636  1.00  0.00     0.298 C 
BRANCH  12  13
HETATM   13  C   UNL     1     -41.076 -48.072  11.627  1.00  0.00     0.197 C 
BRANCH  13  14
HETATM   14  O   UNL     1     -41.542 -48.526  10.352  1.00  0.00    -0.394 OA
HETATM   15  C   UNL     1     -42.645 -47.742   9.912  1.00  0.00     0.201 C 
ENDBRANCH  13  14
ENDBRANCH  12  13
ENDBRANCH   9  12
ENDBRANCH   5   6
ENDBRANCH   1   5
BRANCH   2  16
HETATM   16  C   UNL     1     -45.673 -54.722  14.263  1.00  0.00     0.235 C 
BRANCH  16  17
HETATM   17  N   UNL     1     -46.095 -53.555  15.028  1.00  0.00    -0.301 N 
HETATM   18  C   UNL     1     -46.574 -52.445  14.372  1.00  0.00     0.097 A 
HETATM   19  C   UNL     1     -46.990 -51.376  15.050  1.00  0.00     0.034 A 
HETATM   20  C   UNL     1     -46.885 -51.507  16.508  1.00  0.00     0.094 A 
HETATM   21  N   UNL     1     -46.460 -52.542  17.146  1.00  0.00    -0.319 N 
HETATM   22  C   UNL     1     -46.070 -53.644  16.423  1.00  0.00     0.326 A 
ATOM     23  HN  UNL     1     -46.413 -52.544  18.165  1.00  0.00     0.170 HD
HETATM   24  O   UNL     1     -45.719 -54.684  16.980  1.00  0.00    -0.246 OA
ENDBRANCH  16  17
ENDBRANCH   2  16
TORSDOF 7
ENDMDL
MODEL 6
REMARK VINA RESULT:      -5.2      5.073      5.882
REMARK  7 active torsions:
REMARK  status: ('A' for Active; 'I' for Inactive)
REMARK    1  A    between atoms: O_2  and  C_3 
REMARK    2  A    between atoms: C_3  and  C_4 
REMARK    3  A    between atoms: C_4  and  N_5 
REMARK    4  A    between atoms: C_8  and  C_9 
REMARK    5  A    between atoms: C_9  and  N_10 
REMARK       I    between atoms: N_10  and  C_11 
REMARK    6  A    between atoms: C_11  and  C_13 
REMARK    7  A    between atoms: C_13  and  N_14 
ROOT
HETATM    1  N   UNL     1     -42.240 -52.299  11.778  1.00  0.00    -0.359 N 
HETATM    2  C   UNL     1     -42.731 -53.067  12.810  1.00  0.00     0.235 C 
HETATM    3  O   UNL     1     -42.247 -53.082  13.939  1.00  0.00    -0.272 OA
HETATM    4  H   UNL     1     -42.844 -52.147  10.971  1.00  0.00     0.162 HD
ENDROOT
BRANCH   1   5
HETATM    5  C   UNL     1     -41.048 -51.487  11.916  1.00  0.00     0.127 C 
BRANCH   5   6
HETATM    6  C   UNL     1     -41.314 -49.976  11.774  1.00  0.00     0.007 C 
HETATM    7  C   UNL     1     -40.021 -49.146  11.705  1.00  0.00     0.036 C 
HETATM    8  C   UNL     1     -39.302 -49.057  13.058  1.00  0.00     0.273 C 
HETATM    9  N   UNL     1     -40.158 -48.602  14.168  1.00  0.00     0.090 N 
HETATM   10  C   UNL     1     -41.373 -49.422  14.253  1.00  0.00     0.273 C 
HETATM   11  C   UNL     1     -42.171 -49.473  12.947  1.00  0.00     0.036 C 
BRANCH   9  12
HETATM   12  C   UNL     1     -40.415 -47.148  14.096  1.00  0.00     0.298 C 
BRANCH  12  13
HETATM   13  C   UNL     1     -39.150 -46.296  13.885  1.00  0.00     0.197 C 
BRANCH  13  14
HETATM   14  O   UNL     1     -39.296 -45.483  12.716  1.00  0.00    -0.394 OA
HETATM   15  C   UNL     1     -39.311 -44.102  13.063  1.00  0.00     0.201 C 
ENDBRANCH  13  14
ENDBRANCH  12  13
ENDBRANCH   9  12
ENDBRANCH   5   6
ENDBRANCH   1   5
BRANCH   2  16
HETATM   16  C   UNL     1     -43.981 -53.868  12.454  1.00  0.00     0.235 C 
BRANCH  16  17
HETATM   17  N   UNL     1     -45.101 -53.440  13.281  1.00  0.00    -0.301 N 
HETATM   18  C   UNL     1     -45.483 -52.118  13.282  1.00  0.00     0.097 A 
HETATM   19  C   UNL     1     -46.520 -51.706  14.010  1.00  0.00     0.034 A 
HETATM   20  C   UNL     1     -47.180 -52.769  14.777  1.00  0.00     0.094 A 
HETATM   21  N   UNL     1     -46.856 -54.015  14.776  1.00  0.00    -0.319 N 
HETATM   22  C   UNL     1     -45.804 -54.419  13.989  1.00  0.00     0.326 A 
ATOM     23  HN  UNL     1     -47.368 -54.688  15.346  1.00  0.00     0.170 HD
HETATM   24  O   UNL     1     -45.491 -55.606  13.896  1.00  0.00    -0.246 OA
ENDBRANCH  16  17
ENDBRANCH   2  16
TORSDOF 7
ENDMDL
MODEL 7
REMARK VINA RESULT:      -5.1      2.705      4.077
REMARK  7 active torsions:
REMARK  status: ('A' for Active; 'I' for Inactive)
REMARK    1  A    between atoms: O_2  and  C_3 
REMARK    2  A    between atoms: C_3  and  C_4 
REMARK    3  A    between atoms: C_4  and  N_5 
REMARK    4  A    between atoms: C_8  and  C_9 
REMARK    5  A    between atoms: C_9  and  N_10 
REMARK       I    between atoms: N_10  and  C_11 
REMARK    6  A    between atoms: C_11  and  C_13 
REMARK    7  A    between atoms: C_13  and  N_14 
ROOT
HETATM    1  N   UNL     1     -40.209 -47.682  12.468  1.00  0.00    -0.359 N 
HETATM    2  C   UNL     1     -40.545 -46.627  11.649  1.00  0.00     0.235 C 
HETATM    3  O   UNL     1     -39.835 -46.222  10.731  1.00  0.00    -0.272 OA
HETATM    4  H   UNL     1     -40.952 -48.111  13.017  1.00  0.00     0.162 HD
ENDROOT
BRANCH   1   5
HETATM    5  C   UNL     1     -38.937 -48.367  12.366  1.00  0.00     0.127 C 
BRANCH   5   6
HETATM    6  C   UNL     1     -39.060 -49.818  11.862  1.00  0.00     0.007 C 
HETATM    7  C   UNL     1     -40.365 -50.498  12.310  1.00  0.00     0.036 C 
HETATM    8  C   UNL     1     -40.367 -50.845  13.806  1.00  0.00     0.273 C 
HETATM    9  N   UNL     1     -39.194 -51.621  14.247  1.00  0.00     0.090 N 
HETATM   10  C   UNL     1     -37.951 -50.947  13.850  1.00  0.00     0.273 C 
HETATM   11  C   UNL     1     -37.865 -50.654  12.349  1.00  0.00     0.036 C 
BRANCH   9  12
HETATM   12  C   UNL     1     -39.281 -53.032  13.818  1.00  0.00     0.298 C 
BRANCH  12  13
HETATM   13  C   UNL     1     -40.526 -53.773  14.338  1.00  0.00     0.197 C 
BRANCH  13  14
HETATM   14  O   UNL     1     -41.294 -54.275  13.240  1.00  0.00    -0.394 OA
HETATM   15  C   UNL     1     -42.655 -53.873  13.353  1.00  0.00     0.201 C 
ENDBRANCH  13  14
ENDBRANCH  12  13
ENDBRANCH   9  12
ENDBRANCH   5   6
ENDBRANCH   1   5
BRANCH   2  16
HETATM   16  C   UNL     1     -41.919 -46.026  11.934  1.00  0.00     0.235 C 
BRANCH  16  17
HETATM   17  N   UNL     1     -42.866 -46.431  10.903  1.00  0.00    -0.301 N 
HETATM   18  C   UNL     1     -43.030 -45.651   9.783  1.00  0.00     0.097 A 
HETATM   19  C   UNL     1     -43.871 -46.013   8.814  1.00  0.00     0.034 A 
HETATM   20  C   UNL     1     -44.571 -47.278   9.064  1.00  0.00     0.094 A 
HETATM   21  N   UNL     1     -44.419 -48.036  10.094  1.00  0.00    -0.319 N 
HETATM   22  C   UNL     1     -43.520 -47.657  11.061  1.00  0.00     0.326 A 
ATOM     23  HN  UNL     1     -44.954 -48.900  10.190  1.00  0.00     0.170 HD
HETATM   24  O   UNL     1     -43.284 -48.374  12.033  1.00  0.00    -0.246 OA
ENDBRANCH  16  17
ENDBRANCH   2  16
TORSDOF 7
ENDMDL
MODEL 8
REMARK VINA RESULT:      -5.1      5.898      8.620
REMARK  7 active torsions:
REMARK  status: ('A' for Active; 'I' for Inactive)
REMARK    1  A    between atoms: O_2  and  C_3 
REMARK    2  A    between atoms: C_3  and  C_4 
REMARK    3  A    between atoms: C_4  and  N_5 
REMARK    4  A    between atoms: C_8  and  C_9 
REMARK    5  A    between atoms: C_9  and  N_10 
REMARK       I    between atoms: N_10  and  C_11 
REMARK    6  A    between atoms: C_11  and  C_13 
REMARK    7  A    between atoms: C_13  and  N_14 
ROOT
HETATM    1  N   UNL     1     -43.338 -52.687  12.177  1.00  0.00    -0.359 N 
HETATM    2  C   UNL     1     -42.280 -53.266  12.841  1.00  0.00     0.235 C 
HETATM    3  O   UNL     1     -42.405 -53.981  13.833  1.00  0.00    -0.272 OA
HETATM    4  H   UNL     1     -43.172 -52.338  11.235  1.00  0.00     0.162 HD
ENDROOT
BRANCH   1   5
HETATM    5  C   UNL     1     -44.704 -52.811  12.642  1.00  0.00     0.127 C 
BRANCH   5   6
HETATM    6  C   UNL     1     -45.254 -51.523  13.285  1.00  0.00     0.007 C 
HETATM    7  C   UNL     1     -44.439 -51.072  14.510  1.00  0.00     0.036 C 
HETATM    8  C   UNL     1     -44.663 -51.972  15.733  1.00  0.00     0.273 C 
HETATM    9  N   UNL     1     -46.079 -52.165  16.089  1.00  0.00     0.090 N 
HETATM   10  C   UNL     1     -46.845 -52.633  14.926  1.00  0.00     0.273 C 
HETATM   11  C   UNL     1     -46.720 -51.720  13.703  1.00  0.00     0.036 C 
BRANCH   9  12
HETATM   12  C   UNL     1     -46.645 -50.967  16.743  1.00  0.00     0.298 C 
BRANCH  12  13
HETATM   13  C   UNL     1     -48.148 -51.072  17.058  1.00  0.00     0.197 C 
BRANCH  13  14
HETATM   14  O   UNL     1     -48.347 -51.834  18.253  1.00  0.00    -0.394 OA
HETATM   15  C   UNL     1     -47.680 -51.225  19.354  1.00  0.00     0.201 C 
ENDBRANCH  13  14
ENDBRANCH  12  13
ENDBRANCH   9  12
ENDBRANCH   5   6
ENDBRANCH   1   5
BRANCH   2  16
HETATM   16  C   UNL     1     -40.919 -52.997  12.205  1.00  0.00     0.235 C 
BRANCH  16  17
HETATM   17  N   UNL     1     -40.192 -52.001  12.982  1.00  0.00    -0.301 N 
HETATM   18  C   UNL     1     -40.628 -50.696  12.998  1.00  0.00     0.097 A 
HETATM   19  C   UNL     1     -39.996 -49.773  13.721  1.00  0.00     0.034 A 
HETATM   20  C   UNL     1     -38.836 -50.277  14.465  1.00  0.00     0.094 A 
HETATM   21  N   UNL     1     -38.421 -51.496  14.482  1.00  0.00    -0.319 N 
HETATM   22  C   UNL     1     -39.112 -52.436  13.756  1.00  0.00     0.326 A 
ATOM     23  HN  UNL     1     -37.597 -51.760  15.024  1.00  0.00     0.170 HD
HETATM   24  O   UNL     1     -38.802 -53.626  13.788  1.00  0.00    -0.246 OA
ENDBRANCH  16  17
ENDBRANCH   2  16
TORSDOF 7
ENDMDL
MODEL 9
REMARK VINA RESULT:      -4.9      4.338      7.370
REMARK  7 active torsions:
REMARK  status: ('A' for Active; 'I' for Inactive)
REMARK    1  A    between atoms: O_2  and  C_3 
REMARK    2  A    between atoms: C_3  and  C_4 
REMARK    3  A    between atoms: C_4  and  N_5 
REMARK    4  A    between atoms: C_8  and  C_9 
REMARK    5  A    between atoms: C_9  and  N_10 
REMARK       I    between atoms: N_10  and  C_11 
REMARK    6  A    between atoms: C_11  and  C_13 
REMARK    7  A    between atoms: C_13  and  N_14 
ROOT
HETATM    1  N   UNL     1     -40.479 -51.650  12.004  1.00  0.00    -0.359 N 
HETATM    2  C   UNL     1     -40.386 -50.312  11.693  1.00  0.00     0.235 C 
HETATM    3  O   UNL     1     -41.355 -49.558  11.628  1.00  0.00    -0.272 OA
HETATM    4  H   UNL     1     -39.627 -52.130  12.291  1.00  0.00     0.162 HD
ENDROOT
BRANCH   1   5
HETATM    5  C   UNL     1     -41.751 -52.311  12.211  1.00  0.00     0.127 C 
BRANCH   5   6
HETATM    6  C   UNL     1     -41.616 -53.766  12.699  1.00  0.00     0.007 C 
HETATM    7  C   UNL     1     -42.785 -54.206  13.598  1.00  0.00     0.036 C 
HETATM    8  C   UNL     1     -42.735 -53.562  14.991  1.00  0.00     0.273 C 
HETATM    9  N   UNL     1     -41.447 -53.729  15.687  1.00  0.00     0.090 N 
HETATM   10  C   UNL     1     -40.339 -53.272  14.840  1.00  0.00     0.273 C 
HETATM   11  C   UNL     1     -40.296 -53.950  13.467  1.00  0.00     0.036 C 
BRANCH   9  12
HETATM   12  C   UNL     1     -41.284 -55.103  16.208  1.00  0.00     0.298 C 
BRANCH  12  13
HETATM   13  C   UNL     1     -39.907 -55.377  16.838  1.00  0.00     0.197 C 
BRANCH  13  14
HETATM   14  O   UNL     1     -39.451 -56.683  16.472  1.00  0.00    -0.394 OA
HETATM   15  C   UNL     1     -39.105 -57.438  17.629  1.00  0.00     0.201 C 
ENDBRANCH  13  14
ENDBRANCH  12  13
ENDBRANCH   9  12
ENDBRANCH   5   6
ENDBRANCH   1   5
BRANCH   2  16
HETATM   16  C   UNL     1     -38.958 -49.814  11.491  1.00  0.00     0.235 C 
BRANCH  16  17
HETATM   17  N   UNL     1     -38.340 -49.528  12.779  1.00  0.00    -0.301 N 
HETATM   18  C   UNL     1     -38.557 -48.313  13.386  1.00  0.00     0.097 A 
HETATM   19  C   UNL     1     -38.025 -48.038  14.576  1.00  0.00     0.034 A 
HETATM   20  C   UNL     1     -37.217 -49.124  15.143  1.00  0.00     0.094 A 
HETATM   21  N   UNL     1     -37.017 -50.277  14.605  1.00  0.00    -0.319 N 
HETATM   22  C   UNL     1     -37.606 -50.548  13.393  1.00  0.00     0.326 A 
ATOM     23  HN  UNL     1     -36.433 -50.975  15.067  1.00  0.00     0.170 HD
HETATM   24  O   UNL     1     -37.505 -51.654  12.864  1.00  0.00    -0.246 OA
ENDBRANCH  16  17
ENDBRANCH   2  16
TORSDOF 7
ENDMDL
