MODEL 1
REMARK VINA RESULT:      -6.1      0.000      0.000
REMARK  4 active torsions:
REMARK  status: ('A' for Active; 'I' for Inactive)
REMARK       I    between atoms: C_2  and  N_3 
REMARK       I    between atoms: C_2  and  N_13 
REMARK    1  A    between atoms: N_3  and  C_4 
REMARK    2  A    between atoms: C_4  and  C_5 
REMARK    3  A    between atoms: C_5  and  C_6 
REMARK       I    between atoms: N_17  and  C_20 
REMARK    4  A    between atoms: C_20  and  C_22 
ROOT
HETATM    1  O   UNL     1     -41.796 -50.637  14.150  1.00  0.00    -0.247 OA
HETATM    2  C   UNL     1     -42.108 -50.285  13.013  1.00  0.00     0.318 C 
HETATM    3  N   UNL     1     -42.476 -51.207  12.069  1.00  0.00    -0.343 N 
HETATM    4  N   UNL     1     -42.120 -48.958  12.615  1.00  0.00    -0.333 N 
HETATM    5  C   UNL     1     -41.637 -47.969  13.585  1.00  0.00     0.129 C 
HETATM    6  C   UNL     1     -40.242 -47.482  13.203  1.00  0.00     0.040 C 
HETATM    7  C   UNL     1     -40.295 -46.247  12.306  1.00  0.00     0.127 C 
HETATM    8  N   UNL     1     -41.247 -46.304  11.196  1.00  0.00    -0.350 N 
HETATM    9  C   UNL     1     -41.516 -47.607  10.570  1.00  0.00     0.145 C 
HETATM   10  C   UNL     1     -42.590 -48.417  11.325  1.00  0.00     0.147 C 
HETATM   11  C   UNL     1     -41.927 -45.187  10.701  1.00  0.00     0.224 C 
HETATM   12  O   UNL     1     -42.732 -45.259   9.777  1.00  0.00    -0.273 OA
HETATM   13  H   UNL     1     -42.273 -50.981  11.111  1.00  0.00     0.164 HD
ENDROOT
BRANCH   3  14
HETATM   14  C   UNL     1     -42.489 -52.630  12.397  1.00  0.00     0.130 C 
BRANCH  14  15
HETATM   15  C   UNL     1     -43.904 -53.210  12.402  1.00  0.00     0.076 C 
BRANCH  15  16
HETATM   16  C   UNL     1     -44.777 -52.550  13.439  1.00  0.00     0.010 A 
HETATM   17  C   UNL     1     -45.992 -51.971  13.075  1.00  0.00     0.025 A 
HETATM   18  C   UNL     1     -46.784 -51.388  14.062  1.00  0.00     0.003 A 
HETATM   19  C   UNL     1     -46.345 -51.395  15.380  1.00  0.00     0.017 A 
HETATM   20  C   UNL     1     -45.121 -51.980  15.655  1.00  0.00     0.088 A 
HETATM   21  N   UNL     1     -44.327 -52.548  14.718  1.00  0.00    -0.369 N 
ATOM     22  HN  UNL     1     -43.427 -52.959  14.964  1.00  0.00     0.165 HD
ENDBRANCH  15  16
ENDBRANCH  14  15
ENDBRANCH   3  14
BRANCH  11  23
HETATM   23  C   UNL     1     -41.700 -43.868  11.371  1.00  0.00     0.078 A 
HETATM   24  C   UNL     1     -42.665 -43.455  12.463  1.00  0.00     0.015 A 
HETATM   25  C   UNL     1     -42.635 -42.698  11.169  1.00  0.00     0.015 A 
ENDBRANCH  11  23
TORSDOF 4
ENDMDL
MODEL 2
REMARK VINA RESULT:      -6.1      1.568      2.768
REMARK  4 active torsions:
REMARK  status: ('A' for Active; 'I' for Inactive)
REMARK       I    between atoms: C_2  and  N_3 
REMARK       I    between atoms: C_2  and  N_13 
REMARK    1  A    between atoms: N_3  and  C_4 
REMARK    2  A    between atoms: C_4  and  C_5 
REMARK    3  A    between atoms: C_5  and  C_6 
REMARK       I    between atoms: N_17  and  C_20 
REMARK    4  A    between atoms: C_20  and  C_22 
ROOT
HETATM    1  O   UNL     1     -43.124 -50.412  14.573  1.00  0.00    -0.247 OA
HETATM    2  C   UNL     1     -43.407 -49.986  13.454  1.00  0.00     0.318 C 
HETATM    3  N   UNL     1     -44.352 -50.612  12.684  1.00  0.00    -0.343 N 
HETATM    4  N   UNL     1     -42.813 -48.861  12.906  1.00  0.00    -0.333 N 
HETATM    5  C   UNL     1     -41.733 -48.238  13.678  1.00  0.00     0.129 C 
HETATM    6  C   UNL     1     -40.376 -48.562  13.059  1.00  0.00     0.040 C 
HETATM    7  C   UNL     1     -39.951 -47.510  12.037  1.00  0.00     0.127 C 
HETATM    8  N   UNL     1     -40.976 -47.098  11.078  1.00  0.00    -0.350 N 
HETATM    9  C   UNL     1     -41.976 -48.091  10.653  1.00  0.00     0.145 C 
HETATM   10  C   UNL     1     -43.160 -48.196  11.635  1.00  0.00     0.147 C 
HETATM   11  C   UNL     1     -41.069 -45.808  10.548  1.00  0.00     0.224 C 
HETATM   12  O   UNL     1     -41.947 -45.480   9.755  1.00  0.00    -0.273 OA
HETATM   13  H   UNL     1     -44.234 -50.556  11.687  1.00  0.00     0.164 HD
ENDROOT
BRANCH   3  14
HETATM   14  C   UNL     1     -45.030 -51.808  13.177  1.00  0.00     0.130 C 
BRANCH  14  15
HETATM   15  C   UNL     1     -44.533 -53.080  12.489  1.00  0.00     0.076 C 
BRANCH  15  16
HETATM   16  C   UNL     1     -43.167 -53.488  12.981  1.00  0.00     0.010 A 
HETATM   17  C   UNL     1     -43.022 -54.140  14.204  1.00  0.00     0.025 A 
HETATM   18  C   UNL     1     -41.748 -54.521  14.618  1.00  0.00     0.003 A 
HETATM   19  C   UNL     1     -40.656 -54.241  13.807  1.00  0.00     0.017 A 
HETATM   20  C   UNL     1     -40.884 -53.578  12.613  1.00  0.00     0.088 A 
HETATM   21  N   UNL     1     -42.108 -53.190  12.187  1.00  0.00    -0.369 N 
ATOM     22  HN  UNL     1     -42.230 -52.695  11.304  1.00  0.00     0.165 HD
ENDBRANCH  15  16
ENDBRANCH  14  15
ENDBRANCH   3  14
BRANCH  11  23
HETATM   23  C   UNL     1     -40.090 -44.779  11.021  1.00  0.00     0.078 A 
HETATM   24  C   UNL     1     -40.393 -44.056  12.317  1.00  0.00     0.015 A 
HETATM   25  C   UNL     1     -40.418 -43.304  11.021  1.00  0.00     0.015 A 
ENDBRANCH  11  23
TORSDOF 4
ENDMDL
MODEL 3
REMARK VINA RESULT:      -6.0      1.461      2.005
REMARK  4 active torsions:
REMARK  status: ('A' for Active; 'I' for Inactive)
REMARK       I    between atoms: C_2  and  N_3 
REMARK       I    between atoms: C_2  and  N_13 
REMARK    1  A    between atoms: N_3  and  C_4 
REMARK    2  A    between atoms: C_4  and  C_5 
REMARK    3  A    between atoms: C_5  and  C_6 
REMARK       I    between atoms: N_17  and  C_20 
REMARK    4  A    between atoms: C_20  and  C_22 
ROOT
HETATM    1  O   UNL     1     -42.615 -50.585  14.441  1.00  0.00    -0.247 OA
HETATM    2  C   UNL     1     -43.078 -50.067  13.426  1.00  0.00     0.318 C 
HETATM    3  N   UNL     1     -44.173 -50.604  12.802  1.00  0.00    -0.343 N 
HETATM    4  N   UNL     1     -42.545 -48.921  12.858  1.00  0.00    -0.333 N 
HETATM    5  C   UNL     1     -41.317 -48.391  13.459  1.00  0.00     0.129 C 
HETATM    6  C   UNL     1     -40.110 -48.707  12.580  1.00  0.00     0.040 C 
HETATM    7  C   UNL     1     -39.833 -47.593  11.573  1.00  0.00     0.127 C 
HETATM    8  N   UNL     1     -40.997 -47.079  10.850  1.00  0.00    -0.350 N 
HETATM    9  C   UNL     1     -42.098 -48.006  10.549  1.00  0.00     0.145 C 
HETATM   10  C   UNL     1     -43.088 -48.151  11.723  1.00  0.00     0.147 C 
HETATM   11  C   UNL     1     -41.129 -45.750  10.438  1.00  0.00     0.224 C 
HETATM   12  O   UNL     1     -42.120 -45.336   9.845  1.00  0.00    -0.273 OA
HETATM   13  H   UNL     1     -44.236 -50.475  11.807  1.00  0.00     0.164 HD
ENDROOT
BRANCH   3  14
HETATM   14  C   UNL     1     -44.801 -51.813  13.327  1.00  0.00     0.130 C 
BRANCH  14  15
HETATM   15  C   UNL     1     -46.260 -51.584  13.721  1.00  0.00     0.076 C 
BRANCH  15  16
HETATM   16  C   UNL     1     -46.406 -51.314  15.198  1.00  0.00     0.010 A 
HETATM   17  C   UNL     1     -47.633 -51.502  15.833  1.00  0.00     0.025 A 
HETATM   18  C   UNL     1     -47.728 -51.263  17.202  1.00  0.00     0.003 A 
HETATM   19  C   UNL     1     -46.603 -50.842  17.899  1.00  0.00     0.017 A 
HETATM   20  C   UNL     1     -45.426 -50.667  17.192  1.00  0.00     0.088 A 
HETATM   21  N   UNL     1     -45.304 -50.885  15.862  1.00  0.00    -0.369 N 
ATOM     22  HN  UNL     1     -44.419 -50.734  15.378  1.00  0.00     0.165 HD
ENDBRANCH  15  16
ENDBRANCH  14  15
ENDBRANCH   3  14
BRANCH  11  23
HETATM   23  C   UNL     1     -40.036 -44.790  10.792  1.00  0.00     0.078 A 
HETATM   24  C   UNL     1     -40.040 -44.197  12.187  1.00  0.00     0.015 A 
HETATM   25  C   UNL     1     -40.303 -43.317  11.002  1.00  0.00     0.015 A 
ENDBRANCH  11  23
TORSDOF 4
ENDMDL
MODEL 4
REMARK VINA RESULT:      -5.8      1.255      1.369
REMARK  4 active torsions:
REMARK  status: ('A' for Active; 'I' for Inactive)
REMARK       I    between atoms: C_2  and  N_3 
REMARK       I    between atoms: C_2  and  N_13 
REMARK    1  A    between atoms: N_3  and  C_4 
REMARK    2  A    between atoms: C_4  and  C_5 
REMARK    3  A    between atoms: C_5  and  C_6 
REMARK       I    between atoms: N_17  and  C_20 
REMARK    4  A    between atoms: C_20  and  C_22 
ROOT
HETATM    1  O   UNL     1     -42.023 -51.494  14.462  1.00  0.00    -0.247 OA
HETATM    2  C   UNL     1     -42.169 -51.033  13.331  1.00  0.00     0.318 C 
HETATM    3  N   UNL     1     -42.743 -51.781  12.337  1.00  0.00    -0.343 N 
HETATM    4  N   UNL     1     -41.782 -49.747  12.988  1.00  0.00    -0.333 N 
HETATM    5  C   UNL     1     -41.080 -48.969  14.014  1.00  0.00     0.129 C 
HETATM    6  C   UNL     1     -39.588 -48.894  13.702  1.00  0.00     0.040 C 
HETATM    7  C   UNL     1     -39.245 -47.670  12.856  1.00  0.00     0.127 C 
HETATM    8  N   UNL     1     -40.121 -47.416  11.712  1.00  0.00    -0.350 N 
HETATM    9  C   UNL     1     -40.724 -48.567  11.024  1.00  0.00     0.145 C 
HETATM   10  C   UNL     1     -42.019 -49.055  11.707  1.00  0.00     0.147 C 
HETATM   11  C   UNL     1     -40.430 -46.137  11.241  1.00  0.00     0.224 C 
HETATM   12  O   UNL     1     -41.179 -45.945  10.287  1.00  0.00    -0.273 OA
HETATM   13  H   UNL     1     -42.441 -51.595  11.397  1.00  0.00     0.164 HD
ENDROOT
BRANCH   3  14
HETATM   14  C   UNL     1     -43.179 -53.149  12.605  1.00  0.00     0.130 C 
BRANCH  14  15
HETATM   15  C   UNL     1     -44.702 -53.285  12.589  1.00  0.00     0.076 C 
BRANCH  15  16
HETATM   16  C   UNL     1     -45.331 -52.690  13.824  1.00  0.00     0.010 A 
HETATM   17  C   UNL     1     -46.432 -51.843  13.718  1.00  0.00     0.025 A 
HETATM   18  C   UNL     1     -47.001 -51.327  14.880  1.00  0.00     0.003 A 
HETATM   19  C   UNL     1     -46.459 -51.667  16.113  1.00  0.00     0.017 A 
HETATM   20  C   UNL     1     -45.357 -52.505  16.131  1.00  0.00     0.088 A 
HETATM   21  N   UNL     1     -44.779 -53.016  15.019  1.00  0.00    -0.369 N 
ATOM     22  HN  UNL     1     -43.960 -53.622  15.078  1.00  0.00     0.165 HD
ENDBRANCH  15  16
ENDBRANCH  14  15
ENDBRANCH   3  14
BRANCH  11  23
HETATM   23  C   UNL     1     -39.864 -44.959  11.972  1.00  0.00     0.078 A 
HETATM   24  C   UNL     1     -40.781 -44.205  12.914  1.00  0.00     0.015 A 
HETATM   25  C   UNL     1     -40.292 -43.544  11.660  1.00  0.00     0.015 A 
ENDBRANCH  11  23
TORSDOF 4
ENDMDL
MODEL 5
REMARK VINA RESULT:      -5.5      2.163      2.719
REMARK  4 active torsions:
REMARK  status: ('A' for Active; 'I' for Inactive)
REMARK       I    between atoms: C_2  and  N_3 
REMARK       I    between atoms: C_2  and  N_13 
REMARK    1  A    between atoms: N_3  and  C_4 
REMARK    2  A    between atoms: C_4  and  C_5 
REMARK    3  A    between atoms: C_5  and  C_6 
REMARK       I    between atoms: N_17  and  C_20 
REMARK    4  A    between atoms: C_20  and  C_22 
ROOT
HETATM    1  O   UNL     1     -40.271 -49.387  14.647  1.00  0.00    -0.247 OA
HETATM    2  C   UNL     1     -40.417 -49.016  13.484  1.00  0.00     0.318 C 
HETATM    3  N   UNL     1     -40.514 -49.926  12.464  1.00  0.00    -0.343 N 
HETATM    4  N   UNL     1     -40.504 -47.680  13.126  1.00  0.00    -0.333 N 
HETATM    5  C   UNL     1     -40.307 -46.693  14.193  1.00  0.00     0.129 C 
HETATM    6  C   UNL     1     -38.928 -46.049  14.079  1.00  0.00     0.040 C 
HETATM    7  C   UNL     1     -38.959 -44.786  13.222  1.00  0.00     0.127 C 
HETATM    8  N   UNL     1     -39.692 -44.888  11.959  1.00  0.00    -0.350 N 
HETATM    9  C   UNL     1     -39.705 -46.181  11.260  1.00  0.00     0.145 C 
HETATM   10  C   UNL     1     -40.800 -47.130  11.789  1.00  0.00     0.147 C 
HETATM   11  C   UNL     1     -40.393 -43.825  11.382  1.00  0.00     0.224 C 
HETATM   12  O   UNL     1     -41.013 -43.935  10.329  1.00  0.00    -0.273 OA
HETATM   13  H   UNL     1     -40.173 -49.637  11.563  1.00  0.00     0.164 HD
ENDROOT
BRANCH   3  14
HETATM   14  C   UNL     1     -40.429 -51.357  12.744  1.00  0.00     0.130 C 
BRANCH  14  15
HETATM   15  C   UNL     1     -41.309 -52.184  11.806  1.00  0.00     0.076 C 
BRANCH  15  16
HETATM   16  C   UNL     1     -42.310 -53.018  12.565  1.00  0.00     0.010 A 
HETATM   17  C   UNL     1     -41.929 -53.703  13.717  1.00  0.00     0.025 A 
HETATM   18  C   UNL     1     -42.884 -54.448  14.406  1.00  0.00     0.003 A 
HETATM   19  C   UNL     1     -44.188 -54.492  13.929  1.00  0.00     0.017 A 
HETATM   20  C   UNL     1     -44.481 -53.793  12.770  1.00  0.00     0.088 A 
HETATM   21  N   UNL     1     -43.574 -53.066  12.077  1.00  0.00    -0.369 N 
ATOM     22  HN  UNL     1     -43.831 -52.575  11.221  1.00  0.00     0.165 HD
ENDBRANCH  15  16
ENDBRANCH  14  15
ENDBRANCH   3  14
BRANCH  11  23
HETATM   23  C   UNL     1     -40.430 -42.521  12.119  1.00  0.00     0.078 A 
HETATM   24  C   UNL     1     -41.675 -42.197  12.919  1.00  0.00     0.015 A 
HETATM   25  C   UNL     1     -41.343 -41.392  11.699  1.00  0.00     0.015 A 
ENDBRANCH  11  23
TORSDOF 4
ENDMDL
MODEL 6
REMARK VINA RESULT:      -5.4     19.604     22.205
REMARK  4 active torsions:
REMARK  status: ('A' for Active; 'I' for Inactive)
REMARK       I    between atoms: C_2  and  N_3 
REMARK       I    between atoms: C_2  and  N_13 
REMARK    1  A    between atoms: N_3  and  C_4 
REMARK    2  A    between atoms: C_4  and  C_5 
REMARK    3  A    between atoms: C_5  and  C_6 
REMARK       I    between atoms: N_17  and  C_20 
REMARK    4  A    between atoms: C_20  and  C_22 
ROOT
HETATM    1  O   UNL     1     -27.173 -42.313  -1.871  1.00  0.00    -0.247 OA
HETATM    2  C   UNL     1     -27.508 -43.458  -1.571  1.00  0.00     0.318 C 
HETATM    3  N   UNL     1     -26.742 -44.211  -0.720  1.00  0.00    -0.343 N 
HETATM    4  N   UNL     1     -28.662 -44.054  -2.052  1.00  0.00    -0.333 N 
HETATM    5  C   UNL     1     -29.440 -43.296  -3.037  1.00  0.00     0.129 C 
HETATM    6  C   UNL     1     -29.238 -43.870  -4.436  1.00  0.00     0.040 C 
HETATM    7  C   UNL     1     -30.277 -44.939  -4.769  1.00  0.00     0.127 C 
HETATM    8  N   UNL     1     -30.522 -45.938  -3.728  1.00  0.00    -0.350 N 
HETATM    9  C   UNL     1     -29.405 -46.328  -2.855  1.00  0.00     0.145 C 
HETATM   10  C   UNL     1     -29.219 -45.365  -1.665  1.00  0.00     0.147 C 
HETATM   11  C   UNL     1     -31.766 -46.537  -3.507  1.00  0.00     0.224 C 
HETATM   12  O   UNL     1     -31.954 -47.364  -2.619  1.00  0.00    -0.273 OA
HETATM   13  H   UNL     1     -26.760 -45.207  -0.856  1.00  0.00     0.164 HD
ENDROOT
BRANCH   3  14
HETATM   14  C   UNL     1     -25.505 -43.668  -0.166  1.00  0.00     0.130 C 
BRANCH  14  15
HETATM   15  C   UNL     1     -25.725 -42.991   1.188  1.00  0.00     0.076 C 
BRANCH  15  16
HETATM   16  C   UNL     1     -25.245 -41.562   1.185  1.00  0.00     0.010 A 
HETATM   17  C   UNL     1     -25.113 -40.858   2.381  1.00  0.00     0.025 A 
HETATM   18  C   UNL     1     -24.647 -39.546   2.344  1.00  0.00     0.003 A 
HETATM   19  C   UNL     1     -24.329 -38.970   1.120  1.00  0.00     0.017 A 
HETATM   20  C   UNL     1     -24.501 -39.733  -0.022  1.00  0.00     0.088 A 
HETATM   21  N   UNL     1     -24.956 -41.007  -0.019  1.00  0.00    -0.369 N 
ATOM     22  HN  UNL     1     -25.078 -41.529  -0.886  1.00  0.00     0.165 HD
ENDBRANCH  15  16
ENDBRANCH  14  15
ENDBRANCH   3  14
BRANCH  11  23
HETATM   23  C   UNL     1     -32.920 -46.102  -4.356  1.00  0.00     0.078 A 
HETATM   24  C   UNL     1     -33.930 -45.155  -3.743  1.00  0.00     0.015 A 
HETATM   25  C   UNL     1     -34.333 -46.559  -4.078  1.00  0.00     0.015 A 
ENDBRANCH  11  23
TORSDOF 4
ENDMDL
MODEL 7
REMARK VINA RESULT:      -5.4      1.886      2.351
REMARK  4 active torsions:
REMARK  status: ('A' for Active; 'I' for Inactive)
REMARK       I    between atoms: C_2  and  N_3 
REMARK       I    between atoms: C_2  and  N_13 
REMARK    1  A    between atoms: N_3  and  C_4 
REMARK    2  A    between atoms: C_4  and  C_5 
REMARK    3  A    between atoms: C_5  and  C_6 
REMARK       I    between atoms: N_17  and  C_20 
REMARK    4  A    between atoms: C_20  and  C_22 
ROOT
HETATM    1  O   UNL     1     -39.955 -50.239  14.841  1.00  0.00    -0.247 OA
HETATM    2  C   UNL     1     -40.414 -50.052  13.715  1.00  0.00     0.318 C 
HETATM    3  N   UNL     1     -40.607 -51.100  12.853  1.00  0.00    -0.343 N 
HETATM    4  N   UNL     1     -40.774 -48.798  13.250  1.00  0.00    -0.333 N 
HETATM    5  C   UNL     1     -40.484 -47.656  14.124  1.00  0.00     0.129 C 
HETATM    6  C   UNL     1     -39.276 -46.879  13.608  1.00  0.00     0.040 C 
HETATM    7  C   UNL     1     -39.685 -45.759  12.655  1.00  0.00     0.127 C 
HETATM    8  N   UNL     1     -40.664 -46.118  11.628  1.00  0.00    -0.350 N 
HETATM    9  C   UNL     1     -40.648 -47.489  11.095  1.00  0.00     0.145 C 
HETATM   10  C   UNL     1     -41.443 -48.476  11.974  1.00  0.00     0.147 C 
HETATM   11  C   UNL     1     -41.625 -45.234  11.130  1.00  0.00     0.224 C 
HETATM   12  O   UNL     1     -42.446 -45.560  10.278  1.00  0.00    -0.273 OA
HETATM   13  H   UNL     1     -40.527 -50.900  11.871  1.00  0.00     0.164 HD
ENDROOT
BRANCH   3  14
HETATM   14  C   UNL     1     -40.254 -52.458  13.256  1.00  0.00     0.130 C 
BRANCH  14  15
HETATM   15  C   UNL     1     -40.984 -53.516  12.427  1.00  0.00     0.076 C 
BRANCH  15  16
HETATM   16  C   UNL     1     -42.261 -53.967  13.093  1.00  0.00     0.010 A 
HETATM   17  C   UNL     1     -42.230 -54.545  14.361  1.00  0.00     0.025 A 
HETATM   18  C   UNL     1     -43.429 -54.931  14.955  1.00  0.00     0.003 A 
HETATM   19  C   UNL     1     -44.623 -54.734  14.272  1.00  0.00     0.017 A 
HETATM   20  C   UNL     1     -44.565 -54.165  13.011  1.00  0.00     0.088 A 
HETATM   21  N   UNL     1     -43.416 -53.786  12.406  1.00  0.00    -0.369 N 
ATOM     22  HN  UNL     1     -43.418 -53.379  11.470  1.00  0.00     0.165 HD
ENDBRANCH  15  16
ENDBRANCH  14  15
ENDBRANCH   3  14
BRANCH  11  23
HETATM   23  C   UNL     1     -41.683 -43.854  11.709  1.00  0.00     0.078 A 
HETATM   24  C   UNL     1     -42.743 -43.570  12.753  1.00  0.00     0.015 A 
HETATM   25  C   UNL     1     -42.823 -42.909  11.410  1.00  0.00     0.015 A 
ENDBRANCH  11  23
TORSDOF 4
ENDMDL
MODEL 8
REMARK VINA RESULT:      -5.1      5.675      8.299
REMARK  4 active torsions:
REMARK  status: ('A' for Active; 'I' for Inactive)
REMARK       I    between atoms: C_2  and  N_3 
REMARK       I    between atoms: C_2  and  N_13 
REMARK    1  A    between atoms: N_3  and  C_4 
REMARK    2  A    between atoms: C_4  and  C_5 
REMARK    3  A    between atoms: C_5  and  C_6 
REMARK       I    between atoms: N_17  and  C_20 
REMARK    4  A    between atoms: C_20  and  C_22 
ROOT
HETATM    1  O   UNL     1     -40.360 -53.972  17.711  1.00  0.00    -0.247 OA
HETATM    2  C   UNL     1     -40.772 -54.532  16.696  1.00  0.00     0.318 C 
HETATM    3  N   UNL     1     -40.247 -55.732  16.295  1.00  0.00    -0.343 N 
HETATM    4  N   UNL     1     -41.783 -54.007  15.907  1.00  0.00    -0.333 N 
HETATM    5  C   UNL     1     -42.288 -52.679  16.270  1.00  0.00     0.129 C 
HETATM    6  C   UNL     1     -41.758 -51.623  15.304  1.00  0.00     0.040 C 
HETATM    7  C   UNL     1     -42.699 -51.411  14.120  1.00  0.00     0.127 C 
HETATM    8  N   UNL     1     -43.203 -52.626  13.479  1.00  0.00    -0.350 N 
HETATM    9  C   UNL     1     -42.338 -53.815  13.452  1.00  0.00     0.145 C 
HETATM   10  C   UNL     1     -42.434 -54.647  14.748  1.00  0.00     0.147 C 
HETATM   11  C   UNL     1     -44.471 -52.727  12.899  1.00  0.00     0.224 C 
HETATM   12  O   UNL     1     -44.881 -53.760  12.378  1.00  0.00    -0.273 OA
HETATM   13  H   UNL     1     -40.244 -55.919  15.307  1.00  0.00     0.164 HD
ENDROOT
BRANCH   3  14
HETATM   14  C   UNL     1     -39.175 -56.360  17.063  1.00  0.00     0.130 C 
BRANCH  14  15
HETATM   15  C   UNL     1     -37.789 -55.942  16.571  1.00  0.00     0.076 C 
BRANCH  15  16
HETATM   16  C   UNL     1     -36.995 -55.251  17.651  1.00  0.00     0.010 A 
HETATM   17  C   UNL     1     -35.947 -55.913  18.290  1.00  0.00     0.025 A 
HETATM   18  C   UNL     1     -35.221 -55.238  19.269  1.00  0.00     0.003 A 
HETATM   19  C   UNL     1     -35.558 -53.928  19.586  1.00  0.00     0.017 A 
HETATM   20  C   UNL     1     -36.620 -53.348  18.913  1.00  0.00     0.088 A 
HETATM   21  N   UNL     1     -37.347 -53.980  17.963  1.00  0.00    -0.369 N 
ATOM     22  HN  UNL     1     -38.129 -53.518  17.499  1.00  0.00     0.165 HD
ENDBRANCH  15  16
ENDBRANCH  14  15
ENDBRANCH   3  14
BRANCH  11  23
HETATM   23  C   UNL     1     -45.378 -51.538  12.973  1.00  0.00     0.078 A 
HETATM   24  C   UNL     1     -46.530 -51.588  13.955  1.00  0.00     0.015 A 
HETATM   25  C   UNL     1     -46.806 -51.590  12.482  1.00  0.00     0.015 A 
ENDBRANCH  11  23
TORSDOF 4
ENDMDL
MODEL 9
REMARK VINA RESULT:      -5.1      5.603      8.626
REMARK  4 active torsions:
REMARK  status: ('A' for Active; 'I' for Inactive)
REMARK       I    between atoms: C_2  and  N_3 
REMARK       I    between atoms: C_2  and  N_13 
REMARK    1  A    between atoms: N_3  and  C_4 
REMARK    2  A    between atoms: C_4  and  C_5 
REMARK    3  A    between atoms: C_5  and  C_6 
REMARK       I    between atoms: N_17  and  C_20 
REMARK    4  A    between atoms: C_20  and  C_22 
ROOT
HETATM    1  O   UNL     1     -41.793 -52.230  15.342  1.00  0.00    -0.247 OA
HETATM    2  C   UNL     1     -41.052 -53.139  14.972  1.00  0.00     0.318 C 
HETATM    3  N   UNL     1     -41.235 -53.741  13.755  1.00  0.00    -0.343 N 
HETATM    4  N   UNL     1     -39.994 -53.603  15.736  1.00  0.00    -0.333 N 
HETATM    5  C   UNL     1     -39.844 -53.034  17.079  1.00  0.00     0.129 C 
HETATM    6  C   UNL     1     -40.307 -54.031  18.138  1.00  0.00     0.040 C 
HETATM    7  C   UNL     1     -39.162 -54.914  18.628  1.00  0.00     0.127 C 
HETATM    8  N   UNL     1     -38.304 -55.483  17.588  1.00  0.00    -0.350 N 
HETATM    9  C   UNL     1     -38.905 -55.812  16.287  1.00  0.00     0.145 C 
HETATM   10  C   UNL     1     -38.975 -54.595  15.342  1.00  0.00     0.147 C 
HETATM   11  C   UNL     1     -36.937 -55.722  17.757  1.00  0.00     0.224 C 
HETATM   12  O   UNL     1     -36.231 -56.187  16.867  1.00  0.00    -0.273 OA
HETATM   13  H   UNL     1     -40.964 -54.707  13.682  1.00  0.00     0.164 HD
ENDROOT
BRANCH   3  14
HETATM   14  C   UNL     1     -42.328 -53.321  12.882  1.00  0.00     0.130 C 
BRANCH  14  15
HETATM   15  C   UNL     1     -43.634 -54.051  13.196  1.00  0.00     0.076 C 
BRANCH  15  16
HETATM   16  C   UNL     1     -44.730 -53.095  13.595  1.00  0.00     0.010 A 
HETATM   17  C   UNL     1     -45.593 -52.570  12.635  1.00  0.00     0.025 A 
HETATM   18  C   UNL     1     -46.608 -51.705  13.041  1.00  0.00     0.003 A 
HETATM   19  C   UNL     1     -46.733 -51.386  14.387  1.00  0.00     0.017 A 
HETATM   20  C   UNL     1     -45.826 -51.940  15.275  1.00  0.00     0.088 A 
HETATM   21  N   UNL     1     -44.828 -52.778  14.910  1.00  0.00    -0.369 N 
ATOM     22  HN  UNL     1     -44.175 -53.155  15.597  1.00  0.00     0.165 HD
ENDBRANCH  15  16
ENDBRANCH  14  15
ENDBRANCH   3  14
BRANCH  11  23
HETATM   23  C   UNL     1     -36.308 -55.336  19.060  1.00  0.00     0.078 A 
HETATM   24  C   UNL     1     -35.578 -54.011  19.127  1.00  0.00     0.015 A 
HETATM   25  C   UNL     1     -34.808 -55.292  19.242  1.00  0.00     0.015 A 
ENDBRANCH  11  23
TORSDOF 4
ENDMDL
