MODEL 1
REMARK VINA RESULT:      -6.8      0.000      0.000
REMARK  5 active torsions:
REMARK  status: ('A' for Active; 'I' for Inactive)
REMARK       I    between atoms: C_2  and  N_4 
REMARK    1  A    between atoms: N_4  and  C_5 
REMARK    2  A    between atoms: C_5  and  C_6 
REMARK    3  A    between atoms: C_6  and  N_7 
REMARK       I    between atoms: N_7  and  C_8 
REMARK       I    between atoms: C_8  and  N_10 
REMARK    4  A    between atoms: N_10  and  C_11 
REMARK    5  A    between atoms: C_17  and  N_18 
ROOT
HETATM    1  N   UNL     1     -41.972 -48.154   9.586  1.00  0.00    -0.341 N 
HETATM    2  C   UNL     1     -41.356 -48.584  10.739  1.00  0.00     0.320 C 
HETATM    3  O   UNL     1     -41.470 -48.007  11.811  1.00  0.00    -0.247 OA
HETATM    4  N   UNL     1     -40.623 -49.732  10.527  1.00  0.00    -0.306 N 
HETATM    5  H   UNL     1     -41.474 -48.357   8.729  1.00  0.00     0.164 HD
HETATM    6  H   UNL     1     -41.082 -50.391   9.928  1.00  0.00     0.171 HD
ENDROOT
BRANCH   4   7
HETATM    7  C   UNL     1     -39.750 -50.242  11.520  1.00  0.00     0.080 A 
HETATM    8  C   UNL     1     -38.394 -49.887  11.389  1.00  0.00     0.035 A 
HETATM    9  C   UNL     1     -37.443 -50.379  12.264  1.00  0.00     0.019 A 
HETATM   10  C   UNL     1     -37.886 -51.208  13.264  1.00  0.00     0.090 A 
HETATM   11  N   UNL     1     -39.178 -51.569  13.421  1.00  0.00    -0.351 N 
HETATM   12  C   UNL     1     -40.134 -51.114  12.563  1.00  0.00     0.130 A 
ATOM     13  HN  UNL     1     -39.441 -52.188  14.188  1.00  0.00     0.166 HD
BRANCH  12  14
HETATM   14  N   UNL     1     -41.401 -51.578  12.821  1.00  0.00    -0.365 N 
HETATM   15  C   UNL     1     -42.526 -50.933  13.471  1.00  0.00     0.124 C 
HETATM   16  C   UNL     1     -43.691 -51.921  13.325  1.00  0.00     0.021 C 
HETATM   17  C   UNL     1     -43.141 -53.084  12.514  1.00  0.00     0.021 C 
HETATM   18  C   UNL     1     -41.643 -53.020  12.756  1.00  0.00     0.124 C 
ENDBRANCH  12  14
ENDBRANCH   4   7
BRANCH   1  19
HETATM   19  C   UNL     1     -42.797 -46.955   9.602  1.00  0.00     0.144 C 
BRANCH  19  20
HETATM   20  C   UNL     1     -43.728 -46.820   8.388  1.00  0.00     0.142 C 
BRANCH  20  21
HETATM   21  N   UNL     1     -44.713 -47.882   8.311  1.00  0.00    -0.360 N 
HETATM   22  C   UNL     1     -46.000 -47.711   8.761  1.00  0.00     0.213 C 
HETATM   23  C   UNL     1     -46.830 -48.962   8.683  1.00  0.00     0.117 C 
HETATM   24  O   UNL     1     -46.434 -46.651   9.197  1.00  0.00    -0.274 OA
HETATM   25  H   UNL     1     -44.423 -48.777   7.939  1.00  0.00     0.162 HD
ENDBRANCH  20  21
ENDBRANCH  19  20
ENDBRANCH   1  19
TORSDOF 5
ENDMDL
MODEL 2
REMARK VINA RESULT:      -6.6      2.187      3.208
REMARK  5 active torsions:
REMARK  status: ('A' for Active; 'I' for Inactive)
REMARK       I    between atoms: C_2  and  N_4 
REMARK    1  A    between atoms: N_4  and  C_5 
REMARK    2  A    between atoms: C_5  and  C_6 
REMARK    3  A    between atoms: C_6  and  N_7 
REMARK       I    between atoms: N_7  and  C_8 
REMARK       I    between atoms: C_8  and  N_10 
REMARK    4  A    between atoms: N_10  and  C_11 
REMARK    5  A    between atoms: C_17  and  N_18 
ROOT
HETATM    1  N   UNL     1     -42.042 -49.302  11.047  1.00  0.00    -0.341 N 
HETATM    2  C   UNL     1     -42.045 -50.091  12.174  1.00  0.00     0.320 C 
HETATM    3  O   UNL     1     -41.869 -49.647  13.300  1.00  0.00    -0.247 OA
HETATM    4  N   UNL     1     -42.278 -51.415  11.869  1.00  0.00    -0.306 N 
HETATM    5  H   UNL     1     -41.713 -49.754  10.204  1.00  0.00     0.164 HD
HETATM    6  H   UNL     1     -42.981 -51.541  11.166  1.00  0.00     0.171 HD
ENDROOT
BRANCH   4   7
HETATM    7  C   UNL     1     -42.130 -52.433  12.843  1.00  0.00     0.080 A 
HETATM    8  C   UNL     1     -40.865 -53.048  12.903  1.00  0.00     0.035 A 
HETATM    9  C   UNL     1     -40.626 -54.097  13.772  1.00  0.00     0.019 A 
HETATM   10  C   UNL     1     -41.667 -54.490  14.575  1.00  0.00     0.090 A 
HETATM   11  N   UNL     1     -42.892 -53.923  14.545  1.00  0.00    -0.351 N 
HETATM   12  C   UNL     1     -43.162 -52.901  13.686  1.00  0.00     0.130 A 
ATOM     13  HN  UNL     1     -43.623 -54.263  15.171  1.00  0.00     0.166 HD
BRANCH  12  14
HETATM   14  N   UNL     1     -44.453 -52.433  13.742  1.00  0.00    -0.365 N 
HETATM   15  C   UNL     1     -45.168 -51.768  14.813  1.00  0.00     0.124 C 
HETATM   16  C   UNL     1     -46.522 -51.377  14.207  1.00  0.00     0.021 C 
HETATM   17  C   UNL     1     -46.458 -51.811  12.751  1.00  0.00     0.021 C 
HETATM   18  C   UNL     1     -45.412 -52.912  12.745  1.00  0.00     0.124 C 
ENDBRANCH  12  14
ENDBRANCH   4   7
BRANCH   1  19
HETATM   19  C   UNL     1     -41.814 -47.868  11.159  1.00  0.00     0.144 C 
BRANCH  19  20
HETATM   20  C   UNL     1     -43.060 -47.013  10.884  1.00  0.00     0.142 C 
BRANCH  20  21
HETATM   21  N   UNL     1     -44.145 -47.771  10.290  1.00  0.00    -0.360 N 
HETATM   22  C   UNL     1     -44.962 -47.234   9.325  1.00  0.00     0.213 C 
HETATM   23  C   UNL     1     -46.083 -48.149   8.915  1.00  0.00     0.117 C 
HETATM   24  O   UNL     1     -44.807 -46.117   8.848  1.00  0.00    -0.274 OA
HETATM   25  H   UNL     1     -44.311 -48.712  10.626  1.00  0.00     0.162 HD
ENDBRANCH  20  21
ENDBRANCH  19  20
ENDBRANCH   1  19
TORSDOF 5
ENDMDL
MODEL 3
REMARK VINA RESULT:      -6.3      2.309      4.694
REMARK  5 active torsions:
REMARK  status: ('A' for Active; 'I' for Inactive)
REMARK       I    between atoms: C_2  and  N_4 
REMARK    1  A    between atoms: N_4  and  C_5 
REMARK    2  A    between atoms: C_5  and  C_6 
REMARK    3  A    between atoms: C_6  and  N_7 
REMARK       I    between atoms: N_7  and  C_8 
REMARK       I    between atoms: C_8  and  N_10 
REMARK    4  A    between atoms: N_10  and  C_11 
REMARK    5  A    between atoms: C_17  and  N_18 
ROOT
HETATM    1  N   UNL     1     -41.011 -50.844  11.177  1.00  0.00    -0.341 N 
HETATM    2  C   UNL     1     -41.889 -51.309  12.129  1.00  0.00     0.320 C 
HETATM    3  O   UNL     1     -42.165 -50.684  13.143  1.00  0.00    -0.247 OA
HETATM    4  N   UNL     1     -42.409 -52.539  11.786  1.00  0.00    -0.306 N 
HETATM    5  H   UNL     1     -40.493 -51.559  10.681  1.00  0.00     0.164 HD
HETATM    6  H   UNL     1     -42.637 -52.615  10.814  1.00  0.00     0.171 HD
ENDROOT
BRANCH   4   7
HETATM    7  C   UNL     1     -43.178 -53.295  12.705  1.00  0.00     0.080 A 
HETATM    8  C   UNL     1     -44.570 -53.284  12.500  1.00  0.00     0.035 A 
HETATM    9  C   UNL     1     -45.422 -53.936  13.373  1.00  0.00     0.019 A 
HETATM   10  C   UNL     1     -44.846 -54.599  14.427  1.00  0.00     0.090 A 
HETATM   11  N   UNL     1     -43.515 -54.632  14.655  1.00  0.00    -0.351 N 
HETATM   12  C   UNL     1     -42.653 -53.984  13.822  1.00  0.00     0.130 A 
ATOM     13  HN  UNL     1     -43.151 -55.145  15.457  1.00  0.00     0.166 HD
BRANCH  12  14
HETATM   14  N   UNL     1     -41.331 -54.077  14.183  1.00  0.00    -0.365 N 
HETATM   15  C   UNL     1     -40.155 -54.362  13.384  1.00  0.00     0.124 C 
HETATM   16  C   UNL     1     -38.969 -54.187  14.342  1.00  0.00     0.021 C 
HETATM   17  C   UNL     1     -39.574 -53.734  15.662  1.00  0.00     0.021 C 
HETATM   18  C   UNL     1     -41.004 -54.243  15.600  1.00  0.00     0.124 C 
ENDBRANCH  12  14
ENDBRANCH   4   7
BRANCH   1  19
HETATM   19  C   UNL     1     -40.354 -49.557  11.354  1.00  0.00     0.144 C 
BRANCH  19  20
HETATM   20  C   UNL     1     -41.263 -48.349  11.081  1.00  0.00     0.142 C 
BRANCH  20  21
HETATM   21  N   UNL     1     -41.816 -48.351   9.740  1.00  0.00    -0.360 N 
HETATM   22  C   UNL     1     -42.927 -47.613   9.413  1.00  0.00     0.213 C 
HETATM   23  C   UNL     1     -43.396 -47.832   8.001  1.00  0.00     0.117 C 
HETATM   24  O   UNL     1     -43.496 -46.857  10.192  1.00  0.00    -0.274 OA
HETATM   25  H   UNL     1     -41.377 -48.938   9.042  1.00  0.00     0.162 HD
ENDBRANCH  20  21
ENDBRANCH  19  20
ENDBRANCH   1  19
TORSDOF 5
ENDMDL
MODEL 4
REMARK VINA RESULT:      -6.2      2.948      5.058
REMARK  5 active torsions:
REMARK  status: ('A' for Active; 'I' for Inactive)
REMARK       I    between atoms: C_2  and  N_4 
REMARK    1  A    between atoms: N_4  and  C_5 
REMARK    2  A    between atoms: C_5  and  C_6 
REMARK    3  A    between atoms: C_6  and  N_7 
REMARK       I    between atoms: N_7  and  C_8 
REMARK       I    between atoms: C_8  and  N_10 
REMARK    4  A    between atoms: N_10  and  C_11 
REMARK    5  A    between atoms: C_17  and  N_18 
ROOT
HETATM    1  N   UNL     1     -41.800 -49.322  11.115  1.00  0.00    -0.341 N 
HETATM    2  C   UNL     1     -41.952 -50.117  12.228  1.00  0.00     0.320 C 
HETATM    3  O   UNL     1     -41.922 -49.680  13.370  1.00  0.00    -0.247 OA
HETATM    4  N   UNL     1     -42.150 -51.438  11.887  1.00  0.00    -0.306 N 
HETATM    5  H   UNL     1     -41.366 -49.772  10.319  1.00  0.00     0.164 HD
HETATM    6  H   UNL     1     -42.756 -51.557  11.099  1.00  0.00     0.171 HD
ENDROOT
BRANCH   4   7
HETATM    7  C   UNL     1     -42.134 -52.462  12.867  1.00  0.00     0.080 A 
HETATM    8  C   UNL     1     -40.902 -53.117  13.053  1.00  0.00     0.035 A 
HETATM    9  C   UNL     1     -40.786 -54.174  13.937  1.00  0.00     0.019 A 
HETATM   10  C   UNL     1     -41.916 -54.536  14.627  1.00  0.00     0.090 A 
HETATM   11  N   UNL     1     -43.113 -53.930  14.475  1.00  0.00    -0.351 N 
HETATM   12  C   UNL     1     -43.261 -52.898  13.598  1.00  0.00     0.130 A 
ATOM     13  HN  UNL     1     -43.914 -54.247  15.021  1.00  0.00     0.166 HD
BRANCH  12  14
HETATM   14  N   UNL     1     -44.536 -52.390  13.523  1.00  0.00    -0.365 N 
HETATM   15  C   UNL     1     -45.553 -52.545  12.502  1.00  0.00     0.124 C 
HETATM   16  C   UNL     1     -46.798 -51.849  13.070  1.00  0.00     0.021 C 
HETATM   17  C   UNL     1     -46.404 -51.380  14.461  1.00  0.00     0.021 C 
HETATM   18  C   UNL     1     -44.891 -51.267  14.392  1.00  0.00     0.124 C 
ENDBRANCH  12  14
ENDBRANCH   4   7
BRANCH   1  19
HETATM   19  C   UNL     1     -41.582 -47.890  11.264  1.00  0.00     0.144 C 
BRANCH  19  20
HETATM   20  C   UNL     1     -40.125 -47.508  11.569  1.00  0.00     0.142 C 
BRANCH  20  21
HETATM   21  N   UNL     1     -39.176 -48.522  11.150  1.00  0.00    -0.360 N 
HETATM   22  C   UNL     1     -38.363 -49.169  12.049  1.00  0.00     0.213 C 
HETATM   23  C   UNL     1     -37.385 -50.109  11.399  1.00  0.00     0.117 C 
HETATM   24  O   UNL     1     -38.415 -48.996  13.261  1.00  0.00    -0.274 OA
HETATM   25  H   UNL     1     -39.102 -48.728  10.162  1.00  0.00     0.162 HD
ENDBRANCH  20  21
ENDBRANCH  19  20
ENDBRANCH   1  19
TORSDOF 5
ENDMDL
MODEL 5
REMARK VINA RESULT:      -6.0      2.494      6.108
REMARK  5 active torsions:
REMARK  status: ('A' for Active; 'I' for Inactive)
REMARK       I    between atoms: C_2  and  N_4 
REMARK    1  A    between atoms: N_4  and  C_5 
REMARK    2  A    between atoms: C_5  and  C_6 
REMARK    3  A    between atoms: C_6  and  N_7 
REMARK       I    between atoms: N_7  and  C_8 
REMARK       I    between atoms: C_8  and  N_10 
REMARK    4  A    between atoms: N_10  and  C_11 
REMARK    5  A    between atoms: C_17  and  N_18 
ROOT
HETATM    1  N   UNL     1     -39.882 -49.100  11.024  1.00  0.00    -0.341 N 
HETATM    2  C   UNL     1     -40.267 -47.876  11.520  1.00  0.00     0.320 C 
HETATM    3  O   UNL     1     -40.484 -47.676  12.707  1.00  0.00    -0.247 OA
HETATM    4  N   UNL     1     -40.361 -46.928  10.524  1.00  0.00    -0.306 N 
HETATM    5  H   UNL     1     -40.190 -49.300  10.081  1.00  0.00     0.164 HD
HETATM    6  H   UNL     1     -39.621 -46.987   9.851  1.00  0.00     0.171 HD
ENDROOT
BRANCH   4   7
HETATM    7  C   UNL     1     -40.928 -45.654  10.771  1.00  0.00     0.080 A 
HETATM    8  C   UNL     1     -40.047 -44.671  11.262  1.00  0.00     0.035 A 
HETATM    9  C   UNL     1     -40.506 -43.411  11.598  1.00  0.00     0.019 A 
HETATM   10  C   UNL     1     -41.843 -43.165  11.415  1.00  0.00     0.090 A 
HETATM   11  N   UNL     1     -42.717 -44.082  10.945  1.00  0.00    -0.351 N 
HETATM   12  C   UNL     1     -42.297 -45.337  10.623  1.00  0.00     0.130 A 
ATOM     13  HN  UNL     1     -43.699 -43.832  10.831  1.00  0.00     0.166 HD
BRANCH  12  14
HETATM   14  N   UNL     1     -43.292 -46.176  10.182  1.00  0.00    -0.365 N 
HETATM   15  C   UNL     1     -43.733 -47.461  10.688  1.00  0.00     0.124 C 
HETATM   16  C   UNL     1     -44.967 -47.818   9.849  1.00  0.00     0.021 C 
HETATM   17  C   UNL     1     -45.189 -46.632   8.924  1.00  0.00     0.021 C 
HETATM   18  C   UNL     1     -43.820 -45.983   8.831  1.00  0.00     0.124 C 
ENDBRANCH  12  14
ENDBRANCH   4   7
BRANCH   1  19
HETATM   19  C   UNL     1     -39.724 -50.236  11.921  1.00  0.00     0.144 C 
BRANCH  19  20
HETATM   20  C   UNL     1     -40.785 -51.332  11.736  1.00  0.00     0.142 C 
BRANCH  20  21
HETATM   21  N   UNL     1     -42.132 -50.863  12.000  1.00  0.00    -0.360 N 
HETATM   22  C   UNL     1     -42.650 -50.825  13.272  1.00  0.00     0.213 C 
HETATM   23  C   UNL     1     -44.093 -50.403  13.317  1.00  0.00     0.117 C 
HETATM   24  O   UNL     1     -42.011 -51.117  14.276  1.00  0.00    -0.274 OA
HETATM   25  H   UNL     1     -42.705 -50.585  11.214  1.00  0.00     0.162 HD
ENDBRANCH  20  21
ENDBRANCH  19  20
ENDBRANCH   1  19
TORSDOF 5
ENDMDL
MODEL 6
REMARK VINA RESULT:      -5.9      2.770      4.919
REMARK  5 active torsions:
REMARK  status: ('A' for Active; 'I' for Inactive)
REMARK       I    between atoms: C_2  and  N_4 
REMARK    1  A    between atoms: N_4  and  C_5 
REMARK    2  A    between atoms: C_5  and  C_6 
REMARK    3  A    between atoms: C_6  and  N_7 
REMARK       I    between atoms: N_7  and  C_8 
REMARK       I    between atoms: C_8  and  N_10 
REMARK    4  A    between atoms: N_10  and  C_11 
REMARK    5  A    between atoms: C_17  and  N_18 
ROOT
HETATM    1  N   UNL     1     -42.770 -49.619  11.799  1.00  0.00    -0.341 N 
HETATM    2  C   UNL     1     -43.450 -50.019  12.927  1.00  0.00     0.320 C 
HETATM    3  O   UNL     1     -43.287 -49.501  14.022  1.00  0.00    -0.247 OA
HETATM    4  N   UNL     1     -44.325 -51.048  12.655  1.00  0.00    -0.306 N 
HETATM    5  H   UNL     1     -42.593 -50.348  11.120  1.00  0.00     0.164 HD
HETATM    6  H   UNL     1     -44.814 -50.935  11.789  1.00  0.00     0.171 HD
ENDROOT
BRANCH   4   7
HETATM    7  C   UNL     1     -44.983 -51.749  13.697  1.00  0.00     0.080 A 
HETATM    8  C   UNL     1     -46.254 -51.264  14.059  1.00  0.00     0.035 A 
HETATM    9  C   UNL     1     -46.959 -51.831  15.105  1.00  0.00     0.019 A 
HETATM   10  C   UNL     1     -46.370 -52.888  15.752  1.00  0.00     0.090 A 
HETATM   11  N   UNL     1     -45.154 -53.380  15.432  1.00  0.00    -0.351 N 
HETATM   12  C   UNL     1     -44.429 -52.830  14.419  1.00  0.00     0.130 A 
ATOM     13  HN  UNL     1     -44.775 -54.170  15.953  1.00  0.00     0.166 HD
BRANCH  12  14
HETATM   14  N   UNL     1     -43.201 -53.410  14.215  1.00  0.00    -0.365 N 
HETATM   15  C   UNL     1     -42.504 -53.732  12.984  1.00  0.00     0.124 C 
HETATM   16  C   UNL     1     -41.122 -54.232  13.427  1.00  0.00     0.021 C 
HETATM   17  C   UNL     1     -41.105 -54.096  14.942  1.00  0.00     0.021 C 
HETATM   18  C   UNL     1     -42.574 -54.127  15.326  1.00  0.00     0.124 C 
ENDBRANCH  12  14
ENDBRANCH   4   7
BRANCH   1  19
HETATM   19  C   UNL     1     -41.797 -48.539  11.877  1.00  0.00     0.144 C 
BRANCH  19  20
HETATM   20  C   UNL     1     -41.871 -47.545  10.707  1.00  0.00     0.142 C 
BRANCH  20  21
HETATM   21  N   UNL     1     -42.490 -48.111   9.524  1.00  0.00    -0.360 N 
HETATM   22  C   UNL     1     -43.124 -47.327   8.592  1.00  0.00     0.213 C 
HETATM   23  C   UNL     1     -43.784 -48.117   7.496  1.00  0.00     0.117 C 
HETATM   24  O   UNL     1     -43.164 -46.103   8.646  1.00  0.00    -0.274 OA
HETATM   25  H   UNL     1     -42.471 -49.117   9.409  1.00  0.00     0.162 HD
ENDBRANCH  20  21
ENDBRANCH  19  20
ENDBRANCH   1  19
TORSDOF 5
ENDMDL
MODEL 7
REMARK VINA RESULT:      -5.9      1.707      3.314
REMARK  5 active torsions:
REMARK  status: ('A' for Active; 'I' for Inactive)
REMARK       I    between atoms: C_2  and  N_4 
REMARK    1  A    between atoms: N_4  and  C_5 
REMARK    2  A    between atoms: C_5  and  C_6 
REMARK    3  A    between atoms: C_6  and  N_7 
REMARK       I    between atoms: N_7  and  C_8 
REMARK       I    between atoms: C_8  and  N_10 
REMARK    4  A    between atoms: N_10  and  C_11 
REMARK    5  A    between atoms: C_17  and  N_18 
ROOT
HETATM    1  N   UNL     1     -41.492 -48.938  10.660  1.00  0.00    -0.341 N 
HETATM    2  C   UNL     1     -41.596 -49.932  11.607  1.00  0.00     0.320 C 
HETATM    3  O   UNL     1     -42.481 -49.960  12.450  1.00  0.00    -0.247 OA
HETATM    4  N   UNL     1     -40.597 -50.872  11.470  1.00  0.00    -0.306 N 
HETATM    5  H   UNL     1     -40.550 -48.723  10.361  1.00  0.00     0.164 HD
HETATM    6  H   UNL     1     -40.402 -51.106  10.516  1.00  0.00     0.171 HD
ENDROOT
BRANCH   4   7
HETATM    7  C   UNL     1     -40.388 -51.873  12.451  1.00  0.00     0.080 A 
HETATM    8  C   UNL     1     -40.967 -53.128  12.184  1.00  0.00     0.035 A 
HETATM    9  C   UNL     1     -40.880 -54.159  13.101  1.00  0.00     0.019 A 
HETATM   10  C   UNL     1     -40.197 -53.904  14.263  1.00  0.00     0.090 A 
HETATM   11  N   UNL     1     -39.629 -52.714  14.553  1.00  0.00    -0.351 N 
HETATM   12  C   UNL     1     -39.713 -51.674  13.677  1.00  0.00     0.130 A 
ATOM     13  HN  UNL     1     -39.133 -52.591  15.436  1.00  0.00     0.166 HD
BRANCH  12  14
HETATM   14  N   UNL     1     -39.114 -50.515  14.106  1.00  0.00    -0.365 N 
HETATM   15  C   UNL     1     -39.692 -49.305  14.660  1.00  0.00     0.124 C 
HETATM   16  C   UNL     1     -38.492 -48.440  15.067  1.00  0.00     0.021 C 
HETATM   17  C   UNL     1     -37.261 -49.278  14.761  1.00  0.00     0.021 C 
HETATM   18  C   UNL     1     -37.737 -50.245  13.690  1.00  0.00     0.124 C 
ENDBRANCH  12  14
ENDBRANCH   4   7
BRANCH   1  19
HETATM   19  C   UNL     1     -42.458 -47.849  10.635  1.00  0.00     0.144 C 
BRANCH  19  20
HETATM   20  C   UNL     1     -43.076 -47.593   9.252  1.00  0.00     0.142 C 
BRANCH  20  21
HETATM   21  N   UNL     1     -44.505 -47.839   9.218  1.00  0.00    -0.360 N 
HETATM   22  C   UNL     1     -45.411 -46.825   9.028  1.00  0.00     0.213 C 
HETATM   23  C   UNL     1     -46.842 -47.277   9.125  1.00  0.00     0.117 C 
HETATM   24  O   UNL     1     -45.095 -45.661   8.811  1.00  0.00    -0.274 OA
HETATM   25  H   UNL     1     -44.831 -48.786   9.368  1.00  0.00     0.162 HD
ENDBRANCH  20  21
ENDBRANCH  19  20
ENDBRANCH   1  19
TORSDOF 5
ENDMDL
MODEL 8
REMARK VINA RESULT:      -5.9      3.031      5.514
REMARK  5 active torsions:
REMARK  status: ('A' for Active; 'I' for Inactive)
REMARK       I    between atoms: C_2  and  N_4 
REMARK    1  A    between atoms: N_4  and  C_5 
REMARK    2  A    between atoms: C_5  and  C_6 
REMARK    3  A    between atoms: C_6  and  N_7 
REMARK       I    between atoms: N_7  and  C_8 
REMARK       I    between atoms: C_8  and  N_10 
REMARK    4  A    between atoms: N_10  and  C_11 
REMARK    5  A    between atoms: C_17  and  N_18 
ROOT
HETATM    1  N   UNL     1     -42.962 -52.793  12.073  1.00  0.00    -0.341 N 
HETATM    2  C   UNL     1     -42.650 -51.605  12.695  1.00  0.00     0.320 C 
HETATM    3  O   UNL     1     -42.838 -51.407  13.887  1.00  0.00    -0.247 OA
HETATM    4  N   UNL     1     -42.100 -50.699  11.814  1.00  0.00    -0.306 N 
HETATM    5  H   UNL     1     -43.231 -52.714  11.101  1.00  0.00     0.164 HD
HETATM    6  H   UNL     1     -41.453 -51.113  11.171  1.00  0.00     0.171 HD
ENDROOT
BRANCH   4   7
HETATM    7  C   UNL     1     -41.885 -49.348  12.186  1.00  0.00     0.080 A 
HETATM    8  C   UNL     1     -43.000 -48.495  12.077  1.00  0.00     0.035 A 
HETATM    9  C   UNL     1     -42.890 -47.145  12.352  1.00  0.00     0.019 A 
HETATM   10  C   UNL     1     -41.658 -46.688  12.748  1.00  0.00     0.090 A 
HETATM   11  N   UNL     1     -40.567 -47.476  12.864  1.00  0.00    -0.351 N 
HETATM   12  C   UNL     1     -40.642 -48.807  12.582  1.00  0.00     0.130 A 
ATOM     13  HN  UNL     1     -39.680 -47.073  13.165  1.00  0.00     0.166 HD
BRANCH  12  14
HETATM   14  N   UNL     1     -39.456 -49.487  12.717  1.00  0.00    -0.365 N 
HETATM   15  C   UNL     1     -38.927 -50.246  13.833  1.00  0.00     0.124 C 
HETATM   16  C   UNL     1     -37.627 -50.872  13.311  1.00  0.00     0.021 C 
HETATM   17  C   UNL     1     -37.533 -50.459  11.850  1.00  0.00     0.021 C 
HETATM   18  C   UNL     1     -38.373 -49.196  11.775  1.00  0.00     0.124 C 
ENDBRANCH  12  14
ENDBRANCH   4   7
BRANCH   1  19
HETATM   19  C   UNL     1     -43.553 -53.883  12.836  1.00  0.00     0.144 C 
BRANCH  19  20
HETATM   20  C   UNL     1     -45.089 -53.871  12.857  1.00  0.00     0.142 C 
BRANCH  20  21
HETATM   21  N   UNL     1     -45.632 -53.145  13.990  1.00  0.00    -0.360 N 
HETATM   22  C   UNL     1     -46.346 -51.983  13.832  1.00  0.00     0.213 C 
HETATM   23  C   UNL     1     -46.733 -51.338  15.134  1.00  0.00     0.117 C 
HETATM   24  O   UNL     1     -46.635 -51.504  12.741  1.00  0.00    -0.274 OA
HETATM   25  H   UNL     1     -45.448 -53.503  14.919  1.00  0.00     0.162 HD
ENDBRANCH  20  21
ENDBRANCH  19  20
ENDBRANCH   1  19
TORSDOF 5
ENDMDL
MODEL 9
REMARK VINA RESULT:      -5.7      1.936      2.878
REMARK  5 active torsions:
REMARK  status: ('A' for Active; 'I' for Inactive)
REMARK       I    between atoms: C_2  and  N_4 
REMARK    1  A    between atoms: N_4  and  C_5 
REMARK    2  A    between atoms: C_5  and  C_6 
REMARK    3  A    between atoms: C_6  and  N_7 
REMARK       I    between atoms: N_7  and  C_8 
REMARK       I    between atoms: C_8  and  N_10 
REMARK    4  A    between atoms: N_10  and  C_11 
REMARK    5  A    between atoms: C_17  and  N_18 
ROOT
HETATM    1  N   UNL     1     -42.215 -48.539   9.867  1.00  0.00    -0.341 N 
HETATM    2  C   UNL     1     -41.524 -48.844  11.017  1.00  0.00     0.320 C 
HETATM    3  O   UNL     1     -41.763 -48.323  12.097  1.00  0.00    -0.247 OA
HETATM    4  N   UNL     1     -40.558 -49.801  10.792  1.00  0.00    -0.306 N 
HETATM    5  H   UNL     1     -41.682 -48.615   9.010  1.00  0.00     0.164 HD
HETATM    6  H   UNL     1     -40.861 -50.534  10.180  1.00  0.00     0.171 HD
ENDROOT
BRANCH   4   7
HETATM    7  C   UNL     1     -39.597 -50.125  11.783  1.00  0.00     0.080 A 
HETATM    8  C   UNL     1     -38.430 -49.337  11.790  1.00  0.00     0.035 A 
HETATM    9  C   UNL     1     -37.399 -49.604  12.671  1.00  0.00     0.019 A 
HETATM   10  C   UNL     1     -37.576 -50.653  13.539  1.00  0.00     0.090 A 
HETATM   11  N   UNL     1     -38.682 -51.429  13.561  1.00  0.00    -0.351 N 
HETATM   12  C   UNL     1     -39.706 -51.201  12.692  1.00  0.00     0.130 A 
ATOM     13  HN  UNL     1     -38.750 -52.193  14.233  1.00  0.00     0.166 HD
BRANCH  12  14
HETATM   14  N   UNL     1     -40.757 -52.078  12.805  1.00  0.00    -0.365 N 
HETATM   15  C   UNL     1     -42.185 -51.833  12.874  1.00  0.00     0.124 C 
HETATM   16  C   UNL     1     -42.830 -53.225  12.852  1.00  0.00     0.021 C 
HETATM   17  C   UNL     1     -41.678 -54.207  12.704  1.00  0.00     0.021 C 
HETATM   18  C   UNL     1     -40.481 -53.446  13.245  1.00  0.00     0.124 C 
ENDBRANCH  12  14
ENDBRANCH   4   7
BRANCH   1  19
HETATM   19  C   UNL     1     -43.281 -47.548   9.896  1.00  0.00     0.144 C 
BRANCH  19  20
HETATM   20  C   UNL     1     -42.886 -46.186   9.305  1.00  0.00     0.142 C 
BRANCH  20  21
HETATM   21  N   UNL     1     -42.441 -45.242  10.312  1.00  0.00    -0.360 N 
HETATM   22  C   UNL     1     -41.123 -45.152  10.689  1.00  0.00     0.213 C 
HETATM   23  C   UNL     1     -40.889 -44.184  11.815  1.00  0.00     0.117 C 
HETATM   24  O   UNL     1     -40.221 -45.802  10.173  1.00  0.00    -0.274 OA
HETATM   25  H   UNL     1     -43.136 -44.658  10.761  1.00  0.00     0.162 HD
ENDBRANCH  20  21
ENDBRANCH  19  20
ENDBRANCH   1  19
TORSDOF 5
ENDMDL
