MODEL 1
REMARK VINA RESULT:      -6.9      0.000      0.000
REMARK  7 active torsions:
REMARK  status: ('A' for Active; 'I' for Inactive)
REMARK    1  A    between atoms: N_2  and  C_16 
REMARK    2  A    between atoms: C_6  and  N_7 
REMARK    3  A    between atoms: N_8  and  C_18 
REMARK    4  A    between atoms: C_16  and  C_17 
REMARK    5  A    between atoms: C_17  and  C_24 
REMARK    6  A    between atoms: C_17  and  O_28 
REMARK    7  A    between atoms: C_18  and  C_20 
REMARK       I    between atoms: C_20  and  N_27 
ROOT
HETATM    1  C   UNL     1     -40.765 -51.510  13.190  1.00  0.00     0.117 A 
HETATM    2  N   UNL     1     -39.703 -53.290  13.862  1.00  0.00    -0.325 N 
HETATM    3  C   UNL     1     -40.868 -52.888  13.271  1.00  0.00     0.140 A 
HETATM    4  N   UNL     1     -39.592 -51.073  13.774  1.00  0.00    -0.346 N 
ATOM      5  HN  UNL     1     -39.268 -50.111  13.878  1.00  0.00     0.167 HD
HETATM    6  C   UNL     1     -41.812 -50.823  12.543  1.00  0.00     0.115 A 
HETATM    7  C   UNL     1     -38.985 -52.172  14.168  1.00  0.00     0.185 A 
HETATM    8  N   UNL     1     -41.883 -53.654  12.838  1.00  0.00    -0.336 N 
ATOM      9  HN  UNL     1     -41.923 -54.668  12.932  1.00  0.00     0.168 HD
HETATM   10  N   UNL     1     -42.859 -51.560  12.078  1.00  0.00    -0.341 N 
ATOM     11  HN  UNL     1     -43.640 -51.111  11.602  1.00  0.00     0.167 HD
HETATM   12  C   UNL     1     -42.840 -52.900  12.262  1.00  0.00     0.183 A 
ENDROOT
BRANCH   6  13
HETATM   13  N   UNL     1     -41.776 -49.430  12.382  1.00  0.00    -0.257 NA
HETATM   14  C   UNL     1     -40.822 -48.984  11.355  1.00  0.00     0.200 C 
HETATM   15  C   UNL     1     -40.852 -47.458  11.146  1.00  0.00     0.233 C 
HETATM   16  N   UNL     1     -42.124 -46.879  11.183  1.00  0.00    -0.341 N 
HETATM   17  O   UNL     1     -39.847 -46.832  10.814  1.00  0.00    -0.272 OA
HETATM   18  C   UNL     1     -43.071 -47.378  12.183  1.00  0.00     0.141 C 
HETATM   19  C   UNL     1     -43.134 -48.907  12.214  1.00  0.00     0.117 C 
BRANCH  16  20
HETATM   20  C   UNL     1     -42.296 -45.504  10.716  1.00  0.00     0.228 C 
BRANCH  20  21
HETATM   21  C   UNL     1     -43.188 -45.432   9.471  1.00  0.00     0.233 C 
HETATM   22  O   UNL     1     -43.912 -44.478   9.215  1.00  0.00    -0.272 OA
HETATM   23  N   UNL     1     -43.059 -46.459   8.572  1.00  0.00    -0.369 N 
HETATM   24  H   UNL     1     -42.292 -47.116   8.654  1.00  0.00     0.159 HD
HETATM   25  H   UNL     1     -43.551 -46.382   7.692  1.00  0.00     0.159 HD
ENDBRANCH  20  21
ENDBRANCH  16  20
ENDBRANCH   6  13
BRANCH   2  26
HETATM   26  C   UNL     1     -39.275 -54.647  14.098  1.00  0.00     0.165 C 
BRANCH  26  27
HETATM   27  C   UNL     1     -38.739 -54.924  15.504  1.00  0.00     0.165 C 
BRANCH  27  28
HETATM   28  C   UNL     1     -39.784 -55.432  16.510  1.00  0.00     0.151 C 
HETATM   29  O   UNL     1     -39.555 -56.844  16.724  1.00  0.00    -0.383 OA
HETATM   30  C   UNL     1     -40.810 -57.460  17.057  1.00  0.00     0.168 C 
HETATM   31  C   UNL     1     -41.879 -56.390  16.954  1.00  0.00     0.029 C 
HETATM   32  C   UNL     1     -41.234 -55.355  16.061  1.00  0.00     0.036 C 
ENDBRANCH  27  28
BRANCH  27  33
HETATM   33  O   UNL     1     -37.690 -55.902  15.386  1.00  0.00    -0.391 OA
HETATM   34  H   UNL     1     -38.059 -56.605  14.813  1.00  0.00     0.210 HD
ENDBRANCH  27  33
ENDBRANCH  26  27
ENDBRANCH   2  26
TORSDOF 7
ENDMDL
MODEL 2
REMARK VINA RESULT:      -6.8      2.476      8.965
REMARK  7 active torsions:
REMARK  status: ('A' for Active; 'I' for Inactive)
REMARK    1  A    between atoms: N_2  and  C_16 
REMARK    2  A    between atoms: C_6  and  N_7 
REMARK    3  A    between atoms: N_8  and  C_18 
REMARK    4  A    between atoms: C_16  and  C_17 
REMARK    5  A    between atoms: C_17  and  C_24 
REMARK    6  A    between atoms: C_17  and  O_28 
REMARK    7  A    between atoms: C_18  and  C_20 
REMARK       I    between atoms: C_20  and  N_27 
ROOT
HETATM    1  C   UNL     1     -42.432 -48.235  12.355  1.00  0.00     0.117 A 
HETATM    2  N   UNL     1     -42.480 -47.037  10.536  1.00  0.00    -0.325 N 
HETATM    3  C   UNL     1     -42.734 -46.972  11.878  1.00  0.00     0.140 A 
HETATM    4  N   UNL     1     -42.061 -49.073  11.320  1.00  0.00    -0.346 N 
ATOM      5  HN  UNL     1     -41.809 -50.060  11.377  1.00  0.00     0.167 HD
HETATM    6  C   UNL     1     -42.531 -48.439  13.746  1.00  0.00     0.115 A 
HETATM    7  C   UNL     1     -42.107 -48.315  10.245  1.00  0.00     0.185 A 
HETATM    8  N   UNL     1     -43.158 -45.914  12.589  1.00  0.00    -0.336 N 
ATOM      9  HN  UNL     1     -43.383 -45.002  12.191  1.00  0.00     0.168 HD
HETATM   10  N   UNL     1     -42.949 -47.391  14.510  1.00  0.00    -0.341 N 
ATOM     11  HN  UNL     1     -43.036 -47.486  15.521  1.00  0.00     0.167 HD
HETATM   12  C   UNL     1     -43.245 -46.221  13.898  1.00  0.00     0.183 A 
ENDROOT
BRANCH   6  13
HETATM   13  N   UNL     1     -42.212 -49.677  14.324  1.00  0.00    -0.257 NA
HETATM   14  C   UNL     1     -43.134 -50.756  13.939  1.00  0.00     0.200 C 
HETATM   15  C   UNL     1     -42.722 -52.120  14.527  1.00  0.00     0.233 C 
HETATM   16  N   UNL     1     -41.348 -52.375  14.528  1.00  0.00    -0.341 N 
HETATM   17  O   UNL     1     -43.557 -52.974  14.821  1.00  0.00    -0.272 OA
HETATM   18  C   UNL     1     -40.451 -51.267  14.866  1.00  0.00     0.141 C 
HETATM   19  C   UNL     1     -40.796 -49.985  14.106  1.00  0.00     0.117 C 
BRANCH  16  20
HETATM   20  C   UNL     1     -40.874 -53.733  14.791  1.00  0.00     0.228 C 
BRANCH  20  21
HETATM   21  C   UNL     1     -40.099 -54.307  13.600  1.00  0.00     0.233 C 
HETATM   22  O   UNL     1     -38.950 -54.722  13.680  1.00  0.00    -0.272 OA
HETATM   23  N   UNL     1     -40.800 -54.442  12.429  1.00  0.00    -0.369 N 
HETATM   24  H   UNL     1     -41.807 -54.335  12.421  1.00  0.00     0.159 HD
HETATM   25  H   UNL     1     -40.348 -54.919  11.660  1.00  0.00     0.159 HD
ENDBRANCH  20  21
ENDBRANCH  16  20
ENDBRANCH   6  13
BRANCH   2  26
HETATM   26  C   UNL     1     -42.554 -45.953   9.587  1.00  0.00     0.165 C 
BRANCH  26  27
HETATM   27  C   UNL     1     -43.894 -45.814   8.863  1.00  0.00     0.165 C 
BRANCH  27  28
HETATM   28  C   UNL     1     -44.924 -46.908   9.185  1.00  0.00     0.151 C 
HETATM   29  O   UNL     1     -44.801 -47.951   8.190  1.00  0.00    -0.383 OA
HETATM   30  C   UNL     1     -46.084 -48.579   8.034  1.00  0.00     0.168 C 
HETATM   31  C   UNL     1     -47.065 -47.825   8.909  1.00  0.00     0.029 C 
HETATM   32  C   UNL     1     -46.384 -46.492   9.107  1.00  0.00     0.036 C 
ENDBRANCH  27  28
BRANCH  27  33
HETATM   33  O   UNL     1     -44.448 -44.533   9.212  1.00  0.00    -0.391 OA
HETATM   34  H   UNL     1     -45.136 -44.726   9.881  1.00  0.00     0.210 HD
ENDBRANCH  27  33
ENDBRANCH  26  27
ENDBRANCH   2  26
TORSDOF 7
ENDMDL
MODEL 3
REMARK VINA RESULT:      -6.8      4.368      5.666
REMARK  7 active torsions:
REMARK  status: ('A' for Active; 'I' for Inactive)
REMARK    1  A    between atoms: N_2  and  C_16 
REMARK    2  A    between atoms: C_6  and  N_7 
REMARK    3  A    between atoms: N_8  and  C_18 
REMARK    4  A    between atoms: C_16  and  C_17 
REMARK    5  A    between atoms: C_17  and  C_24 
REMARK    6  A    between atoms: C_17  and  O_28 
REMARK    7  A    between atoms: C_18  and  C_20 
REMARK       I    between atoms: C_20  and  N_27 
ROOT
HETATM    1  C   UNL     1     -39.279 -48.910  13.702  1.00  0.00     0.117 A 
HETATM    2  N   UNL     1     -38.160 -49.564  15.454  1.00  0.00    -0.325 N 
HETATM    3  C   UNL     1     -38.173 -49.646  14.089  1.00  0.00     0.140 A 
HETATM    4  N   UNL     1     -39.964 -48.440  14.807  1.00  0.00    -0.346 N 
ATOM      5  HN  UNL     1     -40.824 -47.891  14.820  1.00  0.00     0.167 HD
HETATM    6  C   UNL     1     -39.499 -48.757  12.319  1.00  0.00     0.115 A 
HETATM    7  C   UNL     1     -39.261 -48.858  15.838  1.00  0.00     0.185 A 
HETATM    8  N   UNL     1     -37.297 -50.277  13.291  1.00  0.00    -0.336 N 
ATOM      9  HN  UNL     1     -36.501 -50.822  13.622  1.00  0.00     0.168 HD
HETATM   10  N   UNL     1     -38.630 -49.372  11.469  1.00  0.00    -0.341 N 
ATOM     11  HN  UNL     1     -38.744 -49.291  10.459  1.00  0.00     0.167 HD
HETATM   12  C   UNL     1     -37.611 -50.092  11.994  1.00  0.00     0.183 A 
ENDROOT
BRANCH   6  13
HETATM   13  N   UNL     1     -40.575 -47.998  11.833  1.00  0.00    -0.257 NA
HETATM   14  C   UNL     1     -40.157 -46.852  11.011  1.00  0.00     0.200 C 
HETATM   15  C   UNL     1     -41.355 -46.077  10.430  1.00  0.00     0.233 C 
HETATM   16  N   UNL     1     -42.419 -46.870   9.992  1.00  0.00    -0.341 N 
HETATM   17  O   UNL     1     -41.301 -44.865  10.226  1.00  0.00    -0.272 OA
HETATM   18  C   UNL     1     -42.780 -48.034  10.804  1.00  0.00     0.141 C 
HETATM   19  C   UNL     1     -41.561 -48.873  11.195  1.00  0.00     0.117 C 
BRANCH  16  20
HETATM   20  C   UNL     1     -43.468 -46.267   9.171  1.00  0.00     0.228 C 
BRANCH  20  21
HETATM   21  C   UNL     1     -44.114 -47.289   8.229  1.00  0.00     0.233 C 
HETATM   22  O   UNL     1     -43.481 -47.956   7.421  1.00  0.00    -0.272 OA
HETATM   23  N   UNL     1     -45.455 -47.512   8.406  1.00  0.00    -0.369 N 
HETATM   24  H   UNL     1     -45.930 -47.152   9.225  1.00  0.00     0.159 HD
HETATM   25  H   UNL     1     -45.885 -48.258   7.876  1.00  0.00     0.159 HD
ENDBRANCH  20  21
ENDBRANCH  16  20
ENDBRANCH   6  13
BRANCH   2  26
HETATM   26  C   UNL     1     -37.156 -50.093  16.344  1.00  0.00     0.165 C 
BRANCH  26  27
HETATM   27  C   UNL     1     -35.820 -49.349  16.331  1.00  0.00     0.165 C 
BRANCH  27  28
HETATM   28  C   UNL     1     -35.848 -47.948  16.963  1.00  0.00     0.151 C 
HETATM   29  O   UNL     1     -34.494 -47.588  17.323  1.00  0.00    -0.383 OA
HETATM   30  C   UNL     1     -34.548 -46.701  18.452  1.00  0.00     0.168 C 
HETATM   31  C   UNL     1     -36.002 -46.581  18.863  1.00  0.00     0.029 C 
HETATM   32  C   UNL     1     -36.624 -47.821  18.264  1.00  0.00     0.036 C 
ENDBRANCH  27  28
BRANCH  27  33
HETATM   33  O   UNL     1     -34.862 -50.160  17.035  1.00  0.00    -0.391 OA
HETATM   34  H   UNL     1     -34.004 -49.980  16.598  1.00  0.00     0.210 HD
ENDBRANCH  27  33
ENDBRANCH  26  27
ENDBRANCH   2  26
TORSDOF 7
ENDMDL
MODEL 4
REMARK VINA RESULT:      -6.7      2.197      3.155
REMARK  7 active torsions:
REMARK  status: ('A' for Active; 'I' for Inactive)
REMARK    1  A    between atoms: N_2  and  C_16 
REMARK    2  A    between atoms: C_6  and  N_7 
REMARK    3  A    between atoms: N_8  and  C_18 
REMARK    4  A    between atoms: C_16  and  C_17 
REMARK    5  A    between atoms: C_17  and  C_24 
REMARK    6  A    between atoms: C_17  and  O_28 
REMARK    7  A    between atoms: C_18  and  C_20 
REMARK       I    between atoms: C_20  and  N_27 
ROOT
HETATM    1  C   UNL     1     -41.317 -49.899  12.044  1.00  0.00     0.117 A 
HETATM    2  N   UNL     1     -41.226 -52.050  12.382  1.00  0.00    -0.325 N 
HETATM    3  C   UNL     1     -40.452 -50.980  12.027  1.00  0.00     0.140 A 
HETATM    4  N   UNL     1     -42.604 -50.307  12.341  1.00  0.00    -0.346 N 
ATOM      5  HN  UNL     1     -43.443 -49.730  12.398  1.00  0.00     0.167 HD
HETATM    6  C   UNL     1     -40.764 -48.629  11.786  1.00  0.00     0.115 A 
HETATM    7  C   UNL     1     -42.506 -51.606  12.533  1.00  0.00     0.185 A 
HETATM    8  N   UNL     1     -39.139 -50.966  11.748  1.00  0.00    -0.336 N 
ATOM      9  HN  UNL     1     -38.541 -51.792  11.734  1.00  0.00     0.168 HD
HETATM   10  N   UNL     1     -39.433 -48.564  11.507  1.00  0.00    -0.341 N 
ATOM     11  HN  UNL     1     -38.985 -47.668  11.315  1.00  0.00     0.167 HD
HETATM   12  C   UNL     1     -38.718 -49.712  11.490  1.00  0.00     0.183 A 
ENDROOT
BRANCH   6  13
HETATM   13  N   UNL     1     -41.557 -47.472  11.816  1.00  0.00    -0.257 NA
HETATM   14  C   UNL     1     -41.501 -46.758  13.102  1.00  0.00     0.200 C 
HETATM   15  C   UNL     1     -42.321 -45.454  13.088  1.00  0.00     0.233 C 
HETATM   16  N   UNL     1     -42.244 -44.717  11.903  1.00  0.00    -0.341 N 
HETATM   17  O   UNL     1     -42.869 -45.025  14.103  1.00  0.00    -0.272 OA
HETATM   18  C   UNL     1     -42.251 -45.458  10.639  1.00  0.00     0.141 C 
HETATM   19  C   UNL     1     -41.274 -46.635  10.647  1.00  0.00     0.117 C 
BRANCH  16  20
HETATM   20  C   UNL     1     -42.741 -43.342  11.884  1.00  0.00     0.228 C 
BRANCH  20  21
HETATM   21  C   UNL     1     -41.839 -42.421  11.056  1.00  0.00     0.233 C 
HETATM   22  O   UNL     1     -42.263 -41.649  10.204  1.00  0.00    -0.272 OA
HETATM   23  N   UNL     1     -40.510 -42.414  11.389  1.00  0.00    -0.369 N 
HETATM   24  H   UNL     1     -40.195 -42.857  12.245  1.00  0.00     0.159 HD
HETATM   25  H   UNL     1     -39.911 -41.737  10.936  1.00  0.00     0.159 HD
ENDBRANCH  20  21
ENDBRANCH  16  20
ENDBRANCH   6  13
BRANCH   2  26
HETATM   26  C   UNL     1     -40.783 -53.406  12.596  1.00  0.00     0.165 C 
BRANCH  26  27
HETATM   27  C   UNL     1     -39.880 -53.609  13.814  1.00  0.00     0.165 C 
BRANCH  27  28
HETATM   28  C   UNL     1     -40.604 -54.067  15.091  1.00  0.00     0.151 C 
HETATM   29  O   UNL     1     -39.815 -55.113  15.706  1.00  0.00    -0.383 OA
HETATM   30  C   UNL     1     -40.704 -55.984  16.424  1.00  0.00     0.168 C 
HETATM   31  C   UNL     1     -42.117 -55.502  16.163  1.00  0.00     0.029 C 
HETATM   32  C   UNL     1     -41.970 -54.702  14.891  1.00  0.00     0.036 C 
ENDBRANCH  27  28
BRANCH  27  33
HETATM   33  O   UNL     1     -38.888 -54.591  13.463  1.00  0.00    -0.391 OA
HETATM   34  H   UNL     1     -39.255 -55.058  12.684  1.00  0.00     0.210 HD
ENDBRANCH  27  33
ENDBRANCH  26  27
ENDBRANCH   2  26
TORSDOF 7
ENDMDL
MODEL 5
REMARK VINA RESULT:      -6.7      1.809      2.345
REMARK  7 active torsions:
REMARK  status: ('A' for Active; 'I' for Inactive)
REMARK    1  A    between atoms: N_2  and  C_16 
REMARK    2  A    between atoms: C_6  and  N_7 
REMARK    3  A    between atoms: N_8  and  C_18 
REMARK    4  A    between atoms: C_16  and  C_17 
REMARK    5  A    between atoms: C_17  and  C_24 
REMARK    6  A    between atoms: C_17  and  O_28 
REMARK    7  A    between atoms: C_18  and  C_20 
REMARK       I    between atoms: C_20  and  N_27 
ROOT
HETATM    1  C   UNL     1     -41.370 -50.343  12.515  1.00  0.00     0.117 A 
HETATM    2  N   UNL     1     -40.641 -52.356  12.920  1.00  0.00    -0.325 N 
HETATM    3  C   UNL     1     -41.780 -51.600  12.928  1.00  0.00     0.140 A 
HETATM    4  N   UNL     1     -40.002 -50.315  12.319  1.00  0.00    -0.346 N 
ATOM      5  HN  UNL     1     -39.429 -49.519  12.038  1.00  0.00     0.167 HD
HETATM    6  C   UNL     1     -42.368 -49.362  12.355  1.00  0.00     0.115 A 
HETATM    7  C   UNL     1     -39.603 -51.543  12.577  1.00  0.00     0.185 A 
HETATM    8  N   UNL     1     -43.027 -51.986  13.239  1.00  0.00    -0.336 N 
ATOM      9  HN  UNL     1     -43.282 -52.922  13.554  1.00  0.00     0.168 HD
HETATM   10  N   UNL     1     -43.651 -49.710  12.651  1.00  0.00    -0.341 N 
ATOM     11  HN  UNL     1     -44.410 -49.037  12.551  1.00  0.00     0.167 HD
HETATM   12  C   UNL     1     -43.897 -50.970  13.080  1.00  0.00     0.183 A 
ENDROOT
BRANCH   6  13
HETATM   13  N   UNL     1     -42.051 -48.070  11.907  1.00  0.00    -0.257 NA
HETATM   14  C   UNL     1     -42.942 -47.587  10.840  1.00  0.00     0.200 C 
HETATM   15  C   UNL     1     -42.621 -46.142  10.415  1.00  0.00     0.233 C 
HETATM   16  N   UNL     1     -42.289 -45.275  11.460  1.00  0.00    -0.341 N 
HETATM   17  O   UNL     1     -42.802 -45.753   9.261  1.00  0.00    -0.272 OA
HETATM   18  C   UNL     1     -41.442 -45.799  12.535  1.00  0.00     0.141 C 
HETATM   19  C   UNL     1     -41.924 -47.158  13.047  1.00  0.00     0.117 C 
BRANCH  16  20
HETATM   20  C   UNL     1     -42.250 -43.836  11.208  1.00  0.00     0.228 C 
BRANCH  20  21
HETATM   21  C   UNL     1     -40.823 -43.341  10.944  1.00  0.00     0.233 C 
HETATM   22  O   UNL     1     -40.053 -43.888  10.164  1.00  0.00    -0.272 OA
HETATM   23  N   UNL     1     -40.467 -42.165  11.552  1.00  0.00    -0.369 N 
HETATM   24  H   UNL     1     -41.170 -41.585  11.994  1.00  0.00     0.159 HD
HETATM   25  H   UNL     1     -39.574 -41.758  11.309  1.00  0.00     0.159 HD
ENDBRANCH  20  21
ENDBRANCH  16  20
ENDBRANCH   6  13
BRANCH   2  26
HETATM   26  C   UNL     1     -40.539 -53.770  13.190  1.00  0.00     0.165 C 
BRANCH  26  27
HETATM   27  C   UNL     1     -39.347 -54.181  14.055  1.00  0.00     0.165 C 
BRANCH  27  28
HETATM   28  C   UNL     1     -39.700 -54.601  15.492  1.00  0.00     0.151 C 
HETATM   29  O   UNL     1     -39.033 -55.853  15.773  1.00  0.00    -0.383 OA
HETATM   30  C   UNL     1     -39.819 -56.578  16.732  1.00  0.00     0.168 C 
HETATM   31  C   UNL     1     -41.079 -55.772  16.985  1.00  0.00     0.029 C 
HETATM   32  C   UNL     1     -41.167 -54.894  15.759  1.00  0.00     0.036 C 
ENDBRANCH  27  28
BRANCH  27  33
HETATM   33  O   UNL     1     -38.689 -55.279  13.398  1.00  0.00    -0.391 OA
HETATM   34  H   UNL     1     -37.794 -54.947  13.181  1.00  0.00     0.210 HD
ENDBRANCH  27  33
ENDBRANCH  26  27
ENDBRANCH   2  26
TORSDOF 7
ENDMDL
MODEL 6
REMARK VINA RESULT:      -6.6      2.831      3.840
REMARK  7 active torsions:
REMARK  status: ('A' for Active; 'I' for Inactive)
REMARK    1  A    between atoms: N_2  and  C_16 
REMARK    2  A    between atoms: C_6  and  N_7 
REMARK    3  A    between atoms: N_8  and  C_18 
REMARK    4  A    between atoms: C_16  and  C_17 
REMARK    5  A    between atoms: C_17  and  C_24 
REMARK    6  A    between atoms: C_17  and  O_28 
REMARK    7  A    between atoms: C_18  and  C_20 
REMARK       I    between atoms: C_20  and  N_27 
ROOT
HETATM    1  C   UNL     1     -40.397 -49.444  12.786  1.00  0.00     0.117 A 
HETATM    2  N   UNL     1     -40.480 -51.473  13.578  1.00  0.00    -0.325 N 
HETATM    3  C   UNL     1     -39.736 -50.660  12.769  1.00  0.00     0.140 A 
HETATM    4  N   UNL     1     -41.554 -49.529  13.538  1.00  0.00    -0.346 N 
ATOM      5  HN  UNL     1     -42.245 -48.796  13.703  1.00  0.00     0.167 HD
HETATM    6  C   UNL     1     -39.801 -48.378  12.085  1.00  0.00     0.115 A 
HETATM    7  C   UNL     1     -41.568 -50.764  13.993  1.00  0.00     0.185 A 
HETATM    8  N   UNL     1     -38.599 -50.958  12.119  1.00  0.00    -0.336 N 
ATOM      9  HN  UNL     1     -38.153 -51.875  12.123  1.00  0.00     0.168 HD
HETATM   10  N   UNL     1     -38.642 -48.630  11.417  1.00  0.00    -0.341 N 
ATOM     11  HN  UNL     1     -38.170 -47.892  10.895  1.00  0.00     0.167 HD
HETATM   12  C   UNL     1     -38.129 -49.881  11.460  1.00  0.00     0.183 A 
ENDROOT
BRANCH   6  13
HETATM   13  N   UNL     1     -40.382 -47.100  12.075  1.00  0.00    -0.257 NA
HETATM   14  C   UNL     1     -39.586 -46.091  12.791  1.00  0.00     0.200 C 
HETATM   15  C   UNL     1     -40.205 -44.683  12.706  1.00  0.00     0.233 C 
HETATM   16  N   UNL     1     -40.757 -44.352  11.465  1.00  0.00    -0.341 N 
HETATM   17  O   UNL     1     -40.077 -43.865  13.616  1.00  0.00    -0.272 OA
HETATM   18  C   UNL     1     -41.502 -45.392  10.751  1.00  0.00     0.141 C 
HETATM   19  C   UNL     1     -40.748 -46.723  10.707  1.00  0.00     0.117 C 
BRANCH  16  20
HETATM   20  C   UNL     1     -41.107 -42.960  11.189  1.00  0.00     0.228 C 
BRANCH  20  21
HETATM   21  C   UNL     1     -42.608 -42.701  11.368  1.00  0.00     0.233 C 
HETATM   22  O   UNL     1     -43.396 -42.633  10.433  1.00  0.00    -0.272 OA
HETATM   23  N   UNL     1     -43.064 -42.654  12.659  1.00  0.00    -0.369 N 
HETATM   24  H   UNL     1     -42.470 -42.953  13.423  1.00  0.00     0.159 HD
HETATM   25  H   UNL     1     -44.063 -42.596  12.806  1.00  0.00     0.159 HD
ENDBRANCH  20  21
ENDBRANCH  16  20
ENDBRANCH   6  13
BRANCH   2  26
HETATM   26  C   UNL     1     -40.171 -52.828  13.965  1.00  0.00     0.165 C 
BRANCH  26  27
HETATM   27  C   UNL     1     -40.679 -53.908  13.008  1.00  0.00     0.165 C 
BRANCH  27  28
HETATM   28  C   UNL     1     -42.118 -54.381  13.267  1.00  0.00     0.151 C 
HETATM   29  O   UNL     1     -43.019 -53.488  12.572  1.00  0.00    -0.383 OA
HETATM   30  C   UNL     1     -44.263 -53.452  13.291  1.00  0.00     0.168 C 
HETATM   31  C   UNL     1     -44.087 -54.294  14.539  1.00  0.00     0.029 C 
HETATM   32  C   UNL     1     -42.587 -54.330  14.712  1.00  0.00     0.036 C 
ENDBRANCH  27  28
BRANCH  27  33
HETATM   33  O   UNL     1     -40.594 -53.382  11.671  1.00  0.00    -0.391 OA
HETATM   34  H   UNL     1     -41.424 -53.662  11.233  1.00  0.00     0.210 HD
ENDBRANCH  27  33
ENDBRANCH  26  27
ENDBRANCH   2  26
TORSDOF 7
ENDMDL
MODEL 7
REMARK VINA RESULT:      -6.6      2.900      8.918
REMARK  7 active torsions:
REMARK  status: ('A' for Active; 'I' for Inactive)
REMARK    1  A    between atoms: N_2  and  C_16 
REMARK    2  A    between atoms: C_6  and  N_7 
REMARK    3  A    between atoms: N_8  and  C_18 
REMARK    4  A    between atoms: C_16  and  C_17 
REMARK    5  A    between atoms: C_17  and  C_24 
REMARK    6  A    between atoms: C_17  and  O_28 
REMARK    7  A    between atoms: C_18  and  C_20 
REMARK       I    between atoms: C_20  and  N_27 
ROOT
HETATM    1  C   UNL     1     -41.935 -49.213  11.905  1.00  0.00     0.117 A 
HETATM    2  N   UNL     1     -42.545 -47.482  10.730  1.00  0.00    -0.325 N 
HETATM    3  C   UNL     1     -41.440 -48.108  11.235  1.00  0.00     0.140 A 
HETATM    4  N   UNL     1     -43.317 -49.230  11.864  1.00  0.00    -0.346 N 
ATOM      5  HN  UNL     1     -43.945 -49.911  12.292  1.00  0.00     0.167 HD
HETATM    6  C   UNL     1     -40.996 -50.098  12.470  1.00  0.00     0.115 A 
HETATM    7  C   UNL     1     -43.643 -48.171  11.153  1.00  0.00     0.185 A 
HETATM    8  N   UNL     1     -40.153 -47.752  11.096  1.00  0.00    -0.336 N 
ATOM      9  HN  UNL     1     -39.833 -46.917  10.604  1.00  0.00     0.168 HD
HETATM   10  N   UNL     1     -39.677 -49.782  12.346  1.00  0.00    -0.341 N 
ATOM     11  HN  UNL     1     -38.957 -50.390  12.736  1.00  0.00     0.167 HD
HETATM   12  C   UNL     1     -39.341 -48.646  11.693  1.00  0.00     0.183 A 
ENDROOT
BRANCH   6  13
HETATM   13  N   UNL     1     -41.405 -51.262  13.137  1.00  0.00    -0.257 NA
HETATM   14  C   UNL     1     -42.402 -51.013  14.190  1.00  0.00     0.200 C 
HETATM   15  C   UNL     1     -42.889 -52.312  14.859  1.00  0.00     0.233 C 
HETATM   16  N   UNL     1     -43.079 -53.392  13.992  1.00  0.00    -0.341 N 
HETATM   17  O   UNL     1     -43.234 -52.340  16.040  1.00  0.00    -0.272 OA
HETATM   18  C   UNL     1     -42.097 -53.586  12.922  1.00  0.00     0.141 C 
HETATM   19  C   UNL     1     -41.793 -52.290  12.168  1.00  0.00     0.117 C 
BRANCH  16  20
HETATM   20  C   UNL     1     -43.803 -54.569  14.466  1.00  0.00     0.228 C 
BRANCH  20  21
HETATM   21  C   UNL     1     -45.164 -54.719  13.776  1.00  0.00     0.233 C 
HETATM   22  O   UNL     1     -45.851 -55.730  13.851  1.00  0.00    -0.272 OA
HETATM   23  N   UNL     1     -45.646 -53.604  13.140  1.00  0.00    -0.369 N 
HETATM   24  H   UNL     1     -45.206 -52.703  13.283  1.00  0.00     0.159 HD
HETATM   25  H   UNL     1     -46.588 -53.640  12.772  1.00  0.00     0.159 HD
ENDBRANCH  20  21
ENDBRANCH  16  20
ENDBRANCH   6  13
BRANCH   2  26
HETATM   26  C   UNL     1     -42.568 -46.321   9.875  1.00  0.00     0.165 C 
BRANCH  26  27
HETATM   27  C   UNL     1     -42.961 -45.014  10.565  1.00  0.00     0.165 C 
BRANCH  27  28
HETATM   28  C   UNL     1     -41.785 -44.178  11.094  1.00  0.00     0.151 C 
HETATM   29  O   UNL     1     -40.593 -44.569  10.373  1.00  0.00    -0.383 OA
HETATM   30  C   UNL     1     -39.459 -44.365  11.232  1.00  0.00     0.168 C 
HETATM   31  C   UNL     1     -39.989 -43.913  12.579  1.00  0.00     0.029 C 
HETATM   32  C   UNL     1     -41.422 -44.390  12.555  1.00  0.00     0.036 C 
ENDBRANCH  27  28
BRANCH  27  33
HETATM   33  O   UNL     1     -43.704 -44.226   9.616  1.00  0.00    -0.391 OA
HETATM   34  H   UNL     1     -43.796 -44.796   8.826  1.00  0.00     0.210 HD
ENDBRANCH  27  33
ENDBRANCH  26  27
ENDBRANCH   2  26
TORSDOF 7
ENDMDL
MODEL 8
REMARK VINA RESULT:      -6.6      3.412      4.291
REMARK  7 active torsions:
REMARK  status: ('A' for Active; 'I' for Inactive)
REMARK    1  A    between atoms: N_2  and  C_16 
REMARK    2  A    between atoms: C_6  and  N_7 
REMARK    3  A    between atoms: N_8  and  C_18 
REMARK    4  A    between atoms: C_16  and  C_17 
REMARK    5  A    between atoms: C_17  and  C_24 
REMARK    6  A    between atoms: C_17  and  O_28 
REMARK    7  A    between atoms: C_18  and  C_20 
REMARK       I    between atoms: C_20  and  N_27 
ROOT
HETATM    1  C   UNL     1     -41.942 -50.462  12.396  1.00  0.00     0.117 A 
HETATM    2  N   UNL     1     -42.267 -52.595  12.701  1.00  0.00    -0.325 N 
HETATM    3  C   UNL     1     -42.625 -51.369  13.188  1.00  0.00     0.140 A 
HETATM    4  N   UNL     1     -41.136 -51.119  11.486  1.00  0.00    -0.346 N 
ATOM      5  HN  UNL     1     -40.508 -50.704  10.797  1.00  0.00     0.167 HD
HETATM    6  C   UNL     1     -42.186 -49.094  12.628  1.00  0.00     0.115 A 
HETATM    7  C   UNL     1     -41.358 -52.397  11.705  1.00  0.00     0.185 A 
HETATM    8  N   UNL     1     -43.470 -51.094  14.195  1.00  0.00    -0.336 N 
ATOM      9  HN  UNL     1     -43.942 -51.797  14.763  1.00  0.00     0.168 HD
HETATM   10  N   UNL     1     -43.044 -48.766  13.634  1.00  0.00    -0.341 N 
ATOM     11  HN  UNL     1     -43.254 -47.790  13.841  1.00  0.00     0.167 HD
HETATM   12  C   UNL     1     -43.612 -49.763  14.351  1.00  0.00     0.183 A 
ENDROOT
BRANCH   6  13
HETATM   13  N   UNL     1     -41.566 -48.103  11.851  1.00  0.00    -0.257 NA
HETATM   14  C   UNL     1     -42.513 -47.139  11.270  1.00  0.00     0.200 C 
HETATM   15  C   UNL     1     -41.805 -46.021  10.482  1.00  0.00     0.233 C 
HETATM   16  N   UNL     1     -40.624 -45.544  11.058  1.00  0.00    -0.341 N 
HETATM   17  O   UNL     1     -42.330 -45.487   9.506  1.00  0.00    -0.272 OA
HETATM   18  C   UNL     1     -39.724 -46.522  11.675  1.00  0.00     0.141 C 
HETATM   19  C   UNL     1     -40.463 -47.493  12.598  1.00  0.00     0.117 C 
BRANCH  16  20
HETATM   20  C   UNL     1     -40.033 -44.305  10.555  1.00  0.00     0.228 C 
BRANCH  20  21
HETATM   21  C   UNL     1     -40.321 -43.118  11.481  1.00  0.00     0.233 C 
HETATM   22  O   UNL     1     -39.826 -42.995  12.594  1.00  0.00    -0.272 OA
HETATM   23  N   UNL     1     -41.094 -42.114  10.958  1.00  0.00    -0.369 N 
HETATM   24  H   UNL     1     -41.300 -42.092   9.966  1.00  0.00     0.159 HD
HETATM   25  H   UNL     1     -41.209 -41.271  11.504  1.00  0.00     0.159 HD
ENDBRANCH  20  21
ENDBRANCH  16  20
ENDBRANCH   6  13
BRANCH   2  26
HETATM   26  C   UNL     1     -42.772 -53.877  13.127  1.00  0.00     0.165 C 
BRANCH  26  27
HETATM   27  C   UNL     1     -44.227 -54.159  12.751  1.00  0.00     0.165 C 
BRANCH  27  28
HETATM   28  C   UNL     1     -45.195 -54.277  13.940  1.00  0.00     0.151 C 
HETATM   29  O   UNL     1     -45.994 -53.071  13.993  1.00  0.00    -0.383 OA
HETATM   30  C   UNL     1     -46.366 -52.837  15.360  1.00  0.00     0.168 C 
HETATM   31  C   UNL     1     -45.689 -53.901  16.202  1.00  0.00     0.029 C 
HETATM   32  C   UNL     1     -44.555 -54.358  15.315  1.00  0.00     0.036 C 
ENDBRANCH  27  28
BRANCH  27  33
HETATM   33  O   UNL     1     -44.671 -53.093  11.892  1.00  0.00    -0.391 OA
HETATM   34  H   UNL     1     -45.503 -52.771  12.294  1.00  0.00     0.210 HD
ENDBRANCH  27  33
ENDBRANCH  26  27
ENDBRANCH   2  26
TORSDOF 7
ENDMDL
MODEL 9
REMARK VINA RESULT:      -6.4      3.264      4.214
REMARK  7 active torsions:
REMARK  status: ('A' for Active; 'I' for Inactive)
REMARK    1  A    between atoms: N_2  and  C_16 
REMARK    2  A    between atoms: C_6  and  N_7 
REMARK    3  A    between atoms: N_8  and  C_18 
REMARK    4  A    between atoms: C_16  and  C_17 
REMARK    5  A    between atoms: C_17  and  C_24 
REMARK    6  A    between atoms: C_17  and  O_28 
REMARK    7  A    between atoms: C_18  and  C_20 
REMARK       I    between atoms: C_20  and  N_27 
ROOT
HETATM    1  C   UNL     1     -40.537 -49.380  13.493  1.00  0.00     0.117 A 
HETATM    2  N   UNL     1     -40.169 -51.492  13.888  1.00  0.00    -0.325 N 
HETATM    3  C   UNL     1     -40.230 -50.579  12.872  1.00  0.00     0.140 A 
HETATM    4  N   UNL     1     -40.720 -49.567  14.851  1.00  0.00    -0.346 N 
ATOM      5  HN  UNL     1     -40.975 -48.866  15.547  1.00  0.00     0.167 HD
HETATM    6  C   UNL     1     -40.590 -48.230  12.682  1.00  0.00     0.115 A 
HETATM    7  C   UNL     1     -40.493 -50.849  15.045  1.00  0.00     0.185 A 
HETATM    8  N   UNL     1     -40.018 -50.785  11.563  1.00  0.00    -0.336 N 
ATOM      9  HN  UNL     1     -39.808 -51.691  11.145  1.00  0.00     0.168 HD
HETATM   10  N   UNL     1     -40.371 -48.388  11.347  1.00  0.00    -0.341 N 
ATOM     11  HN  UNL     1     -40.397 -47.587  10.717  1.00  0.00     0.167 HD
HETATM   12  C   UNL     1     -40.118 -49.631  10.874  1.00  0.00     0.183 A 
ENDROOT
BRANCH   6  13
HETATM   13  N   UNL     1     -40.858 -46.967  13.229  1.00  0.00    -0.257 NA
HETATM   14  C   UNL     1     -39.654 -46.269  13.706  1.00  0.00     0.200 C 
HETATM   15  C   UNL     1     -39.963 -44.856  14.236  1.00  0.00     0.233 C 
HETATM   16  N   UNL     1     -40.911 -44.140  13.500  1.00  0.00    -0.341 N 
HETATM   17  O   UNL     1     -39.305 -44.348  15.142  1.00  0.00    -0.272 OA
HETATM   18  C   UNL     1     -42.075 -44.872  12.994  1.00  0.00     0.141 C 
HETATM   19  C   UNL     1     -41.686 -46.184  12.308  1.00  0.00     0.117 C 
BRANCH  16  20
HETATM   20  C   UNL     1     -41.066 -42.706  13.738  1.00  0.00     0.228 C 
BRANCH  20  21
HETATM   21  C   UNL     1     -40.133 -41.875  12.849  1.00  0.00     0.233 C 
HETATM   22  O   UNL     1     -39.042 -41.459  13.220  1.00  0.00    -0.272 OA
HETATM   23  N   UNL     1     -40.531 -41.701  11.549  1.00  0.00    -0.369 N 
HETATM   24  H   UNL     1     -41.299 -42.243  11.172  1.00  0.00     0.159 HD
HETATM   25  H   UNL     1     -39.885 -41.253  10.913  1.00  0.00     0.159 HD
ENDBRANCH  20  21
ENDBRANCH  16  20
ENDBRANCH   6  13
BRANCH   2  26
HETATM   26  C   UNL     1     -39.797 -52.881  13.783  1.00  0.00     0.165 C 
BRANCH  26  27
HETATM   27  C   UNL     1     -40.841 -53.785  13.125  1.00  0.00     0.165 C 
BRANCH  27  28
HETATM   28  C   UNL     1     -42.303 -53.400  13.403  1.00  0.00     0.151 C 
HETATM   29  O   UNL     1     -42.997 -54.577  13.877  1.00  0.00    -0.383 OA
HETATM   30  C   UNL     1     -44.380 -54.468  13.501  1.00  0.00     0.168 C 
HETATM   31  C   UNL     1     -44.524 -53.204  12.677  1.00  0.00     0.029 C 
HETATM   32  C   UNL     1     -43.114 -52.951  12.199  1.00  0.00     0.036 C 
ENDBRANCH  27  28
BRANCH  27  33
HETATM   33  O   UNL     1     -40.612 -53.754  11.705  1.00  0.00    -0.391 OA
HETATM   34  H   UNL     1     -39.657 -53.937  11.595  1.00  0.00     0.210 HD
ENDBRANCH  27  33
ENDBRANCH  26  27
ENDBRANCH   2  26
TORSDOF 7
ENDMDL
