MODEL 1
REMARK VINA RESULT:      -6.1      0.000      0.000
REMARK  9 active torsions:
REMARK  status: ('A' for Active; 'I' for Inactive)
REMARK    1  A    between atoms: N_2  and  C_3 
REMARK    2  A    between atoms: N_2  and  C_19 
REMARK    3  A    between atoms: C_3  and  C_4 
REMARK    4  A    between atoms: C_4  and  O_5 
REMARK    5  A    between atoms: C_4  and  C_6 
REMARK    6  A    between atoms: C_6  and  N_7 
REMARK    7  A    between atoms: C_8  and  C_9 
REMARK    8  A    between atoms: C_9  and  O_10 
REMARK    9  A    between atoms: C_19  and  C_20 
ROOT
HETATM    1  C   UNL     1     -40.935 -52.664  11.975  1.00  0.00     0.164 C 
ENDROOT
BRANCH   1   2
HETATM    2  C   UNL     1     -41.524 -51.241  11.958  1.00  0.00     0.164 C 
BRANCH   2   3
HETATM    3  C   UNL     1     -41.313 -50.568  13.348  1.00  0.00     0.305 C 
BRANCH   3   4
HETATM    4  N   UNL     1     -42.531 -50.062  14.028  1.00  0.00     0.090 N 
HETATM    5  C   UNL     1     -42.371 -48.677  14.490  1.00  0.00     0.310 C 
BRANCH   4   6
HETATM    6  C   UNL     1     -42.890 -50.897  15.193  1.00  0.00     0.310 C 
BRANCH   6   7
HETATM    7  C   UNL     1     -44.356 -51.253  15.297  1.00  0.00    -0.030 A 
HETATM    8  C   UNL     1     -45.229 -50.970  14.236  1.00  0.00     0.009 A 
HETATM    9  C   UNL     1     -46.572 -51.344  14.304  1.00  0.00     0.001 A 
HETATM   10  C   UNL     1     -47.056 -52.004  15.431  1.00  0.00     0.000 A 
HETATM   11  C   UNL     1     -46.199 -52.291  16.492  1.00  0.00     0.001 A 
HETATM   12  C   UNL     1     -44.855 -51.919  16.426  1.00  0.00     0.009 A 
ENDBRANCH   6   7
ENDBRANCH   4   6
ENDBRANCH   3   4
ENDBRANCH   2   3
BRANCH   2  13
HETATM   13  O   UNL     1     -40.884 -50.486  10.922  1.00  0.00    -0.392 OA
HETATM   14  H   UNL     1     -40.609 -51.096  10.221  1.00  0.00     0.210 HD
ENDBRANCH   2  13
ENDBRANCH   1   2
BRANCH   1  15
HETATM   15  N   UNL     1     -41.416 -53.479  13.081  1.00  0.00    -0.330 N 
HETATM   16  C   UNL     1     -40.680 -53.952  14.149  1.00  0.00     0.108 A 
HETATM   17  N   UNL     1     -41.436 -54.680  14.952  1.00  0.00    -0.342 N 
HETATM   18  C   UNL     1     -42.697 -54.644  14.417  1.00  0.00     0.060 A 
ATOM     19  HN  UNL     1     -41.142 -55.169  15.797  1.00  0.00     0.167 HD
HETATM   20  C   UNL     1     -43.889 -55.205  14.902  1.00  0.00     0.032 A 
HETATM   21  C   UNL     1     -42.715 -53.922  13.228  1.00  0.00     0.062 A 
HETATM   22  C   UNL     1     -45.072 -55.022  14.172  1.00  0.00     0.002 A 
HETATM   23  C   UNL     1     -45.065 -54.304  12.977  1.00  0.00     0.002 A 
HETATM   24  C   UNL     1     -43.884 -53.743  12.476  1.00  0.00     0.032 A 
BRANCH  16  25
HETATM   25  C   UNL     1     -39.240 -53.654  14.381  1.00  0.00     0.240 C 
BRANCH  25  26
HETATM   26  O   UNL     1     -38.467 -54.482  13.517  1.00  0.00    -0.393 OA
HETATM   27  H   UNL     1     -38.803 -54.307  12.621  1.00  0.00     0.209 HD
ENDBRANCH  25  26
ENDBRANCH  16  25
ENDBRANCH   1  15
TORSDOF 9
ENDMDL
MODEL 2
REMARK VINA RESULT:      -6.1      3.415      4.720
REMARK  9 active torsions:
REMARK  status: ('A' for Active; 'I' for Inactive)
REMARK    1  A    between atoms: N_2  and  C_3 
REMARK    2  A    between atoms: N_2  and  C_19 
REMARK    3  A    between atoms: C_3  and  C_4 
REMARK    4  A    between atoms: C_4  and  O_5 
REMARK    5  A    between atoms: C_4  and  C_6 
REMARK    6  A    between atoms: C_6  and  N_7 
REMARK    7  A    between atoms: C_8  and  C_9 
REMARK    8  A    between atoms: C_9  and  O_10 
REMARK    9  A    between atoms: C_19  and  C_20 
ROOT
HETATM    1  C   UNL     1     -41.761 -50.686  13.195  1.00  0.00     0.164 C 
ENDROOT
BRANCH   1   2
HETATM    2  C   UNL     1     -41.700 -49.912  11.865  1.00  0.00     0.164 C 
BRANCH   2   3
HETATM    3  C   UNL     1     -41.230 -48.450  12.128  1.00  0.00     0.305 C 
BRANCH   3   4
HETATM    4  N   UNL     1     -41.505 -47.465  11.053  1.00  0.00     0.090 N 
HETATM    5  C   UNL     1     -40.650 -46.275  11.161  1.00  0.00     0.310 C 
BRANCH   4   6
HETATM    6  C   UNL     1     -42.915 -47.022  11.070  1.00  0.00     0.310 C 
BRANCH   6   7
HETATM    7  C   UNL     1     -43.725 -47.419   9.856  1.00  0.00    -0.030 A 
HETATM    8  C   UNL     1     -43.083 -47.719   8.645  1.00  0.00     0.009 A 
HETATM    9  C   UNL     1     -43.820 -48.137   7.536  1.00  0.00     0.001 A 
HETATM   10  C   UNL     1     -45.204 -48.261   7.626  1.00  0.00     0.000 A 
HETATM   11  C   UNL     1     -45.855 -47.967   8.823  1.00  0.00     0.001 A 
HETATM   12  C   UNL     1     -45.119 -47.549   9.934  1.00  0.00     0.009 A 
ENDBRANCH   6   7
ENDBRANCH   4   6
ENDBRANCH   3   4
ENDBRANCH   2   3
BRANCH   2  13
HETATM   13  O   UNL     1     -40.801 -50.587  10.976  1.00  0.00    -0.392 OA
HETATM   14  H   UNL     1     -40.189 -51.122  11.504  1.00  0.00     0.210 HD
ENDBRANCH   2  13
ENDBRANCH   1   2
BRANCH   1  15
HETATM   15  N   UNL     1     -42.585 -51.884  13.133  1.00  0.00    -0.330 N 
HETATM   16  C   UNL     1     -42.166 -53.171  12.861  1.00  0.00     0.108 A 
HETATM   17  N   UNL     1     -43.189 -54.007  12.862  1.00  0.00    -0.342 N 
HETATM   18  C   UNL     1     -44.288 -53.255  13.183  1.00  0.00     0.060 A 
ATOM     19  HN  UNL     1     -43.166 -55.007  12.665  1.00  0.00     0.167 HD
HETATM   20  C   UNL     1     -45.620 -53.656  13.372  1.00  0.00     0.032 A 
HETATM   21  C   UNL     1     -43.950 -51.914  13.333  1.00  0.00     0.062 A 
HETATM   22  C   UNL     1     -46.579 -52.691  13.710  1.00  0.00     0.002 A 
HETATM   23  C   UNL     1     -46.221 -51.350  13.844  1.00  0.00     0.002 A 
HETATM   24  C   UNL     1     -44.899 -50.932  13.653  1.00  0.00     0.032 A 
BRANCH  16  25
HETATM   25  C   UNL     1     -40.749 -53.567  12.630  1.00  0.00     0.240 C 
BRANCH  25  26
HETATM   26  O   UNL     1     -40.486 -53.497  11.233  1.00  0.00    -0.393 OA
HETATM   27  H   UNL     1     -40.671 -54.388  10.889  1.00  0.00     0.209 HD
ENDBRANCH  25  26
ENDBRANCH  16  25
ENDBRANCH   1  15
TORSDOF 9
ENDMDL
MODEL 3
REMARK VINA RESULT:      -5.7      2.345      5.095
REMARK  9 active torsions:
REMARK  status: ('A' for Active; 'I' for Inactive)
REMARK    1  A    between atoms: N_2  and  C_3 
REMARK    2  A    between atoms: N_2  and  C_19 
REMARK    3  A    between atoms: C_3  and  C_4 
REMARK    4  A    between atoms: C_4  and  O_5 
REMARK    5  A    between atoms: C_4  and  C_6 
REMARK    6  A    between atoms: C_6  and  N_7 
REMARK    7  A    between atoms: C_8  and  C_9 
REMARK    8  A    between atoms: C_9  and  O_10 
REMARK    9  A    between atoms: C_19  and  C_20 
ROOT
HETATM    1  C   UNL     1     -41.253 -51.541  13.154  1.00  0.00     0.164 C 
ENDROOT
BRANCH   1   2
HETATM    2  C   UNL     1     -40.840 -52.798  12.365  1.00  0.00     0.164 C 
BRANCH   2   3
HETATM    3  C   UNL     1     -41.395 -54.070  13.075  1.00  0.00     0.305 C 
BRANCH   3   4
HETATM    4  N   UNL     1     -42.038 -53.861  14.395  1.00  0.00     0.090 N 
HETATM    5  C   UNL     1     -41.304 -54.527  15.480  1.00  0.00     0.310 C 
BRANCH   4   6
HETATM    6  C   UNL     1     -43.429 -54.360  14.407  1.00  0.00     0.310 C 
BRANCH   6   7
HETATM    7  C   UNL     1     -44.482 -53.326  14.074  1.00  0.00    -0.030 A 
HETATM    8  C   UNL     1     -45.080 -53.310  12.805  1.00  0.00     0.009 A 
HETATM    9  C   UNL     1     -46.089 -52.392  12.508  1.00  0.00     0.001 A 
HETATM   10  C   UNL     1     -46.511 -51.483  13.475  1.00  0.00     0.000 A 
HETATM   11  C   UNL     1     -45.925 -51.489  14.740  1.00  0.00     0.001 A 
HETATM   12  C   UNL     1     -44.916 -52.406  15.040  1.00  0.00     0.009 A 
ENDBRANCH   6   7
ENDBRANCH   4   6
ENDBRANCH   3   4
ENDBRANCH   2   3
BRANCH   2  13
HETATM   13  O   UNL     1     -41.348 -52.695  11.029  1.00  0.00    -0.392 OA
HETATM   14  H   UNL     1     -41.770 -53.536  10.794  1.00  0.00     0.210 HD
ENDBRANCH   2  13
ENDBRANCH   1   2
BRANCH   1  15
HETATM   15  N   UNL     1     -40.207 -50.532  13.227  1.00  0.00    -0.330 N 
HETATM   16  C   UNL     1     -40.008 -49.473  12.363  1.00  0.00     0.108 A 
HETATM   17  N   UNL     1     -38.946 -48.772  12.719  1.00  0.00    -0.342 N 
HETATM   18  C   UNL     1     -38.470 -49.363  13.859  1.00  0.00     0.060 A 
ATOM     19  HN  UNL     1     -38.559 -47.958  12.243  1.00  0.00     0.167 HD
HETATM   20  C   UNL     1     -37.393 -48.986  14.678  1.00  0.00     0.032 A 
HETATM   21  C   UNL     1     -39.220 -50.486  14.191  1.00  0.00     0.062 A 
HETATM   22  C   UNL     1     -37.101 -49.755  15.813  1.00  0.00     0.002 A 
HETATM   23  C   UNL     1     -37.859 -50.884  16.121  1.00  0.00     0.002 A 
HETATM   24  C   UNL     1     -38.932 -51.277  15.312  1.00  0.00     0.032 A 
BRANCH  16  25
HETATM   25  C   UNL     1     -40.891 -49.147  11.210  1.00  0.00     0.240 C 
BRANCH  25  26
HETATM   26  O   UNL     1     -40.498 -49.952  10.103  1.00  0.00    -0.393 OA
HETATM   27  H   UNL     1     -41.048 -50.753  10.157  1.00  0.00     0.209 HD
ENDBRANCH  25  26
ENDBRANCH  16  25
ENDBRANCH   1  15
TORSDOF 9
ENDMDL
MODEL 4
REMARK VINA RESULT:      -5.6      2.438      4.880
REMARK  9 active torsions:
REMARK  status: ('A' for Active; 'I' for Inactive)
REMARK    1  A    between atoms: N_2  and  C_3 
REMARK    2  A    between atoms: N_2  and  C_19 
REMARK    3  A    between atoms: C_3  and  C_4 
REMARK    4  A    between atoms: C_4  and  O_5 
REMARK    5  A    between atoms: C_4  and  C_6 
REMARK    6  A    between atoms: C_6  and  N_7 
REMARK    7  A    between atoms: C_8  and  C_9 
REMARK    8  A    between atoms: C_9  and  O_10 
REMARK    9  A    between atoms: C_19  and  C_20 
ROOT
HETATM    1  C   UNL     1     -40.882 -51.439  13.142  1.00  0.00     0.164 C 
ENDROOT
BRANCH   1   2
HETATM    2  C   UNL     1     -40.961 -52.674  12.224  1.00  0.00     0.164 C 
BRANCH   2   3
HETATM    3  C   UNL     1     -41.177 -53.955  13.084  1.00  0.00     0.305 C 
BRANCH   3   4
HETATM    4  N   UNL     1     -41.969 -53.790  14.327  1.00  0.00     0.090 N 
HETATM    5  C   UNL     1     -41.322 -54.424  15.485  1.00  0.00     0.310 C 
BRANCH   4   6
HETATM    6  C   UNL     1     -43.324 -54.363  14.188  1.00  0.00     0.310 C 
BRANCH   6   7
HETATM    7  C   UNL     1     -44.428 -53.350  13.979  1.00  0.00    -0.030 A 
HETATM    8  C   UNL     1     -44.707 -52.395  14.968  1.00  0.00     0.009 A 
HETATM    9  C   UNL     1     -45.689 -51.425  14.760  1.00  0.00     0.001 A 
HETATM   10  C   UNL     1     -46.399 -51.397  13.561  1.00  0.00     0.000 A 
HETATM   11  C   UNL     1     -46.131 -52.341  12.571  1.00  0.00     0.001 A 
HETATM   12  C   UNL     1     -45.149 -53.312  12.777  1.00  0.00     0.009 A 
ENDBRANCH   6   7
ENDBRANCH   4   6
ENDBRANCH   3   4
ENDBRANCH   2   3
BRANCH   2  13
HETATM   13  O   UNL     1     -42.038 -52.494  11.296  1.00  0.00    -0.392 OA
HETATM   14  H   UNL     1     -41.664 -52.370  10.410  1.00  0.00     0.210 HD
ENDBRANCH   2  13
ENDBRANCH   1   2
BRANCH   1  15
HETATM   15  N   UNL     1     -40.477 -50.226  12.449  1.00  0.00    -0.330 N 
HETATM   16  C   UNL     1     -39.193 -49.851  12.106  1.00  0.00     0.108 A 
HETATM   17  N   UNL     1     -39.194 -48.674  11.506  1.00  0.00    -0.342 N 
HETATM   18  C   UNL     1     -40.507 -48.296  11.420  1.00  0.00     0.060 A 
ATOM     19  HN  UNL     1     -38.382 -48.153  11.175  1.00  0.00     0.167 HD
HETATM   20  C   UNL     1     -41.072 -47.157  10.825  1.00  0.00     0.032 A 
HETATM   21  C   UNL     1     -41.337 -49.233  12.025  1.00  0.00     0.062 A 
HETATM   22  C   UNL     1     -42.463 -46.993  10.856  1.00  0.00     0.002 A 
HETATM   23  C   UNL     1     -43.276 -47.939  11.479  1.00  0.00     0.002 A 
HETATM   24  C   UNL     1     -42.729 -49.077  12.082  1.00  0.00     0.032 A 
BRANCH  16  25
HETATM   25  C   UNL     1     -37.978 -50.677  12.350  1.00  0.00     0.240 C 
BRANCH  25  26
HETATM   26  O   UNL     1     -37.438 -51.061  11.090  1.00  0.00    -0.393 OA
HETATM   27  H   UNL     1     -36.752 -50.400  10.889  1.00  0.00     0.209 HD
ENDBRANCH  25  26
ENDBRANCH  16  25
ENDBRANCH   1  15
TORSDOF 9
ENDMDL
MODEL 5
REMARK VINA RESULT:      -5.6      3.368      6.627
REMARK  9 active torsions:
REMARK  status: ('A' for Active; 'I' for Inactive)
REMARK    1  A    between atoms: N_2  and  C_3 
REMARK    2  A    between atoms: N_2  and  C_19 
REMARK    3  A    between atoms: C_3  and  C_4 
REMARK    4  A    between atoms: C_4  and  O_5 
REMARK    5  A    between atoms: C_4  and  C_6 
REMARK    6  A    between atoms: C_6  and  N_7 
REMARK    7  A    between atoms: C_8  and  C_9 
REMARK    8  A    between atoms: C_9  and  O_10 
REMARK    9  A    between atoms: C_19  and  C_20 
ROOT
HETATM    1  C   UNL     1     -41.751 -48.810  11.938  1.00  0.00     0.164 C 
ENDROOT
BRANCH   1   2
HETATM    2  C   UNL     1     -40.666 -49.844  11.578  1.00  0.00     0.164 C 
BRANCH   2   3
HETATM    3  C   UNL     1     -41.041 -51.231  12.183  1.00  0.00     0.305 C 
BRANCH   3   4
HETATM    4  N   UNL     1     -41.778 -51.212  13.470  1.00  0.00     0.090 N 
HETATM    5  C   UNL     1     -40.875 -51.278  14.627  1.00  0.00     0.310 C 
BRANCH   4   6
HETATM    6  C   UNL     1     -42.731 -52.338  13.566  1.00  0.00     0.310 C 
BRANCH   6   7
HETATM    7  C   UNL     1     -44.151 -51.945  13.911  1.00  0.00    -0.030 A 
HETATM    8  C   UNL     1     -45.148 -51.960  12.924  1.00  0.00     0.009 A 
HETATM    9  C   UNL     1     -46.470 -51.649  13.246  1.00  0.00     0.001 A 
HETATM   10  C   UNL     1     -46.809 -51.323  14.557  1.00  0.00     0.000 A 
HETATM   11  C   UNL     1     -45.829 -51.305  15.548  1.00  0.00     0.001 A 
HETATM   12  C   UNL     1     -44.505 -51.616  15.227  1.00  0.00     0.009 A 
ENDBRANCH   6   7
ENDBRANCH   4   6
ENDBRANCH   3   4
ENDBRANCH   2   3
BRANCH   2  13
HETATM   13  O   UNL     1     -40.553 -49.921  10.152  1.00  0.00    -0.392 OA
HETATM   14  H   UNL     1     -40.683 -50.843   9.882  1.00  0.00     0.210 HD
ENDBRANCH   2  13
ENDBRANCH   1   2
BRANCH   1  15
HETATM   15  N   UNL     1     -41.472 -47.476  11.429  1.00  0.00    -0.330 N 
HETATM   16  C   UNL     1     -42.026 -46.875  10.317  1.00  0.00     0.108 A 
HETATM   17  N   UNL     1     -41.523 -45.667  10.137  1.00  0.00    -0.342 N 
HETATM   18  C   UNL     1     -40.655 -45.463  11.177  1.00  0.00     0.060 A 
ATOM     19  HN  UNL     1     -41.736 -45.018   9.380  1.00  0.00     0.167 HD
HETATM   20  C   UNL     1     -39.896 -44.326  11.497  1.00  0.00     0.032 A 
HETATM   21  C   UNL     1     -40.578 -46.587  11.992  1.00  0.00     0.062 A 
HETATM   22  C   UNL     1     -39.077 -44.354  12.634  1.00  0.00     0.002 A 
HETATM   23  C   UNL     1     -39.005 -45.496  13.430  1.00  0.00     0.002 A 
HETATM   24  C   UNL     1     -39.751 -46.640  13.123  1.00  0.00     0.032 A 
BRANCH  16  25
HETATM   25  C   UNL     1     -43.073 -47.493   9.457  1.00  0.00     0.240 C 
BRANCH  25  26
HETATM   26  O   UNL     1     -42.429 -48.300   8.476  1.00  0.00    -0.393 OA
HETATM   27  H   UNL     1     -43.110 -48.920   8.162  1.00  0.00     0.209 HD
ENDBRANCH  25  26
ENDBRANCH  16  25
ENDBRANCH   1  15
TORSDOF 9
ENDMDL
MODEL 6
REMARK VINA RESULT:      -5.5      2.437      5.113
REMARK  9 active torsions:
REMARK  status: ('A' for Active; 'I' for Inactive)
REMARK    1  A    between atoms: N_2  and  C_3 
REMARK    2  A    between atoms: N_2  and  C_19 
REMARK    3  A    between atoms: C_3  and  C_4 
REMARK    4  A    between atoms: C_4  and  O_5 
REMARK    5  A    between atoms: C_4  and  C_6 
REMARK    6  A    between atoms: C_6  and  N_7 
REMARK    7  A    between atoms: C_8  and  C_9 
REMARK    8  A    between atoms: C_9  and  O_10 
REMARK    9  A    between atoms: C_19  and  C_20 
ROOT
HETATM    1  C   UNL     1     -42.254 -49.946  13.371  1.00  0.00     0.164 C 
ENDROOT
BRANCH   1   2
HETATM    2  C   UNL     1     -42.681 -48.822  12.408  1.00  0.00     0.164 C 
BRANCH   2   3
HETATM    3  C   UNL     1     -42.079 -47.465  12.883  1.00  0.00     0.305 C 
BRANCH   3   4
HETATM    4  N   UNL     1     -40.855 -47.542  13.718  1.00  0.00     0.090 N 
HETATM    5  C   UNL     1     -40.818 -46.492  14.744  1.00  0.00     0.310 C 
BRANCH   4   6
HETATM    6  C   UNL     1     -39.630 -47.429  12.899  1.00  0.00     0.310 C 
BRANCH   6   7
HETATM    7  C   UNL     1     -38.768 -48.672  12.863  1.00  0.00    -0.030 A 
HETATM    8  C   UNL     1     -38.448 -49.345  14.051  1.00  0.00     0.009 A 
HETATM    9  C   UNL     1     -37.697 -50.521  14.020  1.00  0.00     0.001 A 
HETATM   10  C   UNL     1     -37.260 -51.037  12.802  1.00  0.00     0.000 A 
HETATM   11  C   UNL     1     -37.571 -50.378  11.614  1.00  0.00     0.001 A 
HETATM   12  C   UNL     1     -38.323 -49.201  11.643  1.00  0.00     0.009 A 
ENDBRANCH   6   7
ENDBRANCH   4   6
ENDBRANCH   3   4
ENDBRANCH   2   3
BRANCH   2  13
HETATM   13  O   UNL     1     -42.231 -49.146  11.086  1.00  0.00    -0.392 OA
HETATM   14  H   UNL     1     -42.004 -48.323  10.627  1.00  0.00     0.210 HD
ENDBRANCH   2  13
ENDBRANCH   1   2
BRANCH   1  15
HETATM   15  N   UNL     1     -42.860 -51.233  13.066  1.00  0.00    -0.330 N 
HETATM   16  C   UNL     1     -42.286 -52.283  12.378  1.00  0.00     0.108 A 
HETATM   17  N   UNL     1     -43.135 -53.288  12.264  1.00  0.00    -0.342 N 
HETATM   18  C   UNL     1     -44.268 -52.901  12.928  1.00  0.00     0.060 A 
ATOM     19  HN  UNL     1     -42.979 -54.173  11.782  1.00  0.00     0.167 HD
HETATM   20  C   UNL     1     -45.456 -53.612  13.159  1.00  0.00     0.032 A 
HETATM   21  C   UNL     1     -44.141 -51.606  13.420  1.00  0.00     0.062 A 
HETATM   22  C   UNL     1     -46.487 -52.998  13.884  1.00  0.00     0.002 A 
HETATM   23  C   UNL     1     -46.343 -51.694  14.357  1.00  0.00     0.002 A 
HETATM   24  C   UNL     1     -45.168 -50.968  14.131  1.00  0.00     0.032 A 
BRANCH  16  25
HETATM   25  C   UNL     1     -40.888 -52.292  11.863  1.00  0.00     0.240 C 
BRANCH  25  26
HETATM   26  O   UNL     1     -40.575 -53.616  11.444  1.00  0.00    -0.393 OA
HETATM   27  H   UNL     1     -40.158 -54.040  12.214  1.00  0.00     0.209 HD
ENDBRANCH  25  26
ENDBRANCH  16  25
ENDBRANCH   1  15
TORSDOF 9
ENDMDL
MODEL 7
REMARK VINA RESULT:      -5.5      3.339      7.035
REMARK  9 active torsions:
REMARK  status: ('A' for Active; 'I' for Inactive)
REMARK    1  A    between atoms: N_2  and  C_3 
REMARK    2  A    between atoms: N_2  and  C_19 
REMARK    3  A    between atoms: C_3  and  C_4 
REMARK    4  A    between atoms: C_4  and  O_5 
REMARK    5  A    between atoms: C_4  and  C_6 
REMARK    6  A    between atoms: C_6  and  N_7 
REMARK    7  A    between atoms: C_8  and  C_9 
REMARK    8  A    between atoms: C_9  and  O_10 
REMARK    9  A    between atoms: C_19  and  C_20 
ROOT
HETATM    1  C   UNL     1     -41.103 -48.786  12.209  1.00  0.00     0.164 C 
ENDROOT
BRANCH   1   2
HETATM    2  C   UNL     1     -40.013 -49.612  11.500  1.00  0.00     0.164 C 
BRANCH   2   3
HETATM    3  C   UNL     1     -39.612 -50.828  12.389  1.00  0.00     0.305 C 
BRANCH   3   4
HETATM    4  N   UNL     1     -40.710 -51.489  13.136  1.00  0.00     0.090 N 
HETATM    5  C   UNL     1     -40.470 -51.494  14.585  1.00  0.00     0.310 C 
BRANCH   4   6
HETATM    6  C   UNL     1     -40.900 -52.888  12.697  1.00  0.00     0.310 C 
BRANCH   6   7
HETATM    7  C   UNL     1     -42.216 -53.513  13.106  1.00  0.00    -0.030 A 
HETATM    8  C   UNL     1     -42.263 -54.432  14.165  1.00  0.00     0.009 A 
HETATM    9  C   UNL     1     -43.480 -54.973  14.582  1.00  0.00     0.001 A 
HETATM   10  C   UNL     1     -44.662 -54.598  13.947  1.00  0.00     0.000 A 
HETATM   11  C   UNL     1     -44.630 -53.685  12.894  1.00  0.00     0.001 A 
HETATM   12  C   UNL     1     -43.413 -53.143  12.476  1.00  0.00     0.009 A 
ENDBRANCH   6   7
ENDBRANCH   4   6
ENDBRANCH   3   4
ENDBRANCH   2   3
BRANCH   2  13
HETATM   13  O   UNL     1     -40.514 -50.050  10.230  1.00  0.00    -0.392 OA
HETATM   14  H   UNL     1     -39.763 -50.183   9.632  1.00  0.00     0.210 HD
ENDBRANCH   2  13
ENDBRANCH   1   2
BRANCH   1  15
HETATM   15  N   UNL     1     -41.153 -47.398  11.775  1.00  0.00    -0.330 N 
HETATM   16  C   UNL     1     -41.975 -46.857  10.807  1.00  0.00     0.108 A 
HETATM   17  N   UNL     1     -41.732 -45.567  10.656  1.00  0.00    -0.342 N 
HETATM   18  C   UNL     1     -40.764 -45.256  11.573  1.00  0.00     0.060 A 
ATOM     19  HN  UNL     1     -42.176 -44.932   9.992  1.00  0.00     0.167 HD
HETATM   20  C   UNL     1     -40.182 -44.013  11.871  1.00  0.00     0.032 A 
HETATM   21  C   UNL     1     -40.357 -46.386  12.273  1.00  0.00     0.062 A 
HETATM   22  C   UNL     1     -39.203 -43.944  12.871  1.00  0.00     0.002 A 
HETATM   23  C   UNL     1     -38.801 -45.092  13.553  1.00  0.00     0.002 A 
HETATM   24  C   UNL     1     -39.367 -46.339  13.265  1.00  0.00     0.032 A 
BRANCH  16  25
HETATM   25  C   UNL     1     -43.015 -47.617  10.060  1.00  0.00     0.240 C 
BRANCH  25  26
HETATM   26  O   UNL     1     -42.433 -48.107   8.857  1.00  0.00    -0.393 OA
HETATM   27  H   UNL     1     -43.059 -48.771   8.518  1.00  0.00     0.209 HD
ENDBRANCH  25  26
ENDBRANCH  16  25
ENDBRANCH   1  15
TORSDOF 9
ENDMDL
MODEL 8
REMARK VINA RESULT:      -5.4      1.547      4.540
REMARK  9 active torsions:
REMARK  status: ('A' for Active; 'I' for Inactive)
REMARK    1  A    between atoms: N_2  and  C_3 
REMARK    2  A    between atoms: N_2  and  C_19 
REMARK    3  A    between atoms: C_3  and  C_4 
REMARK    4  A    between atoms: C_4  and  O_5 
REMARK    5  A    between atoms: C_4  and  C_6 
REMARK    6  A    between atoms: C_6  and  N_7 
REMARK    7  A    between atoms: C_8  and  C_9 
REMARK    8  A    between atoms: C_9  and  O_10 
REMARK    9  A    between atoms: C_19  and  C_20 
ROOT
HETATM    1  C   UNL     1     -41.684 -50.177  15.383  1.00  0.00     0.164 C 
ENDROOT
BRANCH   1   2
HETATM    2  C   UNL     1     -41.078 -51.493  15.908  1.00  0.00     0.164 C 
BRANCH   2   3
HETATM    3  C   UNL     1     -40.124 -52.097  14.834  1.00  0.00     0.305 C 
BRANCH   3   4
HETATM    4  N   UNL     1     -40.370 -53.509  14.452  1.00  0.00     0.090 N 
HETATM    5  C   UNL     1     -39.126 -54.225  14.140  1.00  0.00     0.310 C 
BRANCH   4   6
HETATM    6  C   UNL     1     -41.263 -53.606  13.277  1.00  0.00     0.310 C 
BRANCH   6   7
HETATM    7  C   UNL     1     -42.673 -54.062  13.582  1.00  0.00    -0.030 A 
HETATM    8  C   UNL     1     -43.026 -54.447  14.884  1.00  0.00     0.009 A 
HETATM    9  C   UNL     1     -44.338 -54.818  15.183  1.00  0.00     0.001 A 
HETATM   10  C   UNL     1     -45.310 -54.806  14.185  1.00  0.00     0.000 A 
HETATM   11  C   UNL     1     -44.973 -54.425  12.888  1.00  0.00     0.001 A 
HETATM   12  C   UNL     1     -43.661 -54.053  12.587  1.00  0.00     0.009 A 
ENDBRANCH   6   7
ENDBRANCH   4   6
ENDBRANCH   3   4
ENDBRANCH   2   3
BRANCH   2  13
HETATM   13  O   UNL     1     -40.373 -51.226  17.127  1.00  0.00    -0.392 OA
HETATM   14  H   UNL     1     -40.872 -51.614  17.862  1.00  0.00     0.210 HD
ENDBRANCH   2  13
ENDBRANCH   1   2
BRANCH   1  15
HETATM   15  N   UNL     1     -42.795 -50.375  14.466  1.00  0.00    -0.330 N 
HETATM   16  C   UNL     1     -42.783 -50.217  13.094  1.00  0.00     0.108 A 
HETATM   17  N   UNL     1     -43.978 -50.458  12.584  1.00  0.00    -0.342 N 
HETATM   18  C   UNL     1     -44.772 -50.819  13.640  1.00  0.00     0.060 A 
ATOM     19  HN  UNL     1     -44.253 -50.388  11.605  1.00  0.00     0.167 HD
HETATM   20  C   UNL     1     -46.115 -51.228  13.649  1.00  0.00     0.032 A 
HETATM   21  C   UNL     1     -44.070 -50.751  14.839  1.00  0.00     0.062 A 
HETATM   22  C   UNL     1     -46.716 -51.560  14.871  1.00  0.00     0.002 A 
HETATM   23  C   UNL     1     -45.997 -51.474  16.063  1.00  0.00     0.002 A 
HETATM   24  C   UNL     1     -44.659 -51.063  16.073  1.00  0.00     0.032 A 
BRANCH  16  25
HETATM   25  C   UNL     1     -41.578 -49.859  12.296  1.00  0.00     0.240 C 
BRANCH  25  26
HETATM   26  O   UNL     1     -42.008 -49.391  11.022  1.00  0.00    -0.393 OA
HETATM   27  H   UNL     1     -41.193 -49.237  10.513  1.00  0.00     0.209 HD
ENDBRANCH  25  26
ENDBRANCH  16  25
ENDBRANCH   1  15
TORSDOF 9
ENDMDL
MODEL 9
REMARK VINA RESULT:      -5.3      1.425      3.448
REMARK  9 active torsions:
REMARK  status: ('A' for Active; 'I' for Inactive)
REMARK    1  A    between atoms: N_2  and  C_3 
REMARK    2  A    between atoms: N_2  and  C_19 
REMARK    3  A    between atoms: C_3  and  C_4 
REMARK    4  A    between atoms: C_4  and  O_5 
REMARK    5  A    between atoms: C_4  and  C_6 
REMARK    6  A    between atoms: C_6  and  N_7 
REMARK    7  A    between atoms: C_8  and  C_9 
REMARK    8  A    between atoms: C_9  and  O_10 
REMARK    9  A    between atoms: C_19  and  C_20 
ROOT
HETATM    1  C   UNL     1     -40.987 -53.815  12.588  1.00  0.00     0.164 C 
ENDROOT
BRANCH   1   2
HETATM    2  C   UNL     1     -40.002 -53.783  13.772  1.00  0.00     0.164 C 
BRANCH   2   3
HETATM    3  C   UNL     1     -40.691 -54.356  15.046  1.00  0.00     0.305 C 
BRANCH   3   4
HETATM    4  N   UNL     1     -41.058 -53.375  16.096  1.00  0.00     0.090 N 
HETATM    5  C   UNL     1     -40.067 -53.326  17.179  1.00  0.00     0.310 C 
BRANCH   4   6
HETATM    6  C   UNL     1     -42.375 -53.684  16.692  1.00  0.00     0.310 C 
BRANCH   6   7
HETATM    7  C   UNL     1     -43.380 -52.554  16.643  1.00  0.00    -0.030 A 
HETATM    8  C   UNL     1     -44.723 -52.788  16.973  1.00  0.00     0.009 A 
HETATM    9  C   UNL     1     -45.644 -51.739  16.980  1.00  0.00     0.001 A 
HETATM   10  C   UNL     1     -45.232 -50.448  16.661  1.00  0.00     0.000 A 
HETATM   11  C   UNL     1     -43.901 -50.202  16.332  1.00  0.00     0.001 A 
HETATM   12  C   UNL     1     -42.977 -51.249  16.324  1.00  0.00     0.009 A 
ENDBRANCH   6   7
ENDBRANCH   4   6
ENDBRANCH   3   4
ENDBRANCH   2   3
BRANCH   2  13
HETATM   13  O   UNL     1     -38.840 -54.550  13.430  1.00  0.00    -0.392 OA
HETATM   14  H   UNL     1     -38.995 -55.473  13.682  1.00  0.00     0.210 HD
ENDBRANCH   2  13
ENDBRANCH   1   2
BRANCH   1  15
HETATM   15  N   UNL     1     -42.001 -52.772  12.649  1.00  0.00    -0.330 N 
HETATM   16  C   UNL     1     -41.826 -51.425  12.406  1.00  0.00     0.108 A 
HETATM   17  N   UNL     1     -42.959 -50.767  12.577  1.00  0.00    -0.342 N 
HETATM   18  C   UNL     1     -43.898 -51.712  12.897  1.00  0.00     0.060 A 
ATOM     19  HN  UNL     1     -43.106 -49.762  12.489  1.00  0.00     0.167 HD
HETATM   20  C   UNL     1     -45.274 -51.562  13.128  1.00  0.00     0.032 A 
HETATM   21  C   UNL     1     -43.326 -52.977  12.978  1.00  0.00     0.062 A 
HETATM   22  C   UNL     1     -46.040 -52.695  13.435  1.00  0.00     0.002 A 
HETATM   23  C   UNL     1     -45.444 -53.953  13.522  1.00  0.00     0.002 A 
HETATM   24  C   UNL     1     -44.072 -54.119  13.301  1.00  0.00     0.032 A 
BRANCH  16  25
HETATM   25  C   UNL     1     -40.543 -50.803  11.976  1.00  0.00     0.240 C 
BRANCH  25  26
HETATM   26  O   UNL     1     -40.657 -50.446  10.602  1.00  0.00    -0.393 OA
HETATM   27  H   UNL     1     -41.027 -51.230  10.160  1.00  0.00     0.209 HD
ENDBRANCH  25  26
ENDBRANCH  16  25
ENDBRANCH   1  15
TORSDOF 9
ENDMDL
