MODEL 1
REMARK VINA RESULT:      -6.3      0.000      0.000
REMARK  5 active torsions:
REMARK  status: ('A' for Active; 'I' for Inactive)
REMARK    1  A    between atoms: O_1  and  C_2 
REMARK    2  A    between atoms: C_4  and  C_17 
REMARK    3  A    between atoms: C_7  and  S_8 
REMARK    4  A    between atoms: S_8  and  C_9 
REMARK    5  A    between atoms: C_9  and  C_10 
ROOT
HETATM    1  C   UNL     1     -44.133 -45.633   9.486  1.00  0.00     0.143 A 
HETATM    2  C   UNL     1     -45.223 -46.283   8.963  1.00  0.00     0.090 A 
HETATM    3  C   UNL     1     -45.437 -47.570   9.424  1.00  0.00     0.122 A 
HETATM    4  N   UNL     1     -44.615 -48.144  10.343  1.00  0.00    -0.333 N 
ATOM      5  HN  UNL     1     -44.787 -49.085  10.697  1.00  0.00     0.168 HD
HETATM    6  C   UNL     1     -43.567 -47.417  10.763  1.00  0.00     0.146 A 
HETATM    7  N   UNL     1     -43.299 -46.163  10.379  1.00  0.00    -0.318 N 
ATOM      8  HN  UNL     1     -42.503 -45.644  10.750  1.00  0.00     0.170 HD
ENDROOT
BRANCH   6   9
HETATM    9  S   UNL     1     -42.504 -48.113  11.999  1.00  0.00    -0.091 SA
BRANCH   9  10
HETATM   10  C   UNL     1     -40.914 -48.085  11.098  1.00  0.00     0.114 C 
BRANCH  10  11
HETATM   11  C   UNL     1     -40.020 -46.856  11.303  1.00  0.00     0.131 C 
HETATM   12  C   UNL     1     -40.029 -46.219  12.686  1.00  0.00     0.035 C 
HETATM   13  C   UNL     1     -39.839 -44.739  12.424  1.00  0.00     0.029 C 
HETATM   14  C   UNL     1     -39.785 -44.604  10.917  1.00  0.00     0.168 C 
HETATM   15  O   UNL     1     -40.331 -45.808  10.375  1.00  0.00    -0.385 OA
ENDBRANCH  10  11
ENDBRANCH   9  10
ENDBRANCH   6   9
BRANCH   3  16
HETATM   16  C   UNL     1     -46.623 -48.364   8.902  1.00  0.00     0.432 C 
HETATM   17  F   UNL     1     -46.871 -49.489   9.640  1.00  0.00    -0.165 F 
HETATM   18  F   UNL     1     -47.789 -47.662   8.914  1.00  0.00    -0.165 F 
HETATM   19  F   UNL     1     -46.454 -48.802   7.624  1.00  0.00    -0.165 F 
ENDBRANCH   3  16
BRANCH   1  20
HETATM   20  O   UNL     1     -43.831 -44.355   9.114  1.00  0.00    -0.346 OA
HETATM   21  H   UNL     1     -44.512 -43.756   9.452  1.00  0.00     0.219 HD
ENDBRANCH   1  20
TORSDOF 5
ENDMDL
MODEL 2
REMARK VINA RESULT:      -5.9      4.102      5.952
REMARK  5 active torsions:
REMARK  status: ('A' for Active; 'I' for Inactive)
REMARK    1  A    between atoms: O_1  and  C_2 
REMARK    2  A    between atoms: C_4  and  C_17 
REMARK    3  A    between atoms: C_7  and  S_8 
REMARK    4  A    between atoms: S_8  and  C_9 
REMARK    5  A    between atoms: C_9  and  C_10 
ROOT
HETATM    1  C   UNL     1     -41.244 -52.387  11.852  1.00  0.00     0.143 A 
HETATM    2  C   UNL     1     -42.387 -52.577  12.587  1.00  0.00     0.090 A 
HETATM    3  C   UNL     1     -43.112 -51.436  12.882  1.00  0.00     0.122 A 
HETATM    4  N   UNL     1     -42.711 -50.207  12.461  1.00  0.00    -0.333 N 
ATOM      5  HN  UNL     1     -43.258 -49.371  12.661  1.00  0.00     0.168 HD
HETATM    6  C   UNL     1     -41.561 -50.144  11.768  1.00  0.00     0.146 A 
HETATM    7  N   UNL     1     -40.812 -51.200  11.428  1.00  0.00    -0.318 N 
ATOM      8  HN  UNL     1     -39.959 -51.100  10.877  1.00  0.00     0.170 HD
ENDROOT
BRANCH   6   9
HETATM    9  S   UNL     1     -41.035 -48.566  11.158  1.00  0.00    -0.091 SA
BRANCH   9  10
HETATM   10  C   UNL     1     -42.604 -47.639  11.291  1.00  0.00     0.114 C 
BRANCH  10  11
HETATM   11  C   UNL     1     -43.291 -47.244   9.978  1.00  0.00     0.131 C 
HETATM   12  C   UNL     1     -44.793 -47.475   9.888  1.00  0.00     0.035 C 
HETATM   13  C   UNL     1     -45.037 -47.829   8.435  1.00  0.00     0.029 C 
HETATM   14  C   UNL     1     -43.668 -47.833   7.790  1.00  0.00     0.168 C 
HETATM   15  O   UNL     1     -42.713 -47.913   8.849  1.00  0.00    -0.385 OA
ENDBRANCH  10  11
ENDBRANCH   9  10
ENDBRANCH   6   9
BRANCH   3  16
HETATM   16  C   UNL     1     -44.394 -51.553  13.689  1.00  0.00     0.432 C 
HETATM   17  F   UNL     1     -45.512 -51.292  12.945  1.00  0.00    -0.165 F 
HETATM   18  F   UNL     1     -44.592 -52.795  14.210  1.00  0.00    -0.165 F 
HETATM   19  F   UNL     1     -44.449 -50.685  14.738  1.00  0.00    -0.165 F 
ENDBRANCH   3  16
BRANCH   1  20
HETATM   20  O   UNL     1     -40.456 -53.441  11.491  1.00  0.00    -0.346 OA
HETATM   21  H   UNL     1     -40.267 -53.979  12.272  1.00  0.00     0.219 HD
ENDBRANCH   1  20
TORSDOF 5
ENDMDL
MODEL 3
REMARK VINA RESULT:      -5.8      3.512      4.713
REMARK  5 active torsions:
REMARK  status: ('A' for Active; 'I' for Inactive)
REMARK    1  A    between atoms: O_1  and  C_2 
REMARK    2  A    between atoms: C_4  and  C_17 
REMARK    3  A    between atoms: C_7  and  S_8 
REMARK    4  A    between atoms: S_8  and  C_9 
REMARK    5  A    between atoms: C_9  and  C_10 
ROOT
HETATM    1  C   UNL     1     -41.432 -45.948  10.197  1.00  0.00     0.143 A 
HETATM    2  C   UNL     1     -42.710 -46.023   9.704  1.00  0.00     0.090 A 
HETATM    3  C   UNL     1     -43.276 -47.285   9.681  1.00  0.00     0.122 A 
HETATM    4  N   UNL     1     -42.601 -48.378  10.127  1.00  0.00    -0.333 N 
ATOM      5  HN  UNL     1     -43.028 -49.304  10.128  1.00  0.00     0.168 HD
HETATM    6  C   UNL     1     -41.346 -48.183  10.565  1.00  0.00     0.146 A 
HETATM    7  N   UNL     1     -40.733 -46.995  10.634  1.00  0.00    -0.318 N 
ATOM      8  HN  UNL     1     -39.787 -46.898  11.001  1.00  0.00     0.170 HD
ENDROOT
BRANCH   6   9
HETATM    9  S   UNL     1     -40.454 -49.575  11.202  1.00  0.00    -0.091 SA
BRANCH   9  10
HETATM   10  C   UNL     1     -41.795 -50.414  12.118  1.00  0.00     0.114 C 
BRANCH  10  11
HETATM   11  C   UNL     1     -41.808 -51.948  12.082  1.00  0.00     0.131 C 
HETATM   12  C   UNL     1     -42.818 -52.651  12.978  1.00  0.00     0.035 C 
HETATM   13  C   UNL     1     -42.125 -53.929  13.403  1.00  0.00     0.029 C 
HETATM   14  C   UNL     1     -40.748 -53.863  12.777  1.00  0.00     0.168 C 
HETATM   15  O   UNL     1     -40.526 -52.501  12.410  1.00  0.00    -0.385 OA
ENDBRANCH  10  11
ENDBRANCH   9  10
ENDBRANCH   6   9
BRANCH   3  16
HETATM   16  C   UNL     1     -44.691 -47.461   9.154  1.00  0.00     0.432 C 
HETATM   17  F   UNL     1     -44.738 -48.194   8.000  1.00  0.00    -0.165 F 
HETATM   18  F   UNL     1     -45.514 -48.108  10.024  1.00  0.00    -0.165 F 
HETATM   19  F   UNL     1     -45.302 -46.281   8.855  1.00  0.00    -0.165 F 
ENDBRANCH   3  16
BRANCH   1  20
HETATM   20  O   UNL     1     -40.778 -44.753  10.280  1.00  0.00    -0.346 OA
HETATM   21  H   UNL     1     -39.826 -44.915  10.333  1.00  0.00     0.219 HD
ENDBRANCH   1  20
TORSDOF 5
ENDMDL
MODEL 4
REMARK VINA RESULT:      -5.7      2.412      3.016
REMARK  5 active torsions:
REMARK  status: ('A' for Active; 'I' for Inactive)
REMARK    1  A    between atoms: O_1  and  C_2 
REMARK    2  A    between atoms: C_4  and  C_17 
REMARK    3  A    between atoms: C_7  and  S_8 
REMARK    4  A    between atoms: S_8  and  C_9 
REMARK    5  A    between atoms: C_9  and  C_10 
ROOT
HETATM    1  C   UNL     1     -42.382 -46.358   9.878  1.00  0.00     0.143 A 
HETATM    2  C   UNL     1     -43.550 -46.519   9.176  1.00  0.00     0.090 A 
HETATM    3  C   UNL     1     -44.401 -47.508   9.638  1.00  0.00     0.122 A 
HETATM    4  N   UNL     1     -44.092 -48.264  10.724  1.00  0.00    -0.333 N 
ATOM      5  HN  UNL     1     -44.730 -48.978  11.075  1.00  0.00     0.168 HD
HETATM    6  C   UNL     1     -42.908 -48.030  11.315  1.00  0.00     0.146 A 
HETATM    7  N   UNL     1     -42.038 -47.084  10.941  1.00  0.00    -0.318 N 
ATOM      8  HN  UNL     1     -41.163 -46.929  11.441  1.00  0.00     0.170 HD
ENDROOT
BRANCH   6   9
HETATM    9  S   UNL     1     -42.494 -48.961  12.764  1.00  0.00    -0.091 SA
BRANCH   9  10
HETATM   10  C   UNL     1     -41.306 -50.149  12.046  1.00  0.00     0.114 C 
BRANCH  10  11
HETATM   11  C   UNL     1     -39.845 -50.031  12.497  1.00  0.00     0.131 C 
HETATM   12  C   UNL     1     -38.988 -48.987  11.795  1.00  0.00     0.035 C 
HETATM   13  C   UNL     1     -37.602 -49.597  11.756  1.00  0.00     0.029 C 
HETATM   14  C   UNL     1     -37.750 -50.966  12.384  1.00  0.00     0.168 C 
HETATM   15  O   UNL     1     -39.145 -51.276  12.373  1.00  0.00    -0.385 OA
ENDBRANCH  10  11
ENDBRANCH   9  10
ENDBRANCH   6   9
BRANCH   3  16
HETATM   16  C   UNL     1     -45.719 -47.753   8.923  1.00  0.00     0.432 C 
HETATM   17  F   UNL     1     -46.548 -48.592   9.617  1.00  0.00    -0.165 F 
HETATM   18  F   UNL     1     -46.444 -46.618   8.722  1.00  0.00    -0.165 F 
HETATM   19  F   UNL     1     -45.566 -48.331   7.699  1.00  0.00    -0.165 F 
ENDBRANCH   3  16
BRANCH   1  20
HETATM   20  O   UNL     1     -41.473 -45.405   9.522  1.00  0.00    -0.346 OA
HETATM   21  H   UNL     1     -41.718 -44.562   9.930  1.00  0.00     0.219 HD
ENDBRANCH   1  20
TORSDOF 5
ENDMDL
MODEL 5
REMARK VINA RESULT:      -5.7      4.755      5.879
REMARK  5 active torsions:
REMARK  status: ('A' for Active; 'I' for Inactive)
REMARK    1  A    between atoms: O_1  and  C_2 
REMARK    2  A    between atoms: C_4  and  C_17 
REMARK    3  A    between atoms: C_7  and  S_8 
REMARK    4  A    between atoms: S_8  and  C_9 
REMARK    5  A    between atoms: C_9  and  C_10 
ROOT
HETATM    1  C   UNL     1     -41.382 -52.365  11.861  1.00  0.00     0.143 A 
HETATM    2  C   UNL     1     -42.551 -52.487  12.570  1.00  0.00     0.090 A 
HETATM    3  C   UNL     1     -43.204 -51.304  12.866  1.00  0.00     0.122 A 
HETATM    4  N   UNL     1     -42.714 -50.100  12.469  1.00  0.00    -0.333 N 
ATOM      5  HN  UNL     1     -43.208 -49.231  12.670  1.00  0.00     0.168 HD
HETATM    6  C   UNL     1     -41.548 -50.106  11.801  1.00  0.00     0.146 A 
HETATM    7  N   UNL     1     -40.863 -51.204  11.462  1.00  0.00    -0.318 N 
ATOM      8  HN  UNL     1     -39.995 -51.156  10.930  1.00  0.00     0.170 HD
ENDROOT
BRANCH   6   9
HETATM    9  S   UNL     1     -40.905 -48.559  11.223  1.00  0.00    -0.091 SA
BRANCH   9  10
HETATM   10  C   UNL     1     -39.845 -48.110  12.643  1.00  0.00     0.114 C 
BRANCH  10  11
HETATM   11  C   UNL     1     -38.577 -48.947  12.856  1.00  0.00     0.131 C 
HETATM   12  C   UNL     1     -37.857 -49.440  11.609  1.00  0.00     0.035 C 
HETATM   13  C   UNL     1     -37.285 -50.785  12.007  1.00  0.00     0.029 C 
HETATM   14  C   UNL     1     -37.749 -51.011  13.430  1.00  0.00     0.168 C 
HETATM   15  O   UNL     1     -38.831 -50.107  13.659  1.00  0.00    -0.385 OA
ENDBRANCH  10  11
ENDBRANCH   9  10
ENDBRANCH   6   9
BRANCH   3  16
HETATM   16  C   UNL     1     -44.508 -51.345  13.645  1.00  0.00     0.432 C 
HETATM   17  F   UNL     1     -44.547 -50.427  14.659  1.00  0.00    -0.165 F 
HETATM   18  F   UNL     1     -45.603 -51.082  12.879  1.00  0.00    -0.165 F 
HETATM   19  F   UNL     1     -44.739 -52.548  14.241  1.00  0.00    -0.165 F 
ENDBRANCH   3  16
BRANCH   1  20
HETATM   20  O   UNL     1     -40.658 -53.465  11.502  1.00  0.00    -0.346 OA
HETATM   21  H   UNL     1     -41.134 -54.262  11.775  1.00  0.00     0.219 HD
ENDBRANCH   1  20
TORSDOF 5
ENDMDL
MODEL 6
REMARK VINA RESULT:      -5.6      6.117      7.820
REMARK  5 active torsions:
REMARK  status: ('A' for Active; 'I' for Inactive)
REMARK    1  A    between atoms: O_1  and  C_2 
REMARK    2  A    between atoms: C_4  and  C_17 
REMARK    3  A    between atoms: C_7  and  S_8 
REMARK    4  A    between atoms: S_8  and  C_9 
REMARK    5  A    between atoms: C_9  and  C_10 
ROOT
HETATM    1  C   UNL     1     -41.418 -49.667  11.385  1.00  0.00     0.143 A 
HETATM    2  C   UNL     1     -40.083 -49.346  11.389  1.00  0.00     0.090 A 
HETATM    3  C   UNL     1     -39.233 -50.304  11.912  1.00  0.00     0.122 A 
HETATM    4  N   UNL     1     -39.700 -51.490  12.385  1.00  0.00    -0.333 N 
ATOM      5  HN  UNL     1     -39.069 -52.203  12.750  1.00  0.00     0.168 HD
HETATM    6  C   UNL     1     -41.030 -51.681  12.351  1.00  0.00     0.146 A 
HETATM    7  N   UNL     1     -41.916 -50.813  11.848  1.00  0.00    -0.318 N 
ATOM      8  HN  UNL     1     -42.915 -51.018  11.821  1.00  0.00     0.170 HD
ENDROOT
BRANCH   6   9
HETATM    9  S   UNL     1     -41.669 -53.235  12.911  1.00  0.00    -0.091 SA
BRANCH   9  10
HETATM   10  C   UNL     1     -43.398 -53.089  12.335  1.00  0.00     0.114 C 
BRANCH  10  11
HETATM   11  C   UNL     1     -44.458 -52.759  13.393  1.00  0.00     0.131 C 
HETATM   12  C   UNL     1     -45.887 -52.573  12.904  1.00  0.00     0.035 C 
HETATM   13  C   UNL     1     -46.469 -51.516  13.821  1.00  0.00     0.029 C 
HETATM   14  C   UNL     1     -45.335 -51.120  14.742  1.00  0.00     0.168 C 
HETATM   15  O   UNL     1     -44.127 -51.573  14.129  1.00  0.00    -0.385 OA
ENDBRANCH  10  11
ENDBRANCH   9  10
ENDBRANCH   6   9
BRANCH   3  16
HETATM   16  C   UNL     1     -37.738 -50.035  11.952  1.00  0.00     0.432 C 
HETATM   17  F   UNL     1     -37.017 -51.117  12.379  1.00  0.00    -0.165 F 
HETATM   18  F   UNL     1     -37.215 -49.711  10.738  1.00  0.00    -0.165 F 
HETATM   19  F   UNL     1     -37.399 -49.021  12.797  1.00  0.00    -0.165 F 
ENDBRANCH   3  16
BRANCH   1  20
HETATM   20  O   UNL     1     -42.348 -48.804  10.883  1.00  0.00    -0.346 OA
HETATM   21  H   UNL     1     -42.507 -49.015   9.952  1.00  0.00     0.219 HD
ENDBRANCH   1  20
TORSDOF 5
ENDMDL
MODEL 7
REMARK VINA RESULT:      -5.5      5.170      6.423
REMARK  5 active torsions:
REMARK  status: ('A' for Active; 'I' for Inactive)
REMARK    1  A    between atoms: O_1  and  C_2 
REMARK    2  A    between atoms: C_4  and  C_17 
REMARK    3  A    between atoms: C_7  and  S_8 
REMARK    4  A    between atoms: S_8  and  C_9 
REMARK    5  A    between atoms: C_9  and  C_10 
ROOT
HETATM    1  C   UNL     1     -42.707 -47.653  10.179  1.00  0.00     0.143 A 
HETATM    2  C   UNL     1     -42.102 -46.421  10.162  1.00  0.00     0.090 A 
HETATM    3  C   UNL     1     -40.805 -46.378  10.643  1.00  0.00     0.122 A 
HETATM    4  N   UNL     1     -40.175 -47.494  11.097  1.00  0.00    -0.333 N 
ATOM      5  HN  UNL     1     -39.212 -47.463  11.430  1.00  0.00     0.168 HD
HETATM    6  C   UNL     1     -40.878 -48.639  11.086  1.00  0.00     0.146 A 
HETATM    7  N   UNL     1     -42.128 -48.767  10.624  1.00  0.00    -0.318 N 
ATOM      8  HN  UNL     1     -42.609 -49.667  10.613  1.00  0.00     0.170 HD
ENDROOT
BRANCH   6   9
HETATM    9  S   UNL     1     -40.072 -50.123  11.621  1.00  0.00    -0.091 SA
BRANCH   9  10
HETATM   10  C   UNL     1     -41.530 -51.120  12.092  1.00  0.00     0.114 C 
BRANCH  10  11
HETATM   11  C   UNL     1     -41.300 -52.615  12.340  1.00  0.00     0.131 C 
HETATM   12  C   UNL     1     -42.343 -53.346  13.174  1.00  0.00     0.035 C 
HETATM   13  C   UNL     1     -41.556 -54.392  13.937  1.00  0.00     0.029 C 
HETATM   14  C   UNL     1     -40.111 -54.170  13.543  1.00  0.00     0.168 C 
HETATM   15  O   UNL     1     -40.035 -52.864  12.970  1.00  0.00    -0.385 OA
ENDBRANCH  10  11
ENDBRANCH   9  10
ENDBRANCH   6   9
BRANCH   3  16
HETATM   16  C   UNL     1     -40.057 -45.055  10.658  1.00  0.00     0.432 C 
HETATM   17  F   UNL     1     -40.895 -43.974  10.691  1.00  0.00    -0.165 F 
HETATM   18  F   UNL     1     -39.240 -44.909  11.737  1.00  0.00    -0.165 F 
HETATM   19  F   UNL     1     -39.275 -44.869   9.558  1.00  0.00    -0.165 F 
ENDBRANCH   3  16
BRANCH   1  20
HETATM   20  O   UNL     1     -43.980 -47.818   9.718  1.00  0.00    -0.346 OA
HETATM   21  H   UNL     1     -44.385 -48.574  10.166  1.00  0.00     0.219 HD
ENDBRANCH   1  20
TORSDOF 5
ENDMDL
MODEL 8
REMARK VINA RESULT:      -5.4      5.850      6.870
REMARK  5 active torsions:
REMARK  status: ('A' for Active; 'I' for Inactive)
REMARK    1  A    between atoms: O_1  and  C_2 
REMARK    2  A    between atoms: C_4  and  C_17 
REMARK    3  A    between atoms: C_7  and  S_8 
REMARK    4  A    between atoms: S_8  and  C_9 
REMARK    5  A    between atoms: C_9  and  C_10 
ROOT
HETATM    1  C   UNL     1     -43.601 -54.635  14.301  1.00  0.00     0.143 A 
HETATM    2  C   UNL     1     -44.828 -54.052  14.107  1.00  0.00     0.090 A 
HETATM    3  C   UNL     1     -44.860 -52.994  13.216  1.00  0.00     0.122 A 
HETATM    4  N   UNL     1     -43.740 -52.570  12.573  1.00  0.00    -0.333 N 
ATOM      5  HN  UNL     1     -43.771 -51.804  11.900  1.00  0.00     0.168 HD
HETATM    6  C   UNL     1     -42.592 -53.204  12.862  1.00  0.00     0.146 A 
HETATM    7  N   UNL     1     -42.479 -54.243  13.698  1.00  0.00    -0.318 N 
ATOM      8  HN  UNL     1     -41.586 -54.708  13.864  1.00  0.00     0.170 HD
ENDROOT
BRANCH   6   9
HETATM    9  S   UNL     1     -41.122 -52.712  12.004  1.00  0.00    -0.091 SA
BRANCH   9  10
HETATM   10  C   UNL     1     -40.888 -51.044  12.714  1.00  0.00     0.114 C 
BRANCH  10  11
HETATM   11  C   UNL     1     -39.450 -50.516  12.791  1.00  0.00     0.131 C 
HETATM   12  C   UNL     1     -39.019 -49.527  11.716  1.00  0.00     0.035 C 
HETATM   13  C   UNL     1     -37.551 -49.826  11.490  1.00  0.00     0.029 C 
HETATM   14  C   UNL     1     -37.238 -50.995  12.400  1.00  0.00     0.168 C 
HETATM   15  O   UNL     1     -38.488 -51.580  12.767  1.00  0.00    -0.385 OA
ENDBRANCH  10  11
ENDBRANCH   9  10
ENDBRANCH   6   9
BRANCH   3  16
HETATM   16  C   UNL     1     -46.178 -52.292  12.937  1.00  0.00     0.432 C 
HETATM   17  F   UNL     1     -47.201 -52.758  13.717  1.00  0.00    -0.165 F 
HETATM   18  F   UNL     1     -46.134 -50.950  13.167  1.00  0.00    -0.165 F 
HETATM   19  F   UNL     1     -46.606 -52.445  11.653  1.00  0.00    -0.165 F 
ENDBRANCH   3  16
BRANCH   1  20
HETATM   20  O   UNL     1     -43.451 -55.695  15.148  1.00  0.00    -0.346 OA
HETATM   21  H   UNL     1     -43.970 -56.441  14.819  1.00  0.00     0.219 HD
ENDBRANCH   1  20
TORSDOF 5
ENDMDL
MODEL 9
REMARK VINA RESULT:      -5.4      3.869      4.828
REMARK  5 active torsions:
REMARK  status: ('A' for Active; 'I' for Inactive)
REMARK    1  A    between atoms: O_1  and  C_2 
REMARK    2  A    between atoms: C_4  and  C_17 
REMARK    3  A    between atoms: C_7  and  S_8 
REMARK    4  A    between atoms: S_8  and  C_9 
REMARK    5  A    between atoms: C_9  and  C_10 
ROOT
HETATM    1  C   UNL     1     -42.896 -47.094  11.857  1.00  0.00     0.143 A 
HETATM    2  C   UNL     1     -43.453 -46.958  10.610  1.00  0.00     0.090 A 
HETATM    3  C   UNL     1     -42.859 -47.694   9.600  1.00  0.00     0.122 A 
HETATM    4  N   UNL     1     -41.793 -48.502   9.839  1.00  0.00    -0.333 N 
ATOM      5  HN  UNL     1     -41.370 -49.060   9.097  1.00  0.00     0.168 HD
HETATM    6  C   UNL     1     -41.320 -48.534  11.097  1.00  0.00     0.146 A 
HETATM    7  N   UNL     1     -41.847 -47.867  12.131  1.00  0.00    -0.318 N 
ATOM      8  HN  UNL     1     -41.466 -47.947  13.074  1.00  0.00     0.170 HD
ENDROOT
BRANCH   6   9
HETATM    9  S   UNL     1     -39.965 -49.617  11.457  1.00  0.00    -0.091 SA
BRANCH   9  10
HETATM   10  C   UNL     1     -40.880 -51.158  11.815  1.00  0.00     0.114 C 
BRANCH  10  11
HETATM   11  C   UNL     1     -40.558 -51.866  13.137  1.00  0.00     0.131 C 
HETATM   12  C   UNL     1     -39.706 -51.102  14.140  1.00  0.00     0.035 C 
HETATM   13  C   UNL     1     -38.883 -52.169  14.832  1.00  0.00     0.029 C 
HETATM   14  C   UNL     1     -39.266 -53.469  14.157  1.00  0.00     0.168 C 
HETATM   15  O   UNL     1     -39.899 -53.122  12.924  1.00  0.00    -0.385 OA
ENDBRANCH  10  11
ENDBRANCH   9  10
ENDBRANCH   6   9
BRANCH   3  16
HETATM   16  C   UNL     1     -43.413 -47.608   8.187  1.00  0.00     0.432 C 
HETATM   17  F   UNL     1     -43.228 -46.376   7.621  1.00  0.00    -0.165 F 
HETATM   18  F   UNL     1     -42.834 -48.490   7.326  1.00  0.00    -0.165 F 
HETATM   19  F   UNL     1     -44.754 -47.835   8.123  1.00  0.00    -0.165 F 
ENDBRANCH   3  16
BRANCH   1  20
HETATM   20  O   UNL     1     -43.407 -46.426  12.932  1.00  0.00    -0.346 OA
HETATM   21  H   UNL     1     -44.206 -46.878  13.237  1.00  0.00     0.219 HD
ENDBRANCH   1  20
TORSDOF 5
ENDMDL
