MODEL 1
REMARK VINA RESULT:      -4.9      0.000      0.000
REMARK  6 active torsions:
REMARK  status: ('A' for Active; 'I' for Inactive)
REMARK    1  A    between atoms: C_2  and  O_3 
REMARK    2  A    between atoms: O_3  and  C_4 
REMARK    3  A    between atoms: C_4  and  C_5 
REMARK    4  A    between atoms: C_5  and  N_6 
REMARK    5  A    between atoms: C_7  and  C_8 
REMARK    6  A    between atoms: C_8  and  O_9 
ROOT
HETATM    1  N   UNL     1     -42.578 -51.980  13.278  1.00  0.00    -0.331 N 
HETATM    2  C   UNL     1     -42.203 -53.262  12.926  1.00  0.00     0.108 A 
HETATM    3  N   UNL     1     -43.249 -54.071  12.920  1.00  0.00    -0.342 N 
ATOM      4  HN  UNL     1     -43.256 -55.065  12.690  1.00  0.00     0.167 HD
HETATM    5  C   UNL     1     -44.323 -53.301  13.285  1.00  0.00     0.060 A 
HETATM    6  C   UNL     1     -45.664 -53.672  13.461  1.00  0.00     0.032 A 
HETATM    7  C   UNL     1     -46.589 -52.698  13.856  1.00  0.00     0.002 A 
HETATM    8  C   UNL     1     -46.189 -51.376  14.051  1.00  0.00     0.002 A 
HETATM    9  C   UNL     1     -44.859 -50.984  13.863  1.00  0.00     0.032 A 
HETATM   10  C   UNL     1     -43.944 -51.979  13.497  1.00  0.00     0.062 A 
ENDROOT
BRANCH   1  11
HETATM   11  C   UNL     1     -41.721 -50.817  13.395  1.00  0.00     0.156 C 
BRANCH  11  12
HETATM   12  C   UNL     1     -41.605 -50.021  12.097  1.00  0.00     0.187 C 
BRANCH  12  13
HETATM   13  O   UNL     1     -40.381 -50.363  11.443  1.00  0.00    -0.390 OA
BRANCH  13  14
HETATM   14  C   UNL     1     -39.268 -50.255  12.330  1.00  0.00     0.163 C 
HETATM   15  C   UNL     1     -38.048 -49.830  11.536  1.00  0.00     0.033 C 
ENDBRANCH  13  14
ENDBRANCH  12  13
ENDBRANCH  11  12
ENDBRANCH   1  11
BRANCH   2  16
HETATM   16  C   UNL     1     -40.806 -53.687  12.625  1.00  0.00     0.240 C 
BRANCH  16  17
HETATM   17  O   UNL     1     -40.523 -53.370  11.268  1.00  0.00    -0.393 OA
HETATM   18  H   UNL     1     -39.561 -53.220  11.226  1.00  0.00     0.209 HD
ENDBRANCH  16  17
ENDBRANCH   2  16
TORSDOF 6
ENDMDL
MODEL 2
REMARK VINA RESULT:      -4.8      1.765      2.178
REMARK  6 active torsions:
REMARK  status: ('A' for Active; 'I' for Inactive)
REMARK    1  A    between atoms: C_2  and  O_3 
REMARK    2  A    between atoms: O_3  and  C_4 
REMARK    3  A    between atoms: C_4  and  C_5 
REMARK    4  A    between atoms: C_5  and  N_6 
REMARK    5  A    between atoms: C_7  and  C_8 
REMARK    6  A    between atoms: C_8  and  O_9 
ROOT
HETATM    1  N   UNL     1     -41.471 -53.248  12.920  1.00  0.00    -0.331 N 
HETATM    2  C   UNL     1     -40.682 -53.792  13.914  1.00  0.00     0.108 A 
HETATM    3  N   UNL     1     -41.409 -54.524  14.742  1.00  0.00    -0.342 N 
ATOM      4  HN  UNL     1     -41.078 -55.041  15.556  1.00  0.00     0.167 HD
HETATM    5  C   UNL     1     -42.698 -54.445  14.281  1.00  0.00     0.060 A 
HETATM    6  C   UNL     1     -43.866 -55.013  14.808  1.00  0.00     0.032 A 
HETATM    7  C   UNL     1     -45.085 -54.778  14.161  1.00  0.00     0.002 A 
HETATM    8  C   UNL     1     -45.134 -54.008  12.998  1.00  0.00     0.002 A 
HETATM    9  C   UNL     1     -43.976 -53.447  12.448  1.00  0.00     0.032 A 
HETATM   10  C   UNL     1     -42.772 -53.670  13.127  1.00  0.00     0.062 A 
ENDROOT
BRANCH   1  11
HETATM   11  C   UNL     1     -41.044 -52.392  11.831  1.00  0.00     0.156 C 
BRANCH  11  12
HETATM   12  C   UNL     1     -41.082 -50.907  12.182  1.00  0.00     0.187 C 
BRANCH  12  13
HETATM   13  O   UNL     1     -40.101 -50.214  11.406  1.00  0.00    -0.390 OA
BRANCH  13  14
HETATM   14  C   UNL     1     -39.014 -49.768  12.217  1.00  0.00     0.163 C 
HETATM   15  C   UNL     1     -37.724 -49.923  11.435  1.00  0.00     0.033 C 
ENDBRANCH  13  14
ENDBRANCH  12  13
ENDBRANCH  11  12
ENDBRANCH   1  11
BRANCH   2  16
HETATM   16  C   UNL     1     -39.216 -53.561  14.058  1.00  0.00     0.240 C 
BRANCH  16  17
HETATM   17  O   UNL     1     -38.529 -54.616  13.395  1.00  0.00    -0.393 OA
HETATM   18  H   UNL     1     -37.621 -54.601  13.746  1.00  0.00     0.209 HD
ENDBRANCH  16  17
ENDBRANCH   2  16
TORSDOF 6
ENDMDL
MODEL 3
REMARK VINA RESULT:      -4.7      2.388      4.068
REMARK  6 active torsions:
REMARK  status: ('A' for Active; 'I' for Inactive)
REMARK    1  A    between atoms: C_2  and  O_3 
REMARK    2  A    between atoms: O_3  and  C_4 
REMARK    3  A    between atoms: C_4  and  C_5 
REMARK    4  A    between atoms: C_5  and  N_6 
REMARK    5  A    between atoms: C_7  and  C_8 
REMARK    6  A    between atoms: C_8  and  O_9 
ROOT
HETATM    1  N   UNL     1     -41.227 -53.032  13.614  1.00  0.00    -0.331 N 
HETATM    2  C   UNL     1     -41.281 -52.106  12.592  1.00  0.00     0.108 A 
HETATM    3  N   UNL     1     -42.483 -52.085  12.041  1.00  0.00    -0.342 N 
ATOM      4  HN  UNL     1     -42.797 -51.491  11.273  1.00  0.00     0.167 HD
HETATM    5  C   UNL     1     -43.221 -53.025  12.713  1.00  0.00     0.060 A 
HETATM    6  C   UNL     1     -44.550 -53.423  12.508  1.00  0.00     0.032 A 
HETATM    7  C   UNL     1     -45.089 -54.426  13.323  1.00  0.00     0.002 A 
HETATM    8  C   UNL     1     -44.324 -55.005  14.337  1.00  0.00     0.002 A 
HETATM    9  C   UNL     1     -43.002 -54.608  14.567  1.00  0.00     0.032 A 
HETATM   10  C   UNL     1     -42.473 -53.624  13.721  1.00  0.00     0.062 A 
ENDROOT
BRANCH   1  11
HETATM   11  C   UNL     1     -40.088 -53.346  14.454  1.00  0.00     0.156 C 
BRANCH  11  12
HETATM   12  C   UNL     1     -39.223 -54.476  13.898  1.00  0.00     0.187 C 
BRANCH  12  13
HETATM   13  O   UNL     1     -38.975 -55.431  14.933  1.00  0.00    -0.390 OA
BRANCH  13  14
HETATM   14  C   UNL     1     -39.675 -55.096  16.131  1.00  0.00     0.163 C 
HETATM   15  C   UNL     1     -40.125 -56.375  16.810  1.00  0.00     0.033 C 
ENDBRANCH  13  14
ENDBRANCH  12  13
ENDBRANCH  11  12
ENDBRANCH   1  11
BRANCH   2  16
HETATM   16  C   UNL     1     -40.134 -51.265  12.145  1.00  0.00     0.240 C 
BRANCH  16  17
HETATM   17  O   UNL     1     -40.501 -50.610  10.937  1.00  0.00    -0.393 OA
HETATM   18  H   UNL     1     -41.097 -49.885  11.200  1.00  0.00     0.209 HD
ENDBRANCH  16  17
ENDBRANCH   2  16
TORSDOF 6
ENDMDL
MODEL 4
REMARK VINA RESULT:      -4.6      2.820      5.288
REMARK  6 active torsions:
REMARK  status: ('A' for Active; 'I' for Inactive)
REMARK    1  A    between atoms: C_2  and  O_3 
REMARK    2  A    between atoms: O_3  and  C_4 
REMARK    3  A    between atoms: C_4  and  C_5 
REMARK    4  A    between atoms: C_5  and  N_6 
REMARK    5  A    between atoms: C_7  and  C_8 
REMARK    6  A    between atoms: C_8  and  O_9 
ROOT
HETATM    1  N   UNL     1     -42.028 -53.555  14.004  1.00  0.00    -0.331 N 
HETATM    2  C   UNL     1     -40.960 -53.036  13.299  1.00  0.00     0.108 A 
HETATM    3  N   UNL     1     -39.820 -53.554  13.727  1.00  0.00    -0.342 N 
ATOM      4  HN  UNL     1     -38.884 -53.351  13.377  1.00  0.00     0.167 HD
HETATM    5  C   UNL     1     -40.156 -54.419  14.736  1.00  0.00     0.060 A 
HETATM    6  C   UNL     1     -39.323 -55.205  15.546  1.00  0.00     0.032 A 
HETATM    7  C   UNL     1     -39.904 -56.010  16.533  1.00  0.00     0.002 A 
HETATM    8  C   UNL     1     -41.290 -56.047  16.696  1.00  0.00     0.002 A 
HETATM    9  C   UNL     1     -42.137 -55.283  15.885  1.00  0.00     0.032 A 
HETATM   10  C   UNL     1     -41.534 -54.462  14.924  1.00  0.00     0.062 A 
ENDROOT
BRANCH   1  11
HETATM   11  C   UNL     1     -43.431 -53.237  13.828  1.00  0.00     0.156 C 
BRANCH  11  12
HETATM   12  C   UNL     1     -44.122 -54.115  12.787  1.00  0.00     0.187 C 
BRANCH  12  13
HETATM   13  O   UNL     1     -45.300 -53.453  12.320  1.00  0.00    -0.390 OA
BRANCH  13  14
HETATM   14  C   UNL     1     -46.029 -52.863  13.397  1.00  0.00     0.163 C 
HETATM   15  C   UNL     1     -46.579 -51.526  12.941  1.00  0.00     0.033 C 
ENDBRANCH  13  14
ENDBRANCH  12  13
ENDBRANCH  11  12
ENDBRANCH   1  11
BRANCH   2  16
HETATM   16  C   UNL     1     -41.068 -52.008  12.225  1.00  0.00     0.240 C 
BRANCH  16  17
HETATM   17  O   UNL     1     -41.248 -52.675  10.982  1.00  0.00    -0.393 OA
HETATM   18  H   UNL     1     -40.417 -53.156  10.817  1.00  0.00     0.209 HD
ENDBRANCH  16  17
ENDBRANCH   2  16
TORSDOF 6
ENDMDL
MODEL 5
REMARK VINA RESULT:      -4.6      2.136      3.468
REMARK  6 active torsions:
REMARK  status: ('A' for Active; 'I' for Inactive)
REMARK    1  A    between atoms: C_2  and  O_3 
REMARK    2  A    between atoms: O_3  and  C_4 
REMARK    3  A    between atoms: C_4  and  C_5 
REMARK    4  A    between atoms: C_5  and  N_6 
REMARK    5  A    between atoms: C_7  and  C_8 
REMARK    6  A    between atoms: C_8  and  O_9 
ROOT
HETATM    1  N   UNL     1     -42.737 -52.004  14.173  1.00  0.00    -0.331 N 
HETATM    2  C   UNL     1     -42.527 -52.479  12.893  1.00  0.00     0.108 A 
HETATM    3  N   UNL     1     -43.667 -52.551  12.227  1.00  0.00    -0.342 N 
ATOM      4  HN  UNL     1     -43.798 -52.861  11.264  1.00  0.00     0.167 HD
HETATM    5  C   UNL     1     -44.638 -52.123  13.095  1.00  0.00     0.060 A 
HETATM    6  C   UNL     1     -46.024 -52.031  12.903  1.00  0.00     0.032 A 
HETATM    7  C   UNL     1     -46.824 -51.572  13.956  1.00  0.00     0.002 A 
HETATM    8  C   UNL     1     -46.251 -51.193  15.171  1.00  0.00     0.002 A 
HETATM    9  C   UNL     1     -44.869 -51.262  15.375  1.00  0.00     0.032 A 
HETATM   10  C   UNL     1     -44.089 -51.752  14.319  1.00  0.00     0.062 A 
ENDROOT
BRANCH   1  11
HETATM   11  C   UNL     1     -41.740 -51.785  15.202  1.00  0.00     0.156 C 
BRANCH  11  12
HETATM   12  C   UNL     1     -41.704 -52.894  16.251  1.00  0.00     0.187 C 
BRANCH  12  13
HETATM   13  O   UNL     1     -41.058 -54.044  15.699  1.00  0.00    -0.390 OA
BRANCH  13  14
HETATM   14  C   UNL     1     -41.743 -55.247  16.049  1.00  0.00     0.163 C 
HETATM   15  C   UNL     1     -43.026 -55.331  15.246  1.00  0.00     0.033 C 
ENDBRANCH  13  14
ENDBRANCH  12  13
ENDBRANCH  11  12
ENDBRANCH   1  11
BRANCH   2  16
HETATM   16  C   UNL     1     -41.202 -52.887  12.345  1.00  0.00     0.240 C 
BRANCH  16  17
HETATM   17  O   UNL     1     -41.169 -52.559  10.961  1.00  0.00    -0.393 OA
HETATM   18  H   UNL     1     -41.111 -51.587  10.922  1.00  0.00     0.209 HD
ENDBRANCH  16  17
ENDBRANCH   2  16
TORSDOF 6
ENDMDL
MODEL 6
REMARK VINA RESULT:      -4.5      2.250      5.133
REMARK  6 active torsions:
REMARK  status: ('A' for Active; 'I' for Inactive)
REMARK    1  A    between atoms: C_2  and  O_3 
REMARK    2  A    between atoms: O_3  and  C_4 
REMARK    3  A    between atoms: C_4  and  C_5 
REMARK    4  A    between atoms: C_5  and  N_6 
REMARK    5  A    between atoms: C_7  and  C_8 
REMARK    6  A    between atoms: C_8  and  O_9 
ROOT
HETATM    1  N   UNL     1     -42.202 -50.670  12.804  1.00  0.00    -0.331 N 
HETATM    2  C   UNL     1     -41.186 -51.297  12.110  1.00  0.00     0.108 A 
HETATM    3  N   UNL     1     -40.692 -50.497  11.179  1.00  0.00    -0.342 N 
ATOM      4  HN  UNL     1     -39.933 -50.705  10.531  1.00  0.00     0.167 HD
HETATM    5  C   UNL     1     -41.410 -49.332  11.264  1.00  0.00     0.060 A 
HETATM    6  C   UNL     1     -41.311 -48.169  10.487  1.00  0.00     0.032 A 
HETATM    7  C   UNL     1     -42.173 -47.100  10.758  1.00  0.00     0.002 A 
HETATM    8  C   UNL     1     -43.102 -47.181  11.796  1.00  0.00     0.002 A 
HETATM    9  C   UNL     1     -43.203 -48.327  12.593  1.00  0.00     0.032 A 
HETATM   10  C   UNL     1     -42.352 -49.396  12.287  1.00  0.00     0.062 A 
ENDROOT
BRANCH   1  11
HETATM   11  C   UNL     1     -42.985 -51.216  13.895  1.00  0.00     0.156 C 
BRANCH  11  12
HETATM   12  C   UNL     1     -44.206 -52.004  13.423  1.00  0.00     0.187 C 
BRANCH  12  13
HETATM   13  O   UNL     1     -45.273 -51.095  13.142  1.00  0.00    -0.390 OA
BRANCH  13  14
HETATM   14  C   UNL     1     -46.543 -51.670  13.450  1.00  0.00     0.163 C 
HETATM   15  C   UNL     1     -46.846 -51.429  14.916  1.00  0.00     0.033 C 
ENDBRANCH  13  14
ENDBRANCH  12  13
ENDBRANCH  11  12
ENDBRANCH   1  11
BRANCH   2  16
HETATM   16  C   UNL     1     -40.726 -52.694  12.353  1.00  0.00     0.240 C 
BRANCH  16  17
HETATM   17  O   UNL     1     -40.646 -53.363  11.100  1.00  0.00    -0.393 OA
HETATM   18  H   UNL     1     -40.598 -52.660  10.427  1.00  0.00     0.209 HD
ENDBRANCH  16  17
ENDBRANCH   2  16
TORSDOF 6
ENDMDL
MODEL 7
REMARK VINA RESULT:      -4.4      3.289      4.897
REMARK  6 active torsions:
REMARK  status: ('A' for Active; 'I' for Inactive)
REMARK    1  A    between atoms: C_2  and  O_3 
REMARK    2  A    between atoms: O_3  and  C_4 
REMARK    3  A    between atoms: C_4  and  C_5 
REMARK    4  A    between atoms: C_5  and  N_6 
REMARK    5  A    between atoms: C_7  and  C_8 
REMARK    6  A    between atoms: C_8  and  O_9 
ROOT
HETATM    1  N   UNL     1     -39.751 -50.525  12.290  1.00  0.00    -0.331 N 
HETATM    2  C   UNL     1     -40.864 -51.330  12.147  1.00  0.00     0.108 A 
HETATM    3  N   UNL     1     -41.887 -50.635  11.677  1.00  0.00    -0.342 N 
ATOM      4  HN  UNL     1     -42.824 -50.983  11.472  1.00  0.00     0.167 HD
HETATM    5  C   UNL     1     -41.430 -49.351  11.523  1.00  0.00     0.060 A 
HETATM    6  C   UNL     1     -42.118 -48.211  11.083  1.00  0.00     0.032 A 
HETATM    7  C   UNL     1     -41.434 -46.991  11.020  1.00  0.00     0.002 A 
HETATM    8  C   UNL     1     -40.085 -46.914  11.369  1.00  0.00     0.002 A 
HETATM    9  C   UNL     1     -39.378 -48.045  11.793  1.00  0.00     0.032 A 
HETATM   10  C   UNL     1     -40.089 -49.249  11.877  1.00  0.00     0.062 A 
ENDROOT
BRANCH   1  11
HETATM   11  C   UNL     1     -38.442 -50.918  12.774  1.00  0.00     0.156 C 
BRANCH  11  12
HETATM   12  C   UNL     1     -38.329 -50.892  14.296  1.00  0.00     0.187 C 
BRANCH  12  13
HETATM   13  O   UNL     1     -37.278 -50.000  14.675  1.00  0.00    -0.390 OA
BRANCH  13  14
HETATM   14  C   UNL     1     -37.795 -48.787  15.224  1.00  0.00     0.163 C 
HETATM   15  C   UNL     1     -37.048 -47.617  14.616  1.00  0.00     0.033 C 
ENDBRANCH  13  14
ENDBRANCH  12  13
ENDBRANCH  11  12
ENDBRANCH   1  11
BRANCH   2  16
HETATM   16  C   UNL     1     -40.919 -52.776  12.502  1.00  0.00     0.240 C 
BRANCH  16  17
HETATM   17  O   UNL     1     -40.562 -53.535  11.354  1.00  0.00    -0.393 OA
HETATM   18  H   UNL     1     -40.643 -52.924  10.598  1.00  0.00     0.209 HD
ENDBRANCH  16  17
ENDBRANCH   2  16
TORSDOF 6
ENDMDL
MODEL 8
REMARK VINA RESULT:      -4.3      2.940      5.835
REMARK  6 active torsions:
REMARK  status: ('A' for Active; 'I' for Inactive)
REMARK    1  A    between atoms: C_2  and  O_3 
REMARK    2  A    between atoms: O_3  and  C_4 
REMARK    3  A    between atoms: C_4  and  C_5 
REMARK    4  A    between atoms: C_5  and  N_6 
REMARK    5  A    between atoms: C_7  and  C_8 
REMARK    6  A    between atoms: C_8  and  O_9 
ROOT
HETATM    1  N   UNL     1     -44.365 -53.535  13.679  1.00  0.00    -0.331 N 
HETATM    2  C   UNL     1     -44.815 -52.444  12.962  1.00  0.00     0.108 A 
HETATM    3  N   UNL     1     -43.800 -51.786  12.424  1.00  0.00    -0.342 N 
ATOM      4  HN  UNL     1     -43.849 -50.950  11.842  1.00  0.00     0.167 HD
HETATM    5  C   UNL     1     -42.669 -52.459  12.809  1.00  0.00     0.060 A 
HETATM    6  C   UNL     1     -41.325 -52.167  12.537  1.00  0.00     0.032 A 
HETATM    7  C   UNL     1     -40.332 -53.004  13.057  1.00  0.00     0.002 A 
HETATM    8  C   UNL     1     -40.672 -54.124  13.818  1.00  0.00     0.002 A 
HETATM    9  C   UNL     1     -42.009 -54.441  14.085  1.00  0.00     0.032 A 
HETATM   10  C   UNL     1     -42.986 -53.574  13.580  1.00  0.00     0.062 A 
ENDROOT
BRANCH   1  11
HETATM   11  C   UNL     1     -45.169 -54.496  14.408  1.00  0.00     0.156 C 
BRANCH  11  12
HETATM   12  C   UNL     1     -45.306 -54.163  15.893  1.00  0.00     0.187 C 
BRANCH  12  13
HETATM   13  O   UNL     1     -46.526 -53.447  16.103  1.00  0.00    -0.390 OA
BRANCH  13  14
HETATM   14  C   UNL     1     -46.282 -52.151  16.651  1.00  0.00     0.163 C 
HETATM   15  C   UNL     1     -47.473 -51.262  16.352  1.00  0.00     0.033 C 
ENDBRANCH  13  14
ENDBRANCH  12  13
ENDBRANCH  11  12
ENDBRANCH   1  11
BRANCH   2  16
HETATM   16  C   UNL     1     -46.244 -52.039  12.835  1.00  0.00     0.240 C 
BRANCH  16  17
HETATM   17  O   UNL     1     -46.796 -52.694  11.700  1.00  0.00    -0.393 OA
HETATM   18  H   UNL     1     -46.905 -53.627  11.960  1.00  0.00     0.209 HD
ENDBRANCH  16  17
ENDBRANCH   2  16
TORSDOF 6
ENDMDL
MODEL 9
REMARK VINA RESULT:      -4.3      1.440      2.733
REMARK  6 active torsions:
REMARK  status: ('A' for Active; 'I' for Inactive)
REMARK    1  A    between atoms: C_2  and  O_3 
REMARK    2  A    between atoms: O_3  and  C_4 
REMARK    3  A    between atoms: C_4  and  C_5 
REMARK    4  A    between atoms: C_5  and  N_6 
REMARK    5  A    between atoms: C_7  and  C_8 
REMARK    6  A    between atoms: C_8  and  O_9 
ROOT
HETATM    1  N   UNL     1     -42.158 -51.971  12.626  1.00  0.00    -0.331 N 
HETATM    2  C   UNL     1     -42.512 -50.642  12.505  1.00  0.00     0.108 A 
HETATM    3  N   UNL     1     -43.790 -50.469  12.800  1.00  0.00    -0.342 N 
ATOM      4  HN  UNL     1     -44.308 -49.590  12.798  1.00  0.00     0.167 HD
HETATM    5  C   UNL     1     -44.276 -51.714  13.108  1.00  0.00     0.060 A 
HETATM    6  C   UNL     1     -45.579 -52.096  13.463  1.00  0.00     0.032 A 
HETATM    7  C   UNL     1     -45.840 -53.446  13.722  1.00  0.00     0.002 A 
HETATM    8  C   UNL     1     -44.818 -54.394  13.650  1.00  0.00     0.002 A 
HETATM    9  C   UNL     1     -43.510 -54.029  13.315  1.00  0.00     0.032 A 
HETATM   10  C   UNL     1     -43.276 -52.677  13.031  1.00  0.00     0.062 A 
ENDROOT
BRANCH   1  11
HETATM   11  C   UNL     1     -40.852 -52.555  12.390  1.00  0.00     0.156 C 
BRANCH  11  12
HETATM   12  C   UNL     1     -39.930 -52.480  13.605  1.00  0.00     0.187 C 
BRANCH  12  13
HETATM   13  O   UNL     1     -38.584 -52.288  13.164  1.00  0.00    -0.390 OA
BRANCH  13  14
HETATM   14  C   UNL     1     -38.210 -50.911  13.212  1.00  0.00     0.163 C 
HETATM   15  C   UNL     1     -37.461 -50.563  11.940  1.00  0.00     0.033 C 
ENDBRANCH  13  14
ENDBRANCH  12  13
ENDBRANCH  11  12
ENDBRANCH   1  11
BRANCH   2  16
HETATM   16  C   UNL     1     -41.592 -49.552  12.071  1.00  0.00     0.240 C 
BRANCH  16  17
HETATM   17  O   UNL     1     -42.069 -49.027  10.838  1.00  0.00    -0.393 OA
HETATM   18  H   UNL     1     -43.039 -48.984  10.927  1.00  0.00     0.209 HD
ENDBRANCH  16  17
ENDBRANCH   2  16
TORSDOF 6
ENDMDL
