MODEL 1
REMARK VINA RESULT:      -6.4      0.000      0.000
REMARK  5 active torsions:
REMARK  status: ('A' for Active; 'I' for Inactive)
REMARK    1  A    between atoms: C_2  and  C_3 
REMARK    2  A    between atoms: C_2  and  N_10 
REMARK    3  A    between atoms: C_3  and  N_4 
REMARK       I    between atoms: N_10  and  C_11 
REMARK       I    between atoms: C_11  and  N_13 
REMARK    4  A    between atoms: N_13  and  C_14 
REMARK    5  A    between atoms: C_21  and  N_22 
ROOT
HETATM    1  N   UNL     1     -41.398 -53.290  12.175  1.00  0.00    -0.337 N 
HETATM    2  C   UNL     1     -41.321 -51.928  12.316  1.00  0.00     0.321 C 
HETATM    3  O   UNL     1     -41.524 -51.314  13.349  1.00  0.00    -0.247 OA
HETATM    4  N   UNL     1     -40.934 -51.264  11.172  1.00  0.00    -0.305 N 
HETATM    5  H   UNL     1     -41.753 -53.542  11.263  1.00  0.00     0.164 HD
HETATM    6  H   UNL     1     -40.327 -51.773  10.539  1.00  0.00     0.171 HD
ENDROOT
BRANCH   1   7
HETATM    7  C   UNL     1     -41.841 -54.194  13.267  1.00  0.00     0.099 C 
HETATM    8  C   UNL     1     -40.718 -54.286  14.309  1.00  0.00     0.034 C 
BRANCH   7   9
HETATM    9  C   UNL     1     -43.168 -53.813  14.019  1.00  0.00     0.141 C 
BRANCH   9  10
HETATM   10  N   UNL     1     -44.407 -53.984  13.270  1.00  0.00    -0.410 N 
HETATM   11  C   UNL     1     -45.034 -52.784  12.748  1.00  0.00     0.117 C 
HETATM   12  C   UNL     1     -45.914 -52.112  13.794  1.00  0.00     0.019 C 
HETATM   13  C   UNL     1     -46.901 -53.100  14.422  1.00  0.00     0.003 C 
HETATM   14  C   UNL     1     -46.213 -54.381  14.885  1.00  0.00     0.019 C 
HETATM   15  C   UNL     1     -45.373 -54.959  13.758  1.00  0.00     0.117 C 
ENDBRANCH   9  10
ENDBRANCH   7   9
ENDBRANCH   1   7
BRANCH   4  16
HETATM   16  C   UNL     1     -40.605 -49.881  11.339  1.00  0.00     0.090 A 
HETATM   17  C   UNL     1     -41.559 -48.882  11.137  1.00  0.00     0.121 A 
HETATM   18  N   UNL     1     -41.359 -47.578  11.380  1.00  0.00    -0.360 N 
HETATM   19  C   UNL     1     -40.155 -47.284  11.863  1.00  0.00     0.181 A 
ATOM     20  HN  UNL     1     -42.072 -46.869  11.209  1.00  0.00     0.166 HD
HETATM   21  N   UNL     1     -39.137 -48.140  12.065  1.00  0.00    -0.341 N 
HETATM   22  C   UNL     1     -39.357 -49.452  11.792  1.00  0.00     0.111 A 
ATOM     23  HN  UNL     1     -38.234 -47.816  12.409  1.00  0.00     0.167 HD
BRANCH  22  24
HETATM   24  N   UNL     1     -38.275 -50.364  11.912  1.00  0.00    -0.276 NA
HETATM   25  C   UNL     1     -37.198 -50.040  10.965  1.00  0.00     0.118 C 
HETATM   26  C   UNL     1     -37.769 -50.555  13.277  1.00  0.00     0.118 C 
ENDBRANCH  22  24
ENDBRANCH   4  16
TORSDOF 5
ENDMDL
MODEL 2
REMARK VINA RESULT:      -6.3      2.161      3.993
REMARK  5 active torsions:
REMARK  status: ('A' for Active; 'I' for Inactive)
REMARK    1  A    between atoms: C_2  and  C_3 
REMARK    2  A    between atoms: C_2  and  N_10 
REMARK    3  A    between atoms: C_3  and  N_4 
REMARK       I    between atoms: N_10  and  C_11 
REMARK       I    between atoms: C_11  and  N_13 
REMARK    4  A    between atoms: N_13  and  C_14 
REMARK    5  A    between atoms: C_21  and  N_22 
ROOT
HETATM    1  N   UNL     1     -40.829 -50.854  11.192  1.00  0.00    -0.337 N 
HETATM    2  C   UNL     1     -41.487 -49.658  11.315  1.00  0.00     0.321 C 
HETATM    3  O   UNL     1     -42.232 -49.354  12.230  1.00  0.00    -0.247 OA
HETATM    4  N   UNL     1     -41.204 -48.754  10.315  1.00  0.00    -0.305 N 
HETATM    5  H   UNL     1     -40.757 -51.133  10.224  1.00  0.00     0.164 HD
HETATM    6  H   UNL     1     -40.283 -48.820   9.896  1.00  0.00     0.171 HD
ENDROOT
BRANCH   1   7
HETATM    7  C   UNL     1     -41.025 -51.987  12.133  1.00  0.00     0.099 C 
HETATM    8  C   UNL     1     -40.692 -51.505  13.552  1.00  0.00     0.034 C 
BRANCH   7   9
HETATM    9  C   UNL     1     -42.449 -52.651  12.170  1.00  0.00     0.141 C 
BRANCH   9  10
HETATM   10  N   UNL     1     -43.168 -52.570  13.436  1.00  0.00    -0.410 N 
HETATM   11  C   UNL     1     -43.343 -53.806  14.175  1.00  0.00     0.117 C 
HETATM   12  C   UNL     1     -44.558 -54.583  13.687  1.00  0.00     0.019 C 
HETATM   13  C   UNL     1     -45.812 -53.706  13.646  1.00  0.00     0.003 C 
HETATM   14  C   UNL     1     -45.563 -52.382  12.930  1.00  0.00     0.019 C 
HETATM   15  C   UNL     1     -44.333 -51.700  13.506  1.00  0.00     0.117 C 
ENDBRANCH   9  10
ENDBRANCH   7   9
ENDBRANCH   1   7
BRANCH   4  16
HETATM   16  C   UNL     1     -41.670 -47.419  10.534  1.00  0.00     0.090 A 
HETATM   17  C   UNL     1     -40.945 -46.520  11.319  1.00  0.00     0.121 A 
HETATM   18  N   UNL     1     -41.258 -45.225  11.480  1.00  0.00    -0.360 N 
HETATM   19  C   UNL     1     -42.333 -44.829  10.805  1.00  0.00     0.181 A 
ATOM     20  HN  UNL     1     -40.715 -44.596  12.071  1.00  0.00     0.166 HD
HETATM   21  N   UNL     1     -43.140 -45.597  10.051  1.00  0.00    -0.341 N 
HETATM   22  C   UNL     1     -42.813 -46.909   9.919  1.00  0.00     0.111 A 
ATOM     23  HN  UNL     1     -43.965 -45.209   9.595  1.00  0.00     0.167 HD
BRANCH  22  24
HETATM   24  N   UNL     1     -43.695 -47.761   9.203  1.00  0.00    -0.276 NA
HETATM   25  C   UNL     1     -45.100 -47.459   9.512  1.00  0.00     0.118 C 
HETATM   26  C   UNL     1     -43.453 -47.833   7.756  1.00  0.00     0.118 C 
ENDBRANCH  22  24
ENDBRANCH   4  16
TORSDOF 5
ENDMDL
MODEL 3
REMARK VINA RESULT:      -6.2      2.467      4.620
REMARK  5 active torsions:
REMARK  status: ('A' for Active; 'I' for Inactive)
REMARK    1  A    between atoms: C_2  and  C_3 
REMARK    2  A    between atoms: C_2  and  N_10 
REMARK    3  A    between atoms: C_3  and  N_4 
REMARK       I    between atoms: N_10  and  C_11 
REMARK       I    between atoms: C_11  and  N_13 
REMARK    4  A    between atoms: N_13  and  C_14 
REMARK    5  A    between atoms: C_21  and  N_22 
ROOT
HETATM    1  N   UNL     1     -42.251 -51.280  12.173  1.00  0.00    -0.337 N 
HETATM    2  C   UNL     1     -42.291 -49.924  11.973  1.00  0.00     0.321 C 
HETATM    3  O   UNL     1     -42.870 -49.123  12.686  1.00  0.00    -0.247 OA
HETATM    4  N   UNL     1     -41.562 -49.493  10.886  1.00  0.00    -0.305 N 
HETATM    5  H   UNL     1     -42.254 -51.778  11.294  1.00  0.00     0.164 HD
HETATM    6  H   UNL     1     -40.750 -50.047  10.640  1.00  0.00     0.171 HD
ENDROOT
BRANCH   1   7
HETATM    7  C   UNL     1     -43.004 -51.961  13.257  1.00  0.00     0.099 C 
HETATM    8  C   UNL     1     -43.908 -53.029  12.625  1.00  0.00     0.034 C 
BRANCH   7   9
HETATM    9  C   UNL     1     -42.162 -52.651  14.391  1.00  0.00     0.141 C 
BRANCH   9  10
HETATM   10  N   UNL     1     -41.750 -54.028  14.145  1.00  0.00    -0.410 N 
HETATM   11  C   UNL     1     -41.856 -54.956  15.255  1.00  0.00     0.117 C 
HETATM   12  C   UNL     1     -40.631 -54.892  16.158  1.00  0.00     0.019 C 
HETATM   13  C   UNL     1     -39.332 -55.029  15.360  1.00  0.00     0.003 C 
HETATM   14  C   UNL     1     -39.296 -54.092  14.156  1.00  0.00     0.019 C 
HETATM   15  C   UNL     1     -40.563 -54.252  13.332  1.00  0.00     0.117 C 
ENDBRANCH   9  10
ENDBRANCH   7   9
ENDBRANCH   1   7
BRANCH   4  16
HETATM   16  C   UNL     1     -41.376 -48.077  10.786  1.00  0.00     0.090 A 
HETATM   17  C   UNL     1     -40.332 -47.436  11.455  1.00  0.00     0.121 A 
HETATM   18  N   UNL     1     -40.026 -46.137  11.323  1.00  0.00    -0.360 N 
HETATM   19  C   UNL     1     -40.797 -45.473  10.467  1.00  0.00     0.181 A 
ATOM     20  HN  UNL     1     -39.264 -45.695  11.838  1.00  0.00     0.166 HD
HETATM   21  N   UNL     1     -41.855 -45.957   9.792  1.00  0.00    -0.341 N 
HETATM   22  C   UNL     1     -42.157 -47.271   9.957  1.00  0.00     0.111 A 
ATOM     23  HN  UNL     1     -42.410 -45.360   9.179  1.00  0.00     0.167 HD
BRANCH  22  24
HETATM   24  N   UNL     1     -43.320 -47.787   9.327  1.00  0.00    -0.276 NA
HETATM   25  C   UNL     1     -44.540 -47.361  10.028  1.00  0.00     0.118 C 
HETATM   26  C   UNL     1     -43.403 -47.548   7.881  1.00  0.00     0.118 C 
ENDBRANCH  22  24
ENDBRANCH   4  16
TORSDOF 5
ENDMDL
MODEL 4
REMARK VINA RESULT:      -6.1      2.826      7.045
REMARK  5 active torsions:
REMARK  status: ('A' for Active; 'I' for Inactive)
REMARK    1  A    between atoms: C_2  and  C_3 
REMARK    2  A    between atoms: C_2  and  N_10 
REMARK    3  A    between atoms: C_3  and  N_4 
REMARK       I    between atoms: N_10  and  C_11 
REMARK       I    between atoms: C_11  and  N_13 
REMARK    4  A    between atoms: N_13  and  C_14 
REMARK    5  A    between atoms: C_21  and  N_22 
ROOT
HETATM    1  N   UNL     1     -41.578 -48.422   9.990  1.00  0.00    -0.337 N 
HETATM    2  C   UNL     1     -41.425 -49.261  11.064  1.00  0.00     0.321 C 
HETATM    3  O   UNL     1     -41.925 -49.098  12.163  1.00  0.00    -0.247 OA
HETATM    4  N   UNL     1     -40.670 -50.383  10.799  1.00  0.00    -0.305 N 
HETATM    5  H   UNL     1     -40.734 -48.381   9.437  1.00  0.00     0.164 HD
HETATM    6  H   UNL     1     -40.698 -50.729   9.847  1.00  0.00     0.171 HD
ENDROOT
BRANCH   1   7
HETATM    7  C   UNL     1     -42.312 -47.133  10.068  1.00  0.00     0.099 C 
HETATM    8  C   UNL     1     -43.802 -47.433  10.286  1.00  0.00     0.034 C 
BRANCH   7   9
HETATM    9  C   UNL     1     -41.857 -46.113  11.175  1.00  0.00     0.141 C 
BRANCH   9  10
HETATM   10  N   UNL     1     -40.432 -45.812  11.229  1.00  0.00    -0.410 N 
HETATM   11  C   UNL     1     -39.744 -46.101  12.474  1.00  0.00     0.117 C 
HETATM   12  C   UNL     1     -39.888 -44.958  13.471  1.00  0.00     0.019 C 
HETATM   13  C   UNL     1     -39.502 -43.613  12.850  1.00  0.00     0.003 C 
HETATM   14  C   UNL     1     -40.185 -43.385  11.505  1.00  0.00     0.019 C 
HETATM   15  C   UNL     1     -39.967 -44.585  10.598  1.00  0.00     0.117 C 
ENDBRANCH   9  10
ENDBRANCH   7   9
ENDBRANCH   1   7
BRANCH   4  16
HETATM   16  C   UNL     1     -40.691 -51.397  11.809  1.00  0.00     0.090 A 
HETATM   17  C   UNL     1     -41.686 -52.377  11.828  1.00  0.00     0.121 A 
HETATM   18  N   UNL     1     -41.710 -53.421  12.670  1.00  0.00    -0.360 N 
HETATM   19  C   UNL     1     -40.679 -53.478  13.508  1.00  0.00     0.181 A 
ATOM     20  HN  UNL     1     -42.458 -54.114  12.668  1.00  0.00     0.166 HD
HETATM   21  N   UNL     1     -39.681 -52.583  13.621  1.00  0.00    -0.341 N 
HETATM   22  C   UNL     1     -39.689 -51.525  12.770  1.00  0.00     0.111 A 
ATOM     23  HN  UNL     1     -38.946 -52.695  14.319  1.00  0.00     0.167 HD
BRANCH  22  24
HETATM   24  N   UNL     1     -38.699 -50.519  12.925  1.00  0.00    -0.276 NA
HETATM   25  C   UNL     1     -38.944 -49.710  14.128  1.00  0.00     0.118 C 
HETATM   26  C   UNL     1     -37.311 -50.994  12.855  1.00  0.00     0.118 C 
ENDBRANCH  22  24
ENDBRANCH   4  16
TORSDOF 5
ENDMDL
MODEL 5
REMARK VINA RESULT:      -6.0      2.083      6.652
REMARK  5 active torsions:
REMARK  status: ('A' for Active; 'I' for Inactive)
REMARK    1  A    between atoms: C_2  and  C_3 
REMARK    2  A    between atoms: C_2  and  N_10 
REMARK    3  A    between atoms: C_3  and  N_4 
REMARK       I    between atoms: N_10  and  C_11 
REMARK       I    between atoms: C_11  and  N_13 
REMARK    4  A    between atoms: N_13  and  C_14 
REMARK    5  A    between atoms: C_21  and  N_22 
ROOT
HETATM    1  N   UNL     1     -41.512 -50.327  11.374  1.00  0.00    -0.337 N 
HETATM    2  C   UNL     1     -42.199 -51.073  12.296  1.00  0.00     0.321 C 
HETATM    3  O   UNL     1     -42.629 -50.660  13.359  1.00  0.00    -0.247 OA
HETATM    4  N   UNL     1     -42.426 -52.376  11.909  1.00  0.00    -0.305 N 
HETATM    5  H   UNL     1     -40.804 -50.879  10.912  1.00  0.00     0.164 HD
HETATM    6  H   UNL     1     -42.514 -52.541  10.913  1.00  0.00     0.171 HD
ENDROOT
BRANCH   1   7
HETATM    7  C   UNL     1     -41.118 -48.913  11.607  1.00  0.00     0.099 C 
HETATM    8  C   UNL     1     -39.594 -48.854  11.782  1.00  0.00     0.034 C 
BRANCH   7   9
HETATM    9  C   UNL     1     -41.519 -47.865  10.506  1.00  0.00     0.141 C 
BRANCH   9  10
HETATM   10  N   UNL     1     -42.599 -46.947  10.850  1.00  0.00    -0.410 N 
HETATM   11  C   UNL     1     -43.892 -47.533  11.151  1.00  0.00     0.117 C 
HETATM   12  C   UNL     1     -44.696 -47.795   9.885  1.00  0.00     0.019 C 
HETATM   13  C   UNL     1     -44.775 -46.550   8.996  1.00  0.00     0.003 C 
HETATM   14  C   UNL     1     -43.403 -45.920   8.770  1.00  0.00     0.019 C 
HETATM   15  C   UNL     1     -42.703 -45.702  10.102  1.00  0.00     0.117 C 
ENDBRANCH   9  10
ENDBRANCH   7   9
ENDBRANCH   1   7
BRANCH   4  16
HETATM   16  C   UNL     1     -43.344 -53.114  12.724  1.00  0.00     0.090 A 
HETATM   17  C   UNL     1     -44.712 -53.120  12.446  1.00  0.00     0.121 A 
HETATM   18  N   UNL     1     -45.616 -53.872  13.092  1.00  0.00    -0.360 N 
HETATM   19  C   UNL     1     -45.108 -54.656  14.038  1.00  0.00     0.181 A 
ATOM     20  HN  UNL     1     -46.613 -53.844  12.874  1.00  0.00     0.166 HD
HETATM   21  N   UNL     1     -43.823 -54.716  14.430  1.00  0.00    -0.341 N 
HETATM   22  C   UNL     1     -42.929 -53.931  13.775  1.00  0.00     0.111 A 
ATOM     23  HN  UNL     1     -43.531 -55.329  15.192  1.00  0.00     0.167 HD
BRANCH  22  24
HETATM   24  N   UNL     1     -41.583 -53.908  14.226  1.00  0.00    -0.276 NA
HETATM   25  C   UNL     1     -41.463 -54.479  15.576  1.00  0.00     0.118 C 
HETATM   26  C   UNL     1     -40.604 -54.484  13.296  1.00  0.00     0.118 C 
ENDBRANCH  22  24
ENDBRANCH   4  16
TORSDOF 5
ENDMDL
MODEL 6
REMARK VINA RESULT:      -5.9      1.569      2.223
REMARK  5 active torsions:
REMARK  status: ('A' for Active; 'I' for Inactive)
REMARK    1  A    between atoms: C_2  and  C_3 
REMARK    2  A    between atoms: C_2  and  N_10 
REMARK    3  A    between atoms: C_3  and  N_4 
REMARK       I    between atoms: N_10  and  C_11 
REMARK       I    between atoms: C_11  and  N_13 
REMARK    4  A    between atoms: N_13  and  C_14 
REMARK    5  A    between atoms: C_21  and  N_22 
ROOT
HETATM    1  N   UNL     1     -42.833 -52.682  12.297  1.00  0.00    -0.337 N 
HETATM    2  C   UNL     1     -42.262 -51.437  12.235  1.00  0.00     0.321 C 
HETATM    3  O   UNL     1     -42.612 -50.468  12.885  1.00  0.00    -0.247 OA
HETATM    4  N   UNL     1     -41.181 -51.355  11.383  1.00  0.00    -0.305 N 
HETATM    5  H   UNL     1     -42.830 -53.130  11.392  1.00  0.00     0.164 HD
HETATM    6  H   UNL     1     -40.637 -52.202  11.264  1.00  0.00     0.171 HD
ENDROOT
BRANCH   1   7
HETATM    7  C   UNL     1     -44.037 -52.981  13.114  1.00  0.00     0.099 C 
HETATM    8  C   UNL     1     -44.611 -54.330  12.661  1.00  0.00     0.034 C 
BRANCH   7   9
HETATM    9  C   UNL     1     -43.850 -53.034  14.674  1.00  0.00     0.141 C 
BRANCH   9  10
HETATM   10  N   UNL     1     -44.425 -51.928  15.432  1.00  0.00    -0.410 N 
HETATM   11  C   UNL     1     -44.904 -52.224  16.769  1.00  0.00     0.117 C 
HETATM   12  C   UNL     1     -46.325 -52.772  16.745  1.00  0.00     0.019 C 
HETATM   13  C   UNL     1     -47.265 -51.874  15.938  1.00  0.00     0.003 C 
HETATM   14  C   UNL     1     -46.687 -51.521  14.570  1.00  0.00     0.019 C 
HETATM   15  C   UNL     1     -45.274 -50.982  14.723  1.00  0.00     0.117 C 
ENDBRANCH   9  10
ENDBRANCH   7   9
ENDBRANCH   1   7
BRANCH   4  16
HETATM   16  C   UNL     1     -40.410 -50.152  11.474  1.00  0.00     0.090 A 
HETATM   17  C   UNL     1     -40.862 -48.960  10.903  1.00  0.00     0.121 A 
HETATM   18  N   UNL     1     -40.253 -47.773  11.040  1.00  0.00    -0.360 N 
HETATM   19  C   UNL     1     -39.161 -47.796  11.797  1.00  0.00     0.181 A 
ATOM     20  HN  UNL     1     -40.601 -46.921  10.598  1.00  0.00     0.166 HD
HETATM   21  N   UNL     1     -38.599 -48.876  12.369  1.00  0.00    -0.341 N 
HETATM   22  C   UNL     1     -39.222 -50.071  12.200  1.00  0.00     0.111 A 
ATOM     23  HN  UNL     1     -37.737 -48.801  12.909  1.00  0.00     0.167 HD
BRANCH  22  24
HETATM   24  N   UNL     1     -38.605 -51.240  12.716  1.00  0.00    -0.276 NA
HETATM   25  C   UNL     1     -37.147 -51.203  12.526  1.00  0.00     0.118 C 
HETATM   26  C   UNL     1     -38.971 -51.581  14.097  1.00  0.00     0.118 C 
ENDBRANCH  22  24
ENDBRANCH   4  16
TORSDOF 5
ENDMDL
MODEL 7
REMARK VINA RESULT:      -5.9      1.602      3.026
REMARK  5 active torsions:
REMARK  status: ('A' for Active; 'I' for Inactive)
REMARK    1  A    between atoms: C_2  and  C_3 
REMARK    2  A    between atoms: C_2  and  N_10 
REMARK    3  A    between atoms: C_3  and  N_4 
REMARK       I    between atoms: N_10  and  C_11 
REMARK       I    between atoms: C_11  and  N_13 
REMARK    4  A    between atoms: N_13  and  C_14 
REMARK    5  A    between atoms: C_21  and  N_22 
ROOT
HETATM    1  N   UNL     1     -41.342 -53.052  14.615  1.00  0.00    -0.337 N 
HETATM    2  C   UNL     1     -40.465 -52.592  13.667  1.00  0.00     0.321 C 
HETATM    3  O   UNL     1     -40.429 -52.955  12.504  1.00  0.00    -0.247 OA
HETATM    4  N   UNL     1     -39.612 -51.608  14.118  1.00  0.00    -0.305 N 
HETATM    5  H   UNL     1     -40.905 -53.099  15.524  1.00  0.00     0.164 HD
HETATM    6  H   UNL     1     -39.965 -51.011  14.858  1.00  0.00     0.171 HD
ENDROOT
BRANCH   1   7
HETATM    7  C   UNL     1     -42.315 -54.144  14.355  1.00  0.00     0.099 C 
HETATM    8  C   UNL     1     -42.251 -55.141  15.521  1.00  0.00     0.034 C 
BRANCH   7   9
HETATM    9  C   UNL     1     -43.819 -53.732  14.154  1.00  0.00     0.141 C 
BRANCH   9  10
HETATM   10  N   UNL     1     -44.197 -52.411  14.640  1.00  0.00    -0.410 N 
HETATM   11  C   UNL     1     -45.122 -52.358  15.757  1.00  0.00     0.117 C 
HETATM   12  C   UNL     1     -46.568 -52.456  15.292  1.00  0.00     0.019 C 
HETATM   13  C   UNL     1     -46.878 -51.442  14.187  1.00  0.00     0.003 C 
HETATM   14  C   UNL     1     -45.838 -51.475  13.071  1.00  0.00     0.019 C 
HETATM   15  C   UNL     1     -44.439 -51.364  13.656  1.00  0.00     0.117 C 
ENDBRANCH   9  10
ENDBRANCH   7   9
ENDBRANCH   1   7
BRANCH   4  16
HETATM   16  C   UNL     1     -38.855 -50.931  13.110  1.00  0.00     0.090 A 
HETATM   17  C   UNL     1     -37.581 -51.372  12.746  1.00  0.00     0.121 A 
HETATM   18  N   UNL     1     -36.858 -50.861  11.737  1.00  0.00    -0.360 N 
HETATM   19  C   UNL     1     -37.460 -49.884  11.066  1.00  0.00     0.181 A 
ATOM     20  HN  UNL     1     -35.923 -51.196  11.505  1.00  0.00     0.166 HD
HETATM   21  N   UNL     1     -38.661 -49.342  11.336  1.00  0.00    -0.341 N 
HETATM   22  C   UNL     1     -39.365 -49.862  12.374  1.00  0.00     0.111 A 
ATOM     23  HN  UNL     1     -39.029 -48.569  10.782  1.00  0.00     0.167 HD
BRANCH  22  24
HETATM   24  N   UNL     1     -40.595 -49.252  12.737  1.00  0.00    -0.276 NA
HETATM   25  C   UNL     1     -40.419 -47.818  13.011  1.00  0.00     0.118 C 
HETATM   26  C   UNL     1     -41.711 -49.503  11.816  1.00  0.00     0.118 C 
ENDBRANCH  22  24
ENDBRANCH   4  16
TORSDOF 5
ENDMDL
MODEL 8
REMARK VINA RESULT:      -5.8      1.975      3.165
REMARK  5 active torsions:
REMARK  status: ('A' for Active; 'I' for Inactive)
REMARK    1  A    between atoms: C_2  and  C_3 
REMARK    2  A    between atoms: C_2  and  N_10 
REMARK    3  A    between atoms: C_3  and  N_4 
REMARK       I    between atoms: N_10  and  C_11 
REMARK       I    between atoms: C_11  and  N_13 
REMARK    4  A    between atoms: N_13  and  C_14 
REMARK    5  A    between atoms: C_21  and  N_22 
ROOT
HETATM    1  N   UNL     1     -43.515 -50.732  12.855  1.00  0.00    -0.337 N 
HETATM    2  C   UNL     1     -42.961 -49.524  12.517  1.00  0.00     0.321 C 
HETATM    3  O   UNL     1     -42.994 -48.517  13.202  1.00  0.00    -0.247 OA
HETATM    4  N   UNL     1     -42.288 -49.529  11.315  1.00  0.00    -0.305 N 
HETATM    5  H   UNL     1     -43.878 -51.207  12.041  1.00  0.00     0.164 HD
HETATM    6  H   UNL     1     -41.867 -50.409  11.038  1.00  0.00     0.171 HD
ENDROOT
BRANCH   1   7
HETATM    7  C   UNL     1     -44.324 -50.936  14.084  1.00  0.00     0.099 C 
HETATM    8  C   UNL     1     -45.736 -51.375  13.671  1.00  0.00     0.034 C 
BRANCH   7   9
HETATM    9  C   UNL     1     -43.783 -51.974  15.134  1.00  0.00     0.141 C 
BRANCH   9  10
HETATM   10  N   UNL     1     -42.694 -52.836  14.689  1.00  0.00    -0.410 N 
HETATM   11  C   UNL     1     -43.059 -54.038  13.963  1.00  0.00     0.117 C 
HETATM   12  C   UNL     1     -43.401 -55.181  14.910  1.00  0.00     0.019 C 
HETATM   13  C   UNL     1     -42.302 -55.401  15.953  1.00  0.00     0.003 C 
HETATM   14  C   UNL     1     -41.892 -54.099  16.636  1.00  0.00     0.019 C 
HETATM   15  C   UNL     1     -41.571 -53.041  15.593  1.00  0.00     0.117 C 
ENDBRANCH   9  10
ENDBRANCH   7   9
ENDBRANCH   1   7
BRANCH   4  16
HETATM   16  C   UNL     1     -41.493 -48.371  11.043  1.00  0.00     0.090 A 
HETATM   17  C   UNL     1     -42.008 -47.295  10.316  1.00  0.00     0.121 A 
HETATM   18  N   UNL     1     -41.367 -46.134  10.117  1.00  0.00    -0.360 N 
HETATM   19  C   UNL     1     -40.170 -46.059  10.692  1.00  0.00     0.181 A 
ATOM     20  HN  UNL     1     -41.765 -45.371   9.569  1.00  0.00     0.166 HD
HETATM   21  N   UNL     1     -39.544 -47.030  11.381  1.00  0.00    -0.341 N 
HETATM   22  C   UNL     1     -40.206 -48.203  11.552  1.00  0.00     0.111 A 
ATOM     23  HN  UNL     1     -38.608 -46.890  11.760  1.00  0.00     0.167 HD
BRANCH  22  24
HETATM   24  N   UNL     1     -39.534 -49.275  12.198  1.00  0.00    -0.276 NA
HETATM   25  C   UNL     1     -38.244 -49.562  11.554  1.00  0.00     0.118 C 
HETATM   26  C   UNL     1     -39.405 -49.143  13.654  1.00  0.00     0.118 C 
ENDBRANCH  22  24
ENDBRANCH   4  16
TORSDOF 5
ENDMDL
MODEL 9
REMARK VINA RESULT:      -5.7      1.936      6.855
REMARK  5 active torsions:
REMARK  status: ('A' for Active; 'I' for Inactive)
REMARK    1  A    between atoms: C_2  and  C_3 
REMARK    2  A    between atoms: C_2  and  N_10 
REMARK    3  A    between atoms: C_3  and  N_4 
REMARK       I    between atoms: N_10  and  C_11 
REMARK       I    between atoms: C_11  and  N_13 
REMARK    4  A    between atoms: N_13  and  C_14 
REMARK    5  A    between atoms: C_21  and  N_22 
ROOT
HETATM    1  N   UNL     1     -41.812 -50.872  11.718  1.00  0.00    -0.337 N 
HETATM    2  C   UNL     1     -42.715 -51.290  12.661  1.00  0.00     0.321 C 
HETATM    3  O   UNL     1     -43.120 -50.620  13.595  1.00  0.00    -0.247 OA
HETATM    4  N   UNL     1     -43.199 -52.563  12.452  1.00  0.00    -0.305 N 
HETATM    5  H   UNL     1     -41.213 -51.631  11.425  1.00  0.00     0.164 HD
HETATM    6  H   UNL     1     -43.246 -52.874  11.488  1.00  0.00     0.171 HD
ENDROOT
BRANCH   1   7
HETATM    7  C   UNL     1     -41.130 -49.553  11.778  1.00  0.00     0.099 C 
HETATM    8  C   UNL     1     -39.619 -49.778  11.628  1.00  0.00     0.034 C 
BRANCH   7   9
HETATM    9  C   UNL     1     -41.565 -48.472  10.722  1.00  0.00     0.141 C 
BRANCH   9  10
HETATM   10  N   UNL     1     -42.711 -47.645  11.078  1.00  0.00    -0.410 N 
HETATM   11  C   UNL     1     -43.012 -46.524  10.208  1.00  0.00     0.117 C 
HETATM   12  C   UNL     1     -42.183 -45.298  10.569  1.00  0.00     0.019 C 
HETATM   13  C   UNL     1     -42.284 -44.966  12.060  1.00  0.00     0.003 C 
HETATM   14  C   UNL     1     -42.040 -46.190  12.938  1.00  0.00     0.019 C 
HETATM   15  C   UNL     1     -42.924 -47.341  12.486  1.00  0.00     0.117 C 
ENDBRANCH   9  10
ENDBRANCH   7   9
ENDBRANCH   1   7
BRANCH   4  16
HETATM   16  C   UNL     1     -44.317 -52.943  13.261  1.00  0.00     0.090 A 
HETATM   17  C   UNL     1     -45.627 -52.710  12.839  1.00  0.00     0.121 A 
HETATM   18  N   UNL     1     -46.722 -53.134  13.486  1.00  0.00    -0.360 N 
HETATM   19  C   UNL     1     -46.475 -53.834  14.589  1.00  0.00     0.181 A 
ATOM     20  HN  UNL     1     -47.668 -52.936  13.159  1.00  0.00     0.166 HD
HETATM   21  N   UNL     1     -45.269 -54.094  15.125  1.00  0.00    -0.341 N 
HETATM   22  C   UNL     1     -44.176 -53.637  14.462  1.00  0.00     0.111 A 
ATOM     23  HN  UNL     1     -45.180 -54.615  15.998  1.00  0.00     0.167 HD
BRANCH  22  24
HETATM   24  N   UNL     1     -42.897 -53.820  15.051  1.00  0.00    -0.276 NA
HETATM   25  C   UNL     1     -42.679 -52.876  16.158  1.00  0.00     0.118 C 
HETATM   26  C   UNL     1     -42.578 -55.201  15.434  1.00  0.00     0.118 C 
ENDBRANCH  22  24
ENDBRANCH   4  16
TORSDOF 5
ENDMDL
