MODEL 1
REMARK VINA RESULT:      -5.7      0.000      0.000
REMARK  7 active torsions:
REMARK  status: ('A' for Active; 'I' for Inactive)
REMARK    1  A    between atoms: C_2  and  C_3 
REMARK    2  A    between atoms: C_3  and  N_4 
REMARK    3  A    between atoms: N_7  and  C_8 
REMARK    4  A    between atoms: C_8  and  C_9 
REMARK    5  A    between atoms: N_13  and  C_14 
REMARK    6  A    between atoms: C_14  and  C_15 
REMARK       I    between atoms: C_15  and  N_17 
REMARK    7  A    between atoms: N_17  and  C_18 
ROOT
HETATM    1  N   UNL     1     -40.018 -50.384  12.152  1.00  0.00    -0.247 N 
HETATM    2  C   UNL     1     -40.719 -51.570  12.266  1.00  0.00     0.337 C 
HETATM    3  O   UNL     1     -40.173 -52.670  12.140  1.00  0.00    -0.246 OA
HETATM    4  N   UNL     1     -42.072 -51.452  12.515  1.00  0.00    -0.247 N 
HETATM    5  C   UNL     1     -42.728 -50.237  12.542  1.00  0.00     0.337 C 
HETATM    6  O   UNL     1     -43.887 -50.115  12.940  1.00  0.00    -0.246 OA
HETATM    7  N   UNL     1     -42.010 -49.162  12.069  1.00  0.00    -0.242 N 
HETATM    8  C   UNL     1     -40.641 -49.180  11.907  1.00  0.00     0.337 C 
HETATM    9  O   UNL     1     -40.026 -48.179  11.534  1.00  0.00    -0.246 OA
ENDROOT
BRANCH   7  10
HETATM   10  C   UNL     1     -42.706 -47.901  11.852  1.00  0.00     0.241 C 
BRANCH  10  11
HETATM   11  C   UNL     1     -43.245 -47.777  10.428  1.00  0.00     0.236 C 
HETATM   12  O   UNL     1     -42.534 -47.810   9.426  1.00  0.00    -0.272 OA
HETATM   13  N   UNL     1     -44.630 -47.643  10.382  1.00  0.00    -0.355 N 
HETATM   14  H   UNL     1     -45.144 -47.519  11.246  1.00  0.00     0.162 HD
BRANCH  13  15
HETATM   15  C   UNL     1     -45.354 -47.602   9.151  1.00  0.00     0.084 A 
HETATM   16  C   UNL     1     -46.698 -46.933   9.063  1.00  0.00     0.027 A 
HETATM   17  C   UNL     1     -46.599 -48.426   8.976  1.00  0.00     0.027 A 
ENDBRANCH  13  15
ENDBRANCH  10  11
ENDBRANCH   7  10
BRANCH   4  18
HETATM   18  C   UNL     1     -42.827 -52.655  12.841  1.00  0.00     0.165 C 
BRANCH  18  19
HETATM   19  C   UNL     1     -42.665 -52.991  14.303  1.00  0.00    -0.017 C 
HETATM   20  C   UNL     1     -42.107 -54.120  14.757  1.00  0.00     0.008 C 
ENDBRANCH  18  19
ENDBRANCH   4  18
BRANCH   1  21
HETATM   21  C   UNL     1     -38.563 -50.443  12.093  1.00  0.00     0.165 C 
BRANCH  21  22
HETATM   22  C   UNL     1     -38.013 -50.326  13.491  1.00  0.00    -0.017 C 
HETATM   23  C   UNL     1     -37.697 -49.166  14.084  1.00  0.00     0.008 C 
ENDBRANCH  21  22
ENDBRANCH   1  21
TORSDOF 7
ENDMDL
MODEL 2
REMARK VINA RESULT:      -5.4      2.933      7.333
REMARK  7 active torsions:
REMARK  status: ('A' for Active; 'I' for Inactive)
REMARK    1  A    between atoms: C_2  and  C_3 
REMARK    2  A    between atoms: C_3  and  N_4 
REMARK    3  A    between atoms: N_7  and  C_8 
REMARK    4  A    between atoms: C_8  and  C_9 
REMARK    5  A    between atoms: N_13  and  C_14 
REMARK    6  A    between atoms: C_14  and  C_15 
REMARK       I    between atoms: C_15  and  N_17 
REMARK    7  A    between atoms: N_17  and  C_18 
ROOT
HETATM    1  N   UNL     1     -42.973 -46.889  10.499  1.00  0.00    -0.247 N 
HETATM    2  C   UNL     1     -42.839 -45.513  10.498  1.00  0.00     0.337 C 
HETATM    3  O   UNL     1     -43.098 -44.829   9.505  1.00  0.00    -0.246 OA
HETATM    4  N   UNL     1     -42.384 -44.949  11.674  1.00  0.00    -0.247 N 
HETATM    5  C   UNL     1     -41.975 -45.700  12.759  1.00  0.00     0.337 C 
HETATM    6  O   UNL     1     -41.744 -45.203  13.862  1.00  0.00    -0.246 OA
HETATM    7  N   UNL     1     -41.816 -47.046  12.526  1.00  0.00    -0.242 N 
HETATM    8  C   UNL     1     -42.345 -47.691  11.428  1.00  0.00     0.337 C 
HETATM    9  O   UNL     1     -42.228 -48.909  11.281  1.00  0.00    -0.246 OA
ENDROOT
BRANCH   7  10
HETATM   10  C   UNL     1     -41.171 -47.858  13.548  1.00  0.00     0.241 C 
BRANCH  10  11
HETATM   11  C   UNL     1     -39.657 -47.931  13.358  1.00  0.00     0.236 C 
HETATM   12  O   UNL     1     -38.871 -47.114  13.834  1.00  0.00    -0.272 OA
HETATM   13  N   UNL     1     -39.257 -49.033  12.607  1.00  0.00    -0.355 N 
HETATM   14  H   UNL     1     -39.961 -49.607  12.159  1.00  0.00     0.162 HD
BRANCH  13  15
HETATM   15  C   UNL     1     -37.882 -49.346  12.382  1.00  0.00     0.084 A 
HETATM   16  C   UNL     1     -37.443 -50.061  11.133  1.00  0.00     0.027 A 
HETATM   17  C   UNL     1     -37.408 -50.772  12.453  1.00  0.00     0.027 A 
ENDBRANCH  13  15
ENDBRANCH  10  11
ENDBRANCH   7  10
BRANCH   4  18
HETATM   18  C   UNL     1     -42.410 -43.498  11.805  1.00  0.00     0.165 C 
BRANCH  18  19
HETATM   19  C   UNL     1     -41.069 -42.917  11.428  1.00  0.00    -0.017 C 
HETATM   20  C   UNL     1     -40.278 -42.245  12.273  1.00  0.00     0.008 C 
ENDBRANCH  18  19
ENDBRANCH   4  18
BRANCH   1  21
HETATM   21  C   UNL     1     -43.637 -47.520   9.366  1.00  0.00     0.165 C 
BRANCH  21  22
HETATM   22  C   UNL     1     -45.122 -47.537   9.618  1.00  0.00    -0.017 C 
HETATM   23  C   UNL     1     -46.026 -48.066   8.781  1.00  0.00     0.008 C 
ENDBRANCH  21  22
ENDBRANCH   1  21
TORSDOF 7
ENDMDL
MODEL 3
REMARK VINA RESULT:      -5.3      3.099      6.926
REMARK  7 active torsions:
REMARK  status: ('A' for Active; 'I' for Inactive)
REMARK    1  A    between atoms: C_2  and  C_3 
REMARK    2  A    between atoms: C_3  and  N_4 
REMARK    3  A    between atoms: N_7  and  C_8 
REMARK    4  A    between atoms: C_8  and  C_9 
REMARK    5  A    between atoms: N_13  and  C_14 
REMARK    6  A    between atoms: C_14  and  C_15 
REMARK       I    between atoms: C_15  and  N_17 
REMARK    7  A    between atoms: N_17  and  C_18 
ROOT
HETATM    1  N   UNL     1     -42.247 -44.489  11.639  1.00  0.00    -0.247 N 
HETATM    2  C   UNL     1     -42.871 -44.885  10.470  1.00  0.00     0.337 C 
HETATM    3  O   UNL     1     -43.573 -44.116   9.808  1.00  0.00    -0.246 OA
HETATM    4  N   UNL     1     -42.674 -46.199  10.094  1.00  0.00    -0.247 N 
HETATM    5  C   UNL     1     -41.993 -47.111  10.876  1.00  0.00     0.337 C 
HETATM    6  O   UNL     1     -41.661 -48.223  10.465  1.00  0.00    -0.246 OA
HETATM    7  N   UNL     1     -41.726 -46.708  12.164  1.00  0.00    -0.242 N 
HETATM    8  C   UNL     1     -41.793 -45.393  12.575  1.00  0.00     0.337 C 
HETATM    9  O   UNL     1     -41.492 -45.064  13.724  1.00  0.00    -0.246 OA
ENDROOT
BRANCH   7  10
HETATM   10  C   UNL     1     -41.220 -47.693  13.111  1.00  0.00     0.241 C 
BRANCH  10  11
HETATM   11  C   UNL     1     -39.698 -47.818  13.056  1.00  0.00     0.236 C 
HETATM   12  O   UNL     1     -38.930 -47.019  13.587  1.00  0.00    -0.272 OA
HETATM   13  N   UNL     1     -39.272 -48.945  12.360  1.00  0.00    -0.355 N 
HETATM   14  H   UNL     1     -39.953 -49.505  11.860  1.00  0.00     0.162 HD
BRANCH  13  15
HETATM   15  C   UNL     1     -37.894 -49.307  12.261  1.00  0.00     0.084 A 
HETATM   16  C   UNL     1     -37.373 -50.059  11.067  1.00  0.00     0.027 A 
HETATM   17  C   UNL     1     -37.477 -50.746  12.395  1.00  0.00     0.027 A 
ENDBRANCH  13  15
ENDBRANCH  10  11
ENDBRANCH   7  10
BRANCH   4  18
HETATM   18  C   UNL     1     -43.136 -46.623   8.778  1.00  0.00     0.165 C 
BRANCH  18  19
HETATM   19  C   UNL     1     -44.391 -47.451   8.909  1.00  0.00    -0.017 C 
HETATM   20  C   UNL     1     -45.625 -46.939   8.981  1.00  0.00     0.008 C 
ENDBRANCH  18  19
ENDBRANCH   4  18
BRANCH   1  21
HETATM   21  C   UNL     1     -42.249 -43.073  11.979  1.00  0.00     0.165 C 
BRANCH  21  22
HETATM   22  C   UNL     1     -40.924 -42.474  11.585  1.00  0.00    -0.017 C 
HETATM   23  C   UNL     1     -40.023 -41.992  12.453  1.00  0.00     0.008 C 
ENDBRANCH  21  22
ENDBRANCH   1  21
TORSDOF 7
ENDMDL
MODEL 4
REMARK VINA RESULT:      -5.2      3.659      6.383
REMARK  7 active torsions:
REMARK  status: ('A' for Active; 'I' for Inactive)
REMARK    1  A    between atoms: C_2  and  C_3 
REMARK    2  A    between atoms: C_3  and  N_4 
REMARK    3  A    between atoms: N_7  and  C_8 
REMARK    4  A    between atoms: C_8  and  C_9 
REMARK    5  A    between atoms: N_13  and  C_14 
REMARK    6  A    between atoms: C_14  and  C_15 
REMARK       I    between atoms: C_15  and  N_17 
REMARK    7  A    between atoms: N_17  and  C_18 
ROOT
HETATM    1  N   UNL     1     -43.789 -54.565  13.976  1.00  0.00    -0.247 N 
HETATM    2  C   UNL     1     -42.910 -54.868  14.999  1.00  0.00     0.337 C 
HETATM    3  O   UNL     1     -43.291 -55.342  16.073  1.00  0.00    -0.246 OA
HETATM    4  N   UNL     1     -41.578 -54.596  14.753  1.00  0.00    -0.247 N 
HETATM    5  C   UNL     1     -41.140 -53.959  13.610  1.00  0.00     0.337 C 
HETATM    6  O   UNL     1     -39.949 -53.880  13.307  1.00  0.00    -0.246 OA
HETATM    7  N   UNL     1     -42.121 -53.389  12.832  1.00  0.00    -0.242 N 
HETATM    8  C   UNL     1     -43.458 -53.704  12.951  1.00  0.00     0.337 C 
HETATM    9  O   UNL     1     -44.303 -53.214  12.199  1.00  0.00    -0.246 OA
ENDROOT
BRANCH   7  10
HETATM   10  C   UNL     1     -41.723 -52.509  11.742  1.00  0.00     0.241 C 
BRANCH  10  11
HETATM   11  C   UNL     1     -41.013 -51.252  12.245  1.00  0.00     0.236 C 
HETATM   12  O   UNL     1     -41.520 -50.452  13.029  1.00  0.00    -0.272 OA
HETATM   13  N   UNL     1     -39.724 -51.118  11.740  1.00  0.00    -0.355 N 
HETATM   14  H   UNL     1     -39.407 -51.756  11.019  1.00  0.00     0.162 HD
BRANCH  13  15
HETATM   15  C   UNL     1     -38.848 -50.066  12.146  1.00  0.00     0.084 A 
HETATM   16  C   UNL     1     -37.549 -49.816  11.430  1.00  0.00     0.027 A 
HETATM   17  C   UNL     1     -37.541 -50.384  12.817  1.00  0.00     0.027 A 
ENDBRANCH  13  15
ENDBRANCH  10  11
ENDBRANCH   7  10
BRANCH   4  18
HETATM   18  C   UNL     1     -40.584 -55.074  15.706  1.00  0.00     0.165 C 
BRANCH  18  19
HETATM   19  C   UNL     1     -40.171 -53.956  16.632  1.00  0.00    -0.017 C 
HETATM   20  C   UNL     1     -38.914 -53.745  17.040  1.00  0.00     0.008 C 
ENDBRANCH  18  19
ENDBRANCH   4  18
BRANCH   1  21
HETATM   21  C   UNL     1     -45.170 -55.014  14.094  1.00  0.00     0.165 C 
BRANCH  21  22
HETATM   22  C   UNL     1     -45.911 -54.077  15.011  1.00  0.00    -0.017 C 
HETATM   23  C   UNL     1     -46.827 -53.186  14.603  1.00  0.00     0.008 C 
ENDBRANCH  21  22
ENDBRANCH   1  21
TORSDOF 7
ENDMDL
MODEL 5
REMARK VINA RESULT:      -5.2      2.835      7.135
REMARK  7 active torsions:
REMARK  status: ('A' for Active; 'I' for Inactive)
REMARK    1  A    between atoms: C_2  and  C_3 
REMARK    2  A    between atoms: C_3  and  N_4 
REMARK    3  A    between atoms: N_7  and  C_8 
REMARK    4  A    between atoms: C_8  and  C_9 
REMARK    5  A    between atoms: N_13  and  C_14 
REMARK    6  A    between atoms: C_14  and  C_15 
REMARK       I    between atoms: C_15  and  N_17 
REMARK    7  A    between atoms: N_17  and  C_18 
ROOT
HETATM    1  N   UNL     1     -43.028 -46.500   9.849  1.00  0.00    -0.247 N 
HETATM    2  C   UNL     1     -43.088 -45.149  10.135  1.00  0.00     0.337 C 
HETATM    3  O   UNL     1     -43.745 -44.362   9.450  1.00  0.00    -0.246 OA
HETATM    4  N   UNL     1     -42.354 -44.729  11.227  1.00  0.00    -0.247 N 
HETATM    5  C   UNL     1     -41.517 -45.566  11.937  1.00  0.00     0.337 C 
HETATM    6  O   UNL     1     -41.008 -45.243  13.011  1.00  0.00    -0.246 OA
HETATM    7  N   UNL     1     -41.263 -46.787  11.357  1.00  0.00    -0.242 N 
HETATM    8  C   UNL     1     -42.030 -47.314  10.339  1.00  0.00     0.337 C 
HETATM    9  O   UNL     1     -41.805 -48.437   9.882  1.00  0.00    -0.246 OA
ENDROOT
BRANCH   7  10
HETATM   10  C   UNL     1     -40.218 -47.625  11.928  1.00  0.00     0.241 C 
BRANCH  10  11
HETATM   11  C   UNL     1     -40.785 -48.729  12.819  1.00  0.00     0.236 C 
HETATM   12  O   UNL     1     -41.400 -48.513  13.861  1.00  0.00    -0.272 OA
HETATM   13  N   UNL     1     -40.552 -50.006  12.316  1.00  0.00    -0.355 N 
HETATM   14  H   UNL     1     -39.950 -50.117  11.508  1.00  0.00     0.162 HD
BRANCH  13  15
HETATM   15  C   UNL     1     -41.072 -51.180  12.940  1.00  0.00     0.084 A 
HETATM   16  C   UNL     1     -40.886 -52.537  12.319  1.00  0.00     0.027 A 
HETATM   17  C   UNL     1     -42.244 -51.904  12.338  1.00  0.00     0.027 A 
ENDBRANCH  13  15
ENDBRANCH  10  11
ENDBRANCH   7  10
BRANCH   4  18
HETATM   18  C   UNL     1     -42.531 -43.361  11.698  1.00  0.00     0.165 C 
BRANCH  18  19
HETATM   19  C   UNL     1     -41.403 -42.489  11.203  1.00  0.00    -0.017 C 
HETATM   20  C   UNL     1     -40.448 -41.978  11.990  1.00  0.00     0.008 C 
ENDBRANCH  18  19
ENDBRANCH   4  18
BRANCH   1  21
HETATM   21  C   UNL     1     -43.934 -47.035   8.841  1.00  0.00     0.165 C 
BRANCH  21  22
HETATM   22  C   UNL     1     -45.194 -47.508   9.519  1.00  0.00    -0.017 C 
HETATM   23  C   UNL     1     -46.341 -47.777   8.880  1.00  0.00     0.008 C 
ENDBRANCH  21  22
ENDBRANCH   1  21
TORSDOF 7
ENDMDL
MODEL 6
REMARK VINA RESULT:      -5.2      3.605      5.649
REMARK  7 active torsions:
REMARK  status: ('A' for Active; 'I' for Inactive)
REMARK    1  A    between atoms: C_2  and  C_3 
REMARK    2  A    between atoms: C_3  and  N_4 
REMARK    3  A    between atoms: N_7  and  C_8 
REMARK    4  A    between atoms: C_8  and  C_9 
REMARK    5  A    between atoms: N_13  and  C_14 
REMARK    6  A    between atoms: C_14  and  C_15 
REMARK       I    between atoms: C_15  and  N_17 
REMARK    7  A    between atoms: N_17  and  C_18 
ROOT
HETATM    1  N   UNL     1     -41.539 -54.255  15.086  1.00  0.00    -0.247 N 
HETATM    2  C   UNL     1     -42.777 -54.870  15.098  1.00  0.00     0.337 C 
HETATM    3  O   UNL     1     -43.094 -55.690  15.963  1.00  0.00    -0.246 OA
HETATM    4  N   UNL     1     -43.635 -54.523  14.073  1.00  0.00    -0.247 N 
HETATM    5  C   UNL     1     -43.263 -53.701  13.028  1.00  0.00     0.337 C 
HETATM    6  O   UNL     1     -44.073 -53.247  12.218  1.00  0.00    -0.246 OA
HETATM    7  N   UNL     1     -41.917 -53.435  12.928  1.00  0.00    -0.242 N 
HETATM    8  C   UNL     1     -41.026 -53.653  13.958  1.00  0.00     0.337 C 
HETATM    9  O   UNL     1     -39.836 -53.350  13.850  1.00  0.00    -0.246 OA
ENDROOT
BRANCH   7  10
HETATM   10  C   UNL     1     -41.425 -52.771  11.729  1.00  0.00     0.241 C 
BRANCH  10  11
HETATM   11  C   UNL     1     -41.015 -51.323  11.998  1.00  0.00     0.236 C 
HETATM   12  O   UNL     1     -41.777 -50.474  12.455  1.00  0.00    -0.272 OA
HETATM   13  N   UNL     1     -39.681 -51.072  11.692  1.00  0.00    -0.355 N 
HETATM   14  H   UNL     1     -39.138 -51.787  11.223  1.00  0.00     0.162 HD
BRANCH  13  15
HETATM   15  C   UNL     1     -39.061 -49.811  11.950  1.00  0.00     0.084 A 
HETATM   16  C   UNL     1     -37.618 -49.570  11.602  1.00  0.00     0.027 A 
HETATM   17  C   UNL     1     -38.033 -49.680  13.039  1.00  0.00     0.027 A 
ENDBRANCH  13  15
ENDBRANCH  10  11
ENDBRANCH   7  10
BRANCH   4  18
HETATM   18  C   UNL     1     -45.017 -54.981  14.138  1.00  0.00     0.165 C 
BRANCH  18  19
HETATM   19  C   UNL     1     -45.822 -54.080  15.043  1.00  0.00    -0.017 C 
HETATM   20  C   UNL     1     -46.814 -53.286  14.622  1.00  0.00     0.008 C 
ENDBRANCH  18  19
ENDBRANCH   4  18
BRANCH   1  21
HETATM   21  C   UNL     1     -40.672 -54.423  16.244  1.00  0.00     0.165 C 
BRANCH  21  22
HETATM   22  C   UNL     1     -39.782 -55.618  16.020  1.00  0.00    -0.017 C 
HETATM   23  C   UNL     1     -38.457 -55.622  16.220  1.00  0.00     0.008 C 
ENDBRANCH  21  22
ENDBRANCH   1  21
TORSDOF 7
ENDMDL
MODEL 7
REMARK VINA RESULT:      -5.2      3.280      6.073
REMARK  7 active torsions:
REMARK  status: ('A' for Active; 'I' for Inactive)
REMARK    1  A    between atoms: C_2  and  C_3 
REMARK    2  A    between atoms: C_3  and  N_4 
REMARK    3  A    between atoms: N_7  and  C_8 
REMARK    4  A    between atoms: C_8  and  C_9 
REMARK    5  A    between atoms: N_13  and  C_14 
REMARK    6  A    between atoms: C_14  and  C_15 
REMARK       I    between atoms: C_15  and  N_17 
REMARK    7  A    between atoms: N_17  and  C_18 
ROOT
HETATM    1  N   UNL     1     -43.151 -54.092  14.573  1.00  0.00    -0.247 N 
HETATM    2  C   UNL     1     -44.311 -53.410  14.887  1.00  0.00     0.337 C 
HETATM    3  O   UNL     1     -45.224 -53.931  15.533  1.00  0.00    -0.246 OA
HETATM    4  N   UNL     1     -44.396 -52.112  14.422  1.00  0.00    -0.247 N 
HETATM    5  C   UNL     1     -43.443 -51.546  13.598  1.00  0.00     0.337 C 
HETATM    6  O   UNL     1     -43.423 -50.343  13.334  1.00  0.00    -0.246 OA
HETATM    7  N   UNL     1     -42.522 -52.417  13.065  1.00  0.00    -0.242 N 
HETATM    8  C   UNL     1     -42.310 -53.687  13.558  1.00  0.00     0.337 C 
HETATM    9  O   UNL     1     -41.436 -54.420  13.089  1.00  0.00    -0.246 OA
ENDROOT
BRANCH   7  10
HETATM   10  C   UNL     1     -41.635 -51.937  12.015  1.00  0.00     0.241 C 
BRANCH  10  11
HETATM   11  C   UNL     1     -40.402 -51.231  12.578  1.00  0.00     0.236 C 
HETATM   12  O   UNL     1     -40.115 -51.214  13.773  1.00  0.00    -0.272 OA
HETATM   13  N   UNL     1     -39.626 -50.627  11.594  1.00  0.00    -0.355 N 
HETATM   14  H   UNL     1     -39.974 -50.590  10.642  1.00  0.00     0.162 HD
BRANCH  13  15
HETATM   15  C   UNL     1     -38.383 -49.988  11.885  1.00  0.00     0.084 A 
HETATM   16  C   UNL     1     -37.236 -50.040  10.912  1.00  0.00     0.027 A 
HETATM   17  C   UNL     1     -37.162 -50.811  12.195  1.00  0.00     0.027 A 
ENDBRANCH  13  15
ENDBRANCH  10  11
ENDBRANCH   7  10
BRANCH   4  18
HETATM   18  C   UNL     1     -45.498 -51.278  14.884  1.00  0.00     0.165 C 
BRANCH  18  19
HETATM   19  C   UNL     1     -46.708 -51.480  14.005  1.00  0.00    -0.017 C 
HETATM   20  C   UNL     1     -46.655 -51.618  12.675  1.00  0.00     0.008 C 
ENDBRANCH  18  19
ENDBRANCH   4  18
BRANCH   1  21
HETATM   21  C   UNL     1     -42.915 -55.384  15.202  1.00  0.00     0.165 C 
BRANCH  21  22
HETATM   22  C   UNL     1     -42.095 -55.178  16.449  1.00  0.00    -0.017 C 
HETATM   23  C   UNL     1     -42.388 -55.712  17.644  1.00  0.00     0.008 C 
ENDBRANCH  21  22
ENDBRANCH   1  21
TORSDOF 7
ENDMDL
MODEL 8
REMARK VINA RESULT:      -5.1      2.700      4.679
REMARK  7 active torsions:
REMARK  status: ('A' for Active; 'I' for Inactive)
REMARK    1  A    between atoms: C_2  and  C_3 
REMARK    2  A    between atoms: C_3  and  N_4 
REMARK    3  A    between atoms: N_7  and  C_8 
REMARK    4  A    between atoms: C_8  and  C_9 
REMARK    5  A    between atoms: N_13  and  C_14 
REMARK    6  A    between atoms: C_14  and  C_15 
REMARK       I    between atoms: C_15  and  N_17 
REMARK    7  A    between atoms: N_17  and  C_18 
ROOT
HETATM    1  N   UNL     1     -41.360 -54.570  14.865  1.00  0.00    -0.247 N 
HETATM    2  C   UNL     1     -42.680 -54.978  14.908  1.00  0.00     0.337 C 
HETATM    3  O   UNL     1     -43.071 -55.856  15.681  1.00  0.00    -0.246 OA
HETATM    4  N   UNL     1     -43.536 -54.352  14.023  1.00  0.00    -0.247 N 
HETATM    5  C   UNL     1     -43.103 -53.452  13.068  1.00  0.00     0.337 C 
HETATM    6  O   UNL     1     -43.879 -52.762  12.406  1.00  0.00    -0.246 OA
HETATM    7  N   UNL     1     -41.742 -53.390  12.882  1.00  0.00    -0.242 N 
HETATM    8  C   UNL     1     -40.831 -53.895  13.786  1.00  0.00     0.337 C 
HETATM    9  O   UNL     1     -39.617 -53.771  13.611  1.00  0.00    -0.246 OA
ENDROOT
BRANCH   7  10
HETATM   10  C   UNL     1     -41.228 -52.641  11.743  1.00  0.00     0.241 C 
BRANCH  10  11
HETATM   11  C   UNL     1     -41.005 -51.166  12.075  1.00  0.00     0.236 C 
HETATM   12  O   UNL     1     -39.975 -50.732  12.585  1.00  0.00    -0.272 OA
HETATM   13  N   UNL     1     -42.084 -50.361  11.720  1.00  0.00    -0.355 N 
HETATM   14  H   UNL     1     -42.941 -50.797  11.400  1.00  0.00     0.162 HD
BRANCH  13  15
HETATM   15  C   UNL     1     -42.055 -48.940  11.857  1.00  0.00     0.084 A 
HETATM   16  C   UNL     1     -43.174 -48.086  11.326  1.00  0.00     0.027 A 
HETATM   17  C   UNL     1     -41.834 -48.067  10.653  1.00  0.00     0.027 A 
ENDBRANCH  13  15
ENDBRANCH  10  11
ENDBRANCH   7  10
BRANCH   4  18
HETATM   18  C   UNL     1     -44.967 -54.591  14.153  1.00  0.00     0.165 C 
BRANCH  18  19
HETATM   19  C   UNL     1     -45.577 -53.595  15.109  1.00  0.00    -0.017 C 
HETATM   20  C   UNL     1     -46.633 -52.826  14.820  1.00  0.00     0.008 C 
ENDBRANCH  18  19
ENDBRANCH   4  18
BRANCH   1  21
HETATM   21  C   UNL     1     -40.456 -55.042  15.905  1.00  0.00     0.165 C 
BRANCH  21  22
HETATM   22  C   UNL     1     -40.339 -53.982  16.969  1.00  0.00    -0.017 C 
HETATM   23  C   UNL     1     -39.212 -53.309  17.245  1.00  0.00     0.008 C 
ENDBRANCH  21  22
ENDBRANCH   1  21
TORSDOF 7
ENDMDL
MODEL 9
REMARK VINA RESULT:      -5.0      3.057      4.792
REMARK  7 active torsions:
REMARK  status: ('A' for Active; 'I' for Inactive)
REMARK    1  A    between atoms: C_2  and  C_3 
REMARK    2  A    between atoms: C_3  and  N_4 
REMARK    3  A    between atoms: N_7  and  C_8 
REMARK    4  A    between atoms: C_8  and  C_9 
REMARK    5  A    between atoms: N_13  and  C_14 
REMARK    6  A    between atoms: C_14  and  C_15 
REMARK       I    between atoms: C_15  and  N_17 
REMARK    7  A    between atoms: N_17  and  C_18 
ROOT
HETATM    1  N   UNL     1     -41.936 -51.657  13.388  1.00  0.00    -0.247 N 
HETATM    2  C   UNL     1     -41.236 -52.239  14.428  1.00  0.00     0.337 C 
HETATM    3  O   UNL     1     -41.803 -52.727  15.409  1.00  0.00    -0.246 OA
HETATM    4  N   UNL     1     -39.860 -52.230  14.310  1.00  0.00    -0.247 N 
HETATM    5  C   UNL     1     -39.198 -51.588  13.283  1.00  0.00     0.337 C 
HETATM    6  O   UNL     1     -37.992 -51.731  13.077  1.00  0.00    -0.246 OA
HETATM    7  N   UNL     1     -39.967 -50.749  12.510  1.00  0.00    -0.242 N 
HETATM    8  C   UNL     1     -41.345 -50.787  12.497  1.00  0.00     0.337 C 
HETATM    9  O   UNL     1     -42.000 -50.057  11.749  1.00  0.00    -0.246 OA
ENDROOT
BRANCH   7  10
HETATM   10  C   UNL     1     -39.300 -49.868  11.562  1.00  0.00     0.241 C 
BRANCH  10  11
HETATM   11  C   UNL     1     -39.307 -48.411  12.025  1.00  0.00     0.236 C 
HETATM   12  O   UNL     1     -38.725 -48.015  13.032  1.00  0.00    -0.272 OA
HETATM   13  N   UNL     1     -40.023 -47.575  11.174  1.00  0.00    -0.355 N 
HETATM   14  H   UNL     1     -40.564 -47.983  10.420  1.00  0.00     0.162 HD
BRANCH  13  15
HETATM   15  C   UNL     1     -40.086 -46.162  11.365  1.00  0.00     0.084 A 
HETATM   16  C   UNL     1     -41.072 -45.318  10.604  1.00  0.00     0.027 A 
HETATM   17  C   UNL     1     -39.611 -45.229  10.285  1.00  0.00     0.027 A 
ENDBRANCH  13  15
ENDBRANCH  10  11
ENDBRANCH   7  10
BRANCH   4  18
HETATM   18  C   UNL     1     -39.076 -52.999  15.268  1.00  0.00     0.165 C 
BRANCH  18  19
HETATM   19  C   UNL     1     -39.020 -54.449  14.852  1.00  0.00    -0.017 C 
HETATM   20  C   UNL     1     -39.005 -55.476  15.710  1.00  0.00     0.008 C 
ENDBRANCH  18  19
ENDBRANCH   4  18
BRANCH   1  21
HETATM   21  C   UNL     1     -43.385 -51.815  13.354  1.00  0.00     0.165 C 
BRANCH  21  22
HETATM   22  C   UNL     1     -43.726 -53.007  12.501  1.00  0.00    -0.017 C 
HETATM   23  C   UNL     1     -44.324 -54.117  12.956  1.00  0.00     0.008 C 
ENDBRANCH  21  22
ENDBRANCH   1  21
TORSDOF 7
ENDMDL
