MODEL 1
REMARK VINA RESULT:      -5.6      0.000      0.000
REMARK  4 active torsions:
REMARK  status: ('A' for Active; 'I' for Inactive)
REMARK    1  A    between atoms: N_7  and  C_8 
REMARK    2  A    between atoms: C_8  and  C_9 
REMARK       I    between atoms: C_9  and  N_11 
REMARK    3  A    between atoms: N_11  and  C_12 
REMARK    4  A    between atoms: C_12  and  C_13 
ROOT
HETATM    1  C   UNL     1     -42.609 -53.007  12.694  1.00  0.00     0.235 C 
ENDROOT
BRANCH   1   2
HETATM    2  N   UNL     1     -42.136 -53.802  13.825  1.00  0.00    -0.301 N 
HETATM    3  C   UNL     1     -43.031 -54.232  14.774  1.00  0.00     0.102 C 
HETATM    4  C   UNL     1     -42.640 -54.921  15.846  1.00  0.00     0.092 C 
HETATM    5  C   UNL     1     -41.203 -55.192  16.044  1.00  0.00     0.252 C 
HETATM    6  N   UNL     1     -40.351 -54.687  15.078  1.00  0.00    -0.271 N 
HETATM    7  O   UNL     1     -40.853 -55.826  17.036  1.00  0.00    -0.268 OA
HETATM    8  C   UNL     1     -38.922 -54.812  15.277  1.00  0.00     0.164 C 
HETATM    9  C   UNL     1     -40.777 -54.091  13.894  1.00  0.00     0.331 C 
HETATM   10  O   UNL     1     -40.010 -53.819  12.967  1.00  0.00    -0.246 OA
ENDBRANCH   1   2
BRANCH   1  11
HETATM   11  C   UNL     1     -44.132 -53.023  12.581  1.00  0.00     0.235 C 
HETATM   12  O   UNL     1     -44.742 -54.039  12.254  1.00  0.00    -0.272 OA
HETATM   13  N   UNL     1     -44.749 -51.815  12.846  1.00  0.00    -0.359 N 
HETATM   14  H   UNL     1     -44.181 -50.974  12.740  1.00  0.00     0.162 HD
BRANCH  13  15
HETATM   15  C   UNL     1     -46.190 -51.706  12.756  1.00  0.00     0.127 C 
BRANCH  15  16
HETATM   16  C   UNL     1     -46.738 -51.452  14.148  1.00  0.00     0.003 C 
HETATM   17  C   UNL     1     -45.747 -51.096  15.293  1.00  0.00     0.006 C 
HETATM   18  C   UNL     1     -46.608 -51.981  16.218  1.00  0.00     0.001 C 
HETATM   19  C   UNL     1     -47.045 -52.747  14.954  1.00  0.00     0.006 C 
ENDBRANCH  15  16
ENDBRANCH  13  15
ENDBRANCH   1  11
TORSDOF 4
ENDMDL
MODEL 2
REMARK VINA RESULT:      -5.6      5.322      7.040
REMARK  4 active torsions:
REMARK  status: ('A' for Active; 'I' for Inactive)
REMARK    1  A    between atoms: N_7  and  C_8 
REMARK    2  A    between atoms: C_8  and  C_9 
REMARK       I    between atoms: C_9  and  N_11 
REMARK    3  A    between atoms: N_11  and  C_12 
REMARK    4  A    between atoms: C_12  and  C_13 
ROOT
HETATM    1  C   UNL     1     -41.011 -49.642  11.301  1.00  0.00     0.235 C 
ENDROOT
BRANCH   1   2
HETATM    2  N   UNL     1     -41.491 -48.294  11.009  1.00  0.00    -0.301 N 
HETATM    3  C   UNL     1     -42.808 -48.100  10.670  1.00  0.00     0.102 C 
HETATM    4  C   UNL     1     -43.281 -46.895  10.351  1.00  0.00     0.092 C 
HETATM    5  C   UNL     1     -42.359 -45.745  10.319  1.00  0.00     0.252 C 
HETATM    6  N   UNL     1     -41.037 -46.016  10.622  1.00  0.00    -0.271 N 
HETATM    7  O   UNL     1     -42.805 -44.639  10.023  1.00  0.00    -0.268 OA
HETATM    8  C   UNL     1     -40.060 -44.956  10.488  1.00  0.00     0.164 C 
HETATM    9  C   UNL     1     -40.579 -47.247  11.086  1.00  0.00     0.331 C 
HETATM   10  O   UNL     1     -39.439 -47.414  11.526  1.00  0.00    -0.246 OA
ENDBRANCH   1   2
BRANCH   1  11
HETATM   11  C   UNL     1     -41.762 -50.276  12.469  1.00  0.00     0.235 C 
HETATM   12  O   UNL     1     -41.577 -49.910  13.628  1.00  0.00    -0.272 OA
HETATM   13  N   UNL     1     -42.630 -51.294  12.121  1.00  0.00    -0.359 N 
HETATM   14  H   UNL     1     -42.451 -51.770  11.237  1.00  0.00     0.162 HD
BRANCH  13  15
HETATM   15  C   UNL     1     -43.387 -51.979  13.148  1.00  0.00     0.127 C 
BRANCH  15  16
HETATM   16  C   UNL     1     -44.706 -51.253  13.334  1.00  0.00     0.003 C 
HETATM   17  C   UNL     1     -45.339 -51.196  14.755  1.00  0.00     0.006 C 
HETATM   18  C   UNL     1     -46.709 -51.398  14.075  1.00  0.00     0.001 C 
HETATM   19  C   UNL     1     -45.953 -52.089  12.924  1.00  0.00     0.006 C 
ENDBRANCH  15  16
ENDBRANCH  13  15
ENDBRANCH   1  11
TORSDOF 4
ENDMDL
MODEL 3
REMARK VINA RESULT:      -5.5      3.434      4.508
REMARK  4 active torsions:
REMARK  status: ('A' for Active; 'I' for Inactive)
REMARK    1  A    between atoms: N_7  and  C_8 
REMARK    2  A    between atoms: C_8  and  C_9 
REMARK       I    between atoms: C_9  and  N_11 
REMARK    3  A    between atoms: N_11  and  C_12 
REMARK    4  A    between atoms: C_12  and  C_13 
ROOT
HETATM    1  C   UNL     1     -41.278 -52.281  11.752  1.00  0.00     0.235 C 
ENDROOT
BRANCH   1   2
HETATM    2  N   UNL     1     -40.940 -50.938  12.220  1.00  0.00    -0.301 N 
HETATM    3  C   UNL     1     -41.907 -49.964  12.244  1.00  0.00     0.102 C 
HETATM    4  C   UNL     1     -41.635 -48.714  12.619  1.00  0.00     0.092 C 
HETATM    5  C   UNL     1     -40.250 -48.354  12.976  1.00  0.00     0.252 C 
HETATM    6  N   UNL     1     -39.315 -49.369  12.882  1.00  0.00    -0.271 N 
HETATM    7  O   UNL     1     -40.009 -47.200  13.320  1.00  0.00    -0.268 OA
HETATM    8  C   UNL     1     -37.919 -49.053  13.100  1.00  0.00     0.164 C 
HETATM    9  C   UNL     1     -39.630 -50.701  12.624  1.00  0.00     0.331 C 
HETATM   10  O   UNL     1     -38.810 -51.616  12.730  1.00  0.00    -0.246 OA
ENDBRANCH   1   2
BRANCH   1  11
HETATM   11  C   UNL     1     -42.326 -52.948  12.641  1.00  0.00     0.235 C 
HETATM   12  O   UNL     1     -42.054 -53.340  13.773  1.00  0.00    -0.272 OA
HETATM   13  N   UNL     1     -43.573 -53.093  12.062  1.00  0.00    -0.359 N 
HETATM   14  H   UNL     1     -43.612 -53.091  11.043  1.00  0.00     0.162 HD
BRANCH  13  15
HETATM   15  C   UNL     1     -44.643 -53.725  12.805  1.00  0.00     0.127 C 
BRANCH  15  16
HETATM   16  C   UNL     1     -45.754 -52.711  13.000  1.00  0.00     0.003 C 
HETATM   17  C   UNL     1     -45.402 -51.311  13.582  1.00  0.00     0.006 C 
HETATM   18  C   UNL     1     -46.716 -51.393  14.386  1.00  0.00     0.001 C 
HETATM   19  C   UNL     1     -46.589 -52.926  14.295  1.00  0.00     0.006 C 
ENDBRANCH  15  16
ENDBRANCH  13  15
ENDBRANCH   1  11
TORSDOF 4
ENDMDL
MODEL 4
REMARK VINA RESULT:      -5.5      2.089      5.527
REMARK  4 active torsions:
REMARK  status: ('A' for Active; 'I' for Inactive)
REMARK    1  A    between atoms: N_7  and  C_8 
REMARK    2  A    between atoms: C_8  and  C_9 
REMARK       I    between atoms: C_9  and  N_11 
REMARK    3  A    between atoms: N_11  and  C_12 
REMARK    4  A    between atoms: C_12  and  C_13 
ROOT
HETATM    1  C   UNL     1     -44.382 -53.595  12.472  1.00  0.00     0.235 C 
ENDROOT
BRANCH   1   2
HETATM    2  N   UNL     1     -45.234 -53.127  13.562  1.00  0.00    -0.301 N 
HETATM    3  C   UNL     1     -45.979 -51.984  13.400  1.00  0.00     0.102 C 
HETATM    4  C   UNL     1     -46.735 -51.494  14.383  1.00  0.00     0.092 C 
HETATM    5  C   UNL     1     -46.741 -52.170  15.694  1.00  0.00     0.252 C 
HETATM    6  N   UNL     1     -45.931 -53.286  15.805  1.00  0.00    -0.271 N 
HETATM    7  O   UNL     1     -47.440 -51.710  16.592  1.00  0.00    -0.268 OA
HETATM    8  C   UNL     1     -45.796 -53.923  17.099  1.00  0.00     0.164 C 
HETATM    9  C   UNL     1     -45.253 -53.870  14.738  1.00  0.00     0.331 C 
HETATM   10  O   UNL     1     -44.692 -54.965  14.820  1.00  0.00    -0.246 OA
ENDBRANCH   1   2
BRANCH   1  11
HETATM   11  C   UNL     1     -42.947 -53.095  12.613  1.00  0.00     0.235 C 
HETATM   12  O   UNL     1     -42.653 -51.917  12.417  1.00  0.00    -0.272 OA
HETATM   13  N   UNL     1     -42.021 -54.066  12.947  1.00  0.00    -0.359 N 
HETATM   14  H   UNL     1     -42.266 -55.031  12.728  1.00  0.00     0.162 HD
BRANCH  13  15
HETATM   15  C   UNL     1     -40.625 -53.711  13.095  1.00  0.00     0.127 C 
BRANCH  15  16
HETATM   16  C   UNL     1     -40.237 -53.893  14.550  1.00  0.00     0.003 C 
HETATM   17  C   UNL     1     -39.167 -54.963  14.914  1.00  0.00     0.006 C 
HETATM   18  C   UNL     1     -40.022 -55.292  16.155  1.00  0.00     0.001 C 
HETATM   19  C   UNL     1     -41.236 -54.761  15.369  1.00  0.00     0.006 C 
ENDBRANCH  15  16
ENDBRANCH  13  15
ENDBRANCH   1  11
TORSDOF 4
ENDMDL
MODEL 5
REMARK VINA RESULT:      -5.4      4.025      5.908
REMARK  4 active torsions:
REMARK  status: ('A' for Active; 'I' for Inactive)
REMARK    1  A    between atoms: N_7  and  C_8 
REMARK    2  A    between atoms: C_8  and  C_9 
REMARK       I    between atoms: C_9  and  N_11 
REMARK    3  A    between atoms: N_11  and  C_12 
REMARK    4  A    between atoms: C_12  and  C_13 
ROOT
HETATM    1  C   UNL     1     -41.488 -50.563  13.327  1.00  0.00     0.235 C 
ENDROOT
BRANCH   1   2
HETATM    2  N   UNL     1     -42.454 -51.656  13.243  1.00  0.00    -0.301 N 
HETATM    3  C   UNL     1     -42.007 -52.950  13.131  1.00  0.00     0.102 C 
HETATM    4  C   UNL     1     -42.850 -53.975  13.007  1.00  0.00     0.092 C 
HETATM    5  C   UNL     1     -44.300 -53.712  12.943  1.00  0.00     0.252 C 
HETATM    6  N   UNL     1     -44.680 -52.384  13.010  1.00  0.00    -0.271 N 
HETATM    7  O   UNL     1     -45.068 -54.663  12.827  1.00  0.00    -0.268 OA
HETATM    8  C   UNL     1     -46.077 -52.049  12.830  1.00  0.00     0.164 C 
HETATM    9  C   UNL     1     -43.806 -51.333  13.279  1.00  0.00     0.331 C 
HETATM   10  O   UNL     1     -44.191 -50.187  13.519  1.00  0.00    -0.246 OA
ENDBRANCH   1   2
BRANCH   1  11
HETATM   11  C   UNL     1     -41.212 -49.938  11.960  1.00  0.00     0.235 C 
HETATM   12  O   UNL     1     -40.319 -50.359  11.228  1.00  0.00    -0.272 OA
HETATM   13  N   UNL     1     -42.020 -48.864  11.637  1.00  0.00    -0.359 N 
HETATM   14  H   UNL     1     -42.453 -48.363  12.413  1.00  0.00     0.162 HD
BRANCH  13  15
HETATM   15  C   UNL     1     -41.841 -48.182  10.373  1.00  0.00     0.127 C 
BRANCH  15  16
HETATM   16  C   UNL     1     -43.145 -47.497  10.010  1.00  0.00     0.003 C 
HETATM   17  C   UNL     1     -43.578 -47.445   8.516  1.00  0.00     0.006 C 
HETATM   18  C   UNL     1     -44.073 -46.009   8.783  1.00  0.00     0.001 C 
HETATM   19  C   UNL     1     -43.044 -45.946   9.928  1.00  0.00     0.006 C 
ENDBRANCH  15  16
ENDBRANCH  13  15
ENDBRANCH   1  11
TORSDOF 4
ENDMDL
MODEL 6
REMARK VINA RESULT:      -5.4      1.597      2.768
REMARK  4 active torsions:
REMARK  status: ('A' for Active; 'I' for Inactive)
REMARK    1  A    between atoms: N_7  and  C_8 
REMARK    2  A    between atoms: C_8  and  C_9 
REMARK       I    between atoms: C_9  and  N_11 
REMARK    3  A    between atoms: N_11  and  C_12 
REMARK    4  A    between atoms: C_12  and  C_13 
ROOT
HETATM    1  C   UNL     1     -44.252 -54.100  12.745  1.00  0.00     0.235 C 
ENDROOT
BRANCH   1   2
HETATM    2  N   UNL     1     -42.900 -53.579  12.933  1.00  0.00    -0.301 N 
HETATM    3  C   UNL     1     -42.456 -52.543  12.148  1.00  0.00     0.102 C 
HETATM    4  C   UNL     1     -41.216 -52.065  12.253  1.00  0.00     0.092 C 
HETATM    5  C   UNL     1     -40.280 -52.692  13.205  1.00  0.00     0.252 C 
HETATM    6  N   UNL     1     -40.775 -53.762  13.929  1.00  0.00    -0.271 N 
HETATM    7  O   UNL     1     -39.139 -52.244  13.293  1.00  0.00    -0.268 OA
HETATM    8  C   UNL     1     -39.872 -54.498  14.789  1.00  0.00     0.164 C 
HETATM    9  C   UNL     1     -42.107 -54.166  13.914  1.00  0.00     0.331 C 
HETATM   10  O   UNL     1     -42.564 -54.997  14.703  1.00  0.00    -0.246 OA
ENDBRANCH   1   2
BRANCH   1  11
HETATM   11  C   UNL     1     -45.316 -53.037  13.006  1.00  0.00     0.235 C 
HETATM   12  O   UNL     1     -46.086 -52.665  12.123  1.00  0.00    -0.272 OA
HETATM   13  N   UNL     1     -45.320 -52.519  14.288  1.00  0.00    -0.359 N 
HETATM   14  H   UNL     1     -44.453 -52.596  14.819  1.00  0.00     0.162 HD
BRANCH  13  15
HETATM   15  C   UNL     1     -46.276 -51.493  14.648  1.00  0.00     0.127 C 
BRANCH  15  16
HETATM   16  C   UNL     1     -46.573 -51.615  16.131  1.00  0.00     0.003 C 
HETATM   17  C   UNL     1     -47.950 -51.126  16.665  1.00  0.00     0.006 C 
HETATM   18  C   UNL     1     -47.198 -50.576  17.895  1.00  0.00     0.001 C 
HETATM   19  C   UNL     1     -45.949 -50.482  16.997  1.00  0.00     0.006 C 
ENDBRANCH  15  16
ENDBRANCH  13  15
ENDBRANCH   1  11
TORSDOF 4
ENDMDL
MODEL 7
REMARK VINA RESULT:      -5.4      2.921      5.247
REMARK  4 active torsions:
REMARK  status: ('A' for Active; 'I' for Inactive)
REMARK    1  A    between atoms: N_7  and  C_8 
REMARK    2  A    between atoms: C_8  and  C_9 
REMARK       I    between atoms: C_9  and  N_11 
REMARK    3  A    between atoms: N_11  and  C_12 
REMARK    4  A    between atoms: C_12  and  C_13 
ROOT
HETATM    1  C   UNL     1     -43.943 -53.623  12.646  1.00  0.00     0.235 C 
ENDROOT
BRANCH   1   2
HETATM    2  N   UNL     1     -44.961 -53.161  13.586  1.00  0.00    -0.301 N 
HETATM    3  C   UNL     1     -45.721 -52.059  13.277  1.00  0.00     0.102 C 
HETATM    4  C   UNL     1     -46.629 -51.573  14.123  1.00  0.00     0.092 C 
HETATM    5  C   UNL     1     -46.795 -52.207  15.445  1.00  0.00     0.252 C 
HETATM    6  N   UNL     1     -45.965 -53.281  15.712  1.00  0.00    -0.271 N 
HETATM    7  O   UNL     1     -47.635 -51.752  16.217  1.00  0.00    -0.268 OA
HETATM    8  C   UNL     1     -45.992 -53.870  17.035  1.00  0.00     0.164 C 
HETATM    9  C   UNL     1     -45.118 -53.866  14.775  1.00  0.00     0.331 C 
HETATM   10  O   UNL     1     -44.530 -54.931  14.976  1.00  0.00    -0.246 OA
ENDBRANCH   1   2
BRANCH   1  11
HETATM   11  C   UNL     1     -42.625 -52.871  12.815  1.00  0.00     0.235 C 
HETATM   12  O   UNL     1     -41.817 -53.177  13.690  1.00  0.00    -0.272 OA
HETATM   13  N   UNL     1     -42.435 -51.821  11.936  1.00  0.00    -0.359 N 
HETATM   14  H   UNL     1     -43.272 -51.413  11.518  1.00  0.00     0.162 HD
BRANCH  13  15
HETATM   15  C   UNL     1     -41.228 -51.027  12.012  1.00  0.00     0.127 C 
BRANCH  15  16
HETATM   16  C   UNL     1     -41.616 -49.596  12.335  1.00  0.00     0.003 C 
HETATM   17  C   UNL     1     -43.105 -49.274  12.653  1.00  0.00     0.006 C 
HETATM   18  C   UNL     1     -42.921 -47.970  11.850  1.00  0.00     0.001 C 
HETATM   19  C   UNL     1     -41.793 -48.689  11.084  1.00  0.00     0.006 C 
ENDBRANCH  15  16
ENDBRANCH  13  15
ENDBRANCH   1  11
TORSDOF 4
ENDMDL
MODEL 8
REMARK VINA RESULT:      -5.3      3.241      5.482
REMARK  4 active torsions:
REMARK  status: ('A' for Active; 'I' for Inactive)
REMARK    1  A    between atoms: N_7  and  C_8 
REMARK    2  A    between atoms: C_8  and  C_9 
REMARK       I    between atoms: C_9  and  N_11 
REMARK    3  A    between atoms: N_11  and  C_12 
REMARK    4  A    between atoms: C_12  and  C_13 
ROOT
HETATM    1  C   UNL     1     -41.542 -52.711  11.762  1.00  0.00     0.235 C 
ENDROOT
BRANCH   1   2
HETATM    2  N   UNL     1     -42.068 -53.430  12.921  1.00  0.00    -0.301 N 
HETATM    3  C   UNL     1     -41.215 -53.812  13.927  1.00  0.00     0.102 C 
HETATM    4  C   UNL     1     -41.641 -54.508  14.981  1.00  0.00     0.092 C 
HETATM    5  C   UNL     1     -43.056 -54.918  15.050  1.00  0.00     0.252 C 
HETATM    6  N   UNL     1     -43.850 -54.544  13.980  1.00  0.00    -0.271 N 
HETATM    7  O   UNL     1     -43.439 -55.560  16.025  1.00  0.00    -0.268 OA
HETATM    8  C   UNL     1     -45.217 -55.020  13.927  1.00  0.00     0.164 C 
HETATM    9  C   UNL     1     -43.432 -53.702  12.953  1.00  0.00     0.331 C 
HETATM   10  O   UNL     1     -44.205 -53.233  12.115  1.00  0.00    -0.246 OA
ENDBRANCH   1   2
BRANCH   1  11
HETATM   11  C   UNL     1     -41.207 -51.259  12.094  1.00  0.00     0.235 C 
HETATM   12  O   UNL     1     -41.941 -50.575  12.804  1.00  0.00    -0.272 OA
HETATM   13  N   UNL     1     -40.044 -50.782  11.518  1.00  0.00    -0.359 N 
HETATM   14  H   UNL     1     -39.714 -51.264  10.682  1.00  0.00     0.162 HD
BRANCH  13  15
HETATM   15  C   UNL     1     -39.632 -49.414  11.750  1.00  0.00     0.127 C 
BRANCH  15  16
HETATM   16  C   UNL     1     -38.326 -49.432  12.521  1.00  0.00     0.003 C 
HETATM   17  C   UNL     1     -37.537 -50.770  12.634  1.00  0.00     0.006 C 
HETATM   18  C   UNL     1     -37.217 -50.375  14.090  1.00  0.00     0.001 C 
HETATM   19  C   UNL     1     -38.501 -49.524  14.064  1.00  0.00     0.006 C 
ENDBRANCH  15  16
ENDBRANCH  13  15
ENDBRANCH   1  11
TORSDOF 4
ENDMDL
MODEL 9
REMARK VINA RESULT:      -5.2      2.554      5.053
REMARK  4 active torsions:
REMARK  status: ('A' for Active; 'I' for Inactive)
REMARK    1  A    between atoms: N_7  and  C_8 
REMARK    2  A    between atoms: C_8  and  C_9 
REMARK       I    between atoms: C_9  and  N_11 
REMARK    3  A    between atoms: N_11  and  C_12 
REMARK    4  A    between atoms: C_12  and  C_13 
ROOT
HETATM    1  C   UNL     1     -44.472 -50.721  13.147  1.00  0.00     0.235 C 
ENDROOT
BRANCH   1   2
HETATM    2  N   UNL     1     -44.939 -51.767  14.054  1.00  0.00    -0.301 N 
HETATM    3  C   UNL     1     -45.021 -51.511  15.402  1.00  0.00     0.102 C 
HETATM    4  C   UNL     1     -45.398 -52.448  16.272  1.00  0.00     0.092 C 
HETATM    5  C   UNL     1     -45.693 -53.808  15.784  1.00  0.00     0.252 C 
HETATM    6  N   UNL     1     -45.542 -54.012  14.424  1.00  0.00    -0.271 N 
HETATM    7  O   UNL     1     -46.039 -54.664  16.595  1.00  0.00    -0.268 OA
HETATM    8  C   UNL     1     -45.697 -55.353  13.900  1.00  0.00     0.164 C 
HETATM    9  C   UNL     1     -45.284 -52.998  13.506  1.00  0.00     0.331 C 
HETATM   10  O   UNL     1     -45.339 -53.169  12.286  1.00  0.00    -0.246 OA
ENDBRANCH   1   2
BRANCH   1  11
HETATM   11  C   UNL     1     -42.960 -50.777  12.941  1.00  0.00     0.235 C 
HETATM   12  O   UNL     1     -42.211 -49.941  13.440  1.00  0.00    -0.272 OA
HETATM   13  N   UNL     1     -42.519 -51.813  12.138  1.00  0.00    -0.359 N 
HETATM   14  H   UNL     1     -43.196 -52.211  11.487  1.00  0.00     0.162 HD
BRANCH  13  15
HETATM   15  C   UNL     1     -41.106 -51.958  11.860  1.00  0.00     0.127 C 
BRANCH  15  16
HETATM   16  C   UNL     1     -40.620 -53.240  12.508  1.00  0.00     0.003 C 
HETATM   17  C   UNL     1     -41.633 -54.110  13.308  1.00  0.00     0.006 C 
HETATM   18  C   UNL     1     -40.504 -54.362  14.328  1.00  0.00     0.001 C 
HETATM   19  C   UNL     1     -39.889 -53.027  13.865  1.00  0.00     0.006 C 
ENDBRANCH  15  16
ENDBRANCH  13  15
ENDBRANCH   1  11
TORSDOF 4
ENDMDL
