MODEL 1
REMARK VINA RESULT:      -6.9      0.000      0.000
REMARK  5 active torsions:
REMARK  status: ('A' for Active; 'I' for Inactive)
REMARK    1  A    between atoms: N_1  and  C1*_7 
REMARK    2  A    between atoms: C_12  and  N_19 
REMARK    3  A    between atoms: C4*_13  and  C5*_21 
REMARK    4  A    between atoms: C3*_16  and  O3*_20 
REMARK    5  A    between atoms: C5*_21  and  O5*_22 
ROOT
HETATM    1  N   UNL     1     -41.272 -47.730  10.997  1.00  0.00    -0.283 N 
HETATM    2  C   UNL     1     -41.145 -46.575  11.743  1.00  0.00     0.160 A 
HETATM    3  C   UNL     1     -42.187 -47.469  10.009  1.00  0.00     0.143 A 
HETATM    4  N   UNL     1     -41.911 -45.605  11.291  1.00  0.00    -0.330 N 
ATOM      5  HN  UNL     1     -41.994 -44.656  11.655  1.00  0.00     0.168 HD
HETATM    6  C   UNL     1     -42.576 -46.155  10.221  1.00  0.00     0.117 A 
HETATM    7  N   UNL     1     -42.640 -48.287   9.043  1.00  0.00    -0.336 N 
ATOM      8  HN  UNL     1     -42.339 -49.254   8.920  1.00  0.00     0.168 HD
HETATM    9  C   UNL     1     -43.546 -45.625   9.355  1.00  0.00     0.109 A 
HETATM   10  N   UNL     1     -44.007 -46.402   8.352  1.00  0.00    -0.341 N 
ATOM     11  HN  UNL     1     -44.690 -46.045   7.684  1.00  0.00     0.167 HD
HETATM   12  C   UNL     1     -43.543 -47.665   8.258  1.00  0.00     0.183 A 
HETATM   13 BR   UNL     1     -40.062 -46.340  13.261  1.00  0.00    -0.010 Br
ENDROOT
BRANCH   1  14
HETATM   14  C1* UNL     1     -40.650 -48.991  11.326  1.00  0.00     0.235 C 
HETATM   15  O4* UNL     1     -41.667 -49.894  11.824  1.00  0.00    -0.356 OA
HETATM   16  C4* UNL     1     -41.035 -50.810  12.752  1.00  0.00     0.176 C 
HETATM   17  C3* UNL     1     -39.528 -50.522  12.677  1.00  0.00     0.153 C 
HETATM   18  C2* UNL     1     -39.528 -49.045  12.354  1.00  0.00     0.088 C 
BRANCH  16  19
HETATM   19  C5* UNL     1     -41.455 -52.230  12.386  1.00  0.00     0.198 C 
BRANCH  19  20
HETATM   20  O5* UNL     1     -41.233 -52.453  10.990  1.00  0.00    -0.398 OA
HETATM   21  H5* UNL     1     -41.736 -53.263  10.771  1.00  0.00     0.209 HD
ENDBRANCH  19  20
ENDBRANCH  16  19
BRANCH  17  22
HETATM   22  O3* UNL     1     -38.838 -51.188  11.620  1.00  0.00    -0.393 OA
HETATM   23  H3* UNL     1     -39.414 -51.894  11.254  1.00  0.00     0.210 HD
ENDBRANCH  17  22
ENDBRANCH   1  14
BRANCH   9  24
HETATM   24  N   UNL     1     -44.043 -44.334   9.480  1.00  0.00    -0.287 NA
HETATM   25  H   UNL     1     -43.354 -43.612   9.304  1.00  0.00     0.125 HD
HETATM   26  H   UNL     1     -44.958 -44.230   9.065  1.00  0.00     0.125 HD
ENDBRANCH   9  24
TORSDOF 5
ENDMDL
MODEL 2
REMARK VINA RESULT:      -6.6      2.018      2.290
REMARK  5 active torsions:
REMARK  status: ('A' for Active; 'I' for Inactive)
REMARK    1  A    between atoms: N_1  and  C1*_7 
REMARK    2  A    between atoms: C_12  and  N_19 
REMARK    3  A    between atoms: C4*_13  and  C5*_21 
REMARK    4  A    between atoms: C3*_16  and  O3*_20 
REMARK    5  A    between atoms: C5*_21  and  O5*_22 
ROOT
HETATM    1  N   UNL     1     -40.394 -46.474  11.605  1.00  0.00    -0.283 N 
HETATM    2  C   UNL     1     -40.501 -45.131  11.909  1.00  0.00     0.160 A 
HETATM    3  C   UNL     1     -41.391 -46.760  10.708  1.00  0.00     0.143 A 
HETATM    4  N   UNL     1     -41.490 -44.553  11.264  1.00  0.00    -0.330 N 
ATOM      5  HN  UNL     1     -41.771 -43.573  11.303  1.00  0.00     0.168 HD
HETATM    6  C   UNL     1     -42.061 -45.561  10.524  1.00  0.00     0.117 A 
HETATM    7  N   UNL     1     -41.690 -47.936  10.128  1.00  0.00    -0.336 N 
ATOM      8  HN  UNL     1     -41.181 -48.804  10.292  1.00  0.00     0.168 HD
HETATM    9  C   UNL     1     -43.168 -45.569   9.659  1.00  0.00     0.109 A 
HETATM   10  N   UNL     1     -43.486 -46.722   9.032  1.00  0.00    -0.341 N 
ATOM     11  HN  UNL     1     -44.264 -46.763   8.374  1.00  0.00     0.167 HD
HETATM   12  C   UNL     1     -42.749 -47.819   9.300  1.00  0.00     0.183 A 
HETATM   13 BR   UNL     1     -39.429 -44.172  13.120  1.00  0.00    -0.010 Br
ENDROOT
BRANCH   1  14
HETATM   14  C1* UNL     1     -39.483 -47.391  12.249  1.00  0.00     0.235 C 
HETATM   15  O4* UNL     1     -39.133 -48.435  11.309  1.00  0.00    -0.356 OA
HETATM   16  C4* UNL     1     -38.842 -49.636  12.064  1.00  0.00     0.176 C 
HETATM   17  C3* UNL     1     -38.876 -49.230  13.544  1.00  0.00     0.153 C 
HETATM   18  C2* UNL     1     -39.902 -48.119  13.519  1.00  0.00     0.088 C 
BRANCH  16  19
HETATM   19  C5* UNL     1     -37.517 -50.207  11.566  1.00  0.00     0.198 C 
BRANCH  19  20
HETATM   20  O5* UNL     1     -37.406 -50.005  10.154  1.00  0.00    -0.398 OA
HETATM   21  H5* UNL     1     -37.683 -50.850   9.746  1.00  0.00     0.209 HD
ENDBRANCH  19  20
ENDBRANCH  16  19
BRANCH  17  22
HETATM   22  O3* UNL     1     -37.661 -48.675  14.046  1.00  0.00    -0.393 OA
HETATM   23  H3* UNL     1     -36.938 -48.851  13.407  1.00  0.00     0.210 HD
ENDBRANCH  17  22
ENDBRANCH   1  14
BRANCH   9  24
HETATM   24  N   UNL     1     -43.941 -44.443   9.415  1.00  0.00    -0.287 NA
HETATM   25  H   UNL     1     -44.234 -44.349   8.449  1.00  0.00     0.125 HD
HETATM   26  H   UNL     1     -44.628 -44.281  10.138  1.00  0.00     0.125 HD
ENDBRANCH   9  24
TORSDOF 5
ENDMDL
MODEL 3
REMARK VINA RESULT:      -6.4      2.891      5.428
REMARK  5 active torsions:
REMARK  status: ('A' for Active; 'I' for Inactive)
REMARK    1  A    between atoms: N_1  and  C1*_7 
REMARK    2  A    between atoms: C_12  and  N_19 
REMARK    3  A    between atoms: C4*_13  and  C5*_21 
REMARK    4  A    between atoms: C3*_16  and  O3*_20 
REMARK    5  A    between atoms: C5*_21  and  O5*_22 
ROOT
HETATM    1  N   UNL     1     -41.884 -46.856  11.661  1.00  0.00    -0.283 N 
HETATM    2  C   UNL     1     -41.382 -46.073  12.682  1.00  0.00     0.160 A 
HETATM    3  C   UNL     1     -41.071 -47.956  11.566  1.00  0.00     0.143 A 
HETATM    4  N   UNL     1     -40.316 -46.605  13.239  1.00  0.00    -0.330 N 
ATOM      5  HN  UNL     1     -39.769 -46.235  14.015  1.00  0.00     0.168 HD
HETATM    6  C   UNL     1     -40.104 -47.771  12.542  1.00  0.00     0.117 A 
HETATM    7  N   UNL     1     -41.156 -48.995  10.717  1.00  0.00    -0.336 N 
ATOM      8  HN  UNL     1     -41.877 -49.097  10.002  1.00  0.00     0.168 HD
HETATM    9  C   UNL     1     -39.106 -48.754  12.652  1.00  0.00     0.109 A 
HETATM   10  N   UNL     1     -39.169 -49.829  11.838  1.00  0.00    -0.341 N 
ATOM     11  HN  UNL     1     -38.481 -50.578  11.906  1.00  0.00     0.167 HD
HETATM   12  C   UNL     1     -40.166 -49.886  10.932  1.00  0.00     0.183 A 
HETATM   13 BR   UNL     1     -42.055 -44.412  13.248  1.00  0.00    -0.010 Br
ENDROOT
BRANCH   1  14
HETATM   14  C1* UNL     1     -42.970 -46.471  10.791  1.00  0.00     0.235 C 
HETATM   15  O4* UNL     1     -43.799 -47.633  10.543  1.00  0.00    -0.356 OA
HETATM   16  C4* UNL     1     -44.404 -47.479   9.236  1.00  0.00     0.176 C 
HETATM   17  C3* UNL     1     -44.025 -46.072   8.752  1.00  0.00     0.153 C 
HETATM   18  C2* UNL     1     -42.679 -45.887   9.415  1.00  0.00     0.088 C 
BRANCH  16  19
HETATM   19  C5* UNL     1     -45.900 -47.753   9.363  1.00  0.00     0.198 C 
BRANCH  19  20
HETATM   20  O5* UNL     1     -46.603 -47.078   8.315  1.00  0.00    -0.398 OA
HETATM   21  H5* UNL     1     -46.121 -46.239   8.175  1.00  0.00     0.209 HD
ENDBRANCH  19  20
ENDBRANCH  16  19
BRANCH  17  22
HETATM   22  O3* UNL     1     -44.875 -45.024   9.218  1.00  0.00    -0.393 OA
HETATM   23  H3* UNL     1     -44.617 -44.182   8.783  1.00  0.00     0.210 HD
ENDBRANCH  17  22
ENDBRANCH   1  14
BRANCH   9  24
HETATM   24  N   UNL     1     -38.064 -48.670  13.566  1.00  0.00    -0.287 NA
HETATM   25  H   UNL     1     -37.927 -47.740  13.945  1.00  0.00     0.125 HD
HETATM   26  H   UNL     1     -38.048 -49.451  14.207  1.00  0.00     0.125 HD
ENDBRANCH   9  24
TORSDOF 5
ENDMDL
MODEL 4
REMARK VINA RESULT:      -6.4      3.305      4.968
REMARK  5 active torsions:
REMARK  status: ('A' for Active; 'I' for Inactive)
REMARK    1  A    between atoms: N_1  and  C1*_7 
REMARK    2  A    between atoms: C_12  and  N_19 
REMARK    3  A    between atoms: C4*_13  and  C5*_21 
REMARK    4  A    between atoms: C3*_16  and  O3*_20 
REMARK    5  A    between atoms: C5*_21  and  O5*_22 
ROOT
HETATM    1  N   UNL     1     -41.477 -46.587  11.164  1.00  0.00    -0.283 N 
HETATM    2  C   UNL     1     -41.113 -47.882  10.850  1.00  0.00     0.160 A 
HETATM    3  C   UNL     1     -42.510 -46.249  10.328  1.00  0.00     0.143 A 
HETATM    4  N   UNL     1     -41.847 -48.383   9.880  1.00  0.00    -0.330 N 
ATOM      5  HN  UNL     1     -41.788 -49.316   9.473  1.00  0.00     0.168 HD
HETATM    6  C   UNL     1     -42.710 -47.370   9.537  1.00  0.00     0.117 A 
HETATM    7  N   UNL     1     -43.190 -45.091  10.255  1.00  0.00    -0.336 N 
ATOM      8  HN  UNL     1     -43.010 -44.281  10.847  1.00  0.00     0.168 HD
HETATM    9  C   UNL     1     -43.710 -47.291   8.553  1.00  0.00     0.109 A 
HETATM   10  N   UNL     1     -44.436 -46.157   8.464  1.00  0.00    -0.341 N 
ATOM     11  HN  UNL     1     -45.191 -46.071   7.783  1.00  0.00     0.167 HD
HETATM   12  C   UNL     1     -44.138 -45.140   9.298  1.00  0.00     0.183 A 
HETATM   13 BR   UNL     1     -39.722 -48.872  11.635  1.00  0.00    -0.010 Br
ENDROOT
BRANCH   1  14
HETATM   14  C1* UNL     1     -40.773 -45.742  12.101  1.00  0.00     0.235 C 
HETATM   15  O4* UNL     1     -41.734 -44.883  12.762  1.00  0.00    -0.356 OA
HETATM   16  C4* UNL     1     -41.057 -43.654  13.125  1.00  0.00     0.176 C 
HETATM   17  C3* UNL     1     -39.574 -43.868  12.791  1.00  0.00     0.153 C 
HETATM   18  C2* UNL     1     -39.672 -44.811  11.613  1.00  0.00     0.088 C 
BRANCH  16  19
HETATM   19  C5* UNL     1     -41.368 -43.349  14.587  1.00  0.00     0.198 C 
BRANCH  19  20
HETATM   20  O5* UNL     1     -40.304 -42.576  15.153  1.00  0.00    -0.398 OA
HETATM   21  H5* UNL     1     -40.074 -43.024  15.992  1.00  0.00     0.209 HD
ENDBRANCH  19  20
ENDBRANCH  16  19
BRANCH  17  22
HETATM   22  O3* UNL     1     -38.816 -44.530  13.803  1.00  0.00    -0.393 OA
HETATM   23  H3* UNL     1     -38.735 -45.482  13.575  1.00  0.00     0.210 HD
ENDBRANCH  17  22
ENDBRANCH   1  14
BRANCH   9  24
HETATM   24  N   UNL     1     -43.987 -48.331   7.676  1.00  0.00    -0.287 NA
HETATM   25  H   UNL     1     -43.186 -48.919   7.473  1.00  0.00     0.125 HD
HETATM   26  H   UNL     1     -44.869 -48.781   7.876  1.00  0.00     0.125 HD
ENDBRANCH   9  24
TORSDOF 5
ENDMDL
MODEL 5
REMARK VINA RESULT:      -6.4      3.628      6.396
REMARK  5 active torsions:
REMARK  status: ('A' for Active; 'I' for Inactive)
REMARK    1  A    between atoms: N_1  and  C1*_7 
REMARK    2  A    between atoms: C_12  and  N_19 
REMARK    3  A    between atoms: C4*_13  and  C5*_21 
REMARK    4  A    between atoms: C3*_16  and  O3*_20 
REMARK    5  A    between atoms: C5*_21  and  O5*_22 
ROOT
HETATM    1  N   UNL     1     -41.109 -47.036  11.370  1.00  0.00    -0.283 N 
HETATM    2  C   UNL     1     -41.661 -47.939  10.483  1.00  0.00     0.160 A 
HETATM    3  C   UNL     1     -40.143 -47.708  12.075  1.00  0.00     0.143 A 
HETATM    4  N   UNL     1     -41.107 -49.128  10.576  1.00  0.00    -0.330 N 
ATOM      5  HN  UNL     1     -41.324 -49.961  10.029  1.00  0.00     0.168 HD
HETATM    6  C   UNL     1     -40.171 -49.001  11.574  1.00  0.00     0.117 A 
HETATM    7  N   UNL     1     -39.340 -47.249  13.051  1.00  0.00    -0.336 N 
ATOM      8  HN  UNL     1     -39.351 -46.292  13.403  1.00  0.00     0.168 HD
HETATM    9  C   UNL     1     -39.286 -49.930  12.147  1.00  0.00     0.109 A 
HETATM   10  N   UNL     1     -38.441 -49.505  13.110  1.00  0.00    -0.341 N 
ATOM     11  HN  UNL     1     -37.763 -50.141  13.530  1.00  0.00     0.167 HD
HETATM   12  C   UNL     1     -38.518 -48.218  13.504  1.00  0.00     0.183 A 
HETATM   13 BR   UNL     1     -43.065 -47.605   9.279  1.00  0.00    -0.010 Br
ENDROOT
BRANCH   1  14
HETATM   14  C1* UNL     1     -41.595 -45.692  11.581  1.00  0.00     0.235 C 
HETATM   15  O4* UNL     1     -40.458 -44.806  11.724  1.00  0.00    -0.356 OA
HETATM   16  C4* UNL     1     -40.857 -43.703  12.575  1.00  0.00     0.176 C 
HETATM   17  C3* UNL     1     -42.362 -43.877  12.823  1.00  0.00     0.153 C 
HETATM   18  C2* UNL     1     -42.497 -45.382  12.767  1.00  0.00     0.088 C 
BRANCH  16  19
HETATM   19  C5* UNL     1     -40.445 -42.400  11.898  1.00  0.00     0.198 C 
BRANCH  19  20
HETATM   20  O5* UNL     1     -40.778 -42.453  10.508  1.00  0.00    -0.398 OA
HETATM   21  H5* UNL     1     -41.252 -43.300  10.385  1.00  0.00     0.209 HD
ENDBRANCH  19  20
ENDBRANCH  16  19
BRANCH  17  22
HETATM   22  O3* UNL     1     -43.207 -43.337  11.807  1.00  0.00    -0.393 OA
HETATM   23  H3* UNL     1     -43.567 -44.072  11.263  1.00  0.00     0.210 HD
ENDBRANCH  17  22
ENDBRANCH   1  14
BRANCH   9  24
HETATM   24  N   UNL     1     -39.238 -51.261  11.757  1.00  0.00    -0.287 NA
HETATM   25  H   UNL     1     -40.141 -51.647  11.507  1.00  0.00     0.125 HD
HETATM   26  H   UNL     1     -38.452 -51.460  11.154  1.00  0.00     0.125 HD
ENDBRANCH   9  24
TORSDOF 5
ENDMDL
MODEL 6
REMARK VINA RESULT:      -6.3      5.449      6.888
REMARK  5 active torsions:
REMARK  status: ('A' for Active; 'I' for Inactive)
REMARK    1  A    between atoms: N_1  and  C1*_7 
REMARK    2  A    between atoms: C_12  and  N_19 
REMARK    3  A    between atoms: C4*_13  and  C5*_21 
REMARK    4  A    between atoms: C3*_16  and  O3*_20 
REMARK    5  A    between atoms: C5*_21  and  O5*_22 
ROOT
HETATM    1  N   UNL     1     -42.057 -53.078  13.840  1.00  0.00    -0.283 N 
HETATM    2  C   UNL     1     -42.046 -52.171  12.798  1.00  0.00     0.160 A 
HETATM    3  C   UNL     1     -43.330 -53.582  13.916  1.00  0.00     0.143 A 
HETATM    4  N   UNL     1     -43.219 -52.073  12.212  1.00  0.00    -0.330 N 
ATOM      5  HN  UNL     1     -43.471 -51.488  11.416  1.00  0.00     0.168 HD
HETATM    6  C   UNL     1     -44.031 -52.936  12.909  1.00  0.00     0.117 A 
HETATM    7  N   UNL     1     -43.826 -54.490  14.774  1.00  0.00    -0.336 N 
ATOM      8  HN  UNL     1     -43.284 -54.940  15.512  1.00  0.00     0.168 HD
HETATM    9  C   UNL     1     -45.395 -53.246  12.775  1.00  0.00     0.109 A 
HETATM   10  N   UNL     1     -45.927 -54.175  13.598  1.00  0.00    -0.341 N 
ATOM     11  HN  UNL     1     -46.905 -54.450  13.513  1.00  0.00     0.167 HD
HETATM   12  C   UNL     1     -45.132 -54.729  14.535  1.00  0.00     0.183 A 
HETATM   13 BR   UNL     1     -40.585 -51.128  12.242  1.00  0.00    -0.010 Br
ENDROOT
BRANCH   1  14
HETATM   14  C1* UNL     1     -40.951 -53.305  14.741  1.00  0.00     0.235 C 
HETATM   15  O4* UNL     1     -40.860 -54.724  15.014  1.00  0.00    -0.356 OA
HETATM   16  C4* UNL     1     -40.296 -54.888  16.338  1.00  0.00     0.176 C 
HETATM   17  C3* UNL     1     -39.894 -53.484  16.809  1.00  0.00     0.153 C 
HETATM   18  C2* UNL     1     -40.927 -52.632  16.106  1.00  0.00     0.088 C 
BRANCH  16  19
HETATM   19  C5* UNL     1     -39.163 -55.907  16.255  1.00  0.00     0.198 C 
BRANCH  19  20
HETATM   20  O5* UNL     1     -38.402 -55.685  15.064  1.00  0.00    -0.398 OA
HETATM   21  H5* UNL     1     -38.001 -54.799  15.171  1.00  0.00     0.209 HD
ENDBRANCH  19  20
ENDBRANCH  16  19
BRANCH  17  22
HETATM   22  O3* UNL     1     -38.610 -53.043  16.367  1.00  0.00    -0.393 OA
HETATM   23  H3* UNL     1     -38.506 -52.090  16.578  1.00  0.00     0.210 HD
ENDBRANCH  17  22
ENDBRANCH   1  14
BRANCH   9  24
HETATM   24  N   UNL     1     -46.213 -52.646  11.828  1.00  0.00    -0.287 NA
HETATM   25  H   UNL     1     -47.168 -52.987  11.838  1.00  0.00     0.125 HD
HETATM   26  H   UNL     1     -46.065 -51.649  11.765  1.00  0.00     0.125 HD
ENDBRANCH   9  24
TORSDOF 5
ENDMDL
MODEL 7
REMARK VINA RESULT:      -6.3      3.885      5.560
REMARK  5 active torsions:
REMARK  status: ('A' for Active; 'I' for Inactive)
REMARK    1  A    between atoms: N_1  and  C1*_7 
REMARK    2  A    between atoms: C_12  and  N_19 
REMARK    3  A    between atoms: C4*_13  and  C5*_21 
REMARK    4  A    between atoms: C3*_16  and  O3*_20 
REMARK    5  A    between atoms: C5*_21  and  O5*_22 
ROOT
HETATM    1  N   UNL     1     -41.994 -51.820  12.892  1.00  0.00    -0.283 N 
HETATM    2  C   UNL     1     -40.817 -52.536  12.988  1.00  0.00     0.160 A 
HETATM    3  C   UNL     1     -41.711 -50.680  12.184  1.00  0.00     0.143 A 
HETATM    4  N   UNL     1     -39.817 -51.931  12.385  1.00  0.00    -0.330 N 
ATOM      5  HN  UNL     1     -38.853 -52.253  12.301  1.00  0.00     0.168 HD
HETATM    6  C   UNL     1     -40.358 -50.767  11.894  1.00  0.00     0.117 A 
HETATM    7  N   UNL     1     -42.535 -49.675  11.842  1.00  0.00    -0.336 N 
ATOM      8  HN  UNL     1     -43.527 -49.637  12.080  1.00  0.00     0.168 HD
HETATM    9  C   UNL     1     -39.783 -49.698  11.186  1.00  0.00     0.109 A 
HETATM   10  N   UNL     1     -40.581 -48.681  10.798  1.00  0.00    -0.341 N 
ATOM     11  HN  UNL     1     -40.208 -47.901  10.256  1.00  0.00     0.167 HD
HETATM   12  C   UNL     1     -41.883 -48.722  11.145  1.00  0.00     0.183 A 
HETATM   13 BR   UNL     1     -40.574 -54.170  13.885  1.00  0.00    -0.010 Br
ENDROOT
BRANCH   1  14
HETATM   14  C1* UNL     1     -43.226 -52.174  13.558  1.00  0.00     0.235 C 
HETATM   15  O4* UNL     1     -44.332 -51.587  12.830  1.00  0.00    -0.356 OA
HETATM   16  C4* UNL     1     -45.401 -51.331  13.773  1.00  0.00     0.176 C 
HETATM   17  C3* UNL     1     -44.950 -51.944  15.107  1.00  0.00     0.153 C 
HETATM   18  C2* UNL     1     -43.450 -51.782  15.012  1.00  0.00     0.088 C 
BRANCH  16  19
HETATM   19  C5* UNL     1     -46.697 -51.889  13.194  1.00  0.00     0.198 C 
BRANCH  19  20
HETATM   20  O5* UNL     1     -46.426 -53.109  12.497  1.00  0.00    -0.398 OA
HETATM   21  H5* UNL     1     -46.354 -52.860  11.553  1.00  0.00     0.209 HD
ENDBRANCH  19  20
ENDBRANCH  16  19
BRANCH  17  22
HETATM   22  O3* UNL     1     -45.219 -53.338  15.251  1.00  0.00    -0.393 OA
HETATM   23  H3* UNL     1     -46.112 -53.533  14.894  1.00  0.00     0.210 HD
ENDBRANCH  17  22
ENDBRANCH   1  14
BRANCH   9  24
HETATM   24  N   UNL     1     -38.434 -49.649  10.862  1.00  0.00    -0.287 NA
HETATM   25  H   UNL     1     -38.089 -48.711  10.689  1.00  0.00     0.125 HD
HETATM   26  H   UNL     1     -37.875 -50.262  11.439  1.00  0.00     0.125 HD
ENDBRANCH   9  24
TORSDOF 5
ENDMDL
MODEL 8
REMARK VINA RESULT:      -6.3      1.767      2.424
REMARK  5 active torsions:
REMARK  status: ('A' for Active; 'I' for Inactive)
REMARK    1  A    between atoms: N_1  and  C1*_7 
REMARK    2  A    between atoms: C_12  and  N_19 
REMARK    3  A    between atoms: C4*_13  and  C5*_21 
REMARK    4  A    between atoms: C3*_16  and  O3*_20 
REMARK    5  A    between atoms: C5*_21  and  O5*_22 
ROOT
HETATM    1  N   UNL     1     -40.581 -48.742  12.434  1.00  0.00    -0.283 N 
HETATM    2  C   UNL     1     -39.589 -47.853  12.798  1.00  0.00     0.160 A 
HETATM    3  C   UNL     1     -41.269 -48.169  11.395  1.00  0.00     0.143 A 
HETATM    4  N   UNL     1     -39.602 -46.765  12.058  1.00  0.00    -0.330 N 
ATOM      5  HN  UNL     1     -38.972 -45.966  12.116  1.00  0.00     0.168 HD
HETATM    6  C   UNL     1     -40.654 -46.944  11.191  1.00  0.00     0.117 A 
HETATM    7  N   UNL     1     -42.322 -48.654  10.713  1.00  0.00    -0.336 N 
ATOM      8  HN  UNL     1     -42.758 -49.558  10.895  1.00  0.00     0.168 HD
HETATM    9  C   UNL     1     -41.183 -46.118  10.185  1.00  0.00     0.109 A 
HETATM   10  N   UNL     1     -42.222 -46.578   9.457  1.00  0.00    -0.341 N 
ATOM     11  HN  UNL     1     -42.616 -46.022   8.698  1.00  0.00     0.167 HD
HETATM   12  C   UNL     1     -42.726 -47.792   9.758  1.00  0.00     0.183 A 
HETATM   13 BR   UNL     1     -38.352 -48.071  14.195  1.00  0.00    -0.010 Br
ENDROOT
BRANCH   1  14
HETATM   14  C1* UNL     1     -40.888 -49.963  13.142  1.00  0.00     0.235 C 
HETATM   15  O4* UNL     1     -41.063 -51.028  12.176  1.00  0.00    -0.356 OA
HETATM   16  C4* UNL     1     -41.991 -51.989  12.735  1.00  0.00     0.176 C 
HETATM   17  C3* UNL     1     -42.259 -51.536  14.177  1.00  0.00     0.153 C 
HETATM   18  C2* UNL     1     -42.111 -50.037  14.046  1.00  0.00     0.088 C 
BRANCH  16  19
HETATM   19  C5* UNL     1     -41.391 -53.383  12.581  1.00  0.00     0.198 C 
BRANCH  19  20
HETATM   20  O5* UNL     1     -40.548 -53.419  11.425  1.00  0.00    -0.398 OA
HETATM   21  H5* UNL     1     -39.635 -53.491  11.769  1.00  0.00     0.209 HD
ENDBRANCH  19  20
ENDBRANCH  16  19
BRANCH  17  22
HETATM   22  O3* UNL     1     -41.298 -51.975  15.137  1.00  0.00    -0.393 OA
HETATM   23  H3* UNL     1     -40.600 -52.493  14.680  1.00  0.00     0.210 HD
ENDBRANCH  17  22
ENDBRANCH   1  14
BRANCH   9  24
HETATM   24  N   UNL     1     -40.678 -44.856   9.904  1.00  0.00    -0.287 NA
HETATM   25  H   UNL     1     -39.697 -44.856   9.649  1.00  0.00     0.125 HD
HETATM   26  H   UNL     1     -41.314 -44.300   9.350  1.00  0.00     0.125 HD
ENDBRANCH   9  24
TORSDOF 5
ENDMDL
MODEL 9
REMARK VINA RESULT:      -6.3      2.107      2.833
REMARK  5 active torsions:
REMARK  status: ('A' for Active; 'I' for Inactive)
REMARK    1  A    between atoms: N_1  and  C1*_7 
REMARK    2  A    between atoms: C_12  and  N_19 
REMARK    3  A    between atoms: C4*_13  and  C5*_21 
REMARK    4  A    between atoms: C3*_16  and  O3*_20 
REMARK    5  A    between atoms: C5*_21  and  O5*_22 
ROOT
HETATM    1  N   UNL     1     -40.830 -49.642  11.901  1.00  0.00    -0.283 N 
HETATM    2  C   UNL     1     -39.577 -49.124  11.640  1.00  0.00     0.160 A 
HETATM    3  C   UNL     1     -41.744 -48.725  11.448  1.00  0.00     0.143 A 
HETATM    4  N   UNL     1     -39.638 -47.949  11.051  1.00  0.00    -0.330 N 
ATOM      5  HN  UNL     1     -38.861 -47.365  10.744  1.00  0.00     0.168 HD
HETATM    6  C   UNL     1     -40.982 -47.684  10.939  1.00  0.00     0.117 A 
HETATM    7  N   UNL     1     -43.086 -48.784  11.487  1.00  0.00    -0.336 N 
ATOM      8  HN  UNL     1     -43.617 -49.563  11.877  1.00  0.00     0.168 HD
HETATM    9  C   UNL     1     -41.674 -46.574  10.425  1.00  0.00     0.109 A 
HETATM   10  N   UNL     1     -43.023 -46.604  10.417  1.00  0.00    -0.341 N 
ATOM     11  HN  UNL     1     -43.562 -45.832  10.025  1.00  0.00     0.167 HD
HETATM   12  C   UNL     1     -43.641 -47.682  10.942  1.00  0.00     0.183 A 
HETATM   13 BR   UNL     1     -37.929 -49.915  12.076  1.00  0.00    -0.010 Br
ENDROOT
BRANCH   1  14
HETATM   14  C1* UNL     1     -41.077 -50.854  12.646  1.00  0.00     0.235 C 
HETATM   15  O4* UNL     1     -42.351 -51.404  12.230  1.00  0.00    -0.356 OA
HETATM   16  C4* UNL     1     -42.912 -52.129  13.351  1.00  0.00     0.176 C 
HETATM   17  C3* UNL     1     -41.832 -52.132  14.442  1.00  0.00     0.153 C 
HETATM   18  C2* UNL     1     -41.134 -50.819  14.167  1.00  0.00     0.088 C 
BRANCH  16  19
HETATM   19  C5* UNL     1     -43.358 -53.503  12.859  1.00  0.00     0.198 C 
BRANCH  19  20
HETATM   20  O5* UNL     1     -44.251 -53.351  11.751  1.00  0.00    -0.398 OA
HETATM   21  H5* UNL     1     -45.150 -53.427  12.128  1.00  0.00     0.209 HD
ENDBRANCH  19  20
ENDBRANCH  16  19
BRANCH  17  22
HETATM   22  O3* UNL     1     -40.854 -53.165  14.322  1.00  0.00    -0.393 OA
HETATM   23  H3* UNL     1     -40.922 -53.571  13.430  1.00  0.00     0.210 HD
ENDBRANCH  17  22
ENDBRANCH   1  14
BRANCH   9  24
HETATM   24  N   UNL     1     -41.029 -45.455   9.917  1.00  0.00    -0.287 NA
HETATM   25  H   UNL     1     -41.324 -45.203   8.981  1.00  0.00     0.125 HD
HETATM   26  H   UNL     1     -40.936 -44.718  10.601  1.00  0.00     0.125 HD
ENDBRANCH   9  24
TORSDOF 5
ENDMDL
