MODEL 1
REMARK VINA RESULT:      -6.8      0.000      0.000
REMARK  8 active torsions:
REMARK  status: ('A' for Active; 'I' for Inactive)
REMARK    1  A    between atoms: N_2  and  C_9 
REMARK    2  A    between atoms: C_4  and  N_7 
REMARK    3  A    between atoms: C_14  and  C_15 
REMARK    4  A    between atoms: C_15  and  C_17 
REMARK    5  A    between atoms: C_16  and  C_26 
REMARK    6  A    between atoms: C_16  and  C_27 
REMARK       I    between atoms: C_17  and  N_23 
REMARK    7  A    between atoms: C_26  and  O_28 
REMARK    8  A    between atoms: C_27  and  O_29 
ROOT
HETATM    1  C   UNL     1     -42.316 -51.037  13.797  1.00  0.00     0.122 A 
HETATM    2  N   UNL     1     -42.487 -49.110  12.775  1.00  0.00    -0.322 N 
HETATM    3  C   UNL     1     -42.043 -50.400  12.587  1.00  0.00     0.140 A 
HETATM    4  C   UNL     1     -41.966 -52.410  13.935  1.00  0.00     0.136 A 
HETATM    5  N   UNL     1     -42.930 -50.165  14.678  1.00  0.00    -0.346 N 
ATOM      6  HN  UNL     1     -43.249 -50.365  15.626  1.00  0.00     0.167 HD
HETATM    7  C   UNL     1     -43.013 -49.029  14.036  1.00  0.00     0.185 A 
HETATM    8  N   UNL     1     -41.479 -50.951  11.500  1.00  0.00    -0.336 N 
ATOM      9  HN  UNL     1     -41.288 -50.454  10.630  1.00  0.00     0.168 HD
HETATM   10  N   UNL     1     -41.409 -52.993  12.834  1.00  0.00    -0.337 N 
ATOM     11  HN  UNL     1     -41.150 -53.979  12.852  1.00  0.00     0.168 HD
HETATM   12  C   UNL     1     -41.201 -52.254  11.717  1.00  0.00     0.183 A 
ENDROOT
BRANCH   4  13
HETATM   13  N   UNL     1     -42.211 -53.169  15.081  1.00  0.00    -0.356 N 
HETATM   14  C   UNL     1     -43.596 -53.634  15.373  1.00  0.00     0.118 C 
HETATM   15  C   UNL     1     -43.678 -53.911  16.901  1.00  0.00     0.193 C 
HETATM   16  O   UNL     1     -42.710 -54.900  17.301  1.00  0.00    -0.387 OA
HETATM   17  C   UNL     1     -41.386 -54.400  17.068  1.00  0.00     0.187 C 
HETATM   18  C   UNL     1     -41.143 -54.049  15.592  1.00  0.00     0.151 C 
BRANCH  14  19
HETATM   19  C   UNL     1     -43.932 -54.909  14.582  1.00  0.00     0.130 C 
BRANCH  19  20
HETATM   20  C   UNL     1     -45.055 -54.672  13.601  1.00  0.00     0.217 C 
HETATM   21  O   UNL     1     -44.905 -54.210  12.476  1.00  0.00    -0.274 OA
HETATM   22  N   UNL     1     -46.292 -55.047  14.044  1.00  0.00    -0.370 N 
HETATM   23  H   UNL     1     -46.484 -55.181  15.027  1.00  0.00     0.159 HD
HETATM   24  H   UNL     1     -47.074 -54.824  13.441  1.00  0.00     0.159 HD
ENDBRANCH  19  20
ENDBRANCH  14  19
ENDBRANCH   4  13
BRANCH   2  25
HETATM   25  C   UNL     1     -42.491 -47.953  11.928  1.00  0.00     0.094 C 
HETATM   26  C   UNL     1     -43.800 -47.709  11.123  1.00  0.00     0.039 C 
HETATM   27  C   UNL     1     -42.890 -47.041  10.029  1.00  0.00     0.006 C 
HETATM   28  C   UNL     1     -41.803 -48.063  10.543  1.00  0.00     0.039 C 
BRANCH  27  29
HETATM   29  C   UNL     1     -43.387 -47.259   8.598  1.00  0.00     0.175 C 
BRANCH  29  30
HETATM   30  O   UNL     1     -42.796 -46.303   7.724  1.00  0.00    -0.400 OA
HETATM   31  H   UNL     1     -41.836 -46.286   7.919  1.00  0.00     0.209 HD
ENDBRANCH  29  30
ENDBRANCH  27  29
BRANCH  27  32
HETATM   32  C   UNL     1     -42.622 -45.547  10.294  1.00  0.00     0.175 C 
BRANCH  32  33
HETATM   33  O   UNL     1     -43.686 -44.766   9.757  1.00  0.00    -0.400 OA
HETATM   34  H   UNL     1     -44.499 -45.006  10.239  1.00  0.00     0.209 HD
ENDBRANCH  32  33
ENDBRANCH  27  32
ENDBRANCH   2  25
TORSDOF 8
ENDMDL
MODEL 2
REMARK VINA RESULT:      -6.7      2.027      8.003
REMARK  8 active torsions:
REMARK  status: ('A' for Active; 'I' for Inactive)
REMARK    1  A    between atoms: N_2  and  C_9 
REMARK    2  A    between atoms: C_4  and  N_7 
REMARK    3  A    between atoms: C_14  and  C_15 
REMARK    4  A    between atoms: C_15  and  C_17 
REMARK    5  A    between atoms: C_16  and  C_26 
REMARK    6  A    between atoms: C_16  and  C_27 
REMARK       I    between atoms: C_17  and  N_23 
REMARK    7  A    between atoms: C_26  and  O_28 
REMARK    8  A    between atoms: C_27  and  O_29 
ROOT
HETATM    1  C   UNL     1     -42.506 -49.417  11.903  1.00  0.00     0.122 A 
HETATM    2  N   UNL     1     -42.746 -51.125  13.249  1.00  0.00    -0.322 N 
HETATM    3  C   UNL     1     -41.879 -50.589  12.323  1.00  0.00     0.140 A 
HETATM    4  C   UNL     1     -41.858 -48.613  10.924  1.00  0.00     0.136 A 
HETATM    5  N   UNL     1     -43.703 -49.239  12.575  1.00  0.00    -0.346 N 
ATOM      6  HN  UNL     1     -44.359 -48.465  12.475  1.00  0.00     0.167 HD
HETATM    7  C   UNL     1     -43.812 -50.275  13.364  1.00  0.00     0.185 A 
HETATM    8  N   UNL     1     -40.692 -51.057  11.904  1.00  0.00    -0.336 N 
ATOM      9  HN  UNL     1     -40.263 -51.924  12.228  1.00  0.00     0.168 HD
HETATM   10  N   UNL     1     -40.642 -49.063  10.499  1.00  0.00    -0.337 N 
ATOM     11  HN  UNL     1     -40.109 -48.530   9.812  1.00  0.00     0.168 HD
HETATM   12  C   UNL     1     -40.146 -50.223  10.994  1.00  0.00     0.183 A 
ENDROOT
BRANCH   4  13
HETATM   13  N   UNL     1     -42.365 -47.405  10.441  1.00  0.00    -0.356 N 
HETATM   14  C   UNL     1     -43.391 -47.419   9.362  1.00  0.00     0.118 C 
HETATM   15  C   UNL     1     -43.331 -46.038   8.649  1.00  0.00     0.193 C 
HETATM   16  O   UNL     1     -43.577 -44.965   9.577  1.00  0.00    -0.387 OA
HETATM   17  C   UNL     1     -42.539 -44.936  10.566  1.00  0.00     0.187 C 
HETATM   18  C   UNL     1     -42.445 -46.251  11.356  1.00  0.00     0.151 C 
BRANCH  14  19
HETATM   19  C   UNL     1     -44.798 -47.661   9.936  1.00  0.00     0.130 C 
BRANCH  19  20
HETATM   20  C   UNL     1     -45.850 -47.630   8.854  1.00  0.00     0.217 C 
HETATM   21  O   UNL     1     -46.796 -46.853   8.831  1.00  0.00    -0.274 OA
HETATM   22  N   UNL     1     -45.662 -48.532   7.845  1.00  0.00    -0.370 N 
HETATM   23  H   UNL     1     -45.061 -49.337   7.960  1.00  0.00     0.159 HD
HETATM   24  H   UNL     1     -46.393 -48.591   7.149  1.00  0.00     0.159 HD
ENDBRANCH  19  20
ENDBRANCH  14  19
ENDBRANCH   4  13
BRANCH   2  25
HETATM   25  C   UNL     1     -42.701 -52.320  14.041  1.00  0.00     0.094 C 
HETATM   26  C   UNL     1     -43.908 -53.287  13.873  1.00  0.00     0.039 C 
HETATM   27  C   UNL     1     -43.656 -53.708  15.368  1.00  0.00     0.006 C 
HETATM   28  C   UNL     1     -43.136 -52.226  15.525  1.00  0.00     0.039 C 
BRANCH  27  29
HETATM   29  C   UNL     1     -44.934 -54.053  16.135  1.00  0.00     0.175 C 
BRANCH  29  30
HETATM   30  O   UNL     1     -44.610 -54.720  17.350  1.00  0.00    -0.400 OA
HETATM   31  H   UNL     1     -45.341 -55.342  17.543  1.00  0.00     0.209 HD
ENDBRANCH  29  30
ENDBRANCH  27  29
BRANCH  27  32
HETATM   32  C   UNL     1     -42.610 -54.831  15.511  1.00  0.00     0.175 C 
BRANCH  32  33
HETATM   33  O   UNL     1     -43.253 -56.099  15.416  1.00  0.00    -0.400 OA
HETATM   34  H   UNL     1     -43.595 -56.188  14.506  1.00  0.00     0.209 HD
ENDBRANCH  32  33
ENDBRANCH  27  32
ENDBRANCH   2  25
TORSDOF 8
ENDMDL
MODEL 3
REMARK VINA RESULT:      -6.7      2.342      7.879
REMARK  8 active torsions:
REMARK  status: ('A' for Active; 'I' for Inactive)
REMARK    1  A    between atoms: N_2  and  C_9 
REMARK    2  A    between atoms: C_4  and  N_7 
REMARK    3  A    between atoms: C_14  and  C_15 
REMARK    4  A    between atoms: C_15  and  C_17 
REMARK    5  A    between atoms: C_16  and  C_26 
REMARK    6  A    between atoms: C_16  and  C_27 
REMARK       I    between atoms: C_17  and  N_23 
REMARK    7  A    between atoms: C_26  and  O_28 
REMARK    8  A    between atoms: C_27  and  O_29 
ROOT
HETATM    1  C   UNL     1     -41.290 -48.759  12.224  1.00  0.00     0.122 A 
HETATM    2  N   UNL     1     -42.488 -50.526  12.705  1.00  0.00    -0.322 N 
HETATM    3  C   UNL     1     -41.257 -50.153  12.212  1.00  0.00     0.140 A 
HETATM    4  C   UNL     1     -40.146 -48.049  11.761  1.00  0.00     0.136 A 
HETATM    5  N   UNL     1     -42.494 -48.306  12.732  1.00  0.00    -0.346 N 
ATOM      6  HN  UNL     1     -42.784 -47.337  12.865  1.00  0.00     0.167 HD
HETATM    7  C   UNL     1     -43.181 -49.384  13.005  1.00  0.00     0.185 A 
HETATM    8  N   UNL     1     -40.236 -50.927  11.811  1.00  0.00    -0.336 N 
ATOM      9  HN  UNL     1     -40.246 -51.947  11.811  1.00  0.00     0.168 HD
HETATM   10  N   UNL     1     -39.091 -48.819  11.367  1.00  0.00    -0.337 N 
ATOM     11  HN  UNL     1     -38.230 -48.380  11.041  1.00  0.00     0.168 HD
HETATM   12  C   UNL     1     -39.193 -50.170  11.410  1.00  0.00     0.183 A 
ENDROOT
BRANCH   4  13
HETATM   13  N   UNL     1     -40.041 -46.657  11.747  1.00  0.00    -0.356 N 
HETATM   14  C   UNL     1     -40.570 -45.892  10.584  1.00  0.00     0.118 C 
HETATM   15  C   UNL     1     -39.830 -44.525  10.554  1.00  0.00     0.193 C 
HETATM   16  O   UNL     1     -40.033 -43.798  11.780  1.00  0.00    -0.387 OA
HETATM   17  C   UNL     1     -39.458 -44.528  12.873  1.00  0.00     0.187 C 
HETATM   18  C   UNL     1     -40.068 -45.929  13.030  1.00  0.00     0.151 C 
BRANCH  14  19
HETATM   19  C   UNL     1     -42.088 -45.673  10.707  1.00  0.00     0.130 C 
BRANCH  19  20
HETATM   20  C   UNL     1     -42.818 -46.158   9.477  1.00  0.00     0.217 C 
HETATM   21  O   UNL     1     -43.496 -45.443   8.750  1.00  0.00    -0.274 OA
HETATM   22  N   UNL     1     -42.646 -47.483   9.193  1.00  0.00    -0.370 N 
HETATM   23  H   UNL     1     -42.321 -48.137   9.892  1.00  0.00     0.159 HD
HETATM   24  H   UNL     1     -43.188 -47.854   8.423  1.00  0.00     0.159 HD
ENDBRANCH  19  20
ENDBRANCH  14  19
ENDBRANCH   4  13
BRANCH   2  25
HETATM   25  C   UNL     1     -43.092 -51.806  12.937  1.00  0.00     0.094 C 
HETATM   26  C   UNL     1     -44.607 -51.784  13.289  1.00  0.00     0.039 C 
HETATM   27  C   UNL     1     -44.334 -53.087  14.126  1.00  0.00     0.006 C 
HETATM   28  C   UNL     1     -42.900 -52.459  14.329  1.00  0.00     0.039 C 
BRANCH  27  29
HETATM   29  C   UNL     1     -45.197 -53.203  15.384  1.00  0.00     0.175 C 
BRANCH  29  30
HETATM   30  O   UNL     1     -45.100 -54.517  15.924  1.00  0.00    -0.400 OA
HETATM   31  H   UNL     1     -44.408 -54.496  16.616  1.00  0.00     0.209 HD
ENDBRANCH  29  30
ENDBRANCH  27  29
BRANCH  27  32
HETATM   32  C   UNL     1     -44.416 -54.375  13.284  1.00  0.00     0.175 C 
BRANCH  32  33
HETATM   33  O   UNL     1     -45.750 -54.876  13.303  1.00  0.00    -0.400 OA
HETATM   34  H   UNL     1     -46.340 -54.132  13.526  1.00  0.00     0.209 HD
ENDBRANCH  32  33
ENDBRANCH  27  32
ENDBRANCH   2  25
TORSDOF 8
ENDMDL
MODEL 4
REMARK VINA RESULT:      -6.4      2.301      3.378
REMARK  8 active torsions:
REMARK  status: ('A' for Active; 'I' for Inactive)
REMARK    1  A    between atoms: N_2  and  C_9 
REMARK    2  A    between atoms: C_4  and  N_7 
REMARK    3  A    between atoms: C_14  and  C_15 
REMARK    4  A    between atoms: C_15  and  C_17 
REMARK    5  A    between atoms: C_16  and  C_26 
REMARK    6  A    between atoms: C_16  and  C_27 
REMARK       I    between atoms: C_17  and  N_23 
REMARK    7  A    between atoms: C_26  and  O_28 
REMARK    8  A    between atoms: C_27  and  O_29 
ROOT
HETATM    1  C   UNL     1     -41.990 -50.045  13.237  1.00  0.00     0.122 A 
HETATM    2  N   UNL     1     -41.320 -48.317  12.074  1.00  0.00    -0.322 N 
HETATM    3  C   UNL     1     -40.951 -49.122  13.128  1.00  0.00     0.140 A 
HETATM    4  C   UNL     1     -41.914 -51.036  14.256  1.00  0.00     0.136 A 
HETATM    5  N   UNL     1     -42.944 -49.819  12.261  1.00  0.00    -0.346 N 
ATOM      6  HN  UNL     1     -43.801 -50.348  12.099  1.00  0.00     0.167 HD
HETATM    7  C   UNL     1     -42.513 -48.783  11.590  1.00  0.00     0.185 A 
HETATM    8  N   UNL     1     -39.848 -49.063  13.892  1.00  0.00    -0.336 N 
ATOM      9  HN  UNL     1     -39.107 -48.369  13.789  1.00  0.00     0.168 HD
HETATM   10  N   UNL     1     -40.791 -51.003  15.030  1.00  0.00    -0.337 N 
ATOM     11  HN  UNL     1     -40.658 -51.694  15.769  1.00  0.00     0.168 HD
HETATM   12  C   UNL     1     -39.854 -50.049  14.814  1.00  0.00     0.183 A 
ENDROOT
BRANCH   4  13
HETATM   13  N   UNL     1     -42.872 -52.032  14.452  1.00  0.00    -0.356 N 
HETATM   14  C   UNL     1     -43.027 -53.112  13.439  1.00  0.00     0.118 C 
HETATM   15  C   UNL     1     -44.462 -53.690  13.594  1.00  0.00     0.193 C 
HETATM   16  O   UNL     1     -44.673 -54.201  14.924  1.00  0.00    -0.387 OA
HETATM   17  C   UNL     1     -44.581 -53.129  15.873  1.00  0.00     0.187 C 
HETATM   18  C   UNL     1     -43.216 -52.425  15.832  1.00  0.00     0.151 C 
BRANCH  14  19
HETATM   19  C   UNL     1     -41.981 -54.221  13.644  1.00  0.00     0.130 C 
BRANCH  19  20
HETATM   20  C   UNL     1     -40.695 -53.911  12.916  1.00  0.00     0.217 C 
HETATM   21  O   UNL     1     -39.576 -54.093  13.379  1.00  0.00    -0.274 OA
HETATM   22  N   UNL     1     -40.857 -53.427  11.648  1.00  0.00    -0.370 N 
HETATM   23  H   UNL     1     -41.734 -53.029  11.341  1.00  0.00     0.159 HD
HETATM   24  H   UNL     1     -40.017 -53.133  11.166  1.00  0.00     0.159 HD
ENDBRANCH  19  20
ENDBRANCH  14  19
ENDBRANCH   4  13
BRANCH   2  25
HETATM   25  C   UNL     1     -40.700 -47.179  11.459  1.00  0.00     0.094 C 
HETATM   26  C   UNL     1     -40.634 -45.892  12.331  1.00  0.00     0.039 C 
HETATM   27  C   UNL     1     -40.710 -45.089  10.981  1.00  0.00     0.006 C 
HETATM   28  C   UNL     1     -41.549 -46.328  10.480  1.00  0.00     0.039 C 
BRANCH  27  29
HETATM   29  C   UNL     1     -41.473 -43.767  11.093  1.00  0.00     0.175 C 
BRANCH  29  30
HETATM   30  O   UNL     1     -40.669 -42.697  10.608  1.00  0.00    -0.400 OA
HETATM   31  H   UNL     1     -41.277 -41.987  10.316  1.00  0.00     0.209 HD
ENDBRANCH  29  30
ENDBRANCH  27  29
BRANCH  27  32
HETATM   32  C   UNL     1     -39.331 -44.872  10.328  1.00  0.00     0.175 C 
BRANCH  32  33
HETATM   33  O   UNL     1     -39.496 -44.574   8.945  1.00  0.00    -0.400 OA
HETATM   34  H   UNL     1     -39.107 -43.694   8.785  1.00  0.00     0.209 HD
ENDBRANCH  32  33
ENDBRANCH  27  32
ENDBRANCH   2  25
TORSDOF 8
ENDMDL
MODEL 5
REMARK VINA RESULT:      -5.9      3.835      6.088
REMARK  8 active torsions:
REMARK  status: ('A' for Active; 'I' for Inactive)
REMARK    1  A    between atoms: N_2  and  C_9 
REMARK    2  A    between atoms: C_4  and  N_7 
REMARK    3  A    between atoms: C_14  and  C_15 
REMARK    4  A    between atoms: C_15  and  C_17 
REMARK    5  A    between atoms: C_16  and  C_26 
REMARK    6  A    between atoms: C_16  and  C_27 
REMARK       I    between atoms: C_17  and  N_23 
REMARK    7  A    between atoms: C_26  and  O_28 
REMARK    8  A    between atoms: C_27  and  O_29 
ROOT
HETATM    1  C   UNL     1     -41.720 -47.199  11.945  1.00  0.00     0.122 A 
HETATM    2  N   UNL     1     -41.712 -45.011  11.972  1.00  0.00    -0.322 N 
HETATM    3  C   UNL     1     -42.081 -46.083  11.191  1.00  0.00     0.140 A 
HETATM    4  C   UNL     1     -41.969 -48.492  11.406  1.00  0.00     0.136 A 
HETATM    5  N   UNL     1     -41.172 -46.811  13.155  1.00  0.00    -0.346 N 
ATOM      6  HN  UNL     1     -40.833 -47.415  13.903  1.00  0.00     0.167 HD
HETATM    7  C   UNL     1     -41.182 -45.504  13.134  1.00  0.00     0.185 A 
HETATM    8  N   UNL     1     -42.665 -46.088   9.982  1.00  0.00    -0.336 N 
ATOM      9  HN  UNL     1     -42.912 -45.251   9.454  1.00  0.00     0.168 HD
HETATM   10  N   UNL     1     -42.578 -48.517  10.185  1.00  0.00    -0.337 N 
ATOM     11  HN  UNL     1     -42.806 -49.409   9.744  1.00  0.00     0.168 HD
HETATM   12  C   UNL     1     -42.879 -47.353   9.561  1.00  0.00     0.183 A 
ENDROOT
BRANCH   4  13
HETATM   13  N   UNL     1     -41.680 -49.686  12.069  1.00  0.00    -0.356 N 
HETATM   14  C   UNL     1     -40.458 -50.454  11.701  1.00  0.00     0.118 C 
HETATM   15  C   UNL     1     -40.692 -51.930  12.133  1.00  0.00     0.193 C 
HETATM   16  O   UNL     1     -40.947 -52.021  13.548  1.00  0.00    -0.387 OA
HETATM   17  C   UNL     1     -42.163 -51.327  13.863  1.00  0.00     0.187 C 
HETATM   18  C   UNL     1     -42.109 -49.842  13.472  1.00  0.00     0.151 C 
BRANCH  14  19
HETATM   19  C   UNL     1     -39.213 -49.885  12.400  1.00  0.00     0.130 C 
BRANCH  19  20
HETATM   20  C   UNL     1     -37.942 -50.447  11.811  1.00  0.00     0.217 C 
HETATM   21  O   UNL     1     -37.247 -51.300  12.350  1.00  0.00    -0.274 OA
HETATM   22  N   UNL     1     -37.614 -49.956  10.578  1.00  0.00    -0.370 N 
HETATM   23  H   UNL     1     -38.006 -49.090  10.233  1.00  0.00     0.159 HD
HETATM   24  H   UNL     1     -36.726 -50.252  10.195  1.00  0.00     0.159 HD
ENDBRANCH  19  20
ENDBRANCH  14  19
ENDBRANCH   4  13
BRANCH   2  25
HETATM   25  C   UNL     1     -41.798 -43.593  11.776  1.00  0.00     0.094 C 
HETATM   26  C   UNL     1     -40.474 -42.886  11.365  1.00  0.00     0.039 C 
HETATM   27  C   UNL     1     -41.030 -41.620  12.113  1.00  0.00     0.006 C 
HETATM   28  C   UNL     1     -41.756 -42.681  13.028  1.00  0.00     0.039 C 
BRANCH  27  29
HETATM   29  C   UNL     1     -39.946 -40.781  12.794  1.00  0.00     0.175 C 
BRANCH  29  30
HETATM   30  O   UNL     1     -40.530 -39.647  13.426  1.00  0.00    -0.400 OA
HETATM   31  H   UNL     1     -40.838 -39.046  12.717  1.00  0.00     0.209 HD
ENDBRANCH  29  30
ENDBRANCH  27  29
BRANCH  27  32
HETATM   32  C   UNL     1     -41.928 -40.737  11.223  1.00  0.00     0.175 C 
BRANCH  32  33
HETATM   33  O   UNL     1     -41.166 -39.653  10.700  1.00  0.00    -0.400 OA
HETATM   34  H   UNL     1     -41.786 -38.925  10.506  1.00  0.00     0.209 HD
ENDBRANCH  32  33
ENDBRANCH  27  32
ENDBRANCH   2  25
TORSDOF 8
ENDMDL
MODEL 6
REMARK VINA RESULT:      -5.9      3.249      8.522
REMARK  8 active torsions:
REMARK  status: ('A' for Active; 'I' for Inactive)
REMARK    1  A    between atoms: N_2  and  C_9 
REMARK    2  A    between atoms: C_4  and  N_7 
REMARK    3  A    between atoms: C_14  and  C_15 
REMARK    4  A    between atoms: C_15  and  C_17 
REMARK    5  A    between atoms: C_16  and  C_26 
REMARK    6  A    between atoms: C_16  and  C_27 
REMARK       I    between atoms: C_17  and  N_23 
REMARK    7  A    between atoms: C_26  and  O_28 
REMARK    8  A    between atoms: C_27  and  O_29 
ROOT
HETATM    1  C   UNL     1     -39.849 -48.264  12.699  1.00  0.00     0.122 A 
HETATM    2  N   UNL     1     -39.511 -50.411  12.948  1.00  0.00    -0.322 N 
HETATM    3  C   UNL     1     -39.993 -49.306  13.613  1.00  0.00     0.140 A 
HETATM    4  C   UNL     1     -40.261 -46.958  13.087  1.00  0.00     0.136 A 
HETATM    5  N   UNL     1     -39.319 -48.731  11.509  1.00  0.00    -0.346 N 
ATOM      6  HN  UNL     1     -39.119 -48.192  10.667  1.00  0.00     0.167 HD
HETATM    7  C   UNL     1     -39.129 -50.011  11.696  1.00  0.00     0.185 A 
HETATM    8  N   UNL     1     -40.501 -49.220  14.853  1.00  0.00    -0.336 N 
ATOM      9  HN  UNL     1     -40.588 -50.004  15.501  1.00  0.00     0.168 HD
HETATM   10  N   UNL     1     -40.796 -46.854  14.338  1.00  0.00    -0.337 N 
ATOM     11  HN  UNL     1     -41.130 -45.952  14.679  1.00  0.00     0.168 HD
HETATM   12  C   UNL     1     -40.880 -47.953  15.125  1.00  0.00     0.183 A 
ENDROOT
BRANCH   4  13
HETATM   13  N   UNL     1     -40.195 -45.837  12.258  1.00  0.00    -0.356 N 
HETATM   14  C   UNL     1     -40.427 -45.991  10.794  1.00  0.00     0.118 C 
HETATM   15  C   UNL     1     -39.742 -44.786  10.088  1.00  0.00     0.193 C 
HETATM   16  O   UNL     1     -40.277 -43.536  10.563  1.00  0.00    -0.387 OA
HETATM   17  C   UNL     1     -39.984 -43.386  11.959  1.00  0.00     0.187 C 
HETATM   18  C   UNL     1     -40.574 -44.522  12.808  1.00  0.00     0.151 C 
BRANCH  14  19
HETATM   19  C   UNL     1     -41.930 -46.016  10.469  1.00  0.00     0.130 C 
BRANCH  19  20
HETATM   20  C   UNL     1     -42.349 -47.346   9.892  1.00  0.00     0.217 C 
HETATM   21  O   UNL     1     -42.243 -48.418  10.475  1.00  0.00    -0.274 OA
HETATM   22  N   UNL     1     -42.908 -47.281   8.646  1.00  0.00    -0.370 N 
HETATM   23  H   UNL     1     -42.775 -46.476   8.049  1.00  0.00     0.159 HD
HETATM   24  H   UNL     1     -43.123 -48.164   8.201  1.00  0.00     0.159 HD
ENDBRANCH  19  20
ENDBRANCH  14  19
ENDBRANCH   4  13
BRANCH   2  25
HETATM   25  C   UNL     1     -39.369 -51.787  13.328  1.00  0.00     0.094 C 
HETATM   26  C   UNL     1     -40.657 -52.475  13.863  1.00  0.00     0.039 C 
HETATM   27  C   UNL     1     -39.703 -53.370  14.736  1.00  0.00     0.006 C 
HETATM   28  C   UNL     1     -38.768 -52.098  14.723  1.00  0.00     0.039 C 
BRANCH  27  29
HETATM   29  C   UNL     1     -40.290 -53.753  16.096  1.00  0.00     0.175 C 
BRANCH  29  30
HETATM   30  O   UNL     1     -40.917 -55.029  16.015  1.00  0.00    -0.400 OA
HETATM   31  H   UNL     1     -41.594 -55.065  16.722  1.00  0.00     0.209 HD
ENDBRANCH  29  30
ENDBRANCH  27  29
BRANCH  27  32
HETATM   32  C   UNL     1     -39.191 -54.617  13.988  1.00  0.00     0.175 C 
BRANCH  32  33
HETATM   33  O   UNL     1     -38.460 -55.448  14.885  1.00  0.00    -0.400 OA
HETATM   34  H   UNL     1     -38.504 -55.037  15.769  1.00  0.00     0.209 HD
ENDBRANCH  32  33
ENDBRANCH  27  32
ENDBRANCH   2  25
TORSDOF 8
ENDMDL
MODEL 7
REMARK VINA RESULT:      -5.8      2.229      2.776
REMARK  8 active torsions:
REMARK  status: ('A' for Active; 'I' for Inactive)
REMARK    1  A    between atoms: N_2  and  C_9 
REMARK    2  A    between atoms: C_4  and  N_7 
REMARK    3  A    between atoms: C_14  and  C_15 
REMARK    4  A    between atoms: C_15  and  C_17 
REMARK    5  A    between atoms: C_16  and  C_26 
REMARK    6  A    between atoms: C_16  and  C_27 
REMARK       I    between atoms: C_17  and  N_23 
REMARK    7  A    between atoms: C_26  and  O_28 
REMARK    8  A    between atoms: C_27  and  O_29 
ROOT
HETATM    1  C   UNL     1     -39.905 -51.364  13.580  1.00  0.00     0.122 A 
HETATM    2  N   UNL     1     -39.833 -49.345  12.739  1.00  0.00    -0.322 N 
HETATM    3  C   UNL     1     -40.263 -50.621  12.456  1.00  0.00     0.140 A 
HETATM    4  C   UNL     1     -40.212 -52.753  13.603  1.00  0.00     0.136 A 
HETATM    5  N   UNL     1     -39.299 -50.553  14.524  1.00  0.00    -0.346 N 
ATOM      6  HN  UNL     1     -38.949 -50.827  15.442  1.00  0.00     0.167 HD
HETATM    7  C   UNL     1     -39.272 -49.361  13.988  1.00  0.00     0.185 A 
HETATM    8  N   UNL     1     -40.894 -51.078  11.361  1.00  0.00    -0.336 N 
ATOM      9  HN  UNL     1     -41.137 -50.508  10.551  1.00  0.00     0.168 HD
HETATM   10  N   UNL     1     -40.869 -53.232  12.508  1.00  0.00    -0.337 N 
ATOM     11  HN  UNL     1     -41.139 -54.215  12.461  1.00  0.00     0.168 HD
HETATM   12  C   UNL     1     -41.160 -52.397  11.481  1.00  0.00     0.183 A 
ENDROOT
BRANCH   4  13
HETATM   13  N   UNL     1     -39.932 -53.599  14.678  1.00  0.00    -0.356 N 
HETATM   14  C   UNL     1     -40.925 -53.740  15.780  1.00  0.00     0.118 C 
HETATM   15  C   UNL     1     -40.152 -54.228  17.038  1.00  0.00     0.193 C 
HETATM   16  O   UNL     1     -39.487 -55.480  16.784  1.00  0.00    -0.387 OA
HETATM   17  C   UNL     1     -38.495 -55.301  15.765  1.00  0.00     0.187 C 
HETATM   18  C   UNL     1     -39.094 -54.791  14.445  1.00  0.00     0.151 C 
BRANCH  14  19
HETATM   19  C   UNL     1     -42.028 -54.745  15.409  1.00  0.00     0.130 C 
BRANCH  19  20
HETATM   20  C   UNL     1     -43.330 -54.047  15.097  1.00  0.00     0.217 C 
HETATM   21  O   UNL     1     -43.541 -53.398  14.080  1.00  0.00    -0.274 OA
HETATM   22  N   UNL     1     -44.310 -54.213  16.035  1.00  0.00    -0.370 N 
HETATM   23  H   UNL     1     -44.095 -54.510  16.977  1.00  0.00     0.159 HD
HETATM   24  H   UNL     1     -45.165 -53.691  15.894  1.00  0.00     0.159 HD
ENDBRANCH  19  20
ENDBRANCH  14  19
ENDBRANCH   4  13
BRANCH   2  25
HETATM   25  C   UNL     1     -39.885 -48.117  12.000  1.00  0.00     0.094 C 
HETATM   26  C   UNL     1     -39.966 -46.818  12.852  1.00  0.00     0.039 C 
HETATM   27  C   UNL     1     -40.766 -46.193  11.652  1.00  0.00     0.006 C 
HETATM   28  C   UNL     1     -41.253 -47.677  11.418  1.00  0.00     0.039 C 
BRANCH  27  29
HETATM   29  C   UNL     1     -41.845 -45.197  12.082  1.00  0.00     0.175 C 
BRANCH  29  30
HETATM   30  O   UNL     1     -42.844 -45.092  11.074  1.00  0.00    -0.400 OA
HETATM   31  H   UNL     1     -42.699 -45.827  10.444  1.00  0.00     0.209 HD
ENDBRANCH  29  30
ENDBRANCH  27  29
BRANCH  27  32
HETATM   32  C   UNL     1     -39.854 -45.581  10.570  1.00  0.00     0.175 C 
BRANCH  32  33
HETATM   33  O   UNL     1     -40.642 -45.160   9.461  1.00  0.00    -0.400 OA
HETATM   34  H   UNL     1     -41.419 -44.687   9.814  1.00  0.00     0.209 HD
ENDBRANCH  32  33
ENDBRANCH  27  32
ENDBRANCH   2  25
TORSDOF 8
ENDMDL
MODEL 8
REMARK VINA RESULT:      -5.8      2.710      3.418
REMARK  8 active torsions:
REMARK  status: ('A' for Active; 'I' for Inactive)
REMARK    1  A    between atoms: N_2  and  C_9 
REMARK    2  A    between atoms: C_4  and  N_7 
REMARK    3  A    between atoms: C_14  and  C_15 
REMARK    4  A    between atoms: C_15  and  C_17 
REMARK    5  A    between atoms: C_16  and  C_26 
REMARK    6  A    between atoms: C_16  and  C_27 
REMARK       I    between atoms: C_17  and  N_23 
REMARK    7  A    between atoms: C_26  and  O_28 
REMARK    8  A    between atoms: C_27  and  O_29 
ROOT
HETATM    1  C   UNL     1     -40.095 -49.197  13.606  1.00  0.00     0.122 A 
HETATM    2  N   UNL     1     -40.395 -47.165  12.852  1.00  0.00    -0.322 N 
HETATM    3  C   UNL     1     -39.728 -48.336  12.572  1.00  0.00     0.140 A 
HETATM    4  C   UNL     1     -39.562 -50.516  13.613  1.00  0.00     0.136 A 
HETATM    5  N   UNL     1     -40.977 -48.570  14.469  1.00  0.00    -0.346 N 
ATOM      6  HN  UNL     1     -41.414 -48.966  15.301  1.00  0.00     0.167 HD
HETATM    7  C   UNL     1     -41.130 -47.364  13.990  1.00  0.00     0.185 A 
HETATM    8  N   UNL     1     -38.912 -48.621  11.544  1.00  0.00    -0.336 N 
ATOM      9  HN  UNL     1     -38.659 -47.965  10.805  1.00  0.00     0.168 HD
HETATM   10  N   UNL     1     -38.744 -50.829  12.567  1.00  0.00    -0.337 N 
ATOM     11  HN  UNL     1     -38.339 -51.763  12.494  1.00  0.00     0.168 HD
HETATM   12  C   UNL     1     -38.471 -49.895  11.625  1.00  0.00     0.183 A 
ENDROOT
BRANCH   4  13
HETATM   13  N   UNL     1     -39.870 -51.481  14.574  1.00  0.00    -0.356 N 
HETATM   14  C   UNL     1     -41.215 -52.122  14.565  1.00  0.00     0.118 C 
HETATM   15  C   UNL     1     -41.479 -52.664  15.999  1.00  0.00     0.193 C 
HETATM   16  O   UNL     1     -40.463 -53.607  16.391  1.00  0.00    -0.387 OA
HETATM   17  C   UNL     1     -39.191 -52.947  16.453  1.00  0.00     0.187 C 
HETATM   18  C   UNL     1     -38.786 -52.326  15.107  1.00  0.00     0.151 C 
BRANCH  14  19
HETATM   19  C   UNL     1     -41.276 -53.270  13.542  1.00  0.00     0.130 C 
BRANCH  19  20
HETATM   20  C   UNL     1     -42.075 -52.881  12.321  1.00  0.00     0.217 C 
HETATM   21  O   UNL     1     -43.291 -52.741  12.307  1.00  0.00    -0.274 OA
HETATM   22  N   UNL     1     -41.331 -52.653  11.197  1.00  0.00    -0.370 N 
HETATM   23  H   UNL     1     -40.387 -53.004  11.108  1.00  0.00     0.159 HD
HETATM   24  H   UNL     1     -41.844 -52.472  10.345  1.00  0.00     0.159 HD
ENDBRANCH  19  20
ENDBRANCH  14  19
ENDBRANCH   4  13
BRANCH   2  25
HETATM   25  C   UNL     1     -40.440 -45.893  12.190  1.00  0.00     0.094 C 
HETATM   26  C   UNL     1     -41.123 -44.743  12.984  1.00  0.00     0.039 C 
HETATM   27  C   UNL     1     -41.532 -44.149  11.587  1.00  0.00     0.006 C 
HETATM   28  C   UNL     1     -41.549 -45.661  11.134  1.00  0.00     0.039 C 
BRANCH  27  29
HETATM   29  C   UNL     1     -42.887 -43.438  11.592  1.00  0.00     0.175 C 
BRANCH  29  30
HETATM   30  O   UNL     1     -43.379 -43.315  10.262  1.00  0.00    -0.400 OA
HETATM   31  H   UNL     1     -42.739 -42.766   9.765  1.00  0.00     0.209 HD
ENDBRANCH  29  30
ENDBRANCH  27  29
BRANCH  27  32
HETATM   32  C   UNL     1     -40.443 -43.250  10.970  1.00  0.00     0.175 C 
BRANCH  32  33
HETATM   33  O   UNL     1     -40.878 -41.893  10.981  1.00  0.00    -0.400 OA
HETATM   34  H   UNL     1     -41.801 -41.877  10.666  1.00  0.00     0.209 HD
ENDBRANCH  32  33
ENDBRANCH  27  32
ENDBRANCH   2  25
TORSDOF 8
ENDMDL
MODEL 9
REMARK VINA RESULT:      -5.6      4.901      8.321
REMARK  8 active torsions:
REMARK  status: ('A' for Active; 'I' for Inactive)
REMARK    1  A    between atoms: N_2  and  C_9 
REMARK    2  A    between atoms: C_4  and  N_7 
REMARK    3  A    between atoms: C_14  and  C_15 
REMARK    4  A    between atoms: C_15  and  C_17 
REMARK    5  A    between atoms: C_16  and  C_26 
REMARK    6  A    between atoms: C_16  and  C_27 
REMARK       I    between atoms: C_17  and  N_23 
REMARK    7  A    between atoms: C_26  and  O_28 
REMARK    8  A    between atoms: C_27  and  O_29 
ROOT
HETATM    1  C   UNL     1     -38.914 -49.079  13.259  1.00  0.00     0.122 A 
HETATM    2  N   UNL     1     -37.807 -49.753  15.022  1.00  0.00    -0.322 N 
HETATM    3  C   UNL     1     -37.886 -49.932  13.659  1.00  0.00     0.140 A 
HETATM    4  C   UNL     1     -39.256 -49.029  11.879  1.00  0.00     0.136 A 
HETATM    5  N   UNL     1     -39.422 -48.388  14.345  1.00  0.00    -0.346 N 
ATOM      6  HN  UNL     1     -40.168 -47.693  14.342  1.00  0.00     0.167 HD
HETATM    7  C   UNL     1     -38.740 -48.816  15.375  1.00  0.00     0.185 A 
HETATM    8  N   UNL     1     -37.152 -50.729  12.866  1.00  0.00    -0.336 N 
ATOM      9  HN  UNL     1     -36.408 -51.347  13.193  1.00  0.00     0.168 HD
HETATM   10  N   UNL     1     -38.509 -49.820  11.055  1.00  0.00    -0.337 N 
ATOM     11  HN  UNL     1     -38.684 -49.822  10.050  1.00  0.00     0.168 HD
HETATM   12  C   UNL     1     -37.534 -50.601  11.578  1.00  0.00     0.183 A 
ENDROOT
BRANCH   4  13
HETATM   13  N   UNL     1     -40.244 -48.200  11.346  1.00  0.00    -0.356 N 
HETATM   14  C   UNL     1     -41.609 -48.746  11.102  1.00  0.00     0.118 C 
HETATM   15  C   UNL     1     -42.279 -47.849  10.022  1.00  0.00     0.193 C 
HETATM   16  O   UNL     1     -42.346 -46.478  10.457  1.00  0.00    -0.387 OA
HETATM   17  C   UNL     1     -41.019 -45.959  10.621  1.00  0.00     0.187 C 
HETATM   18  C   UNL     1     -40.201 -46.756  11.649  1.00  0.00     0.151 C 
BRANCH  14  19
HETATM   19  C   UNL     1     -42.447 -48.743  12.392  1.00  0.00     0.130 C 
BRANCH  19  20
HETATM   20  C   UNL     1     -42.710 -50.146  12.884  1.00  0.00     0.217 C 
HETATM   21  O   UNL     1     -41.854 -50.888  13.349  1.00  0.00    -0.274 OA
HETATM   22  N   UNL     1     -44.015 -50.545  12.807  1.00  0.00    -0.370 N 
HETATM   23  H   UNL     1     -44.678 -50.074  12.206  1.00  0.00     0.159 HD
HETATM   24  H   UNL     1     -44.208 -51.508  13.052  1.00  0.00     0.159 HD
ENDBRANCH  19  20
ENDBRANCH  14  19
ENDBRANCH   4  13
BRANCH   2  25
HETATM   25  C   UNL     1     -36.969 -50.336  16.030  1.00  0.00     0.094 C 
HETATM   26  C   UNL     1     -37.383 -50.048  17.502  1.00  0.00     0.039 C 
HETATM   27  C   UNL     1     -35.853 -50.156  17.852  1.00  0.00     0.006 C 
HETATM   28  C   UNL     1     -35.647 -49.610  16.386  1.00  0.00     0.039 C 
BRANCH  27  29
HETATM   29  C   UNL     1     -35.413 -49.222  18.981  1.00  0.00     0.175 C 
BRANCH  29  30
HETATM   30  O   UNL     1     -34.036 -49.428  19.277  1.00  0.00    -0.400 OA
HETATM   31  H   UNL     1     -33.642 -48.549  19.453  1.00  0.00     0.209 HD
ENDBRANCH  29  30
ENDBRANCH  27  29
BRANCH  27  32
HETATM   32  C   UNL     1     -35.397 -51.602  18.127  1.00  0.00     0.175 C 
BRANCH  32  33
HETATM   33  O   UNL     1     -35.341 -51.828  19.533  1.00  0.00    -0.400 OA
HETATM   34  H   UNL     1     -34.400 -51.877  19.786  1.00  0.00     0.209 HD
ENDBRANCH  32  33
ENDBRANCH  27  32
ENDBRANCH   2  25
TORSDOF 8
ENDMDL
