MODEL 1
REMARK VINA RESULT:      -5.4      0.000      0.000
REMARK  4 active torsions:
REMARK  status: ('A' for Active; 'I' for Inactive)
REMARK    1  A    between atoms: O_2  and  C_3 
REMARK    2  A    between atoms: C_3  and  C_4 
REMARK    3  A    between atoms: C_4  and  N_5 
REMARK    4  A    between atoms: C_6  and  N_7 
ROOT
HETATM    1  N   UNL     1     -42.128 -53.761  13.011  1.00  0.00    -0.172 N 
HETATM    2  C   UNL     1     -42.214 -52.707  12.123  1.00  0.00     0.680 A 
HETATM    3  N   UNL     1     -43.413 -52.171  12.124  1.00  0.00    -0.174 N 
ATOM      4  HN  UNL     1     -43.744 -51.390  11.559  1.00  0.00     0.186 HD
HETATM    5  C   UNL     1     -44.116 -52.882  13.042  1.00  0.00     0.160 A 
HETATM    6  N   UNL     1     -45.430 -52.677  13.412  1.00  0.00    -0.287 N 
HETATM    7  C   UNL     1     -46.229 -51.605  12.861  1.00  0.00     0.163 C 
HETATM    8  C   UNL     1     -45.991 -53.511  14.370  1.00  0.00     0.330 A 
HETATM    9  O   UNL     1     -47.152 -53.403  14.772  1.00  0.00    -0.246 OA
HETATM   10  N   UNL     1     -45.192 -54.506  14.893  1.00  0.00    -0.273 N 
HETATM   11  C   UNL     1     -43.867 -54.741  14.608  1.00  0.00     0.280 A 
HETATM   12  O   UNL     1     -43.228 -55.620  15.173  1.00  0.00    -0.265 OA
HETATM   13  C   UNL     1     -43.359 -53.867  13.609  1.00  0.00     0.164 A 
HETATM   14  H   UNL     1     -45.614 -55.090  15.597  1.00  0.00     0.173 HD
ENDROOT
BRANCH   1  15
HETATM   15  C   UNL     1     -40.964 -54.560  13.327  1.00  0.00     0.174 C 
BRANCH  15  16
HETATM   16  C   UNL     1     -40.011 -53.875  14.302  1.00  0.00     0.187 C 
BRANCH  16  17
HETATM   17  O   UNL     1     -38.992 -53.203  13.558  1.00  0.00    -0.394 OA
HETATM   18  C   UNL     1     -38.787 -51.880  14.040  1.00  0.00     0.201 C 
ENDBRANCH  16  17
ENDBRANCH  15  16
ENDBRANCH   1  15
BRANCH   2  19
HETATM   19  N   UNL     1     -41.187 -52.289  11.371  1.00  0.00    -0.234 N 
HETATM   20  H   UNL     1     -40.217 -52.480  11.589  1.00  0.00     0.174 HD
HETATM   21  H   UNL     1     -41.372 -52.171  10.380  1.00  0.00     0.174 HD
ENDBRANCH   2  19
TORSDOF 4
ENDMDL
MODEL 2
REMARK VINA RESULT:      -5.3      1.247      4.861
REMARK  4 active torsions:
REMARK  status: ('A' for Active; 'I' for Inactive)
REMARK    1  A    between atoms: O_2  and  C_3 
REMARK    2  A    between atoms: C_3  and  C_4 
REMARK    3  A    between atoms: C_4  and  N_5 
REMARK    4  A    between atoms: C_6  and  N_7 
ROOT
HETATM    1  N   UNL     1     -44.772 -53.897  13.550  1.00  0.00    -0.172 N 
HETATM    2  C   UNL     1     -44.942 -52.958  12.551  1.00  0.00     0.680 A 
HETATM    3  N   UNL     1     -43.791 -52.479  12.139  1.00  0.00    -0.174 N 
ATOM      4  HN  UNL     1     -43.634 -51.771  11.421  1.00  0.00     0.186 HD
HETATM    5  C   UNL     1     -42.854 -53.130  12.874  1.00  0.00     0.160 A 
HETATM    6  N   UNL     1     -41.485 -52.977  12.786  1.00  0.00    -0.287 N 
HETATM    7  C   UNL     1     -40.867 -52.088  11.825  1.00  0.00     0.163 C 
HETATM    8  C   UNL     1     -40.674 -53.725  13.628  1.00  0.00     0.330 A 
HETATM    9  O   UNL     1     -39.442 -53.666  13.618  1.00  0.00    -0.246 OA
HETATM   10  N   UNL     1     -41.295 -54.582  14.512  1.00  0.00    -0.273 N 
HETATM   11  C   UNL     1     -42.645 -54.821  14.626  1.00  0.00     0.280 A 
HETATM   12  O   UNL     1     -43.094 -55.648  15.410  1.00  0.00    -0.265 OA
HETATM   13  C   UNL     1     -43.420 -54.010  13.752  1.00  0.00     0.164 A 
HETATM   14  H   UNL     1     -40.688 -55.127  15.103  1.00  0.00     0.173 HD
ENDROOT
BRANCH   1  15
HETATM   15  C   UNL     1     -45.793 -54.679  14.212  1.00  0.00     0.174 C 
BRANCH  15  16
HETATM   16  C   UNL     1     -46.395 -53.978  15.426  1.00  0.00     0.187 C 
BRANCH  16  17
HETATM   17  O   UNL     1     -47.299 -52.967  14.977  1.00  0.00    -0.394 OA
HETATM   18  C   UNL     1     -46.990 -51.702  15.553  1.00  0.00     0.201 C 
ENDBRANCH  16  17
ENDBRANCH  15  16
ENDBRANCH   1  15
BRANCH   2  19
HETATM   19  N   UNL     1     -46.140 -52.604  12.067  1.00  0.00    -0.234 N 
HETATM   20  H   UNL     1     -46.923 -53.239  11.984  1.00  0.00     0.174 HD
HETATM   21  H   UNL     1     -46.407 -51.632  12.192  1.00  0.00     0.174 HD
ENDBRANCH   2  19
TORSDOF 4
ENDMDL
MODEL 3
REMARK VINA RESULT:      -5.0      5.966      7.496
REMARK  4 active torsions:
REMARK  status: ('A' for Active; 'I' for Inactive)
REMARK    1  A    between atoms: O_2  and  C_3 
REMARK    2  A    between atoms: C_3  and  C_4 
REMARK    3  A    between atoms: C_4  and  N_5 
REMARK    4  A    between atoms: C_6  and  N_7 
ROOT
HETATM    1  N   UNL     1     -40.168 -48.089  11.647  1.00  0.00    -0.172 N 
HETATM    2  C   UNL     1     -40.740 -48.930  10.711  1.00  0.00     0.680 A 
HETATM    3  N   UNL     1     -41.670 -48.316  10.017  1.00  0.00    -0.174 N 
ATOM      4  HN  UNL     1     -42.250 -48.707   9.274  1.00  0.00     0.186 HD
HETATM    5  C   UNL     1     -41.694 -47.048  10.501  1.00  0.00     0.160 A 
HETATM    6  N   UNL     1     -42.502 -46.017  10.069  1.00  0.00    -0.287 N 
HETATM    7  C   UNL     1     -43.434 -46.172   8.973  1.00  0.00     0.163 C 
HETATM    8  C   UNL     1     -42.394 -44.779  10.689  1.00  0.00     0.330 A 
HETATM    9  O   UNL     1     -43.065 -43.795  10.369  1.00  0.00    -0.246 OA
HETATM   10  N   UNL     1     -41.477 -44.659  11.712  1.00  0.00    -0.273 N 
HETATM   11  C   UNL     1     -40.608 -45.625  12.164  1.00  0.00     0.280 A 
HETATM   12  O   UNL     1     -39.789 -45.399  13.046  1.00  0.00    -0.265 OA
HETATM   13  C   UNL     1     -40.783 -46.871  11.503  1.00  0.00     0.164 A 
HETATM   14  H   UNL     1     -41.403 -43.749  12.138  1.00  0.00     0.173 HD
ENDROOT
BRANCH   1  15
HETATM   15  C   UNL     1     -39.081 -48.385  12.554  1.00  0.00     0.174 C 
BRANCH  15  16
HETATM   16  C   UNL     1     -39.543 -49.033  13.856  1.00  0.00     0.187 C 
BRANCH  16  17
HETATM   17  O   UNL     1     -39.691 -50.439  13.646  1.00  0.00    -0.394 OA
HETATM   18  C   UNL     1     -38.427 -51.080  13.515  1.00  0.00     0.201 C 
ENDBRANCH  16  17
ENDBRANCH  15  16
ENDBRANCH   1  15
BRANCH   2  19
HETATM   19  N   UNL     1     -40.368 -50.205  10.539  1.00  0.00    -0.234 N 
HETATM   20  H   UNL     1     -40.997 -50.991  10.637  1.00  0.00     0.174 HD
HETATM   21  H   UNL     1     -39.599 -50.368   9.896  1.00  0.00     0.174 HD
ENDBRANCH   2  19
TORSDOF 4
ENDMDL
MODEL 4
REMARK VINA RESULT:      -4.9      1.894      3.161
REMARK  4 active torsions:
REMARK  status: ('A' for Active; 'I' for Inactive)
REMARK    1  A    between atoms: O_2  and  C_3 
REMARK    2  A    between atoms: C_3  and  C_4 
REMARK    3  A    between atoms: C_4  and  N_5 
REMARK    4  A    between atoms: C_6  and  N_7 
ROOT
HETATM    1  N   UNL     1     -40.889 -54.121  14.225  1.00  0.00    -0.172 N 
HETATM    2  C   UNL     1     -41.361 -54.866  15.288  1.00  0.00     0.680 A 
HETATM    3  N   UNL     1     -42.672 -54.945  15.277  1.00  0.00    -0.174 N 
ATOM      4  HN  UNL     1     -43.270 -55.425  15.949  1.00  0.00     0.186 HD
HETATM    5  C   UNL     1     -43.058 -54.249  14.177  1.00  0.00     0.160 A 
HETATM    6  N   UNL     1     -44.351 -54.065  13.731  1.00  0.00    -0.287 N 
HETATM    7  C   UNL     1     -45.491 -54.654  14.401  1.00  0.00     0.163 C 
HETATM    8  C   UNL     1     -44.561 -53.314  12.583  1.00  0.00     0.330 A 
HETATM    9  O   UNL     1     -45.676 -53.101  12.101  1.00  0.00    -0.246 OA
HETATM   10  N   UNL     1     -43.450 -52.790  11.955  1.00  0.00    -0.273 N 
HETATM   11  C   UNL     1     -42.134 -52.969  12.313  1.00  0.00     0.280 A 
HETATM   12  O   UNL     1     -41.213 -52.504  11.651  1.00  0.00    -0.265 OA
HETATM   13  C   UNL     1     -41.989 -53.729  13.505  1.00  0.00     0.164 A 
HETATM   14  H   UNL     1     -43.623 -52.261  11.115  1.00  0.00     0.173 HD
ENDROOT
BRANCH   1  15
HETATM   15  C   UNL     1     -39.511 -53.857  13.872  1.00  0.00     0.174 C 
BRANCH  15  16
HETATM   16  C   UNL     1     -39.015 -52.497  14.354  1.00  0.00     0.187 C 
BRANCH  16  17
HETATM   17  O   UNL     1     -38.385 -51.820  13.266  1.00  0.00    -0.394 OA
HETATM   18  C   UNL     1     -37.547 -50.765  13.726  1.00  0.00     0.201 C 
ENDBRANCH  16  17
ENDBRANCH  15  16
ENDBRANCH   1  15
BRANCH   2  19
HETATM   19  N   UNL     1     -40.564 -55.440  16.199  1.00  0.00    -0.234 N 
HETATM   20  H   UNL     1     -39.618 -55.743  16.007  1.00  0.00     0.174 HD
HETATM   21  H   UNL     1     -40.727 -55.181  17.168  1.00  0.00     0.174 HD
ENDBRANCH   2  19
TORSDOF 4
ENDMDL
MODEL 5
REMARK VINA RESULT:      -4.9      2.124      4.784
REMARK  4 active torsions:
REMARK  status: ('A' for Active; 'I' for Inactive)
REMARK    1  A    between atoms: O_2  and  C_3 
REMARK    2  A    between atoms: C_3  and  C_4 
REMARK    3  A    between atoms: C_4  and  N_5 
REMARK    4  A    between atoms: C_6  and  N_7 
ROOT
HETATM    1  N   UNL     1     -42.597 -53.603  13.050  1.00  0.00    -0.172 N 
HETATM    2  C   UNL     1     -41.395 -53.200  12.502  1.00  0.00     0.680 A 
HETATM    3  N   UNL     1     -40.376 -53.592  13.232  1.00  0.00    -0.174 N 
ATOM      4  HN  UNL     1     -39.386 -53.421  13.059  1.00  0.00     0.186 HD
HETATM    5  C   UNL     1     -40.927 -54.276  14.268  1.00  0.00     0.160 A 
HETATM    6  N   UNL     1     -40.250 -54.899  15.296  1.00  0.00    -0.287 N 
HETATM    7  C   UNL     1     -38.805 -54.924  15.367  1.00  0.00     0.163 C 
HETATM    8  C   UNL     1     -40.982 -55.550  16.280  1.00  0.00     0.330 A 
HETATM    9  O   UNL     1     -40.470 -56.142  17.232  1.00  0.00    -0.246 OA
HETATM   10  N   UNL     1     -42.357 -55.528  16.167  1.00  0.00    -0.273 N 
HETATM   11  C   UNL     1     -43.097 -54.970  15.151  1.00  0.00     0.280 A 
HETATM   12  O   UNL     1     -44.318 -55.055  15.115  1.00  0.00    -0.265 OA
HETATM   13  C   UNL     1     -42.290 -54.304  14.189  1.00  0.00     0.164 A 
HETATM   14  H   UNL     1     -42.868 -56.019  16.882  1.00  0.00     0.173 HD
ENDROOT
BRANCH   1  15
HETATM   15  C   UNL     1     -43.925 -53.408  12.510  1.00  0.00     0.174 C 
BRANCH  15  16
HETATM   16  C   UNL     1     -44.625 -52.171  13.065  1.00  0.00     0.187 C 
BRANCH  16  17
HETATM   17  O   UNL     1     -46.008 -52.470  13.263  1.00  0.00    -0.394 OA
HETATM   18  C   UNL     1     -46.629 -51.513  14.115  1.00  0.00     0.201 C 
ENDBRANCH  16  17
ENDBRANCH  15  16
ENDBRANCH   1  15
BRANCH   2  19
HETATM   19  N   UNL     1     -41.299 -52.507  11.359  1.00  0.00    -0.234 N 
HETATM   20  H   UNL     1     -41.104 -52.930  10.461  1.00  0.00     0.174 HD
HETATM   21  H   UNL     1     -41.842 -51.651  11.304  1.00  0.00     0.174 HD
ENDBRANCH   2  19
TORSDOF 4
ENDMDL
MODEL 6
REMARK VINA RESULT:      -4.8      1.969      3.266
REMARK  4 active torsions:
REMARK  status: ('A' for Active; 'I' for Inactive)
REMARK    1  A    between atoms: O_2  and  C_3 
REMARK    2  A    between atoms: C_3  and  C_4 
REMARK    3  A    between atoms: C_4  and  N_5 
REMARK    4  A    between atoms: C_6  and  N_7 
ROOT
HETATM    1  N   UNL     1     -40.186 -51.851  12.875  1.00  0.00    -0.172 N 
HETATM    2  C   UNL     1     -41.021 -51.438  11.855  1.00  0.00     0.680 A 
HETATM    3  N   UNL     1     -42.159 -52.094  11.868  1.00  0.00    -0.174 N 
ATOM      4  HN  UNL     1     -42.942 -51.991  11.224  1.00  0.00     0.186 HD
HETATM    5  C   UNL     1     -42.066 -52.940  12.926  1.00  0.00     0.160 A 
HETATM    6  N   UNL     1     -43.031 -53.827  13.358  1.00  0.00    -0.287 N 
HETATM    7  C   UNL     1     -44.326 -53.931  12.721  1.00  0.00     0.163 C 
HETATM    8  C   UNL     1     -42.759 -54.624  14.461  1.00  0.00     0.330 A 
HETATM    9  O   UNL     1     -43.558 -55.439  14.928  1.00  0.00    -0.246 OA
HETATM   10  N   UNL     1     -41.525 -54.480  15.060  1.00  0.00    -0.273 N 
HETATM   11  C   UNL     1     -40.535 -53.589  14.716  1.00  0.00     0.280 A 
HETATM   12  O   UNL     1     -39.492 -53.501  15.352  1.00  0.00    -0.265 OA
HETATM   13  C   UNL     1     -40.868 -52.818  13.569  1.00  0.00     0.164 A 
HETATM   14  H   UNL     1     -41.354 -55.057  15.868  1.00  0.00     0.173 HD
ENDROOT
BRANCH   1  15
HETATM   15  C   UNL     1     -38.880 -51.329  13.215  1.00  0.00     0.174 C 
BRANCH  15  16
HETATM   16  C   UNL     1     -38.939 -50.102  14.120  1.00  0.00     0.187 C 
BRANCH  16  17
HETATM   17  O   UNL     1     -39.089 -48.935  13.310  1.00  0.00    -0.394 OA
HETATM   18  C   UNL     1     -40.172 -48.128  13.759  1.00  0.00     0.201 C 
ENDBRANCH  16  17
ENDBRANCH  15  16
ENDBRANCH   1  15
BRANCH   2  19
HETATM   19  N   UNL     1     -40.699 -50.477  10.980  1.00  0.00    -0.234 N 
HETATM   20  H   UNL     1     -40.761 -50.586   9.976  1.00  0.00     0.174 HD
HETATM   21  H   UNL     1     -40.814 -49.519  11.299  1.00  0.00     0.174 HD
ENDBRANCH   2  19
TORSDOF 4
ENDMDL
MODEL 7
REMARK VINA RESULT:      -4.8      2.388      5.778
REMARK  4 active torsions:
REMARK  status: ('A' for Active; 'I' for Inactive)
REMARK    1  A    between atoms: O_2  and  C_3 
REMARK    2  A    between atoms: C_3  and  C_4 
REMARK    3  A    between atoms: C_4  and  N_5 
REMARK    4  A    between atoms: C_6  and  N_7 
ROOT
HETATM    1  N   UNL     1     -42.598 -53.757  14.450  1.00  0.00    -0.172 N 
HETATM    2  C   UNL     1     -43.278 -54.254  15.545  1.00  0.00     0.680 A 
HETATM    3  N   UNL     1     -42.495 -54.982  16.309  1.00  0.00    -0.174 N 
ATOM      4  HN  UNL     1     -42.746 -55.469  17.169  1.00  0.00     0.186 HD
HETATM    5  C   UNL     1     -41.280 -54.946  15.705  1.00  0.00     0.160 A 
HETATM    6  N   UNL     1     -40.122 -55.552  16.148  1.00  0.00    -0.287 N 
HETATM    7  C   UNL     1     -40.066 -56.299  17.386  1.00  0.00     0.163 C 
HETATM    8  C   UNL     1     -38.965 -55.412  15.395  1.00  0.00     0.330 A 
HETATM    9  O   UNL     1     -37.881 -55.908  15.711  1.00  0.00    -0.246 OA
HETATM   10  N   UNL     1     -39.048 -54.671  14.235  1.00  0.00    -0.273 N 
HETATM   11  C   UNL     1     -40.150 -54.002  13.755  1.00  0.00     0.280 A 
HETATM   12  O   UNL     1     -40.104 -53.321  12.738  1.00  0.00    -0.265 OA
HETATM   13  C   UNL     1     -41.304 -54.201  14.561  1.00  0.00     0.164 A 
HETATM   14  H   UNL     1     -38.194 -54.569  13.710  1.00  0.00     0.173 HD
ENDROOT
BRANCH   1  15
HETATM   15  C   UNL     1     -43.103 -52.876  13.420  1.00  0.00     0.174 C 
BRANCH  15  16
HETATM   16  C   UNL     1     -43.855 -53.611  12.315  1.00  0.00     0.187 C 
BRANCH  16  17
HETATM   17  O   UNL     1     -45.211 -53.800  12.724  1.00  0.00    -0.394 OA
HETATM   18  C   UNL     1     -45.938 -52.577  12.693  1.00  0.00     0.201 C 
ENDBRANCH  16  17
ENDBRANCH  15  16
ENDBRANCH   1  15
BRANCH   2  19
HETATM   19  N   UNL     1     -44.571 -54.002  15.788  1.00  0.00    -0.234 N 
HETATM   20  H   UNL     1     -45.293 -54.710  15.772  1.00  0.00     0.174 HD
HETATM   21  H   UNL     1     -44.769 -53.222  16.408  1.00  0.00     0.174 HD
ENDBRANCH   2  19
TORSDOF 4
ENDMDL
MODEL 8
REMARK VINA RESULT:      -4.5      4.677      6.988
REMARK  4 active torsions:
REMARK  status: ('A' for Active; 'I' for Inactive)
REMARK    1  A    between atoms: O_2  and  C_3 
REMARK    2  A    between atoms: C_3  and  C_4 
REMARK    3  A    between atoms: C_4  and  N_5 
REMARK    4  A    between atoms: C_6  and  N_7 
ROOT
HETATM    1  N   UNL     1     -41.077 -48.056  11.901  1.00  0.00    -0.172 N 
HETATM    2  C   UNL     1     -42.157 -48.734  11.370  1.00  0.00     0.680 A 
HETATM    3  N   UNL     1     -42.022 -50.034  11.500  1.00  0.00    -0.174 N 
ATOM      4  HN  UNL     1     -42.668 -50.759  11.188  1.00  0.00     0.186 HD
HETATM    5  C   UNL     1     -40.837 -50.204  12.141  1.00  0.00     0.160 A 
HETATM    6  N   UNL     1     -40.270 -51.403  12.519  1.00  0.00    -0.287 N 
HETATM    7  C   UNL     1     -40.927 -52.673  12.295  1.00  0.00     0.163 C 
HETATM    8  C   UNL     1     -39.041 -51.387  13.164  1.00  0.00     0.330 A 
HETATM    9  O   UNL     1     -38.458 -52.404  13.547  1.00  0.00    -0.246 OA
HETATM   10  N   UNL     1     -38.456 -50.157  13.384  1.00  0.00    -0.273 N 
HETATM   11  C   UNL     1     -38.980 -48.923  13.079  1.00  0.00     0.280 A 
HETATM   12  O   UNL     1     -38.402 -47.883  13.370  1.00  0.00    -0.265 OA
HETATM   13  C   UNL     1     -40.228 -49.010  12.404  1.00  0.00     0.164 A 
HETATM   14  H   UNL     1     -37.572 -50.167  13.867  1.00  0.00     0.173 HD
ENDROOT
BRANCH   1  15
HETATM   15  C   UNL     1     -40.889 -46.625  11.994  1.00  0.00     0.174 C 
BRANCH  15  16
HETATM   16  C   UNL     1     -40.196 -46.029  10.772  1.00  0.00     0.187 C 
BRANCH  16  17
HETATM   17  O   UNL     1     -41.039 -45.023  10.206  1.00  0.00    -0.394 OA
HETATM   18  C   UNL     1     -42.090 -44.666  11.096  1.00  0.00     0.201 C 
ENDBRANCH  16  17
ENDBRANCH  15  16
ENDBRANCH   1  15
BRANCH   2  19
HETATM   19  N   UNL     1     -43.209 -48.123  10.809  1.00  0.00    -0.234 N 
HETATM   20  H   UNL     1     -44.056 -47.890  11.310  1.00  0.00     0.174 HD
HETATM   21  H   UNL     1     -43.008 -47.507  10.027  1.00  0.00     0.174 HD
ENDBRANCH   2  19
TORSDOF 4
ENDMDL
MODEL 9
REMARK VINA RESULT:      -4.4      2.227      3.354
REMARK  4 active torsions:
REMARK  status: ('A' for Active; 'I' for Inactive)
REMARK    1  A    between atoms: O_2  and  C_3 
REMARK    2  A    between atoms: C_3  and  C_4 
REMARK    3  A    between atoms: C_4  and  N_5 
REMARK    4  A    between atoms: C_6  and  N_7 
ROOT
HETATM    1  N   UNL     1     -41.301 -53.433  15.071  1.00  0.00    -0.172 N 
HETATM    2  C   UNL     1     -41.994 -53.699  16.236  1.00  0.00     0.680 A 
HETATM    3  N   UNL     1     -43.292 -53.717  16.032  1.00  0.00    -0.174 N 
ATOM      4  HN  UNL     1     -44.026 -53.880  16.721  1.00  0.00     0.186 HD
HETATM    5  C   UNL     1     -43.444 -53.471  14.706  1.00  0.00     0.160 A 
HETATM    6  N   UNL     1     -44.634 -53.411  14.011  1.00  0.00    -0.287 N 
HETATM    7  C   UNL     1     -45.913 -53.651  14.645  1.00  0.00     0.163 C 
HETATM    8  C   UNL     1     -44.600 -53.141  12.650  1.00  0.00     0.330 A 
HETATM    9  O   UNL     1     -45.607 -53.075  11.942  1.00  0.00    -0.246 OA
HETATM   10  N   UNL     1     -43.363 -52.944  12.073  1.00  0.00    -0.273 N 
HETATM   11  C   UNL     1     -42.137 -53.034  12.689  1.00  0.00     0.280 A 
HETATM   12  O   UNL     1     -41.088 -52.896  12.070  1.00  0.00    -0.265 OA
HETATM   13  C   UNL     1     -42.242 -53.292  14.082  1.00  0.00     0.164 A 
HETATM   14  H   UNL     1     -43.359 -52.764  11.081  1.00  0.00     0.173 HD
ENDROOT
BRANCH   1  15
HETATM   15  C   UNL     1     -39.867 -53.384  14.886  1.00  0.00     0.174 C 
BRANCH  15  16
HETATM   16  C   UNL     1     -39.268 -54.726  14.474  1.00  0.00     0.187 C 
BRANCH  16  17
HETATM   17  O   UNL     1     -39.284 -55.606  15.600  1.00  0.00    -0.394 OA
HETATM   18  C   UNL     1     -37.984 -55.755  16.160  1.00  0.00     0.201 C 
ENDBRANCH  16  17
ENDBRANCH  15  16
ENDBRANCH   1  15
BRANCH   2  19
HETATM   19  N   UNL     1     -41.399 -53.921  17.415  1.00  0.00    -0.234 N 
HETATM   20  H   UNL     1     -41.815 -53.689  18.308  1.00  0.00     0.174 HD
HETATM   21  H   UNL     1     -40.750 -54.702  17.452  1.00  0.00     0.174 HD
ENDBRANCH   2  19
TORSDOF 4
ENDMDL
