MODEL 1
REMARK VINA RESULT:      -6.2      0.000      0.000
REMARK  5 active torsions:
REMARK  status: ('A' for Active; 'I' for Inactive)
REMARK    1  A    between atoms: C_2  and  C_5 
REMARK    2  A    between atoms: N_8  and  C_9 
REMARK    3  A    between atoms: C_9  and  C_10 
REMARK       I    between atoms: C_10  and  N_12 
REMARK    4  A    between atoms: N_12  and  C_13 
REMARK    5  A    between atoms: C_13  and  C_14 
ROOT
HETATM    1  C   UNL     1     -41.891 -47.488  10.297  1.00  0.00     0.250 C 
ENDROOT
BRANCH   1   2
HETATM    2  N   UNL     1     -43.166 -47.174   9.680  1.00  0.00    -0.294 N 
HETATM    3  C   UNL     1     -43.600 -45.954   9.244  1.00  0.00     0.113 A 
HETATM    4  C   UNL     1     -44.909 -46.123   8.856  1.00  0.00     0.054 A 
HETATM    5  C   UNL     1     -45.206 -47.488   9.118  1.00  0.00     0.133 A 
HETATM    6  N   UNL     1     -44.125 -48.123   9.628  1.00  0.00    -0.294 N 
ATOM      7  HN  UNL     1     -44.051 -49.100   9.910  1.00  0.00     0.187 HD
BRANCH   5   8
HETATM    8  C   UNL     1     -46.525 -48.178   8.894  1.00  0.00     0.433 C 
HETATM    9  F   UNL     1     -46.716 -49.203   9.773  1.00  0.00    -0.165 F 
HETATM   10  F   UNL     1     -46.621 -48.722   7.653  1.00  0.00    -0.165 F 
HETATM   11  F   UNL     1     -47.586 -47.343   9.044  1.00  0.00    -0.165 F 
ENDBRANCH   5   8
ENDBRANCH   1   2
BRANCH   1  12
HETATM   12  C   UNL     1     -42.034 -48.399  11.490  1.00  0.00     0.237 C 
HETATM   13  O   UNL     1     -42.705 -48.081  12.475  1.00  0.00    -0.272 OA
HETATM   14  N   UNL     1     -41.417 -49.638  11.388  1.00  0.00    -0.357 N 
HETATM   15  H   UNL     1     -40.609 -49.723  10.779  1.00  0.00     0.162 HD
BRANCH  14  16
HETATM   16  C   UNL     1     -41.461 -50.523  12.539  1.00  0.00     0.154 C 
BRANCH  16  17
HETATM   17  C   UNL     1     -41.542 -52.008  12.188  1.00  0.00     0.139 C 
HETATM   18  C   UNL     1     -42.706 -52.685  12.897  1.00  0.00     0.035 C 
HETATM   19  C   UNL     1     -42.205 -54.072  13.234  1.00  0.00     0.029 C 
HETATM   20  C   UNL     1     -40.759 -54.082  12.784  1.00  0.00     0.168 C 
HETATM   21  O   UNL     1     -40.370 -52.710  12.635  1.00  0.00    -0.384 OA
ENDBRANCH  16  17
ENDBRANCH  14  16
ENDBRANCH   1  12
TORSDOF 5
ENDMDL
MODEL 2
REMARK VINA RESULT:      -6.2      1.758      2.490
REMARK  5 active torsions:
REMARK  status: ('A' for Active; 'I' for Inactive)
REMARK    1  A    between atoms: C_2  and  C_5 
REMARK    2  A    between atoms: N_8  and  C_9 
REMARK    3  A    between atoms: C_9  and  C_10 
REMARK       I    between atoms: C_10  and  N_12 
REMARK    4  A    between atoms: N_12  and  C_13 
REMARK    5  A    between atoms: C_13  and  C_14 
ROOT
HETATM    1  C   UNL     1     -40.468 -49.236  11.384  1.00  0.00     0.250 C 
ENDROOT
BRANCH   1   2
HETATM    2  N   UNL     1     -41.240 -48.198  10.728  1.00  0.00    -0.294 N 
HETATM    3  C   UNL     1     -41.070 -46.845  10.830  1.00  0.00     0.113 A 
HETATM    4  C   UNL     1     -42.110 -46.269  10.138  1.00  0.00     0.054 A 
HETATM    5  C   UNL     1     -42.893 -47.356   9.663  1.00  0.00     0.133 A 
HETATM    6  N   UNL     1     -42.348 -48.537  10.035  1.00  0.00    -0.294 N 
ATOM      7  HN  UNL     1     -42.696 -49.475   9.837  1.00  0.00     0.187 HD
BRANCH   5   8
HETATM    8  C   UNL     1     -44.166 -47.263   8.865  1.00  0.00     0.433 C 
HETATM    9  F   UNL     1     -44.088 -47.968   7.700  1.00  0.00    -0.165 F 
HETATM   10  F   UNL     1     -44.466 -45.985   8.514  1.00  0.00    -0.165 F 
HETATM   11  F   UNL     1     -45.242 -47.752   9.536  1.00  0.00    -0.165 F 
ENDBRANCH   5   8
ENDBRANCH   1   2
BRANCH   1  12
HETATM   12  C   UNL     1     -41.337 -50.327  11.958  1.00  0.00     0.237 C 
HETATM   13  O   UNL     1     -42.280 -50.079  12.712  1.00  0.00    -0.272 OA
HETATM   14  N   UNL     1     -41.047 -51.619  11.540  1.00  0.00    -0.357 N 
HETATM   15  H   UNL     1     -40.098 -51.826  11.246  1.00  0.00     0.162 HD
BRANCH  14  16
HETATM   16  C   UNL     1     -41.806 -52.713  12.121  1.00  0.00     0.154 C 
BRANCH  16  17
HETATM   17  C   UNL     1     -40.948 -53.785  12.793  1.00  0.00     0.139 C 
HETATM   18  C   UNL     1     -41.534 -54.208  14.133  1.00  0.00     0.035 C 
HETATM   19  C   UNL     1     -40.337 -54.468  15.018  1.00  0.00     0.029 C 
HETATM   20  C   UNL     1     -39.139 -54.093  14.171  1.00  0.00     0.168 C 
HETATM   21  O   UNL     1     -39.637 -53.283  13.098  1.00  0.00    -0.384 OA
ENDBRANCH  16  17
ENDBRANCH  14  16
ENDBRANCH   1  12
TORSDOF 5
ENDMDL
MODEL 3
REMARK VINA RESULT:      -6.2      2.081      3.041
REMARK  5 active torsions:
REMARK  status: ('A' for Active; 'I' for Inactive)
REMARK    1  A    between atoms: C_2  and  C_5 
REMARK    2  A    between atoms: N_8  and  C_9 
REMARK    3  A    between atoms: C_9  and  C_10 
REMARK       I    between atoms: C_10  and  N_12 
REMARK    4  A    between atoms: N_12  and  C_13 
REMARK    5  A    between atoms: C_13  and  C_14 
ROOT
HETATM    1  C   UNL     1     -40.157 -49.226  11.387  1.00  0.00     0.250 C 
ENDROOT
BRANCH   1   2
HETATM    2  N   UNL     1     -41.383 -48.551  11.005  1.00  0.00    -0.294 N 
HETATM    3  C   UNL     1     -42.424 -48.195  11.816  1.00  0.00     0.113 A 
HETATM    4  C   UNL     1     -43.409 -47.703  10.993  1.00  0.00     0.054 A 
HETATM    5  C   UNL     1     -42.891 -47.822   9.675  1.00  0.00     0.133 A 
HETATM    6  N   UNL     1     -41.645 -48.349   9.696  1.00  0.00    -0.294 N 
ATOM      7  HN  UNL     1     -41.038 -48.548   8.901  1.00  0.00     0.187 HD
BRANCH   5   8
HETATM    8  C   UNL     1     -43.594 -47.446   8.397  1.00  0.00     0.433 C 
HETATM    9  F   UNL     1     -43.364 -46.146   8.056  1.00  0.00    -0.165 F 
HETATM   10  F   UNL     1     -44.943 -47.579   8.489  1.00  0.00    -0.165 F 
HETATM   11  F   UNL     1     -43.193 -48.197   7.338  1.00  0.00    -0.165 F 
ENDBRANCH   5   8
ENDBRANCH   1   2
BRANCH   1  12
HETATM   12  C   UNL     1     -40.414 -50.519  12.121  1.00  0.00     0.237 C 
HETATM   13  O   UNL     1     -40.072 -50.680  13.295  1.00  0.00    -0.272 OA
HETATM   14  N   UNL     1     -41.110 -51.491  11.415  1.00  0.00    -0.357 N 
HETATM   15  H   UNL     1     -41.047 -51.486  10.403  1.00  0.00     0.162 HD
BRANCH  14  16
HETATM   16  C   UNL     1     -41.317 -52.782  12.050  1.00  0.00     0.154 C 
BRANCH  16  17
HETATM   17  C   UNL     1     -42.584 -52.868  12.901  1.00  0.00     0.139 C 
HETATM   18  C   UNL     1     -42.472 -53.958  13.957  1.00  0.00     0.035 C 
HETATM   19  C   UNL     1     -43.862 -54.544  14.063  1.00  0.00     0.029 C 
HETATM   20  C   UNL     1     -44.667 -53.824  13.002  1.00  0.00     0.168 C 
HETATM   21  O   UNL     1     -43.720 -53.233  12.102  1.00  0.00    -0.384 OA
ENDBRANCH  16  17
ENDBRANCH  14  16
ENDBRANCH   1  12
TORSDOF 5
ENDMDL
MODEL 4
REMARK VINA RESULT:      -6.1      2.221      3.197
REMARK  5 active torsions:
REMARK  status: ('A' for Active; 'I' for Inactive)
REMARK    1  A    between atoms: C_2  and  C_5 
REMARK    2  A    between atoms: N_8  and  C_9 
REMARK    3  A    between atoms: C_9  and  C_10 
REMARK       I    between atoms: C_10  and  N_12 
REMARK    4  A    between atoms: N_12  and  C_13 
REMARK    5  A    between atoms: C_13  and  C_14 
ROOT
HETATM    1  C   UNL     1     -40.451 -49.539  11.106  1.00  0.00     0.250 C 
ENDROOT
BRANCH   1   2
HETATM    2  N   UNL     1     -41.581 -48.671  10.835  1.00  0.00    -0.294 N 
HETATM    3  C   UNL     1     -42.484 -48.176  11.734  1.00  0.00     0.113 A 
HETATM    4  C   UNL     1     -43.442 -47.516  11.000  1.00  0.00     0.054 A 
HETATM    5  C   UNL     1     -43.056 -47.683   9.642  1.00  0.00     0.133 A 
HETATM    6  N   UNL     1     -41.911 -48.399   9.554  1.00  0.00    -0.294 N 
ATOM      7  HN  UNL     1     -41.409 -48.671   8.709  1.00  0.00     0.187 HD
BRANCH   5   8
HETATM    8  C   UNL     1     -43.790 -47.170   8.432  1.00  0.00     0.433 C 
HETATM    9  F   UNL     1     -43.179 -47.544   7.272  1.00  0.00    -0.165 F 
HETATM   10  F   UNL     1     -43.858 -45.814   8.403  1.00  0.00    -0.165 F 
HETATM   11  F   UNL     1     -45.066 -47.632   8.357  1.00  0.00    -0.165 F 
ENDBRANCH   5   8
ENDBRANCH   1   2
BRANCH   1  12
HETATM   12  C   UNL     1     -40.787 -50.638  12.084  1.00  0.00     0.237 C 
HETATM   13  O   UNL     1     -40.284 -50.686  13.208  1.00  0.00    -0.272 OA
HETATM   14  N   UNL     1     -41.742 -51.554  11.664  1.00  0.00    -0.357 N 
HETATM   15  H   UNL     1     -41.851 -51.710  10.667  1.00  0.00     0.162 HD
BRANCH  14  16
HETATM   16  C   UNL     1     -42.047 -52.674  12.537  1.00  0.00     0.154 C 
BRANCH  16  17
HETATM   17  C   UNL     1     -43.412 -52.586  13.219  1.00  0.00     0.139 C 
HETATM   18  C   UNL     1     -44.457 -53.413  12.483  1.00  0.00     0.035 C 
HETATM   19  C   UNL     1     -45.739 -52.619  12.603  1.00  0.00     0.029 C 
HETATM   20  C   UNL     1     -45.340 -51.345  13.317  1.00  0.00     0.168 C 
HETATM   21  O   UNL     1     -43.915 -51.240  13.199  1.00  0.00    -0.384 OA
ENDBRANCH  16  17
ENDBRANCH  14  16
ENDBRANCH   1  12
TORSDOF 5
ENDMDL
MODEL 5
REMARK VINA RESULT:      -5.9      2.757      5.895
REMARK  5 active torsions:
REMARK  status: ('A' for Active; 'I' for Inactive)
REMARK    1  A    between atoms: C_2  and  C_5 
REMARK    2  A    between atoms: N_8  and  C_9 
REMARK    3  A    between atoms: C_9  and  C_10 
REMARK       I    between atoms: C_10  and  N_12 
REMARK    4  A    between atoms: N_12  and  C_13 
REMARK    5  A    between atoms: C_13  and  C_14 
ROOT
HETATM    1  C   UNL     1     -41.706 -52.001  11.934  1.00  0.00     0.250 C 
ENDROOT
BRANCH   1   2
HETATM    2  N   UNL     1     -42.923 -52.491  12.553  1.00  0.00    -0.294 N 
HETATM    3  C   UNL     1     -43.227 -53.783  12.880  1.00  0.00     0.113 A 
HETATM    4  C   UNL     1     -44.531 -53.776  13.320  1.00  0.00     0.054 A 
HETATM    5  C   UNL     1     -44.960 -52.427  13.200  1.00  0.00     0.133 A 
HETATM    6  N   UNL     1     -43.962 -51.647  12.724  1.00  0.00    -0.294 N 
ATOM      7  HN  UNL     1     -43.989 -50.645  12.537  1.00  0.00     0.187 HD
BRANCH   5   8
HETATM    8  C   UNL     1     -46.328 -51.889  13.528  1.00  0.00     0.433 C 
HETATM    9  F   UNL     1     -47.166 -52.869  13.971  1.00  0.00    -0.165 F 
HETATM   10  F   UNL     1     -46.937 -51.330  12.451  1.00  0.00    -0.165 F 
HETATM   11  F   UNL     1     -46.299 -50.942  14.503  1.00  0.00    -0.165 F 
ENDBRANCH   5   8
ENDBRANCH   1   2
BRANCH   1  12
HETATM   12  C   UNL     1     -41.497 -50.524  12.160  1.00  0.00     0.237 C 
HETATM   13  O   UNL     1     -41.300 -50.059  13.285  1.00  0.00    -0.272 OA
HETATM   14  N   UNL     1     -41.478 -49.731  11.020  1.00  0.00    -0.357 N 
HETATM   15  H   UNL     1     -41.988 -50.053  10.204  1.00  0.00     0.162 HD
BRANCH  14  16
HETATM   16  C   UNL     1     -41.355 -48.293  11.188  1.00  0.00     0.154 C 
BRANCH  16  17
HETATM   17  C   UNL     1     -42.364 -47.477  10.380  1.00  0.00     0.139 C 
HETATM   18  C   UNL     1     -43.755 -47.544  10.996  1.00  0.00     0.035 C 
HETATM   19  C   UNL     1     -44.703 -47.553   9.819  1.00  0.00     0.029 C 
HETATM   20  C   UNL     1     -43.807 -47.585   8.599  1.00  0.00     0.168 C 
HETATM   21  O   UNL     1     -42.515 -48.008   9.053  1.00  0.00    -0.384 OA
ENDBRANCH  16  17
ENDBRANCH  14  16
ENDBRANCH   1  12
TORSDOF 5
ENDMDL
MODEL 6
REMARK VINA RESULT:      -5.6      2.345      2.965
REMARK  5 active torsions:
REMARK  status: ('A' for Active; 'I' for Inactive)
REMARK    1  A    between atoms: C_2  and  C_5 
REMARK    2  A    between atoms: N_8  and  C_9 
REMARK    3  A    between atoms: C_9  and  C_10 
REMARK       I    between atoms: C_10  and  N_12 
REMARK    4  A    between atoms: N_12  and  C_13 
REMARK    5  A    between atoms: C_13  and  C_14 
ROOT
HETATM    1  C   UNL     1     -39.990 -47.852  11.872  1.00  0.00     0.250 C 
ENDROOT
BRANCH   1   2
HETATM    2  N   UNL     1     -41.330 -47.689  11.342  1.00  0.00    -0.294 N 
HETATM    3  C   UNL     1     -42.510 -47.747  12.030  1.00  0.00     0.113 A 
HETATM    4  C   UNL     1     -43.512 -47.665  11.092  1.00  0.00     0.054 A 
HETATM    5  C   UNL     1     -42.848 -47.585   9.839  1.00  0.00     0.133 A 
HETATM    6  N   UNL     1     -41.506 -47.604  10.006  1.00  0.00    -0.294 N 
ATOM      7  HN  UNL     1     -40.787 -47.563   9.284  1.00  0.00     0.187 HD
BRANCH   5   8
HETATM    8  C   UNL     1     -43.499 -47.504   8.483  1.00  0.00     0.433 C 
HETATM    9  F   UNL     1     -44.821 -47.831   8.535  1.00  0.00    -0.165 F 
HETATM   10  F   UNL     1     -42.934 -48.354   7.586  1.00  0.00    -0.165 F 
HETATM   11  F   UNL     1     -43.434 -46.259   7.944  1.00  0.00    -0.165 F 
ENDBRANCH   5   8
ENDBRANCH   1   2
BRANCH   1  12
HETATM   12  C   UNL     1     -39.538 -49.291  11.868  1.00  0.00     0.237 C 
HETATM   13  O   UNL     1     -39.699 -50.021  10.887  1.00  0.00    -0.272 OA
HETATM   14  N   UNL     1     -38.876 -49.725  13.009  1.00  0.00    -0.357 N 
HETATM   15  H   UNL     1     -39.080 -49.259  13.887  1.00  0.00     0.162 HD
BRANCH  14  16
HETATM   16  C   UNL     1     -38.487 -51.122  13.086  1.00  0.00     0.154 C 
BRANCH  16  17
HETATM   17  C   UNL     1     -39.594 -52.057  13.572  1.00  0.00     0.139 C 
HETATM   18  C   UNL     1     -39.040 -53.157  14.467  1.00  0.00     0.035 C 
HETATM   19  C   UNL     1     -39.868 -54.380  14.140  1.00  0.00     0.029 C 
HETATM   20  C   UNL     1     -40.782 -53.940  13.016  1.00  0.00     0.168 C 
HETATM   21  O   UNL     1     -40.212 -52.744  12.470  1.00  0.00    -0.384 OA
ENDBRANCH  16  17
ENDBRANCH  14  16
ENDBRANCH   1  12
TORSDOF 5
ENDMDL
MODEL 7
REMARK VINA RESULT:      -5.5      5.284      6.950
REMARK  5 active torsions:
REMARK  status: ('A' for Active; 'I' for Inactive)
REMARK    1  A    between atoms: C_2  and  C_5 
REMARK    2  A    between atoms: N_8  and  C_9 
REMARK    3  A    between atoms: C_9  and  C_10 
REMARK       I    between atoms: C_10  and  N_12 
REMARK    4  A    between atoms: N_12  and  C_13 
REMARK    5  A    between atoms: C_13  and  C_14 
ROOT
HETATM    1  C   UNL     1     -41.266 -53.369  12.696  1.00  0.00     0.250 C 
ENDROOT
BRANCH   1   2
HETATM    2  N   UNL     1     -40.160 -52.468  12.960  1.00  0.00    -0.294 N 
HETATM    3  C   UNL     1     -39.432 -52.361  14.112  1.00  0.00     0.113 A 
HETATM    4  C   UNL     1     -38.583 -51.293  13.939  1.00  0.00     0.054 A 
HETATM    5  C   UNL     1     -38.882 -50.782  12.647  1.00  0.00     0.133 A 
HETATM    6  N   UNL     1     -39.856 -51.513  12.056  1.00  0.00    -0.294 N 
ATOM      7  HN  UNL     1     -40.269 -51.373  11.134  1.00  0.00     0.187 HD
BRANCH   5   8
HETATM    8  C   UNL     1     -38.245 -49.589  11.985  1.00  0.00     0.433 C 
HETATM    9  F   UNL     1     -39.177 -48.732  11.480  1.00  0.00    -0.165 F 
HETATM   10  F   UNL     1     -37.449 -49.939  10.941  1.00  0.00    -0.165 F 
HETATM   11  F   UNL     1     -37.480 -48.862  12.840  1.00  0.00    -0.165 F 
ENDBRANCH   5   8
ENDBRANCH   1   2
BRANCH   1  12
HETATM   12  C   UNL     1     -42.579 -52.641  12.544  1.00  0.00     0.237 C 
HETATM   13  O   UNL     1     -42.639 -51.411  12.486  1.00  0.00    -0.272 OA
HETATM   14  N   UNL     1     -43.706 -53.441  12.412  1.00  0.00    -0.357 N 
HETATM   15  H   UNL     1     -43.684 -54.371  12.818  1.00  0.00     0.162 HD
BRANCH  14  16
HETATM   16  C   UNL     1     -45.003 -52.791  12.338  1.00  0.00     0.154 C 
BRANCH  16  17
HETATM   17  C   UNL     1     -45.821 -52.871  13.627  1.00  0.00     0.139 C 
HETATM   18  C   UNL     1     -46.570 -51.573  13.892  1.00  0.00     0.035 C 
HETATM   19  C   UNL     1     -46.543 -51.407  15.395  1.00  0.00     0.029 C 
HETATM   20  C   UNL     1     -45.705 -52.563  15.898  1.00  0.00     0.168 C 
HETATM   21  O   UNL     1     -44.969 -53.055  14.770  1.00  0.00    -0.384 OA
ENDBRANCH  16  17
ENDBRANCH  14  16
ENDBRANCH   1  12
TORSDOF 5
ENDMDL
MODEL 8
REMARK VINA RESULT:      -5.5      3.040      6.041
REMARK  5 active torsions:
REMARK  status: ('A' for Active; 'I' for Inactive)
REMARK    1  A    between atoms: C_2  and  C_5 
REMARK    2  A    between atoms: N_8  and  C_9 
REMARK    3  A    between atoms: C_9  and  C_10 
REMARK       I    between atoms: C_10  and  N_12 
REMARK    4  A    between atoms: N_12  and  C_13 
REMARK    5  A    between atoms: C_13  and  C_14 
ROOT
HETATM    1  C   UNL     1     -41.920 -52.611  12.097  1.00  0.00     0.250 C 
ENDROOT
BRANCH   1   2
HETATM    2  N   UNL     1     -42.968 -52.297  13.049  1.00  0.00    -0.294 N 
HETATM    3  C   UNL     1     -42.861 -52.221  14.409  1.00  0.00     0.113 A 
HETATM    4  C   UNL     1     -44.135 -52.025  14.890  1.00  0.00     0.054 A 
HETATM    5  C   UNL     1     -44.973 -52.020  13.743  1.00  0.00     0.133 A 
HETATM    6  N   UNL     1     -44.243 -52.192  12.616  1.00  0.00    -0.294 N 
ATOM      7  HN  UNL     1     -44.580 -52.233  11.655  1.00  0.00     0.187 HD
BRANCH   5   8
HETATM    8  C   UNL     1     -46.470 -51.866  13.726  1.00  0.00     0.433 C 
HETATM    9  F   UNL     1     -46.892 -50.921  14.614  1.00  0.00    -0.165 F 
HETATM   10  F   UNL     1     -47.113 -53.014  14.063  1.00  0.00    -0.165 F 
HETATM   11  F   UNL     1     -46.945 -51.487  12.511  1.00  0.00    -0.165 F 
ENDBRANCH   5   8
ENDBRANCH   1   2
BRANCH   1  12
HETATM   12  C   UNL     1     -40.880 -51.523  12.003  1.00  0.00     0.237 C 
HETATM   13  O   UNL     1     -39.733 -51.679  12.428  1.00  0.00    -0.272 OA
HETATM   14  N   UNL     1     -41.273 -50.360  11.355  1.00  0.00    -0.357 N 
HETATM   15  H   UNL     1     -42.260 -50.121  11.356  1.00  0.00     0.162 HD
BRANCH  14  16
HETATM   16  C   UNL     1     -40.334 -49.253  11.303  1.00  0.00     0.154 C 
BRANCH  16  17
HETATM   17  C   UNL     1     -40.979 -47.874  11.445  1.00  0.00     0.139 C 
HETATM   18  C   UNL     1     -42.224 -47.750  10.577  1.00  0.00     0.035 C 
HETATM   19  C   UNL     1     -42.219 -46.319  10.089  1.00  0.00     0.029 C 
HETATM   20  C   UNL     1     -40.930 -45.731  10.625  1.00  0.00     0.168 C 
HETATM   21  O   UNL     1     -40.094 -46.839  10.983  1.00  0.00    -0.384 OA
ENDBRANCH  16  17
ENDBRANCH  14  16
ENDBRANCH   1  12
TORSDOF 5
ENDMDL
MODEL 9
REMARK VINA RESULT:      -5.4      3.169      3.968
REMARK  5 active torsions:
REMARK  status: ('A' for Active; 'I' for Inactive)
REMARK    1  A    between atoms: C_2  and  C_5 
REMARK    2  A    between atoms: N_8  and  C_9 
REMARK    3  A    between atoms: C_9  and  C_10 
REMARK       I    between atoms: C_10  and  N_12 
REMARK    4  A    between atoms: N_12  and  C_13 
REMARK    5  A    between atoms: C_13  and  C_14 
ROOT
HETATM    1  C   UNL     1     -43.083 -48.978  13.141  1.00  0.00     0.250 C 
ENDROOT
BRANCH   1   2
HETATM    2  N   UNL     1     -42.816 -48.560  11.777  1.00  0.00    -0.294 N 
HETATM    3  C   UNL     1     -41.597 -48.396  11.182  1.00  0.00     0.113 A 
HETATM    4  C   UNL     1     -41.841 -47.869   9.935  1.00  0.00     0.054 A 
HETATM    5  C   UNL     1     -43.252 -47.717   9.861  1.00  0.00     0.133 A 
HETATM    6  N   UNL     1     -43.840 -48.143  11.003  1.00  0.00    -0.294 N 
ATOM      7  HN  UNL     1     -44.835 -48.148  11.228  1.00  0.00     0.187 HD
BRANCH   5   8
HETATM    8  C   UNL     1     -44.033 -47.151   8.705  1.00  0.00     0.433 C 
HETATM    9  F   UNL     1     -44.199 -48.067   7.708  1.00  0.00    -0.165 F 
HETATM   10  F   UNL     1     -43.418 -46.081   8.137  1.00  0.00    -0.165 F 
HETATM   11  F   UNL     1     -45.281 -46.747   9.063  1.00  0.00    -0.165 F 
ENDBRANCH   5   8
ENDBRANCH   1   2
BRANCH   1  12
HETATM   12  C   UNL     1     -43.370 -50.455  13.248  1.00  0.00     0.237 C 
HETATM   13  O   UNL     1     -42.533 -51.251  13.678  1.00  0.00    -0.272 OA
HETATM   14  N   UNL     1     -44.651 -50.853  12.890  1.00  0.00    -0.357 N 
HETATM   15  H   UNL     1     -45.161 -50.283  12.223  1.00  0.00     0.162 HD
BRANCH  14  16
HETATM   16  C   UNL     1     -44.955 -52.273  12.903  1.00  0.00     0.154 C 
BRANCH  16  17
HETATM   17  C   UNL     1     -45.961 -52.691  13.975  1.00  0.00     0.139 C 
HETATM   18  C   UNL     1     -46.863 -51.531  14.374  1.00  0.00     0.035 C 
HETATM   19  C   UNL     1     -47.098 -51.711  15.857  1.00  0.00     0.029 C 
HETATM   20  C   UNL     1     -46.248 -52.903  16.242  1.00  0.00     0.168 C 
HETATM   21  O   UNL     1     -45.294 -53.082  15.186  1.00  0.00    -0.384 OA
ENDBRANCH  16  17
ENDBRANCH  14  16
ENDBRANCH   1  12
TORSDOF 5
ENDMDL
