MODEL 1
REMARK VINA RESULT:      -5.8      0.000      0.000
REMARK  5 active torsions:
REMARK  status: ('A' for Active; 'I' for Inactive)
REMARK    1  A    between atoms: C_2  and  C_3 
REMARK    2  A    between atoms: C_3  and  C_4 
REMARK       I    between atoms: N_6  and  C_10 
REMARK       I    between atoms: C_10  and  N_12 
REMARK    3  A    between atoms: N_12  and  C_13 
REMARK    4  A    between atoms: C_13  and  C_14 
REMARK    5  A    between atoms: C_14  and  C_15 
ROOT
HETATM    1  C   UNL     1     -38.206 -50.428  12.972  1.00  0.00     0.139 C 
HETATM    2  C   UNL     1     -38.609 -49.720  11.660  1.00  0.00     0.159 C 
HETATM    3  N   UNL     1     -40.067 -49.618  11.551  1.00  0.00    -0.330 N 
HETATM    4  C   UNL     1     -40.734 -50.915  11.687  1.00  0.00     0.153 C 
HETATM    5  C   UNL     1     -40.327 -51.563  13.015  1.00  0.00     0.188 C 
HETATM    6  O   UNL     1     -38.901 -51.685  13.121  1.00  0.00    -0.383 OA
HETATM    7  C   UNL     1     -40.653 -48.385  11.354  1.00  0.00     0.318 C 
HETATM    8  O   UNL     1     -40.008 -47.350  11.216  1.00  0.00    -0.247 OA
HETATM    9  N   UNL     1     -42.026 -48.398  11.328  1.00  0.00    -0.343 N 
HETATM   10  H   UNL     1     -42.443 -49.070  11.942  1.00  0.00     0.164 HD
ENDROOT
BRANCH   9  11
HETATM   11  C   UNL     1     -42.772 -47.159  11.176  1.00  0.00     0.129 C 
BRANCH  11  12
HETATM   12  C   UNL     1     -42.897 -46.793   9.696  1.00  0.00     0.060 C 
BRANCH  12  13
HETATM   13  C   UNL     1     -44.076 -47.442   9.031  1.00  0.00    -0.041 A 
HETATM   14  C   UNL     1     -45.309 -47.544   9.679  1.00  0.00     0.010 A 
HETATM   15  C   UNL     1     -46.376 -48.163   9.035  1.00  0.00     0.018 A 
HETATM   16  C   UNL     1     -46.172 -48.663   7.760  1.00  0.00     0.087 A 
HETATM   17  N   UNL     1     -44.996 -48.583   7.102  1.00  0.00    -0.375 N 
HETATM   18  C   UNL     1     -43.977 -47.978   7.751  1.00  0.00     0.094 A 
ATOM     19  HN  UNL     1     -44.883 -48.961   6.161  1.00  0.00     0.164 HD
ENDBRANCH  12  13
ENDBRANCH  11  12
ENDBRANCH   9  11
BRANCH   1  20
HETATM   20  C   UNL     1     -38.392 -49.509  14.192  1.00  0.00     0.033 C 
BRANCH  20  21
HETATM   21  C   UNL     1     -37.658 -48.174  14.053  1.00  0.00    -0.002 C 
HETATM   22  C   UNL     1     -38.561 -47.015  14.450  1.00  0.00     0.005 C 
ENDBRANCH  20  21
ENDBRANCH   1  20
TORSDOF 5
ENDMDL
MODEL 2
REMARK VINA RESULT:      -5.6      5.058      7.874
REMARK  5 active torsions:
REMARK  status: ('A' for Active; 'I' for Inactive)
REMARK    1  A    between atoms: C_2  and  C_3 
REMARK    2  A    between atoms: C_3  and  C_4 
REMARK       I    between atoms: N_6  and  C_10 
REMARK       I    between atoms: C_10  and  N_12 
REMARK    3  A    between atoms: N_12  and  C_13 
REMARK    4  A    between atoms: C_13  and  C_14 
REMARK    5  A    between atoms: C_14  and  C_15 
ROOT
HETATM    1  C   UNL     1     -46.373 -53.793  15.690  1.00  0.00     0.139 C 
HETATM    2  C   UNL     1     -45.040 -53.748  16.468  1.00  0.00     0.159 C 
HETATM    3  N   UNL     1     -43.900 -53.785  15.547  1.00  0.00    -0.330 N 
HETATM    4  C   UNL     1     -43.950 -54.929  14.634  1.00  0.00     0.153 C 
HETATM    5  C   UNL     1     -45.276 -54.913  13.866  1.00  0.00     0.188 C 
HETATM    6  O   UNL     1     -46.398 -54.897  14.760  1.00  0.00    -0.383 OA
HETATM    7  C   UNL     1     -42.942 -52.795  15.606  1.00  0.00     0.318 C 
HETATM    8  O   UNL     1     -42.964 -51.888  16.433  1.00  0.00    -0.247 OA
HETATM    9  N   UNL     1     -41.952 -52.893  14.659  1.00  0.00    -0.343 N 
HETATM   10  H   UNL     1     -42.262 -53.254  13.777  1.00  0.00     0.164 HD
ENDROOT
BRANCH   9  11
HETATM   11  C   UNL     1     -40.906 -51.887  14.578  1.00  0.00     0.129 C 
BRANCH  11  12
HETATM   12  C   UNL     1     -41.057 -51.066  13.296  1.00  0.00     0.060 C 
BRANCH  12  13
HETATM   13  C   UNL     1     -39.744 -50.774  12.630  1.00  0.00    -0.041 A 
HETATM   14  C   UNL     1     -38.540 -51.223  13.175  1.00  0.00     0.010 A 
HETATM   15  C   UNL     1     -37.341 -50.923  12.534  1.00  0.00     0.018 A 
HETATM   16  C   UNL     1     -37.388 -50.178  11.369  1.00  0.00     0.087 A 
HETATM   17  N   UNL     1     -38.532 -49.726  10.812  1.00  0.00    -0.375 N 
HETATM   18  C   UNL     1     -39.681 -50.031  11.455  1.00  0.00     0.094 A 
ATOM     19  HN  UNL     1     -38.529 -49.181   9.950  1.00  0.00     0.164 HD
ENDBRANCH  12  13
ENDBRANCH  11  12
ENDBRANCH   9  11
BRANCH   1  20
HETATM   20  C   UNL     1     -46.677 -52.448  15.008  1.00  0.00     0.033 C 
BRANCH  20  21
HETATM   21  C   UNL     1     -46.607 -51.260  15.971  1.00  0.00    -0.002 C 
HETATM   22  C   UNL     1     -47.869 -51.174  16.817  1.00  0.00     0.005 C 
ENDBRANCH  20  21
ENDBRANCH   1  20
TORSDOF 5
ENDMDL
MODEL 3
REMARK VINA RESULT:      -5.4      3.744      5.530
REMARK  5 active torsions:
REMARK  status: ('A' for Active; 'I' for Inactive)
REMARK    1  A    between atoms: C_2  and  C_3 
REMARK    2  A    between atoms: C_3  and  C_4 
REMARK       I    between atoms: N_6  and  C_10 
REMARK       I    between atoms: C_10  and  N_12 
REMARK    3  A    between atoms: N_12  and  C_13 
REMARK    4  A    between atoms: C_13  and  C_14 
REMARK    5  A    between atoms: C_14  and  C_15 
ROOT
HETATM    1  C   UNL     1     -44.349 -52.258  14.584  1.00  0.00     0.139 C 
HETATM    2  C   UNL     1     -42.869 -51.821  14.633  1.00  0.00     0.159 C 
HETATM    3  N   UNL     1     -42.327 -51.670  13.279  1.00  0.00    -0.330 N 
HETATM    4  C   UNL     1     -42.504 -52.873  12.463  1.00  0.00     0.153 C 
HETATM    5  C   UNL     1     -43.988 -53.250  12.421  1.00  0.00     0.188 C 
HETATM    6  O   UNL     1     -44.522 -53.419  13.742  1.00  0.00    -0.383 OA
HETATM    7  C   UNL     1     -41.743 -50.477  12.906  1.00  0.00     0.318 C 
HETATM    8  O   UNL     1     -41.607 -49.528  13.672  1.00  0.00    -0.247 OA
HETATM    9  N   UNL     1     -41.325 -50.425  11.599  1.00  0.00    -0.343 N 
HETATM   10  H   UNL     1     -41.907 -50.932  10.960  1.00  0.00     0.164 HD
ENDROOT
BRANCH   9  11
HETATM   11  C   UNL     1     -40.736 -49.208  11.061  1.00  0.00     0.129 C 
BRANCH  11  12
HETATM   12  C   UNL     1     -41.804 -48.368  10.359  1.00  0.00     0.060 C 
BRANCH  12  13
HETATM   13  C   UNL     1     -41.680 -46.901  10.654  1.00  0.00    -0.041 A 
HETATM   14  C   UNL     1     -40.449 -46.328  10.978  1.00  0.00     0.010 A 
HETATM   15  C   UNL     1     -40.376 -44.966  11.256  1.00  0.00     0.018 A 
HETATM   16  C   UNL     1     -41.542 -44.222  11.204  1.00  0.00     0.087 A 
HETATM   17  N   UNL     1     -42.750 -44.740  10.895  1.00  0.00    -0.375 N 
HETATM   18  C   UNL     1     -42.793 -46.064  10.630  1.00  0.00     0.094 A 
ATOM     19  HN  UNL     1     -43.589 -44.161  10.864  1.00  0.00     0.164 HD
ENDBRANCH  12  13
ENDBRANCH  11  12
ENDBRANCH   9  11
BRANCH   1  20
HETATM   20  C   UNL     1     -45.271 -51.097  14.173  1.00  0.00     0.033 C 
BRANCH  20  21
HETATM   21  C   UNL     1     -46.756 -51.438  14.305  1.00  0.00    -0.002 C 
HETATM   22  C   UNL     1     -47.166 -51.517  15.769  1.00  0.00     0.005 C 
ENDBRANCH  20  21
ENDBRANCH   1  20
TORSDOF 5
ENDMDL
MODEL 4
REMARK VINA RESULT:      -5.4      5.367      8.164
REMARK  5 active torsions:
REMARK  status: ('A' for Active; 'I' for Inactive)
REMARK    1  A    between atoms: C_2  and  C_3 
REMARK    2  A    between atoms: C_3  and  C_4 
REMARK       I    between atoms: N_6  and  C_10 
REMARK       I    between atoms: C_10  and  N_12 
REMARK    3  A    between atoms: N_12  and  C_13 
REMARK    4  A    between atoms: C_13  and  C_14 
REMARK    5  A    between atoms: C_14  and  C_15 
ROOT
HETATM    1  C   UNL     1     -46.862 -52.642  14.611  1.00  0.00     0.139 C 
HETATM    2  C   UNL     1     -46.225 -53.979  15.047  1.00  0.00     0.159 C 
HETATM    3  N   UNL     1     -44.905 -54.151  14.433  1.00  0.00    -0.330 N 
HETATM    4  C   UNL     1     -44.942 -54.024  12.974  1.00  0.00     0.153 C 
HETATM    5  C   UNL     1     -45.553 -52.672  12.593  1.00  0.00     0.188 C 
HETATM    6  O   UNL     1     -46.854 -52.504  13.173  1.00  0.00    -0.383 OA
HETATM    7  C   UNL     1     -43.806 -54.390  15.231  1.00  0.00     0.318 C 
HETATM    8  O   UNL     1     -43.877 -54.515  16.450  1.00  0.00    -0.247 OA
HETATM    9  N   UNL     1     -42.612 -54.473  14.557  1.00  0.00    -0.343 N 
HETATM   10  H   UNL     1     -42.545 -53.867  13.762  1.00  0.00     0.164 HD
ENDROOT
BRANCH   9  11
HETATM   11  C   UNL     1     -41.368 -54.673  15.283  1.00  0.00     0.129 C 
BRANCH  11  12
HETATM   12  C   UNL     1     -40.172 -54.349  14.386  1.00  0.00     0.060 C 
BRANCH  12  13
HETATM   13  C   UNL     1     -40.375 -53.108  13.567  1.00  0.00    -0.041 A 
HETATM   14  C   UNL     1     -40.141 -51.840  14.101  1.00  0.00     0.010 A 
HETATM   15  C   UNL     1     -40.350 -50.712  13.314  1.00  0.00     0.018 A 
HETATM   16  C   UNL     1     -40.793 -50.891  12.015  1.00  0.00     0.087 A 
HETATM   17  N   UNL     1     -41.031 -52.100  11.463  1.00  0.00    -0.375 N 
HETATM   18  C   UNL     1     -40.820 -53.178  12.250  1.00  0.00     0.094 A 
ATOM     19  HN  UNL     1     -41.355 -52.195  10.501  1.00  0.00     0.164 HD
ENDBRANCH  12  13
ENDBRANCH  11  12
ENDBRANCH   9  11
BRANCH   1  20
HETATM   20  C   UNL     1     -46.203 -51.443  15.316  1.00  0.00     0.033 C 
BRANCH  20  21
HETATM   21  C   UNL     1     -46.567 -51.348  16.799  1.00  0.00    -0.002 C 
HETATM   22  C   UNL     1     -48.058 -51.099  16.976  1.00  0.00     0.005 C 
ENDBRANCH  20  21
ENDBRANCH   1  20
TORSDOF 5
ENDMDL
MODEL 5
REMARK VINA RESULT:      -5.3      4.737      5.673
REMARK  5 active torsions:
REMARK  status: ('A' for Active; 'I' for Inactive)
REMARK    1  A    between atoms: C_2  and  C_3 
REMARK    2  A    between atoms: C_3  and  C_4 
REMARK       I    between atoms: N_6  and  C_10 
REMARK       I    between atoms: C_10  and  N_12 
REMARK    3  A    between atoms: N_12  and  C_13 
REMARK    4  A    between atoms: C_13  and  C_14 
REMARK    5  A    between atoms: C_14  and  C_15 
ROOT
HETATM    1  C   UNL     1     -38.270 -50.044  14.714  1.00  0.00     0.139 C 
HETATM    2  C   UNL     1     -38.581 -51.533  14.982  1.00  0.00     0.159 C 
HETATM    3  N   UNL     1     -40.021 -51.788  14.891  1.00  0.00    -0.330 N 
HETATM    4  C   UNL     1     -40.805 -50.911  15.764  1.00  0.00     0.153 C 
HETATM    5  C   UNL     1     -40.485 -49.448  15.441  1.00  0.00     0.188 C 
HETATM    6  O   UNL     1     -39.079 -49.185  15.547  1.00  0.00    -0.383 OA
HETATM    7  C   UNL     1     -40.491 -52.763  14.035  1.00  0.00     0.318 C 
HETATM    8  O   UNL     1     -39.752 -53.477  13.363  1.00  0.00    -0.247 OA
HETATM    9  N   UNL     1     -41.858 -52.875  13.985  1.00  0.00    -0.343 N 
HETATM   10  H   UNL     1     -42.346 -52.006  14.087  1.00  0.00     0.164 HD
ENDROOT
BRANCH   9  11
HETATM   11  C   UNL     1     -42.486 -53.831  13.086  1.00  0.00     0.129 C 
BRANCH  11  12
HETATM   12  C   UNL     1     -43.635 -53.167  12.325  1.00  0.00     0.060 C 
BRANCH  12  13
HETATM   13  C   UNL     1     -44.869 -52.994  13.161  1.00  0.00    -0.041 A 
HETATM   14  C   UNL     1     -45.360 -51.726  13.476  1.00  0.00     0.010 A 
HETATM   15  C   UNL     1     -46.501 -51.606  14.264  1.00  0.00     0.018 A 
HETATM   16  C   UNL     1     -47.112 -52.763  14.715  1.00  0.00     0.087 A 
HETATM   17  N   UNL     1     -46.667 -54.006  14.433  1.00  0.00    -0.375 N 
HETATM   18  C   UNL     1     -45.557 -54.093  13.666  1.00  0.00     0.094 A 
ATOM     19  HN  UNL     1     -47.145 -54.837  14.781  1.00  0.00     0.164 HD
ENDBRANCH  12  13
ENDBRANCH  11  12
ENDBRANCH   9  11
BRANCH   1  20
HETATM   20  C   UNL     1     -38.399 -49.698  13.220  1.00  0.00     0.033 C 
BRANCH  20  21
HETATM   21  C   UNL     1     -37.609 -50.647  12.317  1.00  0.00    -0.002 C 
HETATM   22  C   UNL     1     -37.270 -49.978  10.992  1.00  0.00     0.005 C 
ENDBRANCH  20  21
ENDBRANCH   1  20
TORSDOF 5
ENDMDL
MODEL 6
REMARK VINA RESULT:      -5.2      4.394      7.708
REMARK  5 active torsions:
REMARK  status: ('A' for Active; 'I' for Inactive)
REMARK    1  A    between atoms: C_2  and  C_3 
REMARK    2  A    between atoms: C_3  and  C_4 
REMARK       I    between atoms: N_6  and  C_10 
REMARK       I    between atoms: C_10  and  N_12 
REMARK    3  A    between atoms: N_12  and  C_13 
REMARK    4  A    between atoms: C_13  and  C_14 
REMARK    5  A    between atoms: C_14  and  C_15 
ROOT
HETATM    1  C   UNL     1     -46.485 -51.815  15.128  1.00  0.00     0.139 C 
HETATM    2  C   UNL     1     -45.108 -51.117  15.182  1.00  0.00     0.159 C 
HETATM    3  N   UNL     1     -44.026 -52.105  15.218  1.00  0.00    -0.330 N 
HETATM    4  C   UNL     1     -44.181 -53.071  16.309  1.00  0.00     0.153 C 
HETATM    5  C   UNL     1     -45.547 -53.756  16.195  1.00  0.00     0.188 C 
HETATM    6  O   UNL     1     -46.613 -52.797  16.179  1.00  0.00    -0.383 OA
HETATM    7  C   UNL     1     -43.021 -52.053  14.275  1.00  0.00     0.318 C 
HETATM    8  O   UNL     1     -42.955 -51.181  13.414  1.00  0.00    -0.247 OA
HETATM    9  N   UNL     1     -42.094 -53.061  14.365  1.00  0.00    -0.343 N 
HETATM   10  H   UNL     1     -42.470 -53.941  14.665  1.00  0.00     0.164 HD
ENDROOT
BRANCH   9  11
HETATM   11  C   UNL     1     -41.009 -53.154  13.402  1.00  0.00     0.129 C 
BRANCH  11  12
HETATM   12  C   UNL     1     -39.737 -52.524  13.972  1.00  0.00     0.060 C 
BRANCH  12  13
HETATM   13  C   UNL     1     -39.157 -51.467  13.078  1.00  0.00    -0.041 A 
HETATM   14  C   UNL     1     -37.887 -50.935  13.314  1.00  0.00     0.010 A 
HETATM   15  C   UNL     1     -37.387 -49.948  12.469  1.00  0.00     0.018 A 
HETATM   16  C   UNL     1     -38.178 -49.523  11.416  1.00  0.00     0.087 A 
HETATM   17  N   UNL     1     -39.409 -50.012  11.157  1.00  0.00    -0.375 N 
HETATM   18  C   UNL     1     -39.871 -50.969  11.992  1.00  0.00     0.094 A 
ATOM     19  HN  UNL     1     -39.964 -49.676  10.369  1.00  0.00     0.164 HD
ENDBRANCH  12  13
ENDBRANCH  11  12
ENDBRANCH   9  11
BRANCH   1  20
HETATM   20  C   UNL     1     -46.765 -52.408  13.736  1.00  0.00     0.033 C 
BRANCH  20  21
HETATM   21  C   UNL     1     -46.413 -51.450  12.596  1.00  0.00    -0.002 C 
HETATM   22  C   UNL     1     -47.220 -51.774  11.347  1.00  0.00     0.005 C 
ENDBRANCH  20  21
ENDBRANCH   1  20
TORSDOF 5
ENDMDL
MODEL 7
REMARK VINA RESULT:      -5.2      4.115      6.742
REMARK  5 active torsions:
REMARK  status: ('A' for Active; 'I' for Inactive)
REMARK    1  A    between atoms: C_2  and  C_3 
REMARK    2  A    between atoms: C_3  and  C_4 
REMARK       I    between atoms: N_6  and  C_10 
REMARK       I    between atoms: C_10  and  N_12 
REMARK    3  A    between atoms: N_12  and  C_13 
REMARK    4  A    between atoms: C_13  and  C_14 
REMARK    5  A    between atoms: C_14  and  C_15 
ROOT
HETATM    1  C   UNL     1     -45.124 -53.220  14.649  1.00  0.00     0.139 C 
HETATM    2  C   UNL     1     -43.921 -52.285  14.902  1.00  0.00     0.159 C 
HETATM    3  N   UNL     1     -43.336 -51.838  13.635  1.00  0.00    -0.330 N 
HETATM    4  C   UNL     1     -42.973 -52.954  12.757  1.00  0.00     0.153 C 
HETATM    5  C   UNL     1     -44.203 -53.834  12.513  1.00  0.00     0.188 C 
HETATM    6  O   UNL     1     -44.771 -54.292  13.748  1.00  0.00    -0.383 OA
HETATM    7  C   UNL     1     -43.195 -50.489  13.384  1.00  0.00     0.318 C 
HETATM    8  O   UNL     1     -43.497 -49.622  14.198  1.00  0.00    -0.247 OA
HETATM    9  N   UNL     1     -42.692 -50.183  12.144  1.00  0.00    -0.343 N 
HETATM   10  H   UNL     1     -42.978 -50.811  11.417  1.00  0.00     0.164 HD
ENDROOT
BRANCH   9  11
HETATM   11  C   UNL     1     -42.539 -48.796  11.733  1.00  0.00     0.129 C 
BRANCH  11  12
HETATM   12  C   UNL     1     -41.234 -48.615  10.955  1.00  0.00     0.060 C 
BRANCH  12  13
HETATM   13  C   UNL     1     -40.014 -48.761  11.817  1.00  0.00    -0.041 A 
HETATM   14  C   UNL     1     -39.031 -49.709  11.528  1.00  0.00     0.010 A 
HETATM   15  C   UNL     1     -37.919 -49.822  12.357  1.00  0.00     0.018 A 
HETATM   16  C   UNL     1     -37.830 -48.983  13.454  1.00  0.00     0.087 A 
HETATM   17  N   UNL     1     -38.760 -48.055  13.767  1.00  0.00    -0.375 N 
HETATM   18  C   UNL     1     -39.829 -47.967  12.945  1.00  0.00     0.094 A 
ATOM     19  HN  UNL     1     -38.660 -47.451  14.583  1.00  0.00     0.164 HD
ENDBRANCH  12  13
ENDBRANCH  11  12
ENDBRANCH   9  11
BRANCH   1  20
HETATM   20  C   UNL     1     -46.360 -52.438  14.170  1.00  0.00     0.033 C 
BRANCH  20  21
HETATM   21  C   UNL     1     -46.661 -51.211  15.033  1.00  0.00    -0.002 C 
HETATM   22  C   UNL     1     -47.544 -51.583  16.216  1.00  0.00     0.005 C 
ENDBRANCH  20  21
ENDBRANCH   1  20
TORSDOF 5
ENDMDL
MODEL 8
REMARK VINA RESULT:      -5.2      3.445      5.299
REMARK  5 active torsions:
REMARK  status: ('A' for Active; 'I' for Inactive)
REMARK    1  A    between atoms: C_2  and  C_3 
REMARK    2  A    between atoms: C_3  and  C_4 
REMARK       I    between atoms: N_6  and  C_10 
REMARK       I    between atoms: C_10  and  N_12 
REMARK    3  A    between atoms: N_12  and  C_13 
REMARK    4  A    between atoms: C_13  and  C_14 
REMARK    5  A    between atoms: C_14  and  C_15 
ROOT
HETATM    1  C   UNL     1     -39.430 -48.964  12.455  1.00  0.00     0.139 C 
HETATM    2  C   UNL     1     -39.375 -50.395  11.878  1.00  0.00     0.159 C 
HETATM    3  N   UNL     1     -39.734 -51.381  12.901  1.00  0.00    -0.330 N 
HETATM    4  C   UNL     1     -38.920 -51.259  14.113  1.00  0.00     0.153 C 
HETATM    5  C   UNL     1     -39.030 -49.834  14.662  1.00  0.00     0.188 C 
HETATM    6  O   UNL     1     -38.661 -48.862  13.673  1.00  0.00    -0.383 OA
HETATM    7  C   UNL     1     -40.753 -52.279  12.658  1.00  0.00     0.318 C 
HETATM    8  O   UNL     1     -41.361 -52.330  11.593  1.00  0.00    -0.247 OA
HETATM    9  N   UNL     1     -41.046 -53.116  13.705  1.00  0.00    -0.343 N 
HETATM   10  H   UNL     1     -40.938 -52.697  14.610  1.00  0.00     0.164 HD
ENDROOT
BRANCH   9  11
HETATM   11  C   UNL     1     -42.132 -54.077  13.600  1.00  0.00     0.129 C 
BRANCH  11  12
HETATM   12  C   UNL     1     -43.236 -53.744  14.605  1.00  0.00     0.060 C 
BRANCH  12  13
HETATM   13  C   UNL     1     -44.380 -52.994  13.988  1.00  0.00    -0.041 A 
HETATM   14  C   UNL     1     -45.215 -52.182  14.759  1.00  0.00     0.010 A 
HETATM   15  C   UNL     1     -46.273 -51.510  14.153  1.00  0.00     0.018 A 
HETATM   16  C   UNL     1     -46.463 -51.678  12.793  1.00  0.00     0.087 A 
HETATM   17  N   UNL     1     -45.679 -52.454  12.015  1.00  0.00    -0.375 N 
HETATM   18  C   UNL     1     -44.660 -53.095  12.628  1.00  0.00     0.094 A 
ATOM     19  HN  UNL     1     -45.848 -52.552  11.014  1.00  0.00     0.164 HD
ENDBRANCH  12  13
ENDBRANCH  11  12
ENDBRANCH   9  11
BRANCH   1  20
HETATM   20  C   UNL     1     -40.880 -48.482  12.638  1.00  0.00     0.033 C 
BRANCH  20  21
HETATM   21  C   UNL     1     -41.769 -48.791  11.431  1.00  0.00    -0.002 C 
HETATM   22  C   UNL     1     -42.804 -47.694  11.225  1.00  0.00     0.005 C 
ENDBRANCH  20  21
ENDBRANCH   1  20
TORSDOF 5
ENDMDL
MODEL 9
REMARK VINA RESULT:      -5.1      4.451      5.786
REMARK  5 active torsions:
REMARK  status: ('A' for Active; 'I' for Inactive)
REMARK    1  A    between atoms: C_2  and  C_3 
REMARK    2  A    between atoms: C_3  and  C_4 
REMARK       I    between atoms: N_6  and  C_10 
REMARK       I    between atoms: C_10  and  N_12 
REMARK    3  A    between atoms: N_12  and  C_13 
REMARK    4  A    between atoms: C_13  and  C_14 
REMARK    5  A    between atoms: C_14  and  C_15 
ROOT
HETATM    1  C   UNL     1     -39.633 -49.425  13.525  1.00  0.00     0.139 C 
HETATM    2  C   UNL     1     -41.045 -49.629  14.117  1.00  0.00     0.159 C 
HETATM    3  N   UNL     1     -41.948 -50.208  13.118  1.00  0.00    -0.330 N 
HETATM    4  C   UNL     1     -41.992 -49.427  11.879  1.00  0.00     0.153 C 
HETATM    5  C   UNL     1     -40.575 -49.278  11.316  1.00  0.00     0.188 C 
HETATM    6  O   UNL     1     -39.689 -48.694  12.281  1.00  0.00    -0.383 OA
HETATM    7  C   UNL     1     -42.628 -51.372  13.405  1.00  0.00     0.318 C 
HETATM    8  O   UNL     1     -42.555 -51.941  14.490  1.00  0.00    -0.247 OA
HETATM    9  N   UNL     1     -43.398 -51.858  12.377  1.00  0.00    -0.343 N 
HETATM   10  H   UNL     1     -43.013 -51.702  11.465  1.00  0.00     0.164 HD
ENDROOT
BRANCH   9  11
HETATM   11  C   UNL     1     -44.130 -53.106  12.529  1.00  0.00     0.129 C 
BRANCH  11  12
HETATM   12  C   UNL     1     -45.628 -52.829  12.662  1.00  0.00     0.060 C 
BRANCH  12  13
HETATM   13  C   UNL     1     -46.057 -52.601  14.082  1.00  0.00    -0.041 A 
HETATM   14  C   UNL     1     -46.763 -51.454  14.450  1.00  0.00     0.010 A 
HETATM   15  C   UNL     1     -47.135 -51.272  15.779  1.00  0.00     0.018 A 
HETATM   16  C   UNL     1     -46.783 -52.245  16.698  1.00  0.00     0.087 A 
HETATM   17  N   UNL     1     -46.101 -53.366  16.381  1.00  0.00    -0.375 N 
HETATM   18  C   UNL     1     -45.752 -53.517  15.084  1.00  0.00     0.094 A 
ATOM     19  HN  UNL     1     -45.860 -54.064  17.085  1.00  0.00     0.164 HD
ENDBRANCH  12  13
ENDBRANCH  11  12
ENDBRANCH   9  11
BRANCH   1  20
HETATM   20  C   UNL     1     -38.879 -50.759  13.385  1.00  0.00     0.033 C 
BRANCH  20  21
HETATM   21  C   UNL     1     -37.372 -50.621  13.613  1.00  0.00    -0.002 C 
HETATM   22  C   UNL     1     -37.081 -50.119  15.020  1.00  0.00     0.005 C 
ENDBRANCH  20  21
ENDBRANCH   1  20
TORSDOF 5
ENDMDL
