MODEL 1
REMARK VINA RESULT:      -5.8      0.000      0.000
REMARK  5 active torsions:
REMARK  status: ('A' for Active; 'I' for Inactive)
REMARK    1  A    between atoms: O_2  and  C_3 
REMARK    2  A    between atoms: C_3  and  C_4 
REMARK    3  A    between atoms: C_4  and  O_5 
REMARK    4  A    between atoms: O_5  and  C_6 
REMARK    5  A    between atoms: C_9  and  N_10 
REMARK       I    between atoms: N_10  and  C_11 
REMARK       I    between atoms: C_11  and  N_13 
ROOT
HETATM    1  C   UNL     1     -42.244 -45.909  10.742  1.00  0.00     0.141 A 
HETATM    2  C   UNL     1     -42.571 -46.157  12.060  1.00  0.00     0.058 A 
HETATM    3  C   UNL     1     -42.688 -47.481  12.479  1.00  0.00     0.035 A 
HETATM    4  C   UNL     1     -42.477 -48.528  11.580  1.00  0.00     0.051 A 
HETATM    5  C   UNL     1     -42.117 -48.162  10.283  1.00  0.00     0.119 A 
HETATM    6  N   UNL     1     -41.998 -46.880   9.838  1.00  0.00    -0.345 N 
ATOM      7  HN  UNL     1     -41.738 -46.666   8.875  1.00  0.00     0.167 HD
ENDROOT
BRANCH   4   8
HETATM    8  N   UNL     1     -42.598 -49.901  11.934  1.00  0.00    -0.307 N 
HETATM    9  C   UNL     1     -41.536 -50.754  12.129  1.00  0.00     0.323 C 
HETATM   10  O   UNL     1     -40.363 -50.381  12.103  1.00  0.00    -0.247 OA
HETATM   11  N   UNL     1     -41.824 -52.085  12.365  1.00  0.00    -0.324 N 
HETATM   12  C   UNL     1     -43.123 -52.760  12.408  1.00  0.00     0.147 C 
HETATM   13  C   UNL     1     -40.675 -53.001  12.460  1.00  0.00     0.230 C 
HETATM   14  C   UNL     1     -43.224 -53.618  13.676  1.00  0.00     0.142 C 
HETATM   15  N   UNL     1     -42.063 -54.456  13.899  1.00  0.00    -0.358 N 
HETATM   16  C   UNL     1     -40.793 -54.040  13.575  1.00  0.00     0.235 C 
HETATM   17  H   UNL     1     -42.075 -55.130  14.655  1.00  0.00     0.162 HD
HETATM   18  O   UNL     1     -39.822 -54.621  14.052  1.00  0.00    -0.272 OA
HETATM   19  H   UNL     1     -43.510 -50.201  12.237  1.00  0.00     0.170 HD
ENDBRANCH   4   8
BRANCH   1  20
HETATM   20  O   UNL     1     -42.096 -44.581  10.404  1.00  0.00    -0.334 OA
BRANCH  20  21
HETATM   21  C   UNL     1     -41.029 -43.936  11.096  1.00  0.00     0.203 C 
BRANCH  21  22
HETATM   22  C   UNL     1     -39.717 -44.513  10.567  1.00  0.00     0.193 C 
BRANCH  22  23
HETATM   23  O   UNL     1     -39.530 -44.130   9.206  1.00  0.00    -0.394 OA
HETATM   24  C   UNL     1     -38.330 -44.675   8.671  1.00  0.00     0.201 C 
ENDBRANCH  22  23
ENDBRANCH  21  22
ENDBRANCH  20  21
ENDBRANCH   1  20
TORSDOF 5
ENDMDL
MODEL 2
REMARK VINA RESULT:      -5.7      2.205      2.771
REMARK  5 active torsions:
REMARK  status: ('A' for Active; 'I' for Inactive)
REMARK    1  A    between atoms: O_2  and  C_3 
REMARK    2  A    between atoms: C_3  and  C_4 
REMARK    3  A    between atoms: C_4  and  O_5 
REMARK    4  A    between atoms: O_5  and  C_6 
REMARK    5  A    between atoms: C_9  and  N_10 
REMARK       I    between atoms: N_10  and  C_11 
REMARK       I    between atoms: C_11  and  N_13 
ROOT
HETATM    1  C   UNL     1     -41.359 -46.105  10.376  1.00  0.00     0.141 A 
HETATM    2  C   UNL     1     -42.711 -46.348  10.508  1.00  0.00     0.058 A 
HETATM    3  C   UNL     1     -43.121 -47.597  10.968  1.00  0.00     0.035 A 
HETATM    4  C   UNL     1     -42.179 -48.577  11.288  1.00  0.00     0.051 A 
HETATM    5  C   UNL     1     -40.840 -48.211  11.151  1.00  0.00     0.119 A 
HETATM    6  N   UNL     1     -40.404 -47.002  10.700  1.00  0.00    -0.345 N 
ATOM      7  HN  UNL     1     -39.411 -46.787  10.612  1.00  0.00     0.167 HD
ENDROOT
BRANCH   4   8
HETATM    8  N   UNL     1     -42.527 -49.879  11.745  1.00  0.00    -0.307 N 
HETATM    9  C   UNL     1     -42.991 -50.166  13.008  1.00  0.00     0.323 C 
HETATM   10  O   UNL     1     -43.238 -49.296  13.845  1.00  0.00    -0.247 OA
HETATM   11  N   UNL     1     -43.184 -51.496  13.329  1.00  0.00    -0.324 N 
HETATM   12  C   UNL     1     -42.931 -52.691  12.521  1.00  0.00     0.147 C 
HETATM   13  C   UNL     1     -43.573 -51.789  14.719  1.00  0.00     0.230 C 
HETATM   14  C   UNL     1     -44.159 -53.611  12.552  1.00  0.00     0.142 C 
HETATM   15  N   UNL     1     -44.674 -53.842  13.886  1.00  0.00    -0.358 N 
HETATM   16  C   UNL     1     -44.653 -52.864  14.853  1.00  0.00     0.235 C 
HETATM   17  H   UNL     1     -45.421 -54.513  14.022  1.00  0.00     0.162 HD
HETATM   18  O   UNL     1     -45.362 -52.977  15.849  1.00  0.00    -0.272 OA
HETATM   19  H   UNL     1     -42.611 -50.589  11.036  1.00  0.00     0.170 HD
ENDBRANCH   4   8
BRANCH   1  20
HETATM   20  O   UNL     1     -41.018 -44.835   9.963  1.00  0.00    -0.334 OA
BRANCH  20  21
HETATM   21  C   UNL     1     -40.161 -44.153  10.876  1.00  0.00     0.203 C 
BRANCH  21  22
HETATM   22  C   UNL     1     -40.856 -42.855  11.284  1.00  0.00     0.193 C 
BRANCH  22  23
HETATM   23  O   UNL     1     -42.005 -42.641  10.467  1.00  0.00    -0.394 OA
HETATM   24  C   UNL     1     -43.184 -42.500  11.251  1.00  0.00     0.201 C 
ENDBRANCH  22  23
ENDBRANCH  21  22
ENDBRANCH  20  21
ENDBRANCH   1  20
TORSDOF 5
ENDMDL
MODEL 3
REMARK VINA RESULT:      -5.7      2.897      8.321
REMARK  5 active torsions:
REMARK  status: ('A' for Active; 'I' for Inactive)
REMARK    1  A    between atoms: O_2  and  C_3 
REMARK    2  A    between atoms: C_3  and  C_4 
REMARK    3  A    between atoms: C_4  and  O_5 
REMARK    4  A    between atoms: O_5  and  C_6 
REMARK    5  A    between atoms: C_9  and  N_10 
REMARK       I    between atoms: N_10  and  C_11 
REMARK       I    between atoms: C_11  and  N_13 
ROOT
HETATM    1  C   UNL     1     -44.160 -52.785  12.694  1.00  0.00     0.141 A 
HETATM    2  C   UNL     1     -44.673 -51.639  13.267  1.00  0.00     0.058 A 
HETATM    3  C   UNL     1     -43.872 -50.500  13.311  1.00  0.00     0.035 A 
HETATM    4  C   UNL     1     -42.580 -50.524  12.782  1.00  0.00     0.051 A 
HETATM    5  C   UNL     1     -42.177 -51.724  12.195  1.00  0.00     0.119 A 
HETATM    6  N   UNL     1     -42.931 -52.857  12.141  1.00  0.00    -0.345 N 
ATOM      7  HN  UNL     1     -42.586 -53.713  11.705  1.00  0.00     0.167 HD
ENDROOT
BRANCH   4   8
HETATM    8  N   UNL     1     -41.701 -49.405  12.809  1.00  0.00    -0.307 N 
HETATM    9  C   UNL     1     -41.594 -48.472  11.803  1.00  0.00     0.323 C 
HETATM   10  O   UNL     1     -42.325 -48.468  10.812  1.00  0.00    -0.247 OA
HETATM   11  N   UNL     1     -40.617 -47.503  11.935  1.00  0.00    -0.324 N 
HETATM   12  C   UNL     1     -39.622 -47.328  12.995  1.00  0.00     0.147 C 
HETATM   13  C   UNL     1     -40.445 -46.582  10.799  1.00  0.00     0.230 C 
HETATM   14  C   UNL     1     -39.626 -45.871  13.479  1.00  0.00     0.142 C 
HETATM   15  N   UNL     1     -39.584 -44.905  12.400  1.00  0.00    -0.358 N 
HETATM   16  C   UNL     1     -40.225 -45.124  11.203  1.00  0.00     0.235 C 
HETATM   17  H   UNL     1     -39.485 -43.921  12.618  1.00  0.00     0.162 HD
HETATM   18  O   UNL     1     -40.436 -44.181  10.444  1.00  0.00    -0.272 OA
HETATM   19  H   UNL     1     -41.278 -49.195  13.698  1.00  0.00     0.170 HD
ENDBRANCH   4   8
BRANCH   1  20
HETATM   20  O   UNL     1     -45.019 -53.861  12.640  1.00  0.00    -0.334 OA
BRANCH  20  21
HETATM   21  C   UNL     1     -44.939 -54.708  13.785  1.00  0.00     0.203 C 
BRANCH  21  22
HETATM   22  C   UNL     1     -46.270 -54.610  14.528  1.00  0.00     0.193 C 
BRANCH  22  23
HETATM   23  O   UNL     1     -46.046 -54.651  15.936  1.00  0.00    -0.394 OA
HETATM   24  C   UNL     1     -45.080 -53.687  16.339  1.00  0.00     0.201 C 
ENDBRANCH  22  23
ENDBRANCH  21  22
ENDBRANCH  20  21
ENDBRANCH   1  20
TORSDOF 5
ENDMDL
MODEL 4
REMARK VINA RESULT:      -5.5      2.213      3.088
REMARK  5 active torsions:
REMARK  status: ('A' for Active; 'I' for Inactive)
REMARK    1  A    between atoms: O_2  and  C_3 
REMARK    2  A    between atoms: C_3  and  C_4 
REMARK    3  A    between atoms: C_4  and  O_5 
REMARK    4  A    between atoms: O_5  and  C_6 
REMARK    5  A    between atoms: C_9  and  N_10 
REMARK       I    between atoms: N_10  and  C_11 
REMARK       I    between atoms: C_11  and  N_13 
ROOT
HETATM    1  C   UNL     1     -40.373 -47.808  11.372  1.00  0.00     0.141 A 
HETATM    2  C   UNL     1     -39.963 -47.825  12.690  1.00  0.00     0.058 A 
HETATM    3  C   UNL     1     -40.073 -49.016  13.405  1.00  0.00     0.035 A 
HETATM    4  C   UNL     1     -40.584 -50.163  12.795  1.00  0.00     0.051 A 
HETATM    5  C   UNL     1     -40.933 -50.041  11.450  1.00  0.00     0.119 A 
HETATM    6  N   UNL     1     -40.845 -48.893  10.722  1.00  0.00    -0.345 N 
ATOM      7  HN  UNL     1     -41.121 -48.855   9.741  1.00  0.00     0.167 HD
ENDROOT
BRANCH   4   8
HETATM    8  N   UNL     1     -40.740 -51.406  13.470  1.00  0.00    -0.307 N 
HETATM    9  C   UNL     1     -39.760 -52.365  13.578  1.00  0.00     0.323 C 
HETATM   10  O   UNL     1     -38.609 -52.196  13.173  1.00  0.00    -0.247 OA
HETATM   11  N   UNL     1     -40.104 -53.563  14.175  1.00  0.00    -0.324 N 
HETATM   12  C   UNL     1     -41.400 -54.000  14.697  1.00  0.00     0.147 C 
HETATM   13  C   UNL     1     -39.074 -54.616  14.181  1.00  0.00     0.230 C 
HETATM   14  C   UNL     1     -41.228 -54.574  16.110  1.00  0.00     0.142 C 
HETATM   15  N   UNL     1     -40.143 -55.529  16.217  1.00  0.00    -0.358 N 
HETATM   16  C   UNL     1     -38.980 -55.391  15.496  1.00  0.00     0.235 C 
HETATM   17  H   UNL     1     -40.011 -56.036  17.083  1.00  0.00     0.162 HD
HETATM   18  O   UNL     1     -37.979 -56.018  15.831  1.00  0.00    -0.272 OA
HETATM   19  H   UNL     1     -41.556 -51.493  14.054  1.00  0.00     0.170 HD
ENDBRANCH   4   8
BRANCH   1  20
HETATM   20  O   UNL     1     -40.194 -46.614  10.707  1.00  0.00    -0.334 OA
BRANCH  20  21
HETATM   21  C   UNL     1     -41.039 -45.569  11.183  1.00  0.00     0.203 C 
BRANCH  21  22
HETATM   22  C   UNL     1     -42.466 -45.886  10.739  1.00  0.00     0.193 C 
BRANCH  22  23
HETATM   23  O   UNL     1     -42.628 -45.571   9.357  1.00  0.00    -0.394 OA
HETATM   24  C   UNL     1     -43.902 -45.978   8.874  1.00  0.00     0.201 C 
ENDBRANCH  22  23
ENDBRANCH  21  22
ENDBRANCH  20  21
ENDBRANCH   1  20
TORSDOF 5
ENDMDL
MODEL 5
REMARK VINA RESULT:      -5.4      1.936      8.469
REMARK  5 active torsions:
REMARK  status: ('A' for Active; 'I' for Inactive)
REMARK    1  A    between atoms: O_2  and  C_3 
REMARK    2  A    between atoms: C_3  and  C_4 
REMARK    3  A    between atoms: C_4  and  O_5 
REMARK    4  A    between atoms: O_5  and  C_6 
REMARK    5  A    between atoms: C_9  and  N_10 
REMARK       I    between atoms: N_10  and  C_11 
REMARK       I    between atoms: C_11  and  N_13 
ROOT
HETATM    1  C   UNL     1     -40.860 -53.735  13.654  1.00  0.00     0.141 A 
HETATM    2  C   UNL     1     -41.488 -52.814  14.467  1.00  0.00     0.058 A 
HETATM    3  C   UNL     1     -41.968 -51.638  13.895  1.00  0.00     0.035 A 
HETATM    4  C   UNL     1     -41.817 -51.405  12.527  1.00  0.00     0.051 A 
HETATM    5  C   UNL     1     -41.200 -52.420  11.794  1.00  0.00     0.119 A 
HETATM    6  N   UNL     1     -40.713 -53.577  12.321  1.00  0.00    -0.345 N 
ATOM      7  HN  UNL     1     -40.263 -54.285  11.741  1.00  0.00     0.167 HD
ENDROOT
BRANCH   4   8
HETATM    8  N   UNL     1     -42.266 -50.220  11.879  1.00  0.00    -0.307 N 
HETATM    9  C   UNL     1     -41.582 -49.027  11.871  1.00  0.00     0.323 C 
HETATM   10  O   UNL     1     -40.456 -48.896  12.353  1.00  0.00    -0.247 OA
HETATM   11  N   UNL     1     -42.204 -47.940  11.286  1.00  0.00    -0.324 N 
HETATM   12  C   UNL     1     -43.536 -47.847  10.685  1.00  0.00     0.147 C 
HETATM   13  C   UNL     1     -41.504 -46.648  11.385  1.00  0.00     0.230 C 
HETATM   14  C   UNL     1     -43.441 -47.180   9.306  1.00  0.00     0.142 C 
HETATM   15  N   UNL     1     -42.656 -45.963   9.306  1.00  0.00    -0.358 N 
HETATM   16  C   UNL     1     -41.545 -45.814  10.104  1.00  0.00     0.235 C 
HETATM   17  H   UNL     1     -42.615 -45.398   8.466  1.00  0.00     0.162 HD
HETATM   18  O   UNL     1     -40.736 -44.923   9.861  1.00  0.00    -0.272 OA
HETATM   19  H   UNL     1     -43.037 -50.330  11.241  1.00  0.00     0.170 HD
ENDBRANCH   4   8
BRANCH   1  20
HETATM   20  O   UNL     1     -40.451 -54.897  14.272  1.00  0.00    -0.334 OA
BRANCH  20  21
HETATM   21  C   UNL     1     -39.060 -54.910  14.590  1.00  0.00     0.203 C 
BRANCH  21  22
HETATM   22  C   UNL     1     -38.926 -55.269  16.069  1.00  0.00     0.193 C 
BRANCH  22  23
HETATM   23  O   UNL     1     -39.155 -56.665  16.253  1.00  0.00    -0.394 OA
HETATM   24  C   UNL     1     -40.214 -56.903  17.173  1.00  0.00     0.201 C 
ENDBRANCH  22  23
ENDBRANCH  21  22
ENDBRANCH  20  21
ENDBRANCH   1  20
TORSDOF 5
ENDMDL
MODEL 6
REMARK VINA RESULT:      -5.4      1.407      1.693
REMARK  5 active torsions:
REMARK  status: ('A' for Active; 'I' for Inactive)
REMARK    1  A    between atoms: O_2  and  C_3 
REMARK    2  A    between atoms: C_3  and  C_4 
REMARK    3  A    between atoms: C_4  and  O_5 
REMARK    4  A    between atoms: O_5  and  C_6 
REMARK    5  A    between atoms: C_9  and  N_10 
REMARK       I    between atoms: N_10  and  C_11 
REMARK       I    between atoms: C_11  and  N_13 
ROOT
HETATM    1  C   UNL     1     -42.641 -45.586  10.836  1.00  0.00     0.141 A 
HETATM    2  C   UNL     1     -42.564 -46.517   9.820  1.00  0.00     0.058 A 
HETATM    3  C   UNL     1     -42.596 -47.869  10.152  1.00  0.00     0.035 A 
HETATM    4  C   UNL     1     -42.707 -48.267  11.485  1.00  0.00     0.051 A 
HETATM    5  C   UNL     1     -42.815 -47.243  12.426  1.00  0.00     0.119 A 
HETATM    6  N   UNL     1     -42.781 -45.912  12.138  1.00  0.00    -0.345 N 
ATOM      7  HN  UNL     1     -42.857 -45.202  12.866  1.00  0.00     0.167 HD
ENDROOT
BRANCH   4   8
HETATM    8  N   UNL     1     -42.727 -49.629  11.898  1.00  0.00    -0.307 N 
HETATM    9  C   UNL     1     -41.632 -50.462  11.898  1.00  0.00     0.323 C 
HETATM   10  O   UNL     1     -40.495 -50.075  11.624  1.00  0.00    -0.247 OA
HETATM   11  N   UNL     1     -41.840 -51.788  12.228  1.00  0.00    -0.324 N 
HETATM   12  C   UNL     1     -43.091 -52.477  12.554  1.00  0.00     0.147 C 
HETATM   13  C   UNL     1     -40.678 -52.685  12.115  1.00  0.00     0.230 C 
HETATM   14  C   UNL     1     -42.916 -53.294  13.841  1.00  0.00     0.142 C 
HETATM   15  N   UNL     1     -41.719 -54.109  13.850  1.00  0.00    -0.358 N 
HETATM   16  C   UNL     1     -40.548 -53.688  13.262  1.00  0.00     0.235 C 
HETATM   17  H   UNL     1     -41.564 -54.758  14.612  1.00  0.00     0.162 HD
HETATM   18  O   UNL     1     -39.490 -54.241  13.550  1.00  0.00    -0.272 OA
HETATM   19  H   UNL     1     -43.553 -49.931  12.389  1.00  0.00     0.170 HD
ENDBRANCH   4   8
BRANCH   1  20
HETATM   20  O   UNL     1     -42.652 -44.267  10.438  1.00  0.00    -0.334 OA
BRANCH  20  21
HETATM   21  C   UNL     1     -42.197 -43.367  11.446  1.00  0.00     0.203 C 
BRANCH  21  22
HETATM   22  C   UNL     1     -40.703 -43.139  11.225  1.00  0.00     0.193 C 
BRANCH  22  23
HETATM   23  O   UNL     1     -40.018 -43.150  12.476  1.00  0.00    -0.394 OA
HETATM   24  C   UNL     1     -39.234 -44.327  12.631  1.00  0.00     0.201 C 
ENDBRANCH  22  23
ENDBRANCH  21  22
ENDBRANCH  20  21
ENDBRANCH   1  20
TORSDOF 5
ENDMDL
MODEL 7
REMARK VINA RESULT:      -5.4      2.480      3.034
REMARK  5 active torsions:
REMARK  status: ('A' for Active; 'I' for Inactive)
REMARK    1  A    between atoms: O_2  and  C_3 
REMARK    2  A    between atoms: C_3  and  C_4 
REMARK    3  A    between atoms: C_4  and  O_5 
REMARK    4  A    between atoms: O_5  and  C_6 
REMARK    5  A    between atoms: C_9  and  N_10 
REMARK       I    between atoms: N_10  and  C_11 
REMARK       I    between atoms: C_11  and  N_13 
ROOT
HETATM    1  C   UNL     1     -40.802 -47.225  12.102  1.00  0.00     0.141 A 
HETATM    2  C   UNL     1     -41.024 -47.597  13.412  1.00  0.00     0.058 A 
HETATM    3  C   UNL     1     -41.999 -48.556  13.676  1.00  0.00     0.035 A 
HETATM    4  C   UNL     1     -42.731 -49.125  12.633  1.00  0.00     0.051 A 
HETATM    5  C   UNL     1     -42.400 -48.701  11.345  1.00  0.00     0.119 A 
HETATM    6  N   UNL     1     -41.457 -47.763  11.052  1.00  0.00    -0.345 N 
ATOM      7  HN  UNL     1     -41.258 -47.483  10.092  1.00  0.00     0.167 HD
ENDROOT
BRANCH   4   8
HETATM    8  N   UNL     1     -43.754 -50.095  12.831  1.00  0.00    -0.307 N 
HETATM    9  C   UNL     1     -43.546 -51.455  12.862  1.00  0.00     0.323 C 
HETATM   10  O   UNL     1     -42.424 -51.962  12.812  1.00  0.00    -0.247 OA
HETATM   11  N   UNL     1     -44.659 -52.268  12.958  1.00  0.00    -0.324 N 
HETATM   12  C   UNL     1     -46.076 -51.899  12.999  1.00  0.00     0.147 C 
HETATM   13  C   UNL     1     -44.424 -53.719  12.878  1.00  0.00     0.230 C 
HETATM   14  C   UNL     1     -46.770 -52.620  14.161  1.00  0.00     0.142 C 
HETATM   15  N   UNL     1     -46.480 -54.038  14.217  1.00  0.00    -0.358 N 
HETATM   16  C   UNL     1     -45.248 -54.542  13.870  1.00  0.00     0.235 C 
HETATM   17  H   UNL     1     -46.967 -54.619  14.889  1.00  0.00     0.162 HD
HETATM   18  O   UNL     1     -44.934 -55.677  14.219  1.00  0.00    -0.272 OA
HETATM   19  H   UNL     1     -44.642 -49.743  13.150  1.00  0.00     0.170 HD
ENDBRANCH   4   8
BRANCH   1  20
HETATM   20  O   UNL     1     -39.792 -46.308  11.905  1.00  0.00    -0.334 OA
BRANCH  20  21
HETATM   21  C   UNL     1     -40.003 -45.468  10.772  1.00  0.00     0.203 C 
BRANCH  21  22
HETATM   22  C   UNL     1     -40.108 -44.029  11.275  1.00  0.00     0.193 C 
BRANCH  22  23
HETATM   23  O   UNL     1     -41.200 -43.369  10.639  1.00  0.00    -0.394 OA
HETATM   24  C   UNL     1     -42.450 -43.823  11.144  1.00  0.00     0.201 C 
ENDBRANCH  22  23
ENDBRANCH  21  22
ENDBRANCH  20  21
ENDBRANCH   1  20
TORSDOF 5
ENDMDL
MODEL 8
REMARK VINA RESULT:      -5.3      1.843      8.367
REMARK  5 active torsions:
REMARK  status: ('A' for Active; 'I' for Inactive)
REMARK    1  A    between atoms: O_2  and  C_3 
REMARK    2  A    between atoms: C_3  and  C_4 
REMARK    3  A    between atoms: C_4  and  O_5 
REMARK    4  A    between atoms: O_5  and  C_6 
REMARK    5  A    between atoms: C_9  and  N_10 
REMARK       I    between atoms: N_10  and  C_11 
REMARK       I    between atoms: C_11  and  N_13 
ROOT
HETATM    1  C   UNL     1     -41.251 -53.562  14.131  1.00  0.00     0.141 A 
HETATM    2  C   UNL     1     -40.845 -53.506  12.813  1.00  0.00     0.058 A 
HETATM    3  C   UNL     1     -41.186 -52.386  12.058  1.00  0.00     0.035 A 
HETATM    4  C   UNL     1     -41.921 -51.346  12.629  1.00  0.00     0.051 A 
HETATM    5  C   UNL     1     -42.247 -51.491  13.978  1.00  0.00     0.119 A 
HETATM    6  N   UNL     1     -41.936 -52.573  14.743  1.00  0.00    -0.345 N 
ATOM      7  HN  UNL     1     -42.205 -52.633  15.726  1.00  0.00     0.167 HD
ENDROOT
BRANCH   4   8
HETATM    8  N   UNL     1     -42.319 -50.182  11.913  1.00  0.00    -0.307 N 
HETATM    9  C   UNL     1     -41.662 -48.974  11.959  1.00  0.00     0.323 C 
HETATM   10  O   UNL     1     -40.600 -48.810  12.561  1.00  0.00    -0.247 OA
HETATM   11  N   UNL     1     -42.236 -47.911  11.288  1.00  0.00    -0.324 N 
HETATM   12  C   UNL     1     -43.494 -47.857  10.539  1.00  0.00     0.147 C 
HETATM   13  C   UNL     1     -41.578 -46.602  11.440  1.00  0.00     0.230 C 
HETATM   14  C   UNL     1     -43.258 -47.212   9.167  1.00  0.00     0.142 C 
HETATM   15  N   UNL     1     -42.503 -45.977   9.232  1.00  0.00    -0.358 N 
HETATM   16  C   UNL     1     -41.492 -45.791  10.147  1.00  0.00     0.235 C 
HETATM   17  H   UNL     1     -42.379 -45.426   8.392  1.00  0.00     0.162 HD
HETATM   18  O   UNL     1     -40.679 -44.886   9.978  1.00  0.00    -0.272 OA
HETATM   19  H   UNL     1     -43.010 -50.319  11.194  1.00  0.00     0.170 HD
ENDBRANCH   4   8
BRANCH   1  20
HETATM   20  O   UNL     1     -40.841 -54.673  14.835  1.00  0.00    -0.334 OA
BRANCH  20  21
HETATM   21  C   UNL     1     -41.635 -54.937  15.990  1.00  0.00     0.203 C 
BRANCH  21  22
HETATM   22  C   UNL     1     -42.863 -55.725  15.540  1.00  0.00     0.193 C 
BRANCH  22  23
HETATM   23  O   UNL     1     -44.017 -54.887  15.564  1.00  0.00    -0.394 OA
HETATM   24  C   UNL     1     -44.692 -54.891  14.312  1.00  0.00     0.201 C 
ENDBRANCH  22  23
ENDBRANCH  21  22
ENDBRANCH  20  21
ENDBRANCH   1  20
TORSDOF 5
ENDMDL
MODEL 9
REMARK VINA RESULT:      -5.1      4.411      5.265
REMARK  5 active torsions:
REMARK  status: ('A' for Active; 'I' for Inactive)
REMARK    1  A    between atoms: O_2  and  C_3 
REMARK    2  A    between atoms: C_3  and  C_4 
REMARK    3  A    between atoms: C_4  and  O_5 
REMARK    4  A    between atoms: O_5  and  C_6 
REMARK    5  A    between atoms: C_9  and  N_10 
REMARK       I    between atoms: N_10  and  C_11 
REMARK       I    between atoms: C_11  and  N_13 
ROOT
HETATM    1  C   UNL     1     -41.704 -48.424  10.604  1.00  0.00     0.141 A 
HETATM    2  C   UNL     1     -41.903 -47.790  11.813  1.00  0.00     0.058 A 
HETATM    3  C   UNL     1     -41.217 -48.260  12.931  1.00  0.00     0.035 A 
HETATM    4  C   UNL     1     -40.347 -49.346  12.823  1.00  0.00     0.051 A 
HETATM    5  C   UNL     1     -40.195 -49.886  11.545  1.00  0.00     0.119 A 
HETATM    6  N   UNL     1     -40.853 -49.457  10.433  1.00  0.00    -0.345 N 
ATOM      7  HN  UNL     1     -40.710 -49.893   9.522  1.00  0.00     0.167 HD
ENDROOT
BRANCH   4   8
HETATM    8  N   UNL     1     -39.629 -49.888  13.925  1.00  0.00    -0.307 N 
HETATM    9  C   UNL     1     -38.345 -49.535  14.271  1.00  0.00     0.323 C 
HETATM   10  O   UNL     1     -37.721 -48.637  13.704  1.00  0.00    -0.247 OA
HETATM   11  N   UNL     1     -37.749 -50.231  15.306  1.00  0.00    -0.324 N 
HETATM   12  C   UNL     1     -38.276 -51.346  16.097  1.00  0.00     0.147 C 
HETATM   13  C   UNL     1     -36.339 -49.916  15.587  1.00  0.00     0.230 C 
HETATM   14  C   UNL     1     -38.076 -51.065  17.592  1.00  0.00     0.142 C 
HETATM   15  N   UNL     1     -36.735 -50.626  17.923  1.00  0.00    -0.358 N 
HETATM   16  C   UNL     1     -36.002 -49.829  17.075  1.00  0.00     0.235 C 
HETATM   17  H   UNL     1     -36.476 -50.510  18.895  1.00  0.00     0.162 HD
HETATM   18  O   UNL     1     -35.022 -49.225  17.504  1.00  0.00    -0.272 OA
HETATM   19  H   UNL     1     -40.170 -50.419  14.588  1.00  0.00     0.170 HD
ENDBRANCH   4   8
BRANCH   1  20
HETATM   20  O   UNL     1     -42.375 -47.882   9.529  1.00  0.00    -0.334 OA
BRANCH  20  21
HETATM   21  C   UNL     1     -43.050 -46.665   9.837  1.00  0.00     0.203 C 
BRANCH  21  22
HETATM   22  C   UNL     1     -44.394 -46.683   9.111  1.00  0.00     0.193 C 
BRANCH  22  23
HETATM   23  O   UNL     1     -45.268 -47.626   9.727  1.00  0.00    -0.394 OA
HETATM   24  C   UNL     1     -46.305 -48.033   8.842  1.00  0.00     0.201 C 
ENDBRANCH  22  23
ENDBRANCH  21  22
ENDBRANCH  20  21
ENDBRANCH   1  20
TORSDOF 5
ENDMDL
