MODEL 1
REMARK VINA RESULT:      -6.3      0.000      0.000
REMARK  5 active torsions:
REMARK  status: ('A' for Active; 'I' for Inactive)
REMARK    1  A    between atoms: N_2  and  C_4 
REMARK    2  A    between atoms: C_4  and  C_5 
REMARK    3  A    between atoms: C_4  and  C_16 
REMARK    4  A    between atoms: C_5  and  N_6 
REMARK    5  A    between atoms: N_6  and  C_7 
ROOT
HETATM    1  C   UNL     1     -41.598 -48.292  10.922  1.00  0.00     0.311 C 
ENDROOT
BRANCH   1   2
HETATM    2  C   UNL     1     -42.157 -47.036  10.157  1.00  0.00     0.285 C 
BRANCH   2   3
HETATM    3  N   UNL     1     -42.434 -45.895  11.088  1.00  0.00     0.090 N 
HETATM    4  C   UNL     1     -42.453 -46.311  12.495  1.00  0.00     0.310 C 
HETATM    5  C   UNL     1     -41.469 -44.797  10.944  1.00  0.00     0.310 C 
ENDBRANCH   2   3
BRANCH   2   6
HETATM    6  C   UNL     1     -43.420 -47.405   9.428  1.00  0.00     0.011 A 
HETATM    7  C   UNL     1     -43.571 -47.740   8.064  1.00  0.00     0.118 A 
HETATM    8  N   UNL     1     -44.839 -47.996   7.727  1.00  0.00    -0.310 N 
HETATM    9  N   UNL     1     -45.510 -47.801   8.875  1.00  0.00    -0.308 N 
ATOM     10  HN  UNL     1     -45.208 -48.272   6.818  1.00  0.00     0.186 HD
HETATM   11  C   UNL     1     -46.949 -47.864   8.888  1.00  0.00     0.177 C 
HETATM   12  C   UNL     1     -44.703 -47.497   9.935  1.00  0.00     0.120 A 
ENDBRANCH   2   6
ENDBRANCH   1   2
BRANCH   1  13
HETATM   13  N   UNL     1     -40.128 -48.529  10.959  1.00  0.00     0.093 N 
HETATM   14  H   UNL     1     -39.698 -47.879  11.619  1.00  0.00     0.316 HD
BRANCH  13  15
HETATM   15  C   UNL     1     -39.865 -49.925  11.356  1.00  0.00     0.256 C 
HETATM   16  C   UNL     1     -41.004 -50.549  12.152  1.00  0.00     0.076 C 
HETATM   17  C   UNL     1     -40.360 -51.714  12.897  1.00  0.00     0.057 C 
HETATM   18  C   UNL     1     -40.703 -51.663  14.388  1.00  0.00     0.045 C 
HETATM   19  C   UNL     1     -40.805 -53.060  12.324  1.00  0.00     0.045 C 
HETATM   20  O   UNL     1     -38.933 -51.595  12.732  1.00  0.00    -0.368 OA
HETATM   21  C   UNL     1     -38.619 -50.283  12.202  1.00  0.00     0.085 C 
HETATM   22  C   UNL     1     -37.358 -50.383  11.340  1.00  0.00     0.048 C 
HETATM   23  C   UNL     1     -38.316 -49.379  13.404  1.00  0.00     0.048 C 
ENDBRANCH  13  15
ENDBRANCH   1  13
TORSDOF 5
ENDMDL
MODEL 2
REMARK VINA RESULT:      -5.9      3.838      6.494
REMARK  5 active torsions:
REMARK  status: ('A' for Active; 'I' for Inactive)
REMARK    1  A    between atoms: N_2  and  C_4 
REMARK    2  A    between atoms: C_4  and  C_5 
REMARK    3  A    between atoms: C_4  and  C_16 
REMARK    4  A    between atoms: C_5  and  N_6 
REMARK    5  A    between atoms: N_6  and  C_7 
ROOT
HETATM    1  C   UNL     1     -42.637 -51.789  12.535  1.00  0.00     0.311 C 
ENDROOT
BRANCH   1   2
HETATM    2  C   UNL     1     -41.111 -51.892  12.165  1.00  0.00     0.285 C 
BRANCH   2   3
HETATM    3  N   UNL     1     -40.303 -52.466  13.289  1.00  0.00     0.090 N 
HETATM    4  C   UNL     1     -40.735 -51.971  14.601  1.00  0.00     0.310 C 
HETATM    5  C   UNL     1     -40.331 -53.935  13.317  1.00  0.00     0.310 C 
ENDBRANCH   2   3
BRANCH   2   6
HETATM    6  C   UNL     1     -40.580 -50.529  11.813  1.00  0.00     0.011 A 
HETATM    7  C   UNL     1     -39.231 -50.121  11.708  1.00  0.00     0.118 A 
HETATM    8  N   UNL     1     -39.101 -48.828  11.397  1.00  0.00    -0.310 N 
HETATM    9  N   UNL     1     -40.371 -48.397  11.326  1.00  0.00    -0.308 N 
ATOM     10  HN  UNL     1     -38.243 -48.297  11.250  1.00  0.00     0.186 HD
HETATM   11  C   UNL     1     -40.647 -46.996  11.127  1.00  0.00     0.177 C 
HETATM   12  C   UNL     1     -41.296 -49.384  11.515  1.00  0.00     0.120 A 
ENDBRANCH   2   6
ENDBRANCH   1   2
BRANCH   1  13
HETATM   13  N   UNL     1     -43.537 -52.938  12.244  1.00  0.00     0.093 N 
HETATM   14  H   UNL     1     -43.012 -53.810  12.334  1.00  0.00     0.316 HD
BRANCH  13  15
HETATM   15  C   UNL     1     -44.677 -52.920  13.179  1.00  0.00     0.256 C 
HETATM   16  C   UNL     1     -44.775 -51.629  13.982  1.00  0.00     0.076 C 
HETATM   17  C   UNL     1     -45.617 -51.996  15.200  1.00  0.00     0.057 C 
HETATM   18  C   UNL     1     -44.928 -51.550  16.492  1.00  0.00     0.045 C 
HETATM   19  C   UNL     1     -47.010 -51.368  15.129  1.00  0.00     0.045 C 
HETATM   20  O   UNL     1     -45.761 -53.431  15.208  1.00  0.00    -0.368 OA
HETATM   21  C   UNL     1     -44.825 -54.012  14.266  1.00  0.00     0.085 C 
HETATM   22  C   UNL     1     -45.425 -55.300  13.698  1.00  0.00     0.048 C 
HETATM   23  C   UNL     1     -43.563 -54.373  15.060  1.00  0.00     0.048 C 
ENDBRANCH  13  15
ENDBRANCH   1  13
TORSDOF 5
ENDMDL
MODEL 3
REMARK VINA RESULT:      -5.8      3.381      4.952
REMARK  5 active torsions:
REMARK  status: ('A' for Active; 'I' for Inactive)
REMARK    1  A    between atoms: N_2  and  C_4 
REMARK    2  A    between atoms: C_4  and  C_5 
REMARK    3  A    between atoms: C_4  and  C_16 
REMARK    4  A    between atoms: C_5  and  N_6 
REMARK    5  A    between atoms: N_6  and  C_7 
ROOT
HETATM    1  C   UNL     1     -42.906 -49.489  12.854  1.00  0.00     0.311 C 
ENDROOT
BRANCH   1   2
HETATM    2  C   UNL     1     -41.773 -49.340  11.772  1.00  0.00     0.285 C 
BRANCH   2   3
HETATM    3  N   UNL     1     -40.414 -49.247  12.397  1.00  0.00     0.090 N 
HETATM    4  C   UNL     1     -40.452 -49.437  13.852  1.00  0.00     0.310 C 
HETATM    5  C   UNL     1     -39.461 -50.210  11.830  1.00  0.00     0.310 C 
ENDBRANCH   2   3
BRANCH   2   6
HETATM    6  C   UNL     1     -42.025 -48.114  10.937  1.00  0.00     0.011 A 
HETATM    7  C   UNL     1     -41.167 -47.010  10.732  1.00  0.00     0.118 A 
HETATM    8  N   UNL     1     -41.705 -46.071   9.948  1.00  0.00    -0.310 N 
HETATM    9  N   UNL     1     -42.924 -46.562   9.667  1.00  0.00    -0.308 N 
ATOM     10  HN  UNL     1     -41.290 -45.193   9.637  1.00  0.00     0.186 HD
HETATM   11  C   UNL     1     -43.870 -45.764   8.930  1.00  0.00     0.177 C 
HETATM   12  C   UNL     1     -43.147 -47.804  10.191  1.00  0.00     0.120 A 
ENDBRANCH   2   6
ENDBRANCH   1   2
BRANCH   1  13
HETATM   13  N   UNL     1     -44.006 -50.465  12.627  1.00  0.00     0.093 N 
HETATM   14  H   UNL     1     -43.921 -50.859  11.689  1.00  0.00     0.316 HD
BRANCH  13  15
HETATM   15  C   UNL     1     -43.936 -51.530  13.646  1.00  0.00     0.256 C 
HETATM   16  C   UNL     1     -43.864 -52.930  13.049  1.00  0.00     0.076 C 
HETATM   17  C   UNL     1     -44.330 -53.852  14.171  1.00  0.00     0.057 C 
HETATM   18  C   UNL     1     -45.424 -54.801  13.677  1.00  0.00     0.045 C 
HETATM   19  C   UNL     1     -43.171 -54.671  14.741  1.00  0.00     0.045 C 
HETATM   20  O   UNL     1     -44.861 -53.018  15.221  1.00  0.00    -0.368 OA
HETATM   21  C   UNL     1     -45.044 -51.671  14.719  1.00  0.00     0.085 C 
HETATM   22  C   UNL     1     -44.849 -50.680  15.868  1.00  0.00     0.048 C 
HETATM   23  C   UNL     1     -46.495 -51.572  14.231  1.00  0.00     0.048 C 
ENDBRANCH  13  15
ENDBRANCH   1  13
TORSDOF 5
ENDMDL
MODEL 4
REMARK VINA RESULT:      -5.8      2.052      2.619
REMARK  5 active torsions:
REMARK  status: ('A' for Active; 'I' for Inactive)
REMARK    1  A    between atoms: N_2  and  C_4 
REMARK    2  A    between atoms: C_4  and  C_5 
REMARK    3  A    between atoms: C_4  and  C_16 
REMARK    4  A    between atoms: C_5  and  N_6 
REMARK    5  A    between atoms: N_6  and  C_7 
ROOT
HETATM    1  C   UNL     1     -41.949 -48.028  11.732  1.00  0.00     0.311 C 
ENDROOT
BRANCH   1   2
HETATM    2  C   UNL     1     -41.879 -47.310  10.335  1.00  0.00     0.285 C 
BRANCH   2   3
HETATM    3  N   UNL     1     -41.603 -45.843  10.475  1.00  0.00     0.090 N 
HETATM    4  C   UNL     1     -42.176 -45.280  11.703  1.00  0.00     0.310 C 
HETATM    5  C   UNL     1     -40.168 -45.530  10.448  1.00  0.00     0.310 C 
ENDBRANCH   2   3
BRANCH   2   6
HETATM    6  C   UNL     1     -43.174 -47.506   9.596  1.00  0.00     0.011 A 
HETATM    7  C   UNL     1     -43.363 -47.728   8.213  1.00  0.00     0.118 A 
HETATM    8  N   UNL     1     -44.650 -47.840   7.874  1.00  0.00    -0.310 N 
HETATM    9  N   UNL     1     -45.294 -47.664   9.040  1.00  0.00    -0.308 N 
ATOM     10  HN  UNL     1     -45.049 -48.016   6.951  1.00  0.00     0.186 HD
HETATM   11  C   UNL     1     -46.734 -47.593   9.065  1.00  0.00     0.177 C 
HETATM   12  C   UNL     1     -44.458 -47.513  10.109  1.00  0.00     0.120 A 
ENDBRANCH   2   6
ENDBRANCH   1   2
BRANCH   1  13
HETATM   13  N   UNL     1     -41.283 -49.348  11.908  1.00  0.00     0.093 N 
HETATM   14  H   UNL     1     -40.547 -49.264  12.610  1.00  0.00     0.316 HD
BRANCH  13  15
HETATM   15  C   UNL     1     -42.283 -50.351  12.320  1.00  0.00     0.256 C 
HETATM   16  C   UNL     1     -43.459 -49.752  13.080  1.00  0.00     0.076 C 
HETATM   17  C   UNL     1     -44.057 -50.924  13.851  1.00  0.00     0.057 C 
HETATM   18  C   UNL     1     -44.235 -50.569  15.329  1.00  0.00     0.045 C 
HETATM   19  C   UNL     1     -45.406 -51.348  13.270  1.00  0.00     0.045 C 
HETATM   20  O   UNL     1     -43.140 -52.030  13.734  1.00  0.00    -0.368 OA
HETATM   21  C   UNL     1     -41.876 -51.552  13.209  1.00  0.00     0.085 C 
HETATM   22  C   UNL     1     -41.223 -52.667  12.390  1.00  0.00     0.048 C 
HETATM   23  C   UNL     1     -40.981 -51.246  14.416  1.00  0.00     0.048 C 
ENDBRANCH  13  15
ENDBRANCH   1  13
TORSDOF 5
ENDMDL
MODEL 5
REMARK VINA RESULT:      -5.8      2.831      4.411
REMARK  5 active torsions:
REMARK  status: ('A' for Active; 'I' for Inactive)
REMARK    1  A    between atoms: N_2  and  C_4 
REMARK    2  A    between atoms: C_4  and  C_5 
REMARK    3  A    between atoms: C_4  and  C_16 
REMARK    4  A    between atoms: C_5  and  N_6 
REMARK    5  A    between atoms: N_6  and  C_7 
ROOT
HETATM    1  C   UNL     1     -41.960 -49.955  12.167  1.00  0.00     0.311 C 
ENDROOT
BRANCH   1   2
HETATM    2  C   UNL     1     -40.852 -49.245  11.305  1.00  0.00     0.285 C 
BRANCH   2   3
HETATM    3  N   UNL     1     -39.655 -48.879  12.128  1.00  0.00     0.090 N 
HETATM    4  C   UNL     1     -39.877 -49.088  13.564  1.00  0.00     0.310 C 
HETATM    5  C   UNL     1     -38.447 -49.617  11.735  1.00  0.00     0.310 C 
ENDBRANCH   2   3
BRANCH   2   6
HETATM    6  C   UNL     1     -41.419 -48.006  10.667  1.00  0.00     0.011 A 
HETATM    7  C   UNL     1     -40.897 -46.693  10.701  1.00  0.00     0.118 A 
HETATM    8  N   UNL     1     -41.660 -45.812  10.048  1.00  0.00    -0.310 N 
HETATM    9  N   UNL     1     -42.691 -46.556   9.614  1.00  0.00    -0.308 N 
ATOM     10  HN  UNL     1     -41.499 -44.814   9.913  1.00  0.00     0.186 HD
HETATM   11  C   UNL     1     -43.809 -45.926   8.958  1.00  0.00     0.177 C 
HETATM   12  C   UNL     1     -42.571 -47.884   9.912  1.00  0.00     0.120 A 
ENDBRANCH   2   6
ENDBRANCH   1   2
BRANCH   1  13
HETATM   13  N   UNL     1     -42.179 -51.419  12.011  1.00  0.00     0.093 N 
HETATM   14  H   UNL     1     -41.324 -51.917  12.262  1.00  0.00     0.316 HD
BRANCH  13  15
HETATM   15  C   UNL     1     -43.300 -51.843  12.872  1.00  0.00     0.256 C 
HETATM   16  C   UNL     1     -44.097 -50.676  13.439  1.00  0.00     0.076 C 
HETATM   17  C   UNL     1     -44.810 -51.253  14.658  1.00  0.00     0.057 C 
HETATM   18  C   UNL     1     -44.582 -50.372  15.889  1.00  0.00     0.045 C 
HETATM   19  C   UNL     1     -46.312 -51.398  14.414  1.00  0.00     0.045 C 
HETATM   20  O   UNL     1     -44.257 -52.562  14.901  1.00  0.00    -0.368 OA
HETATM   21  C   UNL     1     -43.048 -52.725  14.119  1.00  0.00     0.085 C 
HETATM   22  C   UNL     1     -42.890 -54.201  13.746  1.00  0.00     0.048 C 
HETATM   23  C   UNL     1     -41.876 -52.324  15.024  1.00  0.00     0.048 C 
ENDBRANCH  13  15
ENDBRANCH   1  13
TORSDOF 5
ENDMDL
MODEL 6
REMARK VINA RESULT:      -5.8      1.912      2.512
REMARK  5 active torsions:
REMARK  status: ('A' for Active; 'I' for Inactive)
REMARK    1  A    between atoms: N_2  and  C_4 
REMARK    2  A    between atoms: C_4  and  C_5 
REMARK    3  A    between atoms: C_4  and  C_16 
REMARK    4  A    between atoms: C_5  and  N_6 
REMARK    5  A    between atoms: N_6  and  C_7 
ROOT
HETATM    1  C   UNL     1     -41.394 -48.588  10.967  1.00  0.00     0.311 C 
ENDROOT
BRANCH   1   2
HETATM    2  C   UNL     1     -41.907 -47.222  10.381  1.00  0.00     0.285 C 
BRANCH   2   3
HETATM    3  N   UNL     1     -42.122 -46.200  11.456  1.00  0.00     0.090 N 
HETATM    4  C   UNL     1     -41.262 -46.425  12.623  1.00  0.00     0.310 C 
HETATM    5  C   UNL     1     -41.911 -44.825  10.984  1.00  0.00     0.310 C 
ENDBRANCH   2   3
BRANCH   2   6
HETATM    6  C   UNL     1     -43.194 -47.439   9.632  1.00  0.00     0.011 A 
HETATM    7  C   UNL     1     -43.363 -47.769   8.269  1.00  0.00     0.118 A 
HETATM    8  N   UNL     1     -44.646 -47.869   7.912  1.00  0.00    -0.310 N 
HETATM    9  N   UNL     1     -45.307 -47.578   9.045  1.00  0.00    -0.308 N 
ATOM     10  HN  UNL     1     -45.032 -48.109   6.999  1.00  0.00     0.186 HD
HETATM   11  C   UNL     1     -46.743 -47.461   9.033  1.00  0.00     0.177 C 
HETATM   12  C   UNL     1     -44.487 -47.364  10.117  1.00  0.00     0.120 A 
ENDBRANCH   2   6
ENDBRANCH   1   2
BRANCH   1  13
HETATM   13  N   UNL     1     -42.384 -49.615  11.394  1.00  0.00     0.093 N 
HETATM   14  H   UNL     1     -42.635 -50.197  10.593  1.00  0.00     0.316 HD
BRANCH  13  15
HETATM   15  C   UNL     1     -41.804 -50.438  12.473  1.00  0.00     0.256 C 
HETATM   16  C   UNL     1     -41.548 -51.881  12.056  1.00  0.00     0.076 C 
HETATM   17  C   UNL     1     -41.478 -52.654  13.370  1.00  0.00     0.057 C 
HETATM   18  C   UNL     1     -42.397 -53.877  13.330  1.00  0.00     0.045 C 
HETATM   19  C   UNL     1     -40.051 -53.106  13.680  1.00  0.00     0.045 C 
HETATM   20  O   UNL     1     -41.915 -51.764  14.417  1.00  0.00    -0.368 OA
HETATM   21  C   UNL     1     -42.539 -50.597  13.826  1.00  0.00     0.085 C 
HETATM   22  C   UNL     1     -42.308 -49.392  14.741  1.00  0.00     0.048 C 
HETATM   23  C   UNL     1     -44.045 -50.881  13.766  1.00  0.00     0.048 C 
ENDBRANCH  13  15
ENDBRANCH   1  13
TORSDOF 5
ENDMDL
MODEL 7
REMARK VINA RESULT:      -5.8      4.162      7.074
REMARK  5 active torsions:
REMARK  status: ('A' for Active; 'I' for Inactive)
REMARK    1  A    between atoms: N_2  and  C_4 
REMARK    2  A    between atoms: C_4  and  C_5 
REMARK    3  A    between atoms: C_4  and  C_16 
REMARK    4  A    between atoms: C_5  and  N_6 
REMARK    5  A    between atoms: N_6  and  C_7 
ROOT
HETATM    1  C   UNL     1     -42.852 -50.889  13.663  1.00  0.00     0.311 C 
ENDROOT
BRANCH   1   2
HETATM    2  C   UNL     1     -41.774 -51.883  13.095  1.00  0.00     0.285 C 
BRANCH   2   3
HETATM    3  N   UNL     1     -41.166 -52.723  14.177  1.00  0.00     0.090 N 
HETATM    4  C   UNL     1     -41.651 -52.354  15.512  1.00  0.00     0.310 C 
HETATM    5  C   UNL     1     -41.400 -54.160  13.980  1.00  0.00     0.310 C 
ENDBRANCH   2   3
BRANCH   2   6
HETATM    6  C   UNL     1     -40.691 -51.112  12.391  1.00  0.00     0.011 A 
HETATM    7  C   UNL     1     -40.821 -50.231  11.295  1.00  0.00     0.118 A 
HETATM    8  N   UNL     1     -39.653 -49.723  10.892  1.00  0.00    -0.310 N 
HETATM    9  N   UNL     1     -38.763 -50.300  11.718  1.00  0.00    -0.308 N 
ATOM     10  HN  UNL     1     -39.478 -49.058  10.139  1.00  0.00     0.186 HD
HETATM   11  C   UNL     1     -37.351 -50.092  11.515  1.00  0.00     0.177 C 
HETATM   12  C   UNL     1     -39.335 -51.099  12.666  1.00  0.00     0.120 A 
ENDBRANCH   2   6
ENDBRANCH   1   2
BRANCH   1  13
HETATM   13  N   UNL     1     -44.023 -50.523  12.819  1.00  0.00     0.093 N 
HETATM   14  H   UNL     1     -43.921 -50.950  11.897  1.00  0.00     0.316 HD
BRANCH  13  15
HETATM   15  C   UNL     1     -45.263 -50.984  13.471  1.00  0.00     0.256 C 
HETATM   16  C   UNL     1     -45.096 -51.247  14.962  1.00  0.00     0.076 C 
HETATM   17  C   UNL     1     -46.248 -52.181  15.319  1.00  0.00     0.057 C 
HETATM   18  C   UNL     1     -45.738 -53.406  16.082  1.00  0.00     0.045 C 
HETATM   19  C   UNL     1     -47.308 -51.469  16.161  1.00  0.00     0.045 C 
HETATM   20  O   UNL     1     -46.856 -52.609  14.083  1.00  0.00    -0.368 OA
HETATM   21  C   UNL     1     -45.988 -52.259  12.976  1.00  0.00     0.085 C 
HETATM   22  C   UNL     1     -46.846 -51.979  11.740  1.00  0.00     0.048 C 
HETATM   23  C   UNL     1     -45.113 -53.486  12.693  1.00  0.00     0.048 C 
ENDBRANCH  13  15
ENDBRANCH   1  13
TORSDOF 5
ENDMDL
MODEL 8
REMARK VINA RESULT:      -5.6      4.288      6.873
REMARK  5 active torsions:
REMARK  status: ('A' for Active; 'I' for Inactive)
REMARK    1  A    between atoms: N_2  and  C_4 
REMARK    2  A    between atoms: C_4  and  C_5 
REMARK    3  A    between atoms: C_4  and  C_16 
REMARK    4  A    between atoms: C_5  and  N_6 
REMARK    5  A    between atoms: N_6  and  C_7 
ROOT
HETATM    1  C   UNL     1     -42.991 -50.192  13.635  1.00  0.00     0.311 C 
ENDROOT
BRANCH   1   2
HETATM    2  C   UNL     1     -41.484 -50.228  13.187  1.00  0.00     0.285 C 
BRANCH   2   3
HETATM    3  N   UNL     1     -41.276 -49.536  11.873  1.00  0.00     0.090 N 
HETATM    4  C   UNL     1     -41.693 -48.129  11.909  1.00  0.00     0.310 C 
HETATM    5  C   UNL     1     -39.882 -49.593  11.415  1.00  0.00     0.310 C 
ENDBRANCH   2   3
BRANCH   2   6
HETATM    6  C   UNL     1     -41.018 -51.654  13.079  1.00  0.00     0.011 A 
HETATM    7  C   UNL     1     -41.421 -52.633  12.144  1.00  0.00     0.118 A 
HETATM    8  N   UNL     1     -40.829 -53.815  12.339  1.00  0.00    -0.310 N 
HETATM    9  N   UNL     1     -40.061 -53.603  13.420  1.00  0.00    -0.308 N 
ATOM     10  HN  UNL     1     -40.936 -54.673  11.797  1.00  0.00     0.186 HD
HETATM   11  C   UNL     1     -39.346 -54.699  14.024  1.00  0.00     0.177 C 
HETATM   12  C   UNL     1     -40.097 -52.314  13.872  1.00  0.00     0.120 A 
ENDBRANCH   2   6
ENDBRANCH   1   2
BRANCH   1  13
HETATM   13  N   UNL     1     -44.055 -50.482  12.636  1.00  0.00     0.093 N 
HETATM   14  H   UNL     1     -43.717 -51.183  11.975  1.00  0.00     0.316 HD
BRANCH  13  15
HETATM   15  C   UNL     1     -45.264 -50.965  13.331  1.00  0.00     0.256 C 
HETATM   16  C   UNL     1     -45.051 -51.185  14.824  1.00  0.00     0.076 C 
HETATM   17  C   UNL     1     -46.164 -52.144  15.234  1.00  0.00     0.057 C 
HETATM   18  C   UNL     1     -45.597 -53.333  16.013  1.00  0.00     0.045 C 
HETATM   19  C   UNL     1     -47.224 -51.444  16.084  1.00  0.00     0.045 C 
HETATM   20  O   UNL     1     -46.789 -52.622  14.025  1.00  0.00    -0.368 OA
HETATM   21  C   UNL     1     -45.961 -52.274  12.887  1.00  0.00     0.085 C 
HETATM   22  C   UNL     1     -46.858 -52.053  11.667  1.00  0.00     0.048 C 
HETATM   23  C   UNL     1     -45.054 -53.481  12.612  1.00  0.00     0.048 C 
ENDBRANCH  13  15
ENDBRANCH   1  13
TORSDOF 5
ENDMDL
MODEL 9
REMARK VINA RESULT:      -5.6      3.080      6.054
REMARK  5 active torsions:
REMARK  status: ('A' for Active; 'I' for Inactive)
REMARK    1  A    between atoms: N_2  and  C_4 
REMARK    2  A    between atoms: C_4  and  C_5 
REMARK    3  A    between atoms: C_4  and  C_16 
REMARK    4  A    between atoms: C_5  and  N_6 
REMARK    5  A    between atoms: N_6  and  C_7 
ROOT
HETATM    1  C   UNL     1     -41.520 -49.225  12.465  1.00  0.00     0.311 C 
ENDROOT
BRANCH   1   2
HETATM    2  C   UNL     1     -41.302 -50.593  13.211  1.00  0.00     0.285 C 
BRANCH   2   3
HETATM    3  N   UNL     1     -40.018 -51.251  12.804  1.00  0.00     0.090 N 
HETATM    4  C   UNL     1     -39.033 -50.290  12.294  1.00  0.00     0.310 C 
HETATM    5  C   UNL     1     -39.399 -52.012  13.897  1.00  0.00     0.310 C 
ENDBRANCH   2   3
BRANCH   2   6
HETATM    6  C   UNL     1     -42.452 -51.519  12.923  1.00  0.00     0.011 A 
HETATM    7  C   UNL     1     -42.456 -52.675  12.111  1.00  0.00     0.118 A 
HETATM    8  N   UNL     1     -43.654 -53.263  12.047  1.00  0.00    -0.310 N 
HETATM    9  N   UNL     1     -44.431 -52.466  12.801  1.00  0.00    -0.308 N 
ATOM     10  HN  UNL     1     -43.916 -54.112  11.546  1.00  0.00     0.186 HD
HETATM   11  C   UNL     1     -45.850 -52.706  12.878  1.00  0.00     0.177 C 
HETATM   12  C   UNL     1     -43.751 -51.438  13.390  1.00  0.00     0.120 A 
ENDBRANCH   2   6
ENDBRANCH   1   2
BRANCH   1  13
HETATM   13  N   UNL     1     -42.077 -49.229  11.085  1.00  0.00     0.093 N 
HETATM   14  H   UNL     1     -43.089 -49.354  11.129  1.00  0.00     0.316 HD
BRANCH  13  15
HETATM   15  C   UNL     1     -41.739 -47.958  10.415  1.00  0.00     0.256 C 
HETATM   16  C   UNL     1     -41.118 -46.931  11.353  1.00  0.00     0.076 C 
HETATM   17  C   UNL     1     -41.340 -45.591  10.657  1.00  0.00     0.057 C 
HETATM   18  C   UNL     1     -41.972 -44.579  11.616  1.00  0.00     0.045 C 
HETATM   19  C   UNL     1     -40.031 -45.018  10.112  1.00  0.00     0.045 C 
HETATM   20  O   UNL     1     -42.235 -45.823   9.551  1.00  0.00    -0.368 OA
HETATM   21  C   UNL     1     -42.829 -47.138   9.681  1.00  0.00     0.085 C 
HETATM   22  C   UNL     1     -43.114 -47.697   8.286  1.00  0.00     0.048 C 
HETATM   23  C   UNL     1     -44.164 -46.952  10.413  1.00  0.00     0.048 C 
ENDBRANCH  13  15
ENDBRANCH   1  13
TORSDOF 5
ENDMDL
