MODEL 1
REMARK VINA RESULT:      -6.2      0.000      0.000
REMARK  5 active torsions:
REMARK  status: ('A' for Active; 'I' for Inactive)
REMARK    1  A    between atoms: C_2  and  C_3 
REMARK    2  A    between atoms: C_2  and  N_15 
REMARK       I    between atoms: C_3  and  N_5 
REMARK    3  A    between atoms: N_5  and  C_6 
REMARK    4  A    between atoms: C_6  and  C_7 
REMARK    5  A    between atoms: C_7  and  N_8 
ROOT
HETATM    1  C   UNL     1     -42.271 -48.628  11.710  1.00  0.00     0.242 C 
HETATM    2  O   UNL     1     -42.533 -48.035  12.755  1.00  0.00    -0.271 OA
HETATM    3  N   UNL     1     -42.111 -50.003  11.650  1.00  0.00    -0.358 N 
HETATM    4  H   UNL     1     -42.180 -50.442  10.731  1.00  0.00     0.162 HD
ENDROOT
BRANCH   1   5
HETATM    5  C   UNL     1     -42.031 -47.892  10.396  1.00  0.00     0.196 C 
HETATM    6  C   UNL     1     -41.322 -46.558  10.636  1.00  0.00     0.044 C 
BRANCH   5   7
HETATM    7  N   UNL     1     -43.282 -47.759   9.674  1.00  0.00    -0.273 N 
HETATM    8  C   UNL     1     -43.501 -47.683   8.334  1.00  0.00     0.202 A 
HETATM    9  N   UNL     1     -44.786 -47.540   8.105  1.00  0.00    -0.346 N 
HETATM   10  C   UNL     1     -45.323 -47.512   9.360  1.00  0.00     0.198 A 
ATOM     11  HN  UNL     1     -45.267 -47.467   7.208  1.00  0.00     0.167 HD
HETATM   12  N   UNL     1     -44.443 -47.623  10.359  1.00  0.00    -0.292 N 
ATOM     13  HN  UNL     1     -44.601 -47.609  11.367  1.00  0.00     0.188 HD
ENDBRANCH   5   7
ENDBRANCH   1   5
BRANCH   3  14
HETATM   14  C   UNL     1     -42.372 -50.816  12.826  1.00  0.00     0.152 C 
BRANCH  14  15
HETATM   15  C   UNL     1     -42.667 -52.290  12.485  1.00  0.00     0.292 C 
BRANCH  15  16
HETATM   16  N   UNL     1     -44.060 -52.721  12.767  1.00  0.00     0.090 N 
HETATM   17  C   UNL     1     -44.759 -51.750  13.627  1.00  0.00     0.272 C 
HETATM   18  C   UNL     1     -46.277 -51.904  13.551  1.00  0.00     0.030 C 
HETATM   19  C   UNL     1     -46.867 -52.833  14.602  1.00  0.00     0.002 C 
HETATM   20  C   UNL     1     -46.065 -54.093  14.897  1.00  0.00     0.002 C 
HETATM   21  C   UNL     1     -45.396 -54.712  13.675  1.00  0.00     0.030 C 
HETATM   22  C   UNL     1     -44.038 -54.080  13.338  1.00  0.00     0.272 C 
ENDBRANCH  15  16
ENDBRANCH  14  15
ENDBRANCH   3  14
TORSDOF 5
ENDMDL
MODEL 2
REMARK VINA RESULT:      -6.1      1.448      1.977
REMARK  5 active torsions:
REMARK  status: ('A' for Active; 'I' for Inactive)
REMARK    1  A    between atoms: C_2  and  C_3 
REMARK    2  A    between atoms: C_2  and  N_15 
REMARK       I    between atoms: C_3  and  N_5 
REMARK    3  A    between atoms: N_5  and  C_6 
REMARK    4  A    between atoms: C_6  and  C_7 
REMARK    5  A    between atoms: C_7  and  N_8 
ROOT
HETATM    1  C   UNL     1     -41.659 -49.061  11.217  1.00  0.00     0.242 C 
HETATM    2  O   UNL     1     -40.588 -49.307  10.666  1.00  0.00    -0.271 OA
HETATM    3  N   UNL     1     -42.368 -50.012  11.933  1.00  0.00    -0.358 N 
HETATM    4  H   UNL     1     -43.078 -49.674  12.584  1.00  0.00     0.162 HD
ENDROOT
BRANCH   1   5
HETATM    5  C   UNL     1     -42.338 -47.701  11.104  1.00  0.00     0.196 C 
HETATM    6  C   UNL     1     -43.107 -47.363  12.382  1.00  0.00     0.044 C 
BRANCH   5   7
HETATM    7  N   UNL     1     -43.160 -47.662   9.908  1.00  0.00    -0.273 N 
HETATM    8  C   UNL     1     -44.495 -47.436   9.787  1.00  0.00     0.202 A 
HETATM    9  N   UNL     1     -44.841 -47.516   8.523  1.00  0.00    -0.346 N 
HETATM   10  C   UNL     1     -43.666 -47.820   7.898  1.00  0.00     0.198 A 
ATOM     11  HN  UNL     1     -45.764 -47.385   8.108  1.00  0.00     0.167 HD
HETATM   12  N   UNL     1     -42.607 -47.939   8.704  1.00  0.00    -0.292 N 
ATOM     13  HN  UNL     1     -41.642 -48.176   8.474  1.00  0.00     0.188 HD
ENDBRANCH   5   7
ENDBRANCH   1   5
BRANCH   3  14
HETATM   14  C   UNL     1     -41.793 -51.329  12.157  1.00  0.00     0.152 C 
BRANCH  14  15
HETATM   15  C   UNL     1     -42.704 -52.247  12.996  1.00  0.00     0.292 C 
BRANCH  15  16
HETATM   16  N   UNL     1     -43.890 -51.572  13.580  1.00  0.00     0.090 N 
HETATM   17  C   UNL     1     -43.897 -51.674  15.051  1.00  0.00     0.272 C 
HETATM   18  C   UNL     1     -44.803 -50.628  15.695  1.00  0.00     0.030 C 
HETATM   19  C   UNL     1     -46.231 -51.096  15.937  1.00  0.00     0.002 C 
HETATM   20  C   UNL     1     -46.845 -51.946  14.833  1.00  0.00     0.002 C 
HETATM   21  C   UNL     1     -46.449 -51.525  13.422  1.00  0.00     0.030 C 
HETATM   22  C   UNL     1     -45.111 -52.120  12.962  1.00  0.00     0.272 C 
ENDBRANCH  15  16
ENDBRANCH  14  15
ENDBRANCH   3  14
TORSDOF 5
ENDMDL
MODEL 3
REMARK VINA RESULT:      -5.9      1.321      1.703
REMARK  5 active torsions:
REMARK  status: ('A' for Active; 'I' for Inactive)
REMARK    1  A    between atoms: C_2  and  C_3 
REMARK    2  A    between atoms: C_2  and  N_15 
REMARK       I    between atoms: C_3  and  N_5 
REMARK    3  A    between atoms: N_5  and  C_6 
REMARK    4  A    between atoms: C_6  and  C_7 
REMARK    5  A    between atoms: C_7  and  N_8 
ROOT
HETATM    1  C   UNL     1     -42.352 -48.252  11.429  1.00  0.00     0.242 C 
HETATM    2  O   UNL     1     -42.581 -47.700  12.504  1.00  0.00    -0.271 OA
HETATM    3  N   UNL     1     -42.044 -49.600  11.332  1.00  0.00    -0.358 N 
HETATM    4  H   UNL     1     -42.148 -50.037  10.415  1.00  0.00     0.162 HD
ENDROOT
BRANCH   1   5
HETATM    5  C   UNL     1     -42.318 -47.485  10.112  1.00  0.00     0.196 C 
HETATM    6  C   UNL     1     -41.850 -46.045  10.328  1.00  0.00     0.044 C 
BRANCH   5   7
HETATM    7  N   UNL     1     -43.609 -47.581   9.457  1.00  0.00    -0.273 N 
HETATM    8  C   UNL     1     -43.896 -47.804   8.147  1.00  0.00     0.202 A 
HETATM    9  N   UNL     1     -45.198 -47.787   7.973  1.00  0.00    -0.346 N 
HETATM   10  C   UNL     1     -45.674 -47.524   9.225  1.00  0.00     0.198 A 
ATOM     11  HN  UNL     1     -45.725 -47.933   7.112  1.00  0.00     0.167 HD
HETATM   12  N   UNL     1     -44.741 -47.369  10.168  1.00  0.00    -0.292 N 
ATOM     13  HN  UNL     1     -44.851 -47.151  11.159  1.00  0.00     0.188 HD
ENDBRANCH   5   7
ENDBRANCH   1   5
BRANCH   3  14
HETATM   14  C   UNL     1     -42.103 -50.445  12.513  1.00  0.00     0.152 C 
BRANCH  14  15
HETATM   15  C   UNL     1     -41.303 -51.754  12.355  1.00  0.00     0.292 C 
BRANCH  15  16
HETATM   16  N   UNL     1     -42.043 -52.980  12.751  1.00  0.00     0.090 N 
HETATM   17  C   UNL     1     -43.500 -52.759  12.726  1.00  0.00     0.272 C 
HETATM   18  C   UNL     1     -44.277 -54.072  12.663  1.00  0.00     0.030 C 
HETATM   19  C   UNL     1     -44.671 -54.636  14.020  1.00  0.00     0.002 C 
HETATM   20  C   UNL     1     -43.620 -54.515  15.116  1.00  0.00     0.002 C 
HETATM   21  C   UNL     1     -42.186 -54.711  14.637  1.00  0.00     0.030 C 
HETATM   22  C   UNL     1     -41.554 -53.433  14.066  1.00  0.00     0.272 C 
ENDBRANCH  15  16
ENDBRANCH  14  15
ENDBRANCH   3  14
TORSDOF 5
ENDMDL
MODEL 4
REMARK VINA RESULT:      -5.6      2.808      3.864
REMARK  5 active torsions:
REMARK  status: ('A' for Active; 'I' for Inactive)
REMARK    1  A    between atoms: C_2  and  C_3 
REMARK    2  A    between atoms: C_2  and  N_15 
REMARK       I    between atoms: C_3  and  N_5 
REMARK    3  A    between atoms: N_5  and  C_6 
REMARK    4  A    between atoms: C_6  and  C_7 
REMARK    5  A    between atoms: C_7  and  N_8 
ROOT
HETATM    1  C   UNL     1     -42.275 -48.432  11.455  1.00  0.00     0.242 C 
HETATM    2  O   UNL     1     -42.622 -47.955  12.534  1.00  0.00    -0.271 OA
HETATM    3  N   UNL     1     -41.860 -49.746  11.317  1.00  0.00    -0.358 N 
HETATM    4  H   UNL     1     -41.864 -50.141  10.375  1.00  0.00     0.162 HD
ENDROOT
BRANCH   1   5
HETATM    5  C   UNL     1     -42.204 -47.596  10.182  1.00  0.00     0.196 C 
HETATM    6  C   UNL     1     -41.758 -46.165  10.489  1.00  0.00     0.044 C 
BRANCH   5   7
HETATM    7  N   UNL     1     -43.471 -47.666   9.479  1.00  0.00    -0.273 N 
HETATM    8  C   UNL     1     -43.714 -47.762   8.144  1.00  0.00     0.202 A 
HETATM    9  N   UNL     1     -45.009 -47.770   7.932  1.00  0.00    -0.346 N 
HETATM   10  C   UNL     1     -45.531 -47.655   9.188  1.00  0.00     0.198 A 
ATOM     11  HN  UNL     1     -45.506 -47.844   7.044  1.00  0.00     0.167 HD
HETATM   12  N   UNL     1     -44.631 -47.568  10.172  1.00  0.00    -0.292 N 
ATOM     13  HN  UNL     1     -44.777 -47.458  11.176  1.00  0.00     0.188 HD
ENDBRANCH   5   7
ENDBRANCH   1   5
BRANCH   3  14
HETATM   14  C   UNL     1     -41.939 -50.655  12.449  1.00  0.00     0.152 C 
BRANCH  14  15
HETATM   15  C   UNL     1     -41.474 -52.084  12.106  1.00  0.00     0.292 C 
BRANCH  15  16
HETATM   16  N   UNL     1     -40.344 -52.580  12.933  1.00  0.00     0.090 N 
HETATM   17  C   UNL     1     -40.625 -53.922  13.475  1.00  0.00     0.272 C 
HETATM   18  C   UNL     1     -39.351 -54.640  13.916  1.00  0.00     0.030 C 
HETATM   19  C   UNL     1     -38.986 -54.434  15.379  1.00  0.00     0.002 C 
HETATM   20  C   UNL     1     -39.201 -53.027  15.922  1.00  0.00     0.002 C 
HETATM   21  C   UNL     1     -38.880 -51.915  14.930  1.00  0.00     0.030 C 
HETATM   22  C   UNL     1     -40.044 -51.589  13.982  1.00  0.00     0.272 C 
ENDBRANCH  15  16
ENDBRANCH  14  15
ENDBRANCH   3  14
TORSDOF 5
ENDMDL
MODEL 5
REMARK VINA RESULT:      -5.5      2.169      3.180
REMARK  5 active torsions:
REMARK  status: ('A' for Active; 'I' for Inactive)
REMARK    1  A    between atoms: C_2  and  C_3 
REMARK    2  A    between atoms: C_2  and  N_15 
REMARK       I    between atoms: C_3  and  N_5 
REMARK    3  A    between atoms: N_5  and  C_6 
REMARK    4  A    between atoms: C_6  and  C_7 
REMARK    5  A    between atoms: C_7  and  N_8 
ROOT
HETATM    1  C   UNL     1     -41.305 -51.591  12.724  1.00  0.00     0.242 C 
HETATM    2  O   UNL     1     -41.906 -50.976  13.603  1.00  0.00    -0.271 OA
HETATM    3  N   UNL     1     -41.596 -52.906  12.400  1.00  0.00    -0.358 N 
HETATM    4  H   UNL     1     -41.267 -53.248  11.496  1.00  0.00     0.162 HD
ENDROOT
BRANCH   1   5
HETATM    5  C   UNL     1     -40.137 -50.981  11.958  1.00  0.00     0.196 C 
HETATM    6  C   UNL     1     -38.864 -50.981  12.807  1.00  0.00     0.044 C 
BRANCH   5   7
HETATM    7  N   UNL     1     -40.506 -49.664  11.471  1.00  0.00    -0.273 N 
HETATM    8  C   UNL     1     -39.816 -48.495  11.540  1.00  0.00     0.202 A 
HETATM    9  N   UNL     1     -40.527 -47.532  10.999  1.00  0.00    -0.346 N 
HETATM   10  C   UNL     1     -41.675 -48.168  10.624  1.00  0.00     0.198 A 
ATOM     11  HN  UNL     1     -40.281 -46.548  10.887  1.00  0.00     0.167 HD
HETATM   12  N   UNL     1     -41.722 -49.472  10.908  1.00  0.00    -0.292 N 
ATOM     13  HN  UNL     1     -42.472 -50.144  10.744  1.00  0.00     0.188 HD
ENDBRANCH   5   7
ENDBRANCH   1   5
BRANCH   3  14
HETATM   14  C   UNL     1     -42.727 -53.575  13.023  1.00  0.00     0.152 C 
BRANCH  14  15
HETATM   15  C   UNL     1     -44.033 -53.424  12.217  1.00  0.00     0.292 C 
BRANCH  15  16
HETATM   16  N   UNL     1     -45.244 -53.192  13.045  1.00  0.00     0.090 N 
HETATM   17  C   UNL     1     -45.316 -51.795  13.510  1.00  0.00     0.272 C 
HETATM   18  C   UNL     1     -46.728 -51.407  13.943  1.00  0.00     0.030 C 
HETATM   19  C   UNL     1     -47.013 -51.619  15.423  1.00  0.00     0.002 C 
HETATM   20  C   UNL     1     -46.435 -52.889  16.033  1.00  0.00     0.002 C 
HETATM   21  C   UNL     1     -46.466 -54.100  15.107  1.00  0.00     0.030 C 
HETATM   22  C   UNL     1     -45.267 -54.166  14.150  1.00  0.00     0.272 C 
ENDBRANCH  15  16
ENDBRANCH  14  15
ENDBRANCH   3  14
TORSDOF 5
ENDMDL
MODEL 6
REMARK VINA RESULT:      -5.5      3.898      4.634
REMARK  5 active torsions:
REMARK  status: ('A' for Active; 'I' for Inactive)
REMARK    1  A    between atoms: C_2  and  C_3 
REMARK    2  A    between atoms: C_2  and  N_15 
REMARK       I    between atoms: C_3  and  N_5 
REMARK    3  A    between atoms: N_5  and  C_6 
REMARK    4  A    between atoms: C_6  and  C_7 
REMARK    5  A    between atoms: C_7  and  N_8 
ROOT
HETATM    1  C   UNL     1     -40.478 -52.398  13.428  1.00  0.00     0.242 C 
HETATM    2  O   UNL     1     -40.056 -53.122  12.529  1.00  0.00    -0.271 OA
HETATM    3  N   UNL     1     -41.640 -52.677  14.129  1.00  0.00    -0.358 N 
HETATM    4  H   UNL     1     -41.770 -52.204  15.025  1.00  0.00     0.162 HD
ENDROOT
BRANCH   1   5
HETATM    5  C   UNL     1     -39.795 -51.088  13.805  1.00  0.00     0.196 C 
HETATM    6  C   UNL     1     -40.816 -50.057  14.293  1.00  0.00     0.044 C 
BRANCH   5   7
HETATM    7  N   UNL     1     -38.988 -50.619  12.694  1.00  0.00    -0.273 N 
HETATM    8  C   UNL     1     -39.350 -49.865  11.622  1.00  0.00     0.202 A 
HETATM    9  N   UNL     1     -38.313 -49.691  10.836  1.00  0.00    -0.346 N 
HETATM   10  C   UNL     1     -37.324 -50.388  11.468  1.00  0.00     0.198 A 
ATOM     11  HN  UNL     1     -38.259 -49.164   9.964  1.00  0.00     0.167 HD
HETATM   12  N   UNL     1     -37.690 -50.993  12.602  1.00  0.00    -0.292 N 
ATOM     13  HN  UNL     1     -37.139 -51.578  13.230  1.00  0.00     0.188 HD
ENDBRANCH   5   7
ENDBRANCH   1   5
BRANCH   3  14
HETATM   14  C   UNL     1     -42.346 -53.926  13.897  1.00  0.00     0.152 C 
BRANCH  14  15
HETATM   15  C   UNL     1     -43.432 -53.810  12.809  1.00  0.00     0.292 C 
BRANCH  15  16
HETATM   16  N   UNL     1     -44.778 -53.442  13.318  1.00  0.00     0.090 N 
HETATM   17  C   UNL     1     -44.946 -51.980  13.385  1.00  0.00     0.272 C 
HETATM   18  C   UNL     1     -46.416 -51.573  13.444  1.00  0.00     0.030 C 
HETATM   19  C   UNL     1     -46.970 -51.418  14.853  1.00  0.00     0.002 C 
HETATM   20  C   UNL     1     -46.508 -52.459  15.864  1.00  0.00     0.002 C 
HETATM   21  C   UNL     1     -46.357 -53.865  15.294  1.00  0.00     0.030 C 
HETATM   22  C   UNL     1     -45.000 -54.105  14.616  1.00  0.00     0.272 C 
ENDBRANCH  15  16
ENDBRANCH  14  15
ENDBRANCH   3  14
TORSDOF 5
ENDMDL
MODEL 7
REMARK VINA RESULT:      -5.4      1.932      2.787
REMARK  5 active torsions:
REMARK  status: ('A' for Active; 'I' for Inactive)
REMARK    1  A    between atoms: C_2  and  C_3 
REMARK    2  A    between atoms: C_2  and  N_15 
REMARK       I    between atoms: C_3  and  N_5 
REMARK    3  A    between atoms: N_5  and  C_6 
REMARK    4  A    between atoms: C_6  and  C_7 
REMARK    5  A    between atoms: C_7  and  N_8 
ROOT
HETATM    1  C   UNL     1     -41.594 -48.956  11.180  1.00  0.00     0.242 C 
HETATM    2  O   UNL     1     -40.482 -49.102  10.676  1.00  0.00    -0.271 OA
HETATM    3  N   UNL     1     -42.260 -49.981  11.832  1.00  0.00    -0.358 N 
HETATM    4  H   UNL     1     -43.024 -49.719  12.456  1.00  0.00     0.162 HD
ENDROOT
BRANCH   1   5
HETATM    5  C   UNL     1     -42.371 -47.649  11.069  1.00  0.00     0.196 C 
HETATM    6  C   UNL     1     -43.208 -47.400  12.325  1.00  0.00     0.044 C 
BRANCH   5   7
HETATM    7  N   UNL     1     -43.152 -47.646   9.846  1.00  0.00    -0.273 N 
HETATM    8  C   UNL     1     -44.471 -47.371   9.665  1.00  0.00     0.202 A 
HETATM    9  N   UNL     1     -44.781 -47.512   8.397  1.00  0.00    -0.346 N 
HETATM   10  C   UNL     1     -43.600 -47.901   7.831  1.00  0.00     0.198 A 
ATOM     11  HN  UNL     1     -45.683 -47.366   7.944  1.00  0.00     0.167 HD
HETATM   12  N   UNL     1     -42.574 -48.017   8.679  1.00  0.00    -0.292 N 
ATOM     13  HN  UNL     1     -41.613 -48.308   8.496  1.00  0.00     0.188 HD
ENDBRANCH   5   7
ENDBRANCH   1   5
BRANCH   3  14
HETATM   14  C   UNL     1     -41.595 -51.256  12.050  1.00  0.00     0.152 C 
BRANCH  14  15
HETATM   15  C   UNL     1     -42.580 -52.407  12.334  1.00  0.00     0.292 C 
BRANCH  15  16
HETATM   16  N   UNL     1     -42.501 -52.961  13.710  1.00  0.00     0.090 N 
HETATM   17  C   UNL     1     -41.203 -53.617  13.950  1.00  0.00     0.272 C 
HETATM   18  C   UNL     1     -40.905 -53.771  15.440  1.00  0.00     0.030 C 
HETATM   19  C   UNL     1     -41.365 -55.092  16.040  1.00  0.00     0.002 C 
HETATM   20  C   UNL     1     -42.715 -55.604  15.555  1.00  0.00     0.002 C 
HETATM   21  C   UNL     1     -43.754 -54.513  15.320  1.00  0.00     0.030 C 
HETATM   22  C   UNL     1     -43.648 -53.859  13.935  1.00  0.00     0.272 C 
ENDBRANCH  15  16
ENDBRANCH  14  15
ENDBRANCH   3  14
TORSDOF 5
ENDMDL
MODEL 8
REMARK VINA RESULT:      -5.3      2.731      3.308
REMARK  5 active torsions:
REMARK  status: ('A' for Active; 'I' for Inactive)
REMARK    1  A    between atoms: C_2  and  C_3 
REMARK    2  A    between atoms: C_2  and  N_15 
REMARK       I    between atoms: C_3  and  N_5 
REMARK    3  A    between atoms: N_5  and  C_6 
REMARK    4  A    between atoms: C_6  and  C_7 
REMARK    5  A    between atoms: C_7  and  N_8 
ROOT
HETATM    1  C   UNL     1     -40.425 -49.995  11.661  1.00  0.00     0.242 C 
HETATM    2  O   UNL     1     -41.551 -49.544  11.465  1.00  0.00    -0.271 OA
HETATM    3  N   UNL     1     -40.188 -51.340  11.894  1.00  0.00    -0.358 N 
HETATM    4  H   UNL     1     -39.233 -51.676  11.765  1.00  0.00     0.162 HD
ENDROOT
BRANCH   1   5
HETATM    5  C   UNL     1     -39.192 -49.101  11.734  1.00  0.00     0.196 C 
HETATM    6  C   UNL     1     -38.287 -49.508  12.899  1.00  0.00     0.044 C 
BRANCH   5   7
HETATM    7  N   UNL     1     -39.600 -47.709  11.780  1.00  0.00    -0.273 N 
HETATM    8  C   UNL     1     -39.651 -46.859  12.840  1.00  0.00     0.202 A 
HETATM    9  N   UNL     1     -40.106 -45.691  12.446  1.00  0.00    -0.346 N 
HETATM   10  C   UNL     1     -40.343 -45.883  11.116  1.00  0.00     0.198 A 
ATOM     11  HN  UNL     1     -40.247 -44.846  13.000  1.00  0.00     0.167 HD
HETATM   12  N   UNL     1     -40.068 -47.109  10.659  1.00  0.00    -0.292 N 
ATOM     13  HN  UNL     1     -40.180 -47.490   9.720  1.00  0.00     0.188 HD
ENDBRANCH   5   7
ENDBRANCH   1   5
BRANCH   3  14
HETATM   14  C   UNL     1     -41.278 -52.297  11.792  1.00  0.00     0.152 C 
BRANCH  14  15
HETATM   15  C   UNL     1     -41.994 -52.538  13.136  1.00  0.00     0.292 C 
BRANCH  15  16
HETATM   16  N   UNL     1     -43.473 -52.623  13.040  1.00  0.00     0.090 N 
HETATM   17  C   UNL     1     -44.119 -51.441  13.637  1.00  0.00     0.272 C 
HETATM   18  C   UNL     1     -45.557 -51.266  13.152  1.00  0.00     0.030 C 
HETATM   19  C   UNL     1     -46.603 -51.933  14.034  1.00  0.00     0.002 C 
HETATM   20  C   UNL     1     -46.228 -53.303  14.584  1.00  0.00     0.002 C 
HETATM   21  C   UNL     1     -45.432 -54.173  13.618  1.00  0.00     0.030 C 
HETATM   22  C   UNL     1     -43.924 -53.890  13.645  1.00  0.00     0.272 C 
ENDBRANCH  15  16
ENDBRANCH  14  15
ENDBRANCH   3  14
TORSDOF 5
ENDMDL
MODEL 9
REMARK VINA RESULT:      -5.3      2.037      2.959
REMARK  5 active torsions:
REMARK  status: ('A' for Active; 'I' for Inactive)
REMARK    1  A    between atoms: C_2  and  C_3 
REMARK    2  A    between atoms: C_2  and  N_15 
REMARK       I    between atoms: C_3  and  N_5 
REMARK    3  A    between atoms: N_5  and  C_6 
REMARK    4  A    between atoms: C_6  and  C_7 
REMARK    5  A    between atoms: C_7  and  N_8 
ROOT
HETATM    1  C   UNL     1     -41.084 -48.365  11.647  1.00  0.00     0.242 C 
HETATM    2  O   UNL     1     -40.128 -48.125  12.383  1.00  0.00    -0.271 OA
HETATM    3  N   UNL     1     -41.427 -49.651  11.263  1.00  0.00    -0.358 N 
HETATM    4  H   UNL     1     -42.370 -49.794  10.900  1.00  0.00     0.162 HD
ENDROOT
BRANCH   1   5
HETATM    5  C   UNL     1     -41.935 -47.259  11.035  1.00  0.00     0.196 C 
HETATM    6  C   UNL     1     -42.602 -47.732   9.742  1.00  0.00     0.044 C 
BRANCH   5   7
HETATM    7  N   UNL     1     -41.135 -46.061  10.866  1.00  0.00    -0.273 N 
HETATM    8  C   UNL     1     -41.422 -44.776  11.206  1.00  0.00     0.202 A 
HETATM    9  N   UNL     1     -40.429 -43.993  10.851  1.00  0.00    -0.346 N 
HETATM   10  C   UNL     1     -39.547 -44.858  10.268  1.00  0.00     0.198 A 
ATOM     11  HN  UNL     1     -40.339 -42.986  10.979  1.00  0.00     0.167 HD
HETATM   12  N   UNL     1     -39.940 -46.134  10.234  1.00  0.00    -0.292 N 
ATOM     13  HN  UNL     1     -39.466 -46.947   9.838  1.00  0.00     0.188 HD
ENDBRANCH   5   7
ENDBRANCH   1   5
BRANCH   3  14
HETATM   14  C   UNL     1     -40.723 -50.790  11.828  1.00  0.00     0.152 C 
BRANCH  14  15
HETATM   15  C   UNL     1     -41.437 -51.389  13.057  1.00  0.00     0.292 C 
BRANCH  15  16
HETATM   16  N   UNL     1     -42.846 -51.790  12.815  1.00  0.00     0.090 N 
HETATM   17  C   UNL     1     -43.761 -51.135  13.768  1.00  0.00     0.272 C 
HETATM   18  C   UNL     1     -45.206 -51.143  13.273  1.00  0.00     0.030 C 
HETATM   19  C   UNL     1     -46.025 -52.337  13.742  1.00  0.00     0.002 C 
HETATM   20  C   UNL     1     -45.298 -53.675  13.751  1.00  0.00     0.002 C 
HETATM   21  C   UNL     1     -44.327 -53.871  12.592  1.00  0.00     0.030 C 
HETATM   22  C   UNL     1     -42.942 -53.261  12.848  1.00  0.00     0.272 C 
ENDBRANCH  15  16
ENDBRANCH  14  15
ENDBRANCH   3  14
TORSDOF 5
ENDMDL
