MODEL 1
REMARK VINA RESULT:      -5.4      0.000      0.000
REMARK  7 active torsions:
REMARK  status: ('A' for Active; 'I' for Inactive)
REMARK    1  A    between atoms: O_2  and  C_3 
REMARK    2  A    between atoms: C_3  and  C_4 
REMARK    3  A    between atoms: C_4  and  N_5 
REMARK    4  A    between atoms: N_5  and  C_6 
REMARK    5  A    between atoms: N_18  and  C_19 
REMARK    6  A    between atoms: C_19  and  C_20 
REMARK    7  A    between atoms: C_20  and  O_21 
ROOT
HETATM    1  C   UNL     1     -42.316 -52.581  12.177  1.00  0.00     0.682 A 
HETATM    2  N   UNL     1     -43.504 -52.021  12.239  1.00  0.00    -0.174 N 
ATOM      3  HN  UNL     1     -43.824 -51.184  11.753  1.00  0.00     0.186 HD
HETATM    4  C   UNL     1     -44.214 -52.806  13.095  1.00  0.00     0.160 A 
HETATM    5  N   UNL     1     -45.541 -52.641  13.440  1.00  0.00    -0.287 N 
HETATM    6  C   UNL     1     -46.373 -51.616  12.850  1.00  0.00     0.163 C 
HETATM    7  C   UNL     1     -46.104 -53.515  14.365  1.00  0.00     0.330 A 
HETATM    8  O   UNL     1     -47.281 -53.452  14.735  1.00  0.00    -0.246 OA
HETATM    9  N   UNL     1     -45.288 -54.497  14.887  1.00  0.00    -0.273 N 
HETATM   10  C   UNL     1     -43.969 -54.742  14.568  1.00  0.00     0.280 A 
HETATM   11  O   UNL     1     -43.346 -55.671  15.069  1.00  0.00    -0.265 OA
HETATM   12  C   UNL     1     -43.454 -53.821  13.613  1.00  0.00     0.164 A 
HETATM   13  N   UNL     1     -42.228 -53.679  13.018  1.00  0.00    -0.172 N 
HETATM   14  H   UNL     1     -45.712 -55.117  15.557  1.00  0.00     0.173 HD
ENDROOT
BRANCH   1  15
HETATM   15  N   UNL     1     -41.229 -52.181  11.486  1.00  0.00    -0.224 N 
HETATM   16  H   UNL     1     -41.198 -52.455  10.501  1.00  0.00     0.177 HD
BRANCH  15  17
HETATM   17  C   UNL     1     -40.754 -50.810  11.645  1.00  0.00     0.164 C 
BRANCH  17  18
HETATM   18  C   UNL     1     -39.753 -50.763  12.810  1.00  0.00     0.187 C 
BRANCH  18  19
HETATM   19  O   UNL     1     -38.636 -51.606  12.497  1.00  0.00    -0.394 OA
HETATM   20  C   UNL     1     -37.403 -51.002  12.866  1.00  0.00     0.201 C 
ENDBRANCH  18  19
ENDBRANCH  17  18
ENDBRANCH  15  17
ENDBRANCH   1  15
BRANCH  13  21
HETATM   21  C   UNL     1     -41.009 -54.431  13.270  1.00  0.00     0.174 C 
BRANCH  21  22
HETATM   22  C   UNL     1     -40.302 -53.973  14.547  1.00  0.00     0.187 C 
BRANCH  22  23
HETATM   23  O   UNL     1     -39.372 -54.951  15.017  1.00  0.00    -0.394 OA
HETATM   24  C   UNL     1     -39.876 -55.565  16.203  1.00  0.00     0.201 C 
ENDBRANCH  22  23
ENDBRANCH  21  22
ENDBRANCH  13  21
TORSDOF 7
ENDMDL
MODEL 2
REMARK VINA RESULT:      -5.3      4.030      6.714
REMARK  7 active torsions:
REMARK  status: ('A' for Active; 'I' for Inactive)
REMARK    1  A    between atoms: O_2  and  C_3 
REMARK    2  A    between atoms: C_3  and  C_4 
REMARK    3  A    between atoms: C_4  and  N_5 
REMARK    4  A    between atoms: N_5  and  C_6 
REMARK    5  A    between atoms: N_18  and  C_19 
REMARK    6  A    between atoms: C_19  and  C_20 
REMARK    7  A    between atoms: C_20  and  O_21 
ROOT
HETATM    1  C   UNL     1     -41.017 -49.671  11.341  1.00  0.00     0.682 A 
HETATM    2  N   UNL     1     -41.728 -49.024  10.444  1.00  0.00    -0.174 N 
ATOM      3  HN  UNL     1     -42.204 -49.412   9.629  1.00  0.00     0.186 HD
HETATM    4  C   UNL     1     -41.690 -47.723  10.842  1.00  0.00     0.160 A 
HETATM    5  N   UNL     1     -42.338 -46.666  10.232  1.00  0.00    -0.287 N 
HETATM    6  C   UNL     1     -43.219 -46.848   9.101  1.00  0.00     0.163 C 
HETATM    7  C   UNL     1     -42.160 -45.387  10.749  1.00  0.00     0.330 A 
HETATM    8  O   UNL     1     -42.697 -44.379  10.278  1.00  0.00    -0.246 OA
HETATM    9  N   UNL     1     -41.333 -45.256  11.845  1.00  0.00    -0.273 N 
HETATM   10  C   UNL     1     -40.681 -46.265  12.523  1.00  0.00     0.280 A 
HETATM   11  O   UNL     1     -39.996 -46.037  13.514  1.00  0.00    -0.265 OA
HETATM   12  C   UNL     1     -40.908 -47.547  11.952  1.00  0.00     0.164 A 
HETATM   13  N   UNL     1     -40.476 -48.806  12.278  1.00  0.00    -0.172 N 
HETATM   14  H   UNL     1     -41.213 -44.322  12.202  1.00  0.00     0.173 HD
ENDROOT
BRANCH   1  15
HETATM   15  N   UNL     1     -40.720 -50.986  11.396  1.00  0.00    -0.224 N 
HETATM   16  H   UNL     1     -39.750 -51.217  11.623  1.00  0.00     0.177 HD
BRANCH  15  17
HETATM   17  C   UNL     1     -41.633 -51.890  12.088  1.00  0.00     0.164 C 
BRANCH  17  18
HETATM   18  C   UNL     1     -40.874 -53.174  12.458  1.00  0.00     0.187 C 
BRANCH  18  19
HETATM   19  O   UNL     1     -39.603 -52.818  13.018  1.00  0.00    -0.394 OA
HETATM   20  C   UNL     1     -39.649 -52.770  14.438  1.00  0.00     0.201 C 
ENDBRANCH  18  19
ENDBRANCH  17  18
ENDBRANCH  15  17
ENDBRANCH   1  15
BRANCH  13  21
HETATM   21  C   UNL     1     -39.539 -49.198  13.320  1.00  0.00     0.174 C 
BRANCH  21  22
HETATM   22  C   UNL     1     -38.087 -49.145  12.841  1.00  0.00     0.187 C 
BRANCH  22  23
HETATM   23  O   UNL     1     -37.702 -50.355  12.187  1.00  0.00    -0.394 OA
HETATM   24  C   UNL     1     -37.174 -50.058  10.895  1.00  0.00     0.201 C 
ENDBRANCH  22  23
ENDBRANCH  21  22
ENDBRANCH  13  21
TORSDOF 7
ENDMDL
MODEL 3
REMARK VINA RESULT:      -5.3      2.736      4.828
REMARK  7 active torsions:
REMARK  status: ('A' for Active; 'I' for Inactive)
REMARK    1  A    between atoms: O_2  and  C_3 
REMARK    2  A    between atoms: C_3  and  C_4 
REMARK    3  A    between atoms: C_4  and  N_5 
REMARK    4  A    between atoms: N_5  and  C_6 
REMARK    5  A    between atoms: N_18  and  C_19 
REMARK    6  A    between atoms: C_19  and  C_20 
REMARK    7  A    between atoms: C_20  and  O_21 
ROOT
HETATM    1  C   UNL     1     -40.915 -50.369  11.480  1.00  0.00     0.682 A 
HETATM    2  N   UNL     1     -42.074 -50.921  11.767  1.00  0.00    -0.174 N 
ATOM      3  HN  UNL     1     -43.000 -50.611  11.474  1.00  0.00     0.186 HD
HETATM    4  C   UNL     1     -41.764 -51.998  12.539  1.00  0.00     0.160 A 
HETATM    5  N   UNL     1     -42.660 -52.920  13.046  1.00  0.00    -0.287 N 
HETATM    6  C   UNL     1     -44.072 -52.878  12.739  1.00  0.00     0.163 C 
HETATM    7  C   UNL     1     -42.177 -53.944  13.854  1.00  0.00     0.330 A 
HETATM    8  O   UNL     1     -42.895 -54.818  14.352  1.00  0.00    -0.246 OA
HETATM    9  N   UNL     1     -40.820 -53.968  14.104  1.00  0.00    -0.273 N 
HETATM   10  C   UNL     1     -39.865 -53.105  13.609  1.00  0.00     0.280 A 
HETATM   11  O   UNL     1     -38.676 -53.242  13.867  1.00  0.00    -0.265 OA
HETATM   12  C   UNL     1     -40.420 -52.086  12.785  1.00  0.00     0.164 A 
HETATM   13  N   UNL     1     -39.870 -51.036  12.098  1.00  0.00    -0.172 N 
HETATM   14  H   UNL     1     -40.490 -54.714  14.693  1.00  0.00     0.173 HD
ENDROOT
BRANCH   1  15
HETATM   15  N   UNL     1     -40.665 -49.256  10.761  1.00  0.00    -0.224 N 
HETATM   16  H   UNL     1     -40.568 -49.387   9.751  1.00  0.00     0.177 HD
BRANCH  15  17
HETATM   17  C   UNL     1     -41.428 -48.044  11.043  1.00  0.00     0.164 C 
BRANCH  17  18
HETATM   18  C   UNL     1     -42.463 -47.837   9.927  1.00  0.00     0.187 C 
BRANCH  18  19
HETATM   19  O   UNL     1     -43.767 -47.738  10.515  1.00  0.00    -0.394 OA
HETATM   20  C   UNL     1     -44.753 -47.389   9.552  1.00  0.00     0.201 C 
ENDBRANCH  18  19
ENDBRANCH  17  18
ENDBRANCH  15  17
ENDBRANCH   1  15
BRANCH  13  21
HETATM   21  C   UNL     1     -38.484 -50.594  12.082  1.00  0.00     0.174 C 
BRANCH  21  22
HETATM   22  C   UNL     1     -38.144 -49.714  13.286  1.00  0.00     0.187 C 
BRANCH  22  23
HETATM   23  O   UNL     1     -38.564 -48.363  13.089  1.00  0.00    -0.394 OA
HETATM   24  C   UNL     1     -39.383 -47.948  14.182  1.00  0.00     0.201 C 
ENDBRANCH  22  23
ENDBRANCH  21  22
ENDBRANCH  13  21
TORSDOF 7
ENDMDL
MODEL 4
REMARK VINA RESULT:      -5.2      4.347      7.328
REMARK  7 active torsions:
REMARK  status: ('A' for Active; 'I' for Inactive)
REMARK    1  A    between atoms: O_2  and  C_3 
REMARK    2  A    between atoms: C_3  and  C_4 
REMARK    3  A    between atoms: C_4  and  N_5 
REMARK    4  A    between atoms: N_5  and  C_6 
REMARK    5  A    between atoms: N_18  and  C_19 
REMARK    6  A    between atoms: C_19  and  C_20 
REMARK    7  A    between atoms: C_20  and  O_21 
ROOT
HETATM    1  C   UNL     1     -42.356 -48.195  11.558  1.00  0.00     0.682 A 
HETATM    2  N   UNL     1     -42.588 -49.483  11.679  1.00  0.00    -0.174 N 
ATOM      3  HN  UNL     1     -43.457 -49.980  11.484  1.00  0.00     0.186 HD
HETATM    4  C   UNL     1     -41.413 -50.009  12.120  1.00  0.00     0.160 A 
HETATM    5  N   UNL     1     -41.154 -51.347  12.349  1.00  0.00    -0.287 N 
HETATM    6  C   UNL     1     -42.123 -52.382  12.065  1.00  0.00     0.163 C 
HETATM    7  C   UNL     1     -39.904 -51.711  12.839  1.00  0.00     0.330 A 
HETATM    8  O   UNL     1     -39.576 -52.879  13.073  1.00  0.00    -0.246 OA
HETATM    9  N   UNL     1     -38.996 -50.699  13.073  1.00  0.00    -0.273 N 
HETATM   10  C   UNL     1     -39.171 -49.351  12.839  1.00  0.00     0.280 A 
HETATM   11  O   UNL     1     -38.278 -48.539  13.050  1.00  0.00    -0.265 OA
HETATM   12  C   UNL     1     -40.464 -49.044  12.332  1.00  0.00     0.164 A 
HETATM   13  N   UNL     1     -41.071 -47.871  11.966  1.00  0.00    -0.172 N 
HETATM   14  H   UNL     1     -38.099 -50.981  13.431  1.00  0.00     0.173 HD
ENDROOT
BRANCH   1  15
HETATM   15  N   UNL     1     -43.202 -47.216  11.179  1.00  0.00    -0.224 N 
HETATM   16  H   UNL     1     -42.797 -46.280  11.095  1.00  0.00     0.177 HD
BRANCH  15  17
HETATM   17  C   UNL     1     -44.128 -47.467  10.079  1.00  0.00     0.164 C 
BRANCH  17  18
HETATM   18  C   UNL     1     -44.089 -46.273   9.114  1.00  0.00     0.187 C 
BRANCH  18  19
HETATM   19  O   UNL     1     -43.270 -46.612   7.987  1.00  0.00    -0.394 OA
HETATM   20  C   UNL     1     -43.478 -47.955   7.572  1.00  0.00     0.201 C 
ENDBRANCH  18  19
ENDBRANCH  17  18
ENDBRANCH  15  17
ENDBRANCH   1  15
BRANCH  13  21
HETATM   21  C   UNL     1     -40.556 -46.515  12.076  1.00  0.00     0.174 C 
BRANCH  21  22
HETATM   22  C   UNL     1     -40.035 -45.985  10.739  1.00  0.00     0.187 C 
BRANCH  22  23
HETATM   23  O   UNL     1     -40.967 -45.093  10.124  1.00  0.00    -0.394 OA
HETATM   24  C   UNL     1     -41.379 -44.103  11.065  1.00  0.00     0.201 C 
ENDBRANCH  22  23
ENDBRANCH  21  22
ENDBRANCH  13  21
TORSDOF 7
ENDMDL
MODEL 5
REMARK VINA RESULT:      -5.2      3.948      6.789
REMARK  7 active torsions:
REMARK  status: ('A' for Active; 'I' for Inactive)
REMARK    1  A    between atoms: O_2  and  C_3 
REMARK    2  A    between atoms: C_3  and  C_4 
REMARK    3  A    between atoms: C_4  and  N_5 
REMARK    4  A    between atoms: N_5  and  C_6 
REMARK    5  A    between atoms: N_18  and  C_19 
REMARK    6  A    between atoms: C_19  and  C_20 
REMARK    7  A    between atoms: C_20  and  O_21 
ROOT
HETATM    1  C   UNL     1     -41.378 -49.661  12.016  1.00  0.00     0.682 A 
HETATM    2  N   UNL     1     -42.484 -49.333  11.383  1.00  0.00    -0.174 N 
ATOM      3  HN  UNL     1     -43.328 -49.895  11.274  1.00  0.00     0.186 HD
HETATM    4  C   UNL     1     -42.253 -48.081  10.905  1.00  0.00     0.160 A 
HETATM    5  N   UNL     1     -43.152 -47.297  10.207  1.00  0.00    -0.287 N 
HETATM    6  C   UNL     1     -44.514 -47.715   9.961  1.00  0.00     0.163 C 
HETATM    7  C   UNL     1     -42.738 -46.048   9.755  1.00  0.00     0.330 A 
HETATM    8  O   UNL     1     -43.467 -45.274   9.126  1.00  0.00    -0.246 OA
HETATM    9  N   UNL     1     -41.440 -45.673  10.031  1.00  0.00    -0.273 N 
HETATM   10  C   UNL     1     -40.499 -46.385  10.746  1.00  0.00     0.280 A 
HETATM   11  O   UNL     1     -39.380 -45.936  10.965  1.00  0.00    -0.265 OA
HETATM   12  C   UNL     1     -40.985 -47.647  11.187  1.00  0.00     0.164 A 
HETATM   13  N   UNL     1     -40.420 -48.666  11.908  1.00  0.00    -0.172 N 
HETATM   14  H   UNL     1     -41.158 -44.768   9.692  1.00  0.00     0.173 HD
ENDROOT
BRANCH   1  15
HETATM   15  N   UNL     1     -41.077 -50.813  12.649  1.00  0.00    -0.224 N 
HETATM   16  H   UNL     1     -41.123 -50.789  13.671  1.00  0.00     0.177 HD
BRANCH  15  17
HETATM   17  C   UNL     1     -41.636 -52.064  12.147  1.00  0.00     0.164 C 
BRANCH  17  18
HETATM   18  C   UNL     1     -42.114 -52.909  13.338  1.00  0.00     0.187 C 
BRANCH  18  19
HETATM   19  O   UNL     1     -43.029 -53.906  12.863  1.00  0.00    -0.394 OA
HETATM   20  C   UNL     1     -44.265 -53.333  12.456  1.00  0.00     0.201 C 
ENDBRANCH  18  19
ENDBRANCH  17  18
ENDBRANCH  15  17
ENDBRANCH   1  15
BRANCH  13  21
HETATM   21  C   UNL     1     -39.051 -48.782  12.389  1.00  0.00     0.174 C 
BRANCH  21  22
HETATM   22  C   UNL     1     -38.183 -49.630  11.458  1.00  0.00     0.187 C 
BRANCH  22  23
HETATM   23  O   UNL     1     -38.025 -50.963  11.950  1.00  0.00    -0.394 OA
HETATM   24  C   UNL     1     -37.535 -50.927  13.290  1.00  0.00     0.201 C 
ENDBRANCH  22  23
ENDBRANCH  21  22
ENDBRANCH  13  21
TORSDOF 7
ENDMDL
MODEL 6
REMARK VINA RESULT:      -5.1      4.575      7.191
REMARK  7 active torsions:
REMARK  status: ('A' for Active; 'I' for Inactive)
REMARK    1  A    between atoms: O_2  and  C_3 
REMARK    2  A    between atoms: C_3  and  C_4 
REMARK    3  A    between atoms: C_4  and  N_5 
REMARK    4  A    between atoms: N_5  and  C_6 
REMARK    5  A    between atoms: N_18  and  C_19 
REMARK    6  A    between atoms: C_19  and  C_20 
REMARK    7  A    between atoms: C_20  and  O_21 
ROOT
HETATM    1  C   UNL     1     -40.920 -49.247  10.983  1.00  0.00     0.682 A 
HETATM    2  N   UNL     1     -41.938 -48.833  10.261  1.00  0.00    -0.174 N 
ATOM      3  HN  UNL     1     -42.584 -49.400   9.713  1.00  0.00     0.186 HD
HETATM    4  C   UNL     1     -41.941 -47.480  10.408  1.00  0.00     0.160 A 
HETATM    5  N   UNL     1     -42.864 -46.605   9.868  1.00  0.00    -0.287 N 
HETATM    6  C   UNL     1     -44.014 -47.058   9.118  1.00  0.00     0.163 C 
HETATM    7  C   UNL     1     -42.697 -45.241  10.085  1.00  0.00     0.330 A 
HETATM    8  O   UNL     1     -43.468 -44.380   9.648  1.00  0.00    -0.246 OA
HETATM    9  N   UNL     1     -41.603 -44.847  10.827  1.00  0.00    -0.273 N 
HETATM   10  C   UNL     1     -40.661 -45.661  11.422  1.00  0.00     0.280 A 
HETATM   11  O   UNL     1     -39.746 -45.203  12.095  1.00  0.00    -0.265 OA
HETATM   12  C   UNL     1     -40.892 -47.042  11.171  1.00  0.00     0.164 A 
HETATM   13  N   UNL     1     -40.233 -48.183  11.546  1.00  0.00    -0.172 N 
HETATM   14  H   UNL     1     -41.496 -43.856  10.970  1.00  0.00     0.173 HD
ENDROOT
BRANCH   1  15
HETATM   15  N   UNL     1     -40.463 -50.504  11.156  1.00  0.00    -0.224 N 
HETATM   16  H   UNL     1     -39.465 -50.594  11.364  1.00  0.00     0.177 HD
BRANCH  15  17
HETATM   17  C   UNL     1     -41.237 -51.432  11.974  1.00  0.00     0.164 C 
BRANCH  17  18
HETATM   18  C   UNL     1     -40.320 -52.024  13.056  1.00  0.00     0.187 C 
BRANCH  18  19
HETATM   19  O   UNL     1     -40.132 -53.421  12.793  1.00  0.00    -0.394 OA
HETATM   20  C   UNL     1     -41.275 -54.182  13.157  1.00  0.00     0.201 C 
ENDBRANCH  18  19
ENDBRANCH  17  18
ENDBRANCH  15  17
ENDBRANCH   1  15
BRANCH  13  21
HETATM   21  C   UNL     1     -38.988 -48.305  12.289  1.00  0.00     0.174 C 
BRANCH  21  22
HETATM   22  C   UNL     1     -39.226 -48.536  13.782  1.00  0.00     0.187 C 
BRANCH  22  23
HETATM   23  O   UNL     1     -39.194 -47.312  14.518  1.00  0.00    -0.394 OA
HETATM   24  C   UNL     1     -40.485 -47.043  15.064  1.00  0.00     0.201 C 
ENDBRANCH  22  23
ENDBRANCH  21  22
ENDBRANCH  13  21
TORSDOF 7
ENDMDL
MODEL 7
REMARK VINA RESULT:      -5.1      4.847      7.447
REMARK  7 active torsions:
REMARK  status: ('A' for Active; 'I' for Inactive)
REMARK    1  A    between atoms: O_2  and  C_3 
REMARK    2  A    between atoms: C_3  and  C_4 
REMARK    3  A    between atoms: C_4  and  N_5 
REMARK    4  A    between atoms: N_5  and  C_6 
REMARK    5  A    between atoms: N_18  and  C_19 
REMARK    6  A    between atoms: C_19  and  C_20 
REMARK    7  A    between atoms: C_20  and  O_21 
ROOT
HETATM    1  C   UNL     1     -40.724 -47.063  10.924  1.00  0.00     0.682 A 
HETATM    2  N   UNL     1     -39.678 -47.857  10.985  1.00  0.00    -0.174 N 
ATOM      3  HN  UNL     1     -38.739 -47.678  10.632  1.00  0.00     0.186 HD
HETATM    4  C   UNL     1     -40.124 -48.972  11.626  1.00  0.00     0.160 A 
HETATM    5  N   UNL     1     -39.365 -50.075  11.965  1.00  0.00    -0.287 N 
HETATM    6  C   UNL     1     -37.940 -50.135  11.730  1.00  0.00     0.163 C 
HETATM    7  C   UNL     1     -39.991 -51.151  12.587  1.00  0.00     0.330 A 
HETATM    8  O   UNL     1     -39.399 -52.179  12.932  1.00  0.00    -0.246 OA
HETATM    9  N   UNL     1     -41.347 -51.046  12.819  1.00  0.00    -0.273 N 
HETATM   10  C   UNL     1     -42.161 -49.970  12.538  1.00  0.00     0.280 A 
HETATM   11  O   UNL     1     -43.353 -49.971  12.823  1.00  0.00    -0.265 OA
HETATM   12  C   UNL     1     -41.462 -48.900  11.912  1.00  0.00     0.164 A 
HETATM   13  N   UNL     1     -41.850 -47.666  11.462  1.00  0.00    -0.172 N 
HETATM   14  H   UNL     1     -41.782 -51.837  13.266  1.00  0.00     0.173 HD
ENDROOT
BRANCH   1  15
HETATM   15  N   UNL     1     -40.825 -45.841  10.363  1.00  0.00    -0.224 N 
HETATM   16  H   UNL     1     -41.752 -45.409  10.391  1.00  0.00     0.177 HD
BRANCH  15  17
HETATM   17  C   UNL     1     -39.794 -44.846  10.643  1.00  0.00     0.164 C 
BRANCH  17  18
HETATM   18  C   UNL     1     -40.472 -43.543  11.096  1.00  0.00     0.187 C 
BRANCH  18  19
HETATM   19  O   UNL     1     -39.808 -43.058  12.271  1.00  0.00    -0.394 OA
HETATM   20  C   UNL     1     -39.072 -44.086  12.920  1.00  0.00     0.201 C 
ENDBRANCH  18  19
ENDBRANCH  17  18
ENDBRANCH  15  17
ENDBRANCH   1  15
BRANCH  13  21
HETATM   21  C   UNL     1     -43.188 -47.098  11.425  1.00  0.00     0.174 C 
BRANCH  21  22
HETATM   22  C   UNL     1     -43.966 -47.532  10.182  1.00  0.00     0.187 C 
BRANCH  22  23
HETATM   23  O   UNL     1     -43.527 -46.836   9.014  1.00  0.00    -0.394 OA
HETATM   24  C   UNL     1     -43.562 -47.714   7.888  1.00  0.00     0.201 C 
ENDBRANCH  22  23
ENDBRANCH  21  22
ENDBRANCH  13  21
TORSDOF 7
ENDMDL
MODEL 8
REMARK VINA RESULT:      -5.1      2.319      4.008
REMARK  7 active torsions:
REMARK  status: ('A' for Active; 'I' for Inactive)
REMARK    1  A    between atoms: O_2  and  C_3 
REMARK    2  A    between atoms: C_3  and  C_4 
REMARK    3  A    between atoms: C_4  and  N_5 
REMARK    4  A    between atoms: N_5  and  C_6 
REMARK    5  A    between atoms: N_18  and  C_19 
REMARK    6  A    between atoms: C_19  and  C_20 
REMARK    7  A    between atoms: C_20  and  O_21 
ROOT
HETATM    1  C   UNL     1     -41.134 -51.162  11.938  1.00  0.00     0.682 A 
HETATM    2  N   UNL     1     -42.212 -51.915  11.922  1.00  0.00    -0.174 N 
ATOM      3  HN  UNL     1     -42.957 -51.919  11.227  1.00  0.00     0.186 HD
HETATM    4  C   UNL     1     -42.112 -52.688  13.038  1.00  0.00     0.160 A 
HETATM    5  N   UNL     1     -42.997 -53.677  13.424  1.00  0.00    -0.287 N 
HETATM    6  C   UNL     1     -44.132 -54.059  12.615  1.00  0.00     0.163 C 
HETATM    7  C   UNL     1     -42.765 -54.349  14.620  1.00  0.00     0.330 A 
HETATM    8  O   UNL     1     -43.495 -55.249  15.050  1.00  0.00    -0.246 OA
HETATM    9  N   UNL     1     -41.658 -53.975  15.353  1.00  0.00    -0.273 N 
HETATM   10  C   UNL     1     -40.717 -53.024  15.017  1.00  0.00     0.280 A 
HETATM   11  O   UNL     1     -39.746 -52.798  15.729  1.00  0.00    -0.265 OA
HETATM   12  C   UNL     1     -41.005 -52.379  13.782  1.00  0.00     0.164 A 
HETATM   13  N   UNL     1     -40.370 -51.395  13.071  1.00  0.00    -0.172 N 
HETATM   14  H   UNL     1     -41.510 -54.470  16.217  1.00  0.00     0.173 HD
ENDROOT
BRANCH   1  15
HETATM   15  N   UNL     1     -40.761 -50.202  11.068  1.00  0.00    -0.224 N 
HETATM   16  H   UNL     1     -40.565 -50.513  10.113  1.00  0.00     0.177 HD
BRANCH  15  17
HETATM   17  C   UNL     1     -41.495 -48.940  11.048  1.00  0.00     0.164 C 
BRANCH  17  18
HETATM   18  C   UNL     1     -40.516 -47.791  11.336  1.00  0.00     0.187 C 
BRANCH  18  19
HETATM   19  O   UNL     1     -40.908 -46.644  10.570  1.00  0.00    -0.394 OA
HETATM   20  C   UNL     1     -39.943 -45.604  10.653  1.00  0.00     0.201 C 
ENDBRANCH  18  19
ENDBRANCH  17  18
ENDBRANCH  15  17
ENDBRANCH   1  15
BRANCH  13  21
HETATM   21  C   UNL     1     -39.189 -50.631  13.442  1.00  0.00     0.174 C 
BRANCH  21  22
HETATM   22  C   UNL     1     -37.897 -51.416  13.215  1.00  0.00     0.187 C 
BRANCH  22  23
HETATM   23  O   UNL     1     -37.421 -51.276  11.875  1.00  0.00    -0.394 OA
HETATM   24  C   UNL     1     -37.387 -49.894  11.518  1.00  0.00     0.201 C 
ENDBRANCH  22  23
ENDBRANCH  21  22
ENDBRANCH  13  21
TORSDOF 7
ENDMDL
MODEL 9
REMARK VINA RESULT:      -5.0      1.898      5.616
REMARK  7 active torsions:
REMARK  status: ('A' for Active; 'I' for Inactive)
REMARK    1  A    between atoms: O_2  and  C_3 
REMARK    2  A    between atoms: C_3  and  C_4 
REMARK    3  A    between atoms: C_4  and  N_5 
REMARK    4  A    between atoms: N_5  and  C_6 
REMARK    5  A    between atoms: N_18  and  C_19 
REMARK    6  A    between atoms: C_19  and  C_20 
REMARK    7  A    between atoms: C_20  and  O_21 
ROOT
HETATM    1  C   UNL     1     -42.238 -52.561  12.403  1.00  0.00     0.682 A 
HETATM    2  N   UNL     1     -42.451 -51.353  11.929  1.00  0.00    -0.174 N 
ATOM      3  HN  UNL     1     -43.321 -50.977  11.553  1.00  0.00     0.186 HD
HETATM    4  C   UNL     1     -41.255 -50.716  12.051  1.00  0.00     0.160 A 
HETATM    5  N   UNL     1     -40.998 -49.398  11.726  1.00  0.00    -0.287 N 
HETATM    6  C   UNL     1     -42.032 -48.498  11.267  1.00  0.00     0.163 C 
HETATM    7  C   UNL     1     -39.703 -48.913  11.877  1.00  0.00     0.330 A 
HETATM    8  O   UNL     1     -39.373 -47.751  11.617  1.00  0.00    -0.246 OA
HETATM    9  N   UNL     1     -38.748 -49.793  12.342  1.00  0.00    -0.273 N 
HETATM   10  C   UNL     1     -38.935 -51.107  12.716  1.00  0.00     0.280 A 
HETATM   11  O   UNL     1     -38.017 -51.791  13.154  1.00  0.00    -0.265 OA
HETATM   12  C   UNL     1     -40.280 -51.540  12.546  1.00  0.00     0.164 A 
HETATM   13  N   UNL     1     -40.915 -52.732  12.777  1.00  0.00    -0.172 N 
HETATM   14  H   UNL     1     -37.816 -49.425  12.441  1.00  0.00     0.173 HD
ENDROOT
BRANCH   1  15
HETATM   15  N   UNL     1     -43.095 -53.599  12.485  1.00  0.00    -0.224 N 
HETATM   16  H   UNL     1     -42.855 -54.326  13.164  1.00  0.00     0.177 HD
BRANCH  15  17
HETATM   17  C   UNL     1     -44.529 -53.333  12.516  1.00  0.00     0.164 C 
BRANCH  17  18
HETATM   18  C   UNL     1     -44.946 -53.016  13.960  1.00  0.00     0.187 C 
BRANCH  18  19
HETATM   19  O   UNL     1     -45.134 -54.247  14.670  1.00  0.00    -0.394 OA
HETATM   20  C   UNL     1     -46.512 -54.572  14.803  1.00  0.00     0.201 C 
ENDBRANCH  18  19
ENDBRANCH  17  18
ENDBRANCH  15  17
ENDBRANCH   1  15
BRANCH  13  21
HETATM   21  C   UNL     1     -40.337 -53.993  13.215  1.00  0.00     0.174 C 
BRANCH  21  22
HETATM   22  C   UNL     1     -40.408 -54.165  14.733  1.00  0.00     0.187 C 
BRANCH  22  23
HETATM   23  O   UNL     1     -41.706 -54.581  15.158  1.00  0.00    -0.394 OA
HETATM   24  C   UNL     1     -42.072 -53.882  16.348  1.00  0.00     0.201 C 
ENDBRANCH  22  23
ENDBRANCH  21  22
ENDBRANCH  13  21
TORSDOF 7
ENDMDL
