MODEL 1
REMARK VINA RESULT:      -6.2      0.000      0.000
REMARK  5 active torsions:
REMARK  status: ('A' for Active; 'I' for Inactive)
REMARK    1  A    between atoms: C_2  and  N_4 
REMARK    2  A    between atoms: C_6  and  C_10 
REMARK       I    between atoms: C_10  and  N_12 
REMARK    3  A    between atoms: N_12  and  C_13 
REMARK    4  A    between atoms: C_13  and  C_14 
REMARK    5  A    between atoms: C_14  and  C_15 
ROOT
HETATM    1  C   UNL     1     -41.175 -49.594  11.572  1.00  0.00     0.223 C 
HETATM    2  O   UNL     1     -40.056 -49.709  11.079  1.00  0.00    -0.273 OA
HETATM    3  N   UNL     1     -41.950 -50.696  11.872  1.00  0.00    -0.360 N 
HETATM    4  H   UNL     1     -42.775 -50.579  12.446  1.00  0.00     0.162 HD
ENDROOT
BRANCH   1   5
HETATM    5  C   UNL     1     -41.849 -48.247  11.798  1.00  0.00     0.104 A 
HETATM    6  C   UNL     1     -43.190 -48.190  11.074  1.00  0.00     0.140 A 
HETATM    7  N   UNL     1     -43.145 -47.023  10.226  1.00  0.00    -0.347 N 
HETATM    8  C   UNL     1     -41.959 -46.322  10.344  1.00  0.00     0.221 A 
HETATM    9  C   UNL     1     -41.044 -47.057  11.283  1.00  0.00     0.118 A 
HETATM   10  O   UNL     1     -41.654 -45.305   9.742  1.00  0.00    -0.273 OA
BRANCH   7  11
HETATM   11  C   UNL     1     -43.998 -46.870   9.042  1.00  0.00     0.079 C 
HETATM   12  C   UNL     1     -43.466 -47.751   7.904  1.00  0.00     0.032 C 
HETATM   13  C   UNL     1     -45.473 -47.184   9.301  1.00  0.00     0.032 C 
ENDBRANCH   7  11
ENDBRANCH   1   5
BRANCH   3  14
HETATM   14  C   UNL     1     -41.385 -52.032  11.726  1.00  0.00     0.128 C 
BRANCH  14  15
HETATM   15  C   UNL     1     -41.265 -52.758  13.060  1.00  0.00     0.076 C 
BRANCH  15  16
HETATM   16  C   UNL     1     -42.504 -53.544  13.395  1.00  0.00     0.010 A 
HETATM   17  C   UNL     1     -42.586 -54.278  14.575  1.00  0.00     0.025 A 
HETATM   18  C   UNL     1     -43.736 -55.017  14.830  1.00  0.00     0.003 A 
HETATM   19  C   UNL     1     -44.778 -54.998  13.908  1.00  0.00     0.017 A 
HETATM   20  C   UNL     1     -44.622 -54.226  12.769  1.00  0.00     0.088 A 
HETATM   21  N   UNL     1     -43.517 -53.504  12.496  1.00  0.00    -0.369 N 
ATOM     22  HN  UNL     1     -43.445 -52.947  11.644  1.00  0.00     0.165 HD
ENDBRANCH  15  16
ENDBRANCH  14  15
ENDBRANCH   3  14
TORSDOF 5
ENDMDL
MODEL 2
REMARK VINA RESULT:      -6.1      2.834      6.994
REMARK  5 active torsions:
REMARK  status: ('A' for Active; 'I' for Inactive)
REMARK    1  A    between atoms: C_2  and  N_4 
REMARK    2  A    between atoms: C_6  and  C_10 
REMARK       I    between atoms: C_10  and  N_12 
REMARK    3  A    between atoms: N_12  and  C_13 
REMARK    4  A    between atoms: C_13  and  C_14 
REMARK    5  A    between atoms: C_14  and  C_15 
ROOT
HETATM    1  C   UNL     1     -41.904 -53.072  13.434  1.00  0.00     0.223 C 
HETATM    2  O   UNL     1     -40.914 -53.424  14.071  1.00  0.00    -0.273 OA
HETATM    3  N   UNL     1     -42.055 -51.775  12.990  1.00  0.00    -0.360 N 
HETATM    4  H   UNL     1     -42.778 -51.565  12.313  1.00  0.00     0.162 HD
ENDROOT
BRANCH   1   5
HETATM    5  C   UNL     1     -43.090 -53.990  13.170  1.00  0.00     0.104 A 
HETATM    6  C   UNL     1     -44.235 -53.215  12.527  1.00  0.00     0.140 A 
HETATM    7  N   UNL     1     -45.393 -53.431  13.361  1.00  0.00    -0.347 N 
HETATM    8  C   UNL     1     -45.130 -54.265  14.432  1.00  0.00     0.221 A 
HETATM    9  C   UNL     1     -43.672 -54.630  14.427  1.00  0.00     0.118 A 
HETATM   10  O   UNL     1     -45.923 -54.611  15.294  1.00  0.00    -0.273 OA
BRANCH   7  11
HETATM   11  C   UNL     1     -46.538 -52.514  13.380  1.00  0.00     0.079 C 
HETATM   12  C   UNL     1     -46.327 -51.445  14.459  1.00  0.00     0.032 C 
HETATM   13  C   UNL     1     -46.817 -51.849  12.031  1.00  0.00     0.032 C 
ENDBRANCH   7  11
ENDBRANCH   1   5
BRANCH   3  14
HETATM   14  C   UNL     1     -40.961 -50.826  13.161  1.00  0.00     0.128 C 
BRANCH  14  15
HETATM   15  C   UNL     1     -40.297 -50.465  11.838  1.00  0.00     0.076 C 
BRANCH  15  16
HETATM   16  C   UNL     1     -40.666 -49.081  11.374  1.00  0.00     0.010 A 
HETATM   17  C   UNL     1     -39.854 -47.990  11.672  1.00  0.00     0.025 A 
HETATM   18  C   UNL     1     -40.249 -46.724  11.252  1.00  0.00     0.003 A 
HETATM   19  C   UNL     1     -41.435 -46.579  10.540  1.00  0.00     0.017 A 
HETATM   20  C   UNL     1     -42.172 -47.720  10.269  1.00  0.00     0.088 A 
HETATM   21  N   UNL     1     -41.815 -48.957  10.667  1.00  0.00    -0.369 N 
ATOM     22  HN  UNL     1     -42.388 -49.771  10.444  1.00  0.00     0.165 HD
ENDBRANCH  15  16
ENDBRANCH  14  15
ENDBRANCH   3  14
TORSDOF 5
ENDMDL
MODEL 3
REMARK VINA RESULT:      -6.1      2.240      3.088
REMARK  5 active torsions:
REMARK  status: ('A' for Active; 'I' for Inactive)
REMARK    1  A    between atoms: C_2  and  N_4 
REMARK    2  A    between atoms: C_6  and  C_10 
REMARK       I    between atoms: C_10  and  N_12 
REMARK    3  A    between atoms: N_12  and  C_13 
REMARK    4  A    between atoms: C_13  and  C_14 
REMARK    5  A    between atoms: C_14  and  C_15 
ROOT
HETATM    1  C   UNL     1     -41.903 -49.042  11.687  1.00  0.00     0.223 C 
HETATM    2  O   UNL     1     -42.336 -48.600  12.749  1.00  0.00    -0.273 OA
HETATM    3  N   UNL     1     -41.522 -50.361  11.555  1.00  0.00    -0.360 N 
HETATM    4  H   UNL     1     -41.354 -50.737  10.630  1.00  0.00     0.162 HD
ENDROOT
BRANCH   1   5
HETATM    5  C   UNL     1     -41.650 -48.168  10.466  1.00  0.00     0.104 A 
HETATM    6  C   UNL     1     -40.899 -46.900  10.860  1.00  0.00     0.140 A 
HETATM    7  N   UNL     1     -41.691 -45.792  10.383  1.00  0.00    -0.347 N 
HETATM    8  C   UNL     1     -42.831 -46.201   9.714  1.00  0.00     0.221 A 
HETATM    9  C   UNL     1     -42.921 -47.700   9.764  1.00  0.00     0.118 A 
HETATM   10  O   UNL     1     -43.678 -45.476   9.214  1.00  0.00    -0.273 OA
BRANCH   7  11
HETATM   11  C   UNL     1     -41.590 -44.443  10.950  1.00  0.00     0.079 C 
HETATM   12  C   UNL     1     -42.266 -44.408  12.326  1.00  0.00     0.032 C 
HETATM   13  C   UNL     1     -40.153 -43.928  11.059  1.00  0.00     0.032 C 
ENDBRANCH   7  11
ENDBRANCH   1   5
BRANCH   3  14
HETATM   14  C   UNL     1     -41.757 -51.290  12.655  1.00  0.00     0.128 C 
BRANCH  14  15
HETATM   15  C   UNL     1     -42.799 -52.345  12.307  1.00  0.00     0.076 C 
BRANCH  15  16
HETATM   16  C   UNL     1     -44.145 -52.034  12.904  1.00  0.00     0.010 A 
HETATM   17  C   UNL     1     -44.249 -51.377  14.127  1.00  0.00     0.025 A 
HETATM   18  C   UNL     1     -45.512 -51.138  14.659  1.00  0.00     0.003 A 
HETATM   19  C   UNL     1     -46.638 -51.551  13.955  1.00  0.00     0.017 A 
HETATM   20  C   UNL     1     -46.446 -52.180  12.736  1.00  0.00     0.088 A 
HETATM   21  N   UNL     1     -45.234 -52.427  12.200  1.00  0.00    -0.369 N 
ATOM     22  HN  UNL     1     -45.140 -52.893  11.297  1.00  0.00     0.165 HD
ENDBRANCH  15  16
ENDBRANCH  14  15
ENDBRANCH   3  14
TORSDOF 5
ENDMDL
MODEL 4
REMARK VINA RESULT:      -6.1      2.454      7.156
REMARK  5 active torsions:
REMARK  status: ('A' for Active; 'I' for Inactive)
REMARK    1  A    between atoms: C_2  and  N_4 
REMARK    2  A    between atoms: C_6  and  C_10 
REMARK       I    between atoms: C_10  and  N_12 
REMARK    3  A    between atoms: N_12  and  C_13 
REMARK    4  A    between atoms: C_13  and  C_14 
REMARK    5  A    between atoms: C_14  and  C_15 
ROOT
HETATM    1  C   UNL     1     -43.334 -49.631  13.756  1.00  0.00     0.223 C 
HETATM    2  O   UNL     1     -42.809 -48.829  14.524  1.00  0.00    -0.273 OA
HETATM    3  N   UNL     1     -43.159 -49.544  12.390  1.00  0.00    -0.360 N 
HETATM    4  H   UNL     1     -43.440 -50.321  11.805  1.00  0.00     0.162 HD
ENDROOT
BRANCH   1   5
HETATM    5  C   UNL     1     -44.296 -50.717  14.219  1.00  0.00     0.104 A 
HETATM    6  C   UNL     1     -43.529 -51.925  14.746  1.00  0.00     0.140 A 
HETATM    7  N   UNL     1     -44.003 -53.066  14.000  1.00  0.00    -0.347 N 
HETATM    8  C   UNL     1     -44.991 -52.735  13.090  1.00  0.00     0.221 A 
HETATM    9  C   UNL     1     -45.207 -51.249  13.116  1.00  0.00     0.118 A 
HETATM   10  O   UNL     1     -45.562 -53.501  12.330  1.00  0.00    -0.273 OA
BRANCH   7  11
HETATM   11  C   UNL     1     -43.219 -54.297  13.851  1.00  0.00     0.079 C 
HETATM   12  C   UNL     1     -41.873 -53.975  13.189  1.00  0.00     0.032 C 
HETATM   13  C   UNL     1     -42.990 -55.044  15.166  1.00  0.00     0.032 C 
ENDBRANCH   7  11
ENDBRANCH   1   5
BRANCH   3  14
HETATM   14  C   UNL     1     -42.228 -48.562  11.847  1.00  0.00     0.128 C 
BRANCH  14  15
HETATM   15  C   UNL     1     -42.940 -47.328  11.308  1.00  0.00     0.076 C 
BRANCH  15  16
HETATM   16  C   UNL     1     -43.617 -47.591   9.989  1.00  0.00     0.010 A 
HETATM   17  C   UNL     1     -45.006 -47.619   9.894  1.00  0.00     0.025 A 
HETATM   18  C   UNL     1     -45.590 -47.898   8.662  1.00  0.00     0.003 A 
HETATM   19  C   UNL     1     -44.777 -48.132   7.558  1.00  0.00     0.017 A 
HETATM   20  C   UNL     1     -43.406 -48.065   7.737  1.00  0.00     0.088 A 
HETATM   21  N   UNL     1     -42.813 -47.801   8.919  1.00  0.00    -0.369 N 
ATOM     22  HN  UNL     1     -41.798 -47.760   9.005  1.00  0.00     0.165 HD
ENDBRANCH  15  16
ENDBRANCH  14  15
ENDBRANCH   3  14
TORSDOF 5
ENDMDL
MODEL 5
REMARK VINA RESULT:      -6.1      1.642      1.833
REMARK  5 active torsions:
REMARK  status: ('A' for Active; 'I' for Inactive)
REMARK    1  A    between atoms: C_2  and  N_4 
REMARK    2  A    between atoms: C_6  and  C_10 
REMARK       I    between atoms: C_10  and  N_12 
REMARK    3  A    between atoms: N_12  and  C_13 
REMARK    4  A    between atoms: C_13  and  C_14 
REMARK    5  A    between atoms: C_14  and  C_15 
ROOT
HETATM    1  C   UNL     1     -41.303 -49.752  11.778  1.00  0.00     0.223 C 
HETATM    2  O   UNL     1     -40.175 -50.076  11.417  1.00  0.00    -0.273 OA
HETATM    3  N   UNL     1     -42.296 -50.690  11.977  1.00  0.00    -0.360 N 
HETATM    4  H   UNL     1     -43.146 -50.417  12.453  1.00  0.00     0.162 HD
ENDROOT
BRANCH   1   5
HETATM    5  C   UNL     1     -41.741 -48.302  11.936  1.00  0.00     0.104 A 
HETATM    6  C   UNL     1     -42.903 -47.988  10.999  1.00  0.00     0.140 A 
HETATM    7  N   UNL     1     -42.495 -46.848  10.212  1.00  0.00    -0.347 N 
HETATM    8  C   UNL     1     -41.237 -46.387  10.553  1.00  0.00     0.221 A 
HETATM    9  C   UNL     1     -40.651 -47.286  11.606  1.00  0.00     0.118 A 
HETATM   10  O   UNL     1     -40.648 -45.445  10.047  1.00  0.00    -0.273 OA
BRANCH   7  11
HETATM   11  C   UNL     1     -43.088 -46.532   8.908  1.00  0.00     0.079 C 
HETATM   12  C   UNL     1     -43.535 -47.826   8.216  1.00  0.00     0.032 C 
HETATM   13  C   UNL     1     -44.258 -45.549   8.985  1.00  0.00     0.032 C 
ENDBRANCH   7  11
ENDBRANCH   1   5
BRANCH   3  14
HETATM   14  C   UNL     1     -41.970 -52.109  11.887  1.00  0.00     0.128 C 
BRANCH  14  15
HETATM   15  C   UNL     1     -42.697 -52.936  12.940  1.00  0.00     0.076 C 
BRANCH  15  16
HETATM   16  C   UNL     1     -44.078 -52.410  13.225  1.00  0.00     0.010 A 
HETATM   17  C   UNL     1     -44.364 -51.773  14.429  1.00  0.00     0.025 A 
HETATM   18  C   UNL     1     -45.662 -51.331  14.665  1.00  0.00     0.003 A 
HETATM   19  C   UNL     1     -46.637 -51.525  13.693  1.00  0.00     0.017 A 
HETATM   20  C   UNL     1     -46.262 -52.149  12.515  1.00  0.00     0.088 A 
HETATM   21  N   UNL     1     -45.014 -52.591  12.262  1.00  0.00    -0.369 N 
ATOM     22  HN  UNL     1     -44.782 -53.045  11.379  1.00  0.00     0.165 HD
ENDBRANCH  15  16
ENDBRANCH  14  15
ENDBRANCH   3  14
TORSDOF 5
ENDMDL
MODEL 6
REMARK VINA RESULT:      -6.1      2.864      7.031
REMARK  5 active torsions:
REMARK  status: ('A' for Active; 'I' for Inactive)
REMARK    1  A    between atoms: C_2  and  N_4 
REMARK    2  A    between atoms: C_6  and  C_10 
REMARK       I    between atoms: C_10  and  N_12 
REMARK    3  A    between atoms: N_12  and  C_13 
REMARK    4  A    between atoms: C_13  and  C_14 
REMARK    5  A    between atoms: C_14  and  C_15 
ROOT
HETATM    1  C   UNL     1     -42.614 -52.121  12.917  1.00  0.00     0.223 C 
HETATM    2  O   UNL     1     -42.209 -52.062  14.075  1.00  0.00    -0.273 OA
HETATM    3  N   UNL     1     -41.888 -51.591  11.870  1.00  0.00    -0.360 N 
HETATM    4  H   UNL     1     -42.150 -51.822  10.920  1.00  0.00     0.162 HD
ENDROOT
BRANCH   1   5
HETATM    5  C   UNL     1     -43.980 -52.680  12.542  1.00  0.00     0.104 A 
HETATM    6  C   UNL     1     -45.070 -52.054  13.405  1.00  0.00     0.140 A 
HETATM    7  N   UNL     1     -45.780 -53.149  14.022  1.00  0.00    -0.347 N 
HETATM    8  C   UNL     1     -45.294 -54.385  13.636  1.00  0.00     0.221 A 
HETATM    9  C   UNL     1     -44.107 -54.188  12.735  1.00  0.00     0.118 A 
HETATM   10  O   UNL     1     -45.704 -55.474  14.006  1.00  0.00    -0.273 OA
BRANCH   7  11
HETATM   11  C   UNL     1     -46.557 -52.995  15.257  1.00  0.00     0.079 C 
HETATM   12  C   UNL     1     -45.668 -53.300  16.469  1.00  0.00     0.032 C 
HETATM   13  C   UNL     1     -47.199 -51.615  15.412  1.00  0.00     0.032 C 
ENDBRANCH   7  11
ENDBRANCH   1   5
BRANCH   3  14
HETATM   14  C   UNL     1     -40.551 -51.064  12.117  1.00  0.00     0.128 C 
BRANCH  14  15
HETATM   15  C   UNL     1     -40.208 -49.902  11.194  1.00  0.00     0.076 C 
BRANCH  15  16
HETATM   16  C   UNL     1     -41.327 -48.899  11.100  1.00  0.00     0.010 A 
HETATM   17  C   UNL     1     -41.937 -48.403  12.248  1.00  0.00     0.025 A 
HETATM   18  C   UNL     1     -42.989 -47.502  12.116  1.00  0.00     0.003 A 
HETATM   19  C   UNL     1     -43.400 -47.114  10.845  1.00  0.00     0.017 A 
HETATM   20  C   UNL     1     -42.725 -47.641   9.757  1.00  0.00     0.088 A 
HETATM   21  N   UNL     1     -41.705 -48.517   9.857  1.00  0.00    -0.369 N 
ATOM     22  HN  UNL     1     -41.236 -48.879   9.027  1.00  0.00     0.165 HD
ENDBRANCH  15  16
ENDBRANCH  14  15
ENDBRANCH   3  14
TORSDOF 5
ENDMDL
MODEL 7
REMARK VINA RESULT:      -5.9      4.343      6.943
REMARK  5 active torsions:
REMARK  status: ('A' for Active; 'I' for Inactive)
REMARK    1  A    between atoms: C_2  and  N_4 
REMARK    2  A    between atoms: C_6  and  C_10 
REMARK       I    between atoms: C_10  and  N_12 
REMARK    3  A    between atoms: N_12  and  C_13 
REMARK    4  A    between atoms: C_13  and  C_14 
REMARK    5  A    between atoms: C_14  and  C_15 
ROOT
HETATM    1  C   UNL     1     -41.061 -53.540  13.798  1.00  0.00     0.223 C 
HETATM    2  O   UNL     1     -40.048 -53.728  13.128  1.00  0.00    -0.273 OA
HETATM    3  N   UNL     1     -41.030 -52.803  14.964  1.00  0.00    -0.360 N 
HETATM    4  H   UNL     1     -41.901 -52.507  15.385  1.00  0.00     0.162 HD
ENDROOT
BRANCH   1   5
HETATM    5  C   UNL     1     -42.404 -54.178  13.470  1.00  0.00     0.104 A 
HETATM    6  C   UNL     1     -43.398 -53.123  12.996  1.00  0.00     0.140 A 
HETATM    7  N   UNL     1     -44.556 -53.242  13.850  1.00  0.00    -0.347 N 
HETATM    8  C   UNL     1     -44.429 -54.255  14.783  1.00  0.00     0.221 A 
HETATM    9  C   UNL     1     -43.066 -54.875  14.655  1.00  0.00     0.118 A 
HETATM   10  O   UNL     1     -45.252 -54.570  15.628  1.00  0.00    -0.273 OA
BRANCH   7  11
HETATM   11  C   UNL     1     -45.508 -52.144  14.052  1.00  0.00     0.079 C 
HETATM   12  C   UNL     1     -44.753 -50.874  14.465  1.00  0.00     0.032 C 
HETATM   13  C   UNL     1     -46.385 -51.858  12.832  1.00  0.00     0.032 C 
ENDBRANCH   7  11
ENDBRANCH   1   5
BRANCH   3  14
HETATM   14  C   UNL     1     -39.800 -52.119  15.348  1.00  0.00     0.128 C 
BRANCH  14  15
HETATM   15  C   UNL     1     -39.818 -50.644  14.970  1.00  0.00     0.076 C 
BRANCH  15  16
HETATM   16  C   UNL     1     -38.999 -50.362  13.739  1.00  0.00     0.010 A 
HETATM   17  C   UNL     1     -39.251 -49.237  12.957  1.00  0.00     0.025 A 
HETATM   18  C   UNL     1     -38.492 -49.031  11.810  1.00  0.00     0.003 A 
HETATM   19  C   UNL     1     -37.497 -49.945  11.476  1.00  0.00     0.017 A 
HETATM   20  C   UNL     1     -37.300 -51.025  12.319  1.00  0.00     0.088 A 
HETATM   21  N   UNL     1     -38.023 -51.251  13.435  1.00  0.00    -0.369 N 
ATOM     22  HN  UNL     1     -37.842 -52.060  14.028  1.00  0.00     0.165 HD
ENDBRANCH  15  16
ENDBRANCH  14  15
ENDBRANCH   3  14
TORSDOF 5
ENDMDL
MODEL 8
REMARK VINA RESULT:      -5.8      2.664      7.602
REMARK  5 active torsions:
REMARK  status: ('A' for Active; 'I' for Inactive)
REMARK    1  A    between atoms: C_2  and  N_4 
REMARK    2  A    between atoms: C_6  and  C_10 
REMARK       I    between atoms: C_10  and  N_12 
REMARK    3  A    between atoms: N_12  and  C_13 
REMARK    4  A    between atoms: C_13  and  C_14 
REMARK    5  A    between atoms: C_14  and  C_15 
ROOT
HETATM    1  C   UNL     1     -40.807 -51.801  12.508  1.00  0.00     0.223 C 
HETATM    2  O   UNL     1     -40.341 -51.308  13.532  1.00  0.00    -0.273 OA
HETATM    3  N   UNL     1     -40.854 -51.095  11.323  1.00  0.00    -0.360 N 
HETATM    4  H   UNL     1     -41.063 -51.586  10.463  1.00  0.00     0.162 HD
ENDROOT
BRANCH   1   5
HETATM    5  C   UNL     1     -41.464 -53.174  12.472  1.00  0.00     0.104 A 
HETATM    6  C   UNL     1     -42.983 -53.043  12.510  1.00  0.00     0.140 A 
HETATM    7  N   UNL     1     -43.433 -53.841  13.626  1.00  0.00    -0.347 N 
HETATM    8  C   UNL     1     -42.393 -54.480  14.277  1.00  0.00     0.221 A 
HETATM    9  C   UNL     1     -41.092 -54.072  13.648  1.00  0.00     0.118 A 
HETATM   10  O   UNL     1     -42.488 -55.211  15.252  1.00  0.00    -0.273 OA
BRANCH   7  11
HETATM   11  C   UNL     1     -44.719 -53.617  14.294  1.00  0.00     0.079 C 
HETATM   12  C   UNL     1     -45.319 -52.284  13.827  1.00  0.00     0.032 C 
HETATM   13  C   UNL     1     -45.728 -54.747  14.083  1.00  0.00     0.032 C 
ENDBRANCH   7  11
ENDBRANCH   1   5
BRANCH   3  14
HETATM   14  C   UNL     1     -40.220 -49.784  11.243  1.00  0.00     0.128 C 
BRANCH  14  15
HETATM   15  C   UNL     1     -41.221 -48.676  10.942  1.00  0.00     0.076 C 
BRANCH  15  16
HETATM   16  C   UNL     1     -40.657 -47.308  11.216  1.00  0.00     0.010 A 
HETATM   17  C   UNL     1     -40.088 -47.005  12.450  1.00  0.00     0.025 A 
HETATM   18  C   UNL     1     -39.607 -45.719  12.672  1.00  0.00     0.003 A 
HETATM   19  C   UNL     1     -39.697 -44.772  11.657  1.00  0.00     0.017 A 
HETATM   20  C   UNL     1     -40.258 -45.163  10.454  1.00  0.00     0.088 A 
HETATM   21  N   UNL     1     -40.735 -46.401  10.213  1.00  0.00    -0.369 N 
ATOM     22  HN  UNL     1     -41.140 -46.646   9.310  1.00  0.00     0.165 HD
ENDBRANCH  15  16
ENDBRANCH  14  15
ENDBRANCH   3  14
TORSDOF 5
ENDMDL
MODEL 9
REMARK VINA RESULT:      -5.7      2.080      7.508
REMARK  5 active torsions:
REMARK  status: ('A' for Active; 'I' for Inactive)
REMARK    1  A    between atoms: C_2  and  N_4 
REMARK    2  A    between atoms: C_6  and  C_10 
REMARK       I    between atoms: C_10  and  N_12 
REMARK    3  A    between atoms: N_12  and  C_13 
REMARK    4  A    between atoms: C_13  and  C_14 
REMARK    5  A    between atoms: C_14  and  C_15 
ROOT
HETATM    1  C   UNL     1     -41.640 -51.330  12.812  1.00  0.00     0.223 C 
HETATM    2  O   UNL     1     -41.428 -50.743  13.869  1.00  0.00    -0.273 OA
HETATM    3  N   UNL     1     -41.863 -50.643  11.636  1.00  0.00    -0.360 N 
HETATM    4  H   UNL     1     -41.843 -51.146  10.758  1.00  0.00     0.162 HD
ENDROOT
BRANCH   1   5
HETATM    5  C   UNL     1     -41.779 -52.843  12.715  1.00  0.00     0.104 A 
HETATM    6  C   UNL     1     -43.243 -53.255  12.836  1.00  0.00     0.140 A 
HETATM    7  N   UNL     1     -43.309 -54.211  13.916  1.00  0.00    -0.347 N 
HETATM    8  C   UNL     1     -42.070 -54.474  14.472  1.00  0.00     0.221 A 
HETATM    9  C   UNL     1     -41.038 -53.606  13.809  1.00  0.00     0.118 A 
HETATM   10  O   UNL     1     -41.837 -55.235  15.398  1.00  0.00    -0.273 OA
BRANCH   7  11
HETATM   11  C   UNL     1     -44.544 -54.482  14.660  1.00  0.00     0.079 C 
HETATM   12  C   UNL     1     -45.121 -53.169  15.202  1.00  0.00     0.032 C 
HETATM   13  C   UNL     1     -45.604 -55.223  13.843  1.00  0.00     0.032 C 
ENDBRANCH   7  11
ENDBRANCH   1   5
BRANCH   3  14
HETATM   14  C   UNL     1     -41.716 -49.192  11.614  1.00  0.00     0.128 C 
BRANCH  14  15
HETATM   15  C   UNL     1     -43.011 -48.475  11.977  1.00  0.00     0.076 C 
BRANCH  15  16
HETATM   16  C   UNL     1     -43.516 -47.608  10.857  1.00  0.00     0.010 A 
HETATM   17  C   UNL     1     -42.892 -46.401  10.552  1.00  0.00     0.025 A 
HETATM   18  C   UNL     1     -43.411 -45.614   9.529  1.00  0.00     0.003 A 
HETATM   19  C   UNL     1     -44.532 -46.053   8.831  1.00  0.00     0.017 A 
HETATM   20  C   UNL     1     -45.079 -47.274   9.186  1.00  0.00     0.088 A 
HETATM   21  N   UNL     1     -44.598 -48.055  10.175  1.00  0.00    -0.369 N 
ATOM     22  HN  UNL     1     -45.033 -48.950  10.401  1.00  0.00     0.165 HD
ENDBRANCH  15  16
ENDBRANCH  14  15
ENDBRANCH   3  14
TORSDOF 5
ENDMDL
