MODEL 1
REMARK VINA RESULT:      -6.3      0.000      0.000
REMARK  4 active torsions:
REMARK  status: ('A' for Active; 'I' for Inactive)
REMARK    1  A    between atoms: C_2  and  C_3 
REMARK    2  A    between atoms: C_3  and  C_4 
REMARK       I    between atoms: N_10  and  C_11 
REMARK       I    between atoms: C_11  and  N_13 
REMARK    3  A    between atoms: N_13  and  C_14 
REMARK    4  A    between atoms: C_14  and  C_16 
ROOT
HETATM    1  C   UNL     1     -44.984 -47.272   9.483  1.00  0.00     0.069 A 
HETATM    2  N   UNL     1     -44.387 -48.124  10.291  1.00  0.00    -0.296 N 
ATOM      3  HN  UNL     1     -44.840 -48.947  10.688  1.00  0.00     0.187 HD
HETATM    4  N   UNL     1     -43.081 -47.774  10.534  1.00  0.00    -0.279 N 
ATOM      5  HN  UNL     1     -42.456 -48.293  11.150  1.00  0.00     0.189 HD
HETATM    6  C   UNL     1     -42.734 -46.692   9.877  1.00  0.00     0.169 A 
HETATM    7  N   UNL     1     -41.534 -46.041   9.910  1.00  0.00    -0.288 N 
HETATM    8  C   UNL     1     -40.498 -46.358  10.738  1.00  0.00     0.322 C 
HETATM    9  O   UNL     1     -39.439 -45.741  10.649  1.00  0.00    -0.247 OA
HETATM   10  N   UNL     1     -40.703 -47.359  11.637  1.00  0.00    -0.336 N 
HETATM   11  S   UNL     1     -43.950 -46.018   8.898  1.00  0.00    -0.038 SA
HETATM   12  H   UNL     1     -41.387 -45.255   9.295  1.00  0.00     0.172 HD
HETATM   13  H   UNL     1     -41.650 -47.714  11.754  1.00  0.00     0.164 HD
ENDROOT
BRANCH  10  14
HETATM   14  C   UNL     1     -39.751 -47.745  12.669  1.00  0.00     0.111 C 
HETATM   15  C   UNL     1     -40.418 -47.637  14.042  1.00  0.00     0.035 C 
BRANCH  14  16
HETATM   16  C   UNL     1     -39.223 -49.174  12.430  1.00  0.00     0.143 C 
HETATM   17  C   UNL     1     -38.676 -49.877  13.668  1.00  0.00     0.036 C 
HETATM   18  C   UNL     1     -37.536 -50.732  13.147  1.00  0.00     0.029 C 
HETATM   19  C   UNL     1     -37.491 -50.456  11.660  1.00  0.00     0.168 C 
HETATM   20  O   UNL     1     -38.142 -49.194  11.479  1.00  0.00    -0.384 OA
ENDBRANCH  14  16
ENDBRANCH  10  14
BRANCH   1  21
HETATM   21  C   UNL     1     -46.427 -47.346   9.112  1.00  0.00     0.066 C 
BRANCH  21  22
HETATM   22  C   UNL     1     -46.862 -48.781   8.787  1.00  0.00     0.002 C 
HETATM   23  C   UNL     1     -46.477 -49.224   7.382  1.00  0.00     0.005 C 
ENDBRANCH  21  22
ENDBRANCH   1  21
TORSDOF 4
ENDMDL
MODEL 2
REMARK VINA RESULT:      -6.1      1.956      2.663
REMARK  4 active torsions:
REMARK  status: ('A' for Active; 'I' for Inactive)
REMARK    1  A    between atoms: C_2  and  C_3 
REMARK    2  A    between atoms: C_3  and  C_4 
REMARK       I    between atoms: N_10  and  C_11 
REMARK       I    between atoms: C_11  and  N_13 
REMARK    3  A    between atoms: N_13  and  C_14 
REMARK    4  A    between atoms: C_14  and  C_16 
ROOT
HETATM    1  C   UNL     1     -43.436 -47.001   9.363  1.00  0.00     0.069 A 
HETATM    2  N   UNL     1     -42.798 -48.109   9.046  1.00  0.00    -0.296 N 
ATOM      3  HN  UNL     1     -43.083 -48.737   8.294  1.00  0.00     0.187 HD
HETATM    4  N   UNL     1     -41.702 -48.318   9.847  1.00  0.00    -0.279 N 
ATOM      5  HN  UNL     1     -41.090 -49.131   9.776  1.00  0.00     0.189 HD
HETATM    6  C   UNL     1     -41.536 -47.347  10.714  1.00  0.00     0.169 A 
HETATM    7  N   UNL     1     -40.580 -47.244  11.683  1.00  0.00    -0.288 N 
HETATM    8  C   UNL     1     -39.673 -48.214  11.989  1.00  0.00     0.322 C 
HETATM    9  O   UNL     1     -38.819 -47.998  12.846  1.00  0.00    -0.247 OA
HETATM   10  N   UNL     1     -39.772 -49.394  11.317  1.00  0.00    -0.336 N 
HETATM   11  S   UNL     1     -42.680 -46.092  10.622  1.00  0.00    -0.038 SA
HETATM   12  H   UNL     1     -40.534 -46.401  12.236  1.00  0.00     0.172 HD
HETATM   13  H   UNL     1     -40.594 -49.551  10.740  1.00  0.00     0.164 HD
ENDROOT
BRANCH  10  14
HETATM   14  C   UNL     1     -38.964 -50.571  11.601  1.00  0.00     0.111 C 
HETATM   15  C   UNL     1     -37.520 -50.144  11.875  1.00  0.00     0.035 C 
BRANCH  14  16
HETATM   16  C   UNL     1     -39.534 -51.361  12.796  1.00  0.00     0.143 C 
HETATM   17  C   UNL     1     -38.517 -51.737  13.868  1.00  0.00     0.036 C 
HETATM   18  C   UNL     1     -38.988 -53.084  14.384  1.00  0.00     0.029 C 
HETATM   19  C   UNL     1     -40.225 -53.401  13.571  1.00  0.00     0.168 C 
HETATM   20  O   UNL     1     -40.122 -52.610  12.383  1.00  0.00    -0.384 OA
ENDBRANCH  14  16
ENDBRANCH  10  14
BRANCH   1  21
HETATM   21  C   UNL     1     -44.711 -46.562   8.725  1.00  0.00     0.066 C 
BRANCH  21  22
HETATM   22  C   UNL     1     -45.925 -47.299   9.305  1.00  0.00     0.002 C 
HETATM   23  C   UNL     1     -46.434 -48.421   8.410  1.00  0.00     0.005 C 
ENDBRANCH  21  22
ENDBRANCH   1  21
TORSDOF 4
ENDMDL
MODEL 3
REMARK VINA RESULT:      -5.9      4.997      6.845
REMARK  4 active torsions:
REMARK  status: ('A' for Active; 'I' for Inactive)
REMARK    1  A    between atoms: C_2  and  C_3 
REMARK    2  A    between atoms: C_3  and  C_4 
REMARK       I    between atoms: N_10  and  C_11 
REMARK       I    between atoms: C_11  and  N_13 
REMARK    3  A    between atoms: N_13  and  C_14 
REMARK    4  A    between atoms: C_14  and  C_16 
ROOT
HETATM    1  C   UNL     1     -41.373 -48.373  11.181  1.00  0.00     0.069 A 
HETATM    2  N   UNL     1     -42.491 -49.044  11.370  1.00  0.00    -0.296 N 
ATOM      3  HN  UNL     1     -43.423 -48.640  11.271  1.00  0.00     0.187 HD
HETATM    4  N   UNL     1     -42.253 -50.352  11.714  1.00  0.00    -0.279 N 
ATOM      5  HN  UNL     1     -42.986 -51.029  11.924  1.00  0.00     0.189 HD
HETATM    6  C   UNL     1     -40.970 -50.627  11.741  1.00  0.00     0.169 A 
HETATM    7  N   UNL     1     -40.373 -51.808  12.076  1.00  0.00    -0.288 N 
HETATM    8  C   UNL     1     -41.028 -52.902  12.557  1.00  0.00     0.322 C 
HETATM    9  O   UNL     1     -40.401 -53.936  12.779  1.00  0.00    -0.247 OA
HETATM   10  N   UNL     1     -42.366 -52.783  12.773  1.00  0.00    -0.336 N 
HETATM   11  S   UNL     1     -39.945 -49.332  11.334  1.00  0.00    -0.038 SA
HETATM   12  H   UNL     1     -39.372 -51.893  11.984  1.00  0.00     0.172 HD
HETATM   13  H   UNL     1     -42.782 -51.856  12.714  1.00  0.00     0.164 HD
ENDROOT
BRANCH  10  14
HETATM   14  C   UNL     1     -43.195 -53.809  13.391  1.00  0.00     0.111 C 
HETATM   15  C   UNL     1     -42.796 -53.969  14.860  1.00  0.00     0.035 C 
BRANCH  14  16
HETATM   16  C   UNL     1     -44.692 -53.462  13.268  1.00  0.00     0.143 C 
HETATM   17  C   UNL     1     -45.002 -51.977  13.114  1.00  0.00     0.036 C 
HETATM   18  C   UNL     1     -46.319 -51.785  13.842  1.00  0.00     0.029 C 
HETATM   19  C   UNL     1     -46.670 -53.157  14.378  1.00  0.00     0.168 C 
HETATM   20  O   UNL     1     -45.438 -53.882  14.426  1.00  0.00    -0.384 OA
ENDBRANCH  14  16
ENDBRANCH  10  14
BRANCH   1  21
HETATM   21  C   UNL     1     -41.318 -46.912  10.885  1.00  0.00     0.066 C 
BRANCH  21  22
HETATM   22  C   UNL     1     -39.906 -46.342  11.074  1.00  0.00     0.002 C 
HETATM   23  C   UNL     1     -39.647 -45.087  10.253  1.00  0.00     0.005 C 
ENDBRANCH  21  22
ENDBRANCH   1  21
TORSDOF 4
ENDMDL
MODEL 4
REMARK VINA RESULT:      -5.8      5.340      6.633
REMARK  4 active torsions:
REMARK  status: ('A' for Active; 'I' for Inactive)
REMARK    1  A    between atoms: C_2  and  C_3 
REMARK    2  A    between atoms: C_3  and  C_4 
REMARK       I    between atoms: N_10  and  C_11 
REMARK       I    between atoms: C_11  and  N_13 
REMARK    3  A    between atoms: N_13  and  C_14 
REMARK    4  A    between atoms: C_14  and  C_16 
ROOT
HETATM    1  C   UNL     1     -41.857 -48.850  11.346  1.00  0.00     0.069 A 
HETATM    2  N   UNL     1     -42.839 -49.622  11.766  1.00  0.00    -0.296 N 
ATOM      3  HN  UNL     1     -43.814 -49.328  11.818  1.00  0.00     0.187 HD
HETATM    4  N   UNL     1     -42.393 -50.871  12.124  1.00  0.00    -0.279 N 
ATOM      5  HN  UNL     1     -42.994 -51.607  12.495  1.00  0.00     0.189 HD
HETATM    6  C   UNL     1     -41.102 -51.004  11.933  1.00  0.00     0.169 A 
HETATM    7  N   UNL     1     -40.321 -52.089  12.211  1.00  0.00    -0.288 N 
HETATM    8  C   UNL     1     -40.749 -53.212  12.855  1.00  0.00     0.322 C 
HETATM    9  O   UNL     1     -39.976 -54.155  13.009  1.00  0.00    -0.247 OA
HETATM   10  N   UNL     1     -42.034 -53.222  13.302  1.00  0.00    -0.336 N 
HETATM   11  S   UNL     1     -40.322 -49.638  11.286  1.00  0.00    -0.038 SA
HETATM   12  H   UNL     1     -39.348 -52.073  11.944  1.00  0.00     0.172 HD
HETATM   13  H   UNL     1     -42.560 -52.351  13.275  1.00  0.00     0.164 HD
ENDROOT
BRANCH  10  14
HETATM   14  C   UNL     1     -42.616 -54.287  14.108  1.00  0.00     0.111 C 
HETATM   15  C   UNL     1     -42.382 -53.989  15.590  1.00  0.00     0.035 C 
BRANCH  14  16
HETATM   16  C   UNL     1     -44.122 -54.443  13.815  1.00  0.00     0.143 C 
HETATM   17  C   UNL     1     -44.809 -53.196  13.269  1.00  0.00     0.036 C 
HETATM   18  C   UNL     1     -46.210 -53.248  13.848  1.00  0.00     0.029 C 
HETATM   19  C   UNL     1     -46.234 -54.502  14.696  1.00  0.00     0.168 C 
HETATM   20  O   UNL     1     -44.865 -54.792  14.998  1.00  0.00    -0.384 OA
ENDBRANCH  14  16
ENDBRANCH  10  14
BRANCH   1  21
HETATM   21  C   UNL     1     -42.026 -47.415  10.976  1.00  0.00     0.066 C 
BRANCH  21  22
HETATM   22  C   UNL     1     -42.720 -47.252   9.618  1.00  0.00     0.002 C 
HETATM   23  C   UNL     1     -44.238 -47.184   9.720  1.00  0.00     0.005 C 
ENDBRANCH  21  22
ENDBRANCH   1  21
TORSDOF 4
ENDMDL
MODEL 5
REMARK VINA RESULT:      -5.5      4.500      6.098
REMARK  4 active torsions:
REMARK  status: ('A' for Active; 'I' for Inactive)
REMARK    1  A    between atoms: C_2  and  C_3 
REMARK    2  A    between atoms: C_3  and  C_4 
REMARK       I    between atoms: N_10  and  C_11 
REMARK       I    between atoms: C_11  and  N_13 
REMARK    3  A    between atoms: N_13  and  C_14 
REMARK    4  A    between atoms: C_14  and  C_16 
ROOT
HETATM    1  C   UNL     1     -43.547 -53.246  12.889  1.00  0.00     0.069 A 
HETATM    2  N   UNL     1     -43.966 -52.012  12.695  1.00  0.00    -0.296 N 
ATOM      3  HN  UNL     1     -44.934 -51.712  12.813  1.00  0.00     0.187 HD
HETATM    4  N   UNL     1     -42.944 -51.176  12.315  1.00  0.00    -0.279 N 
ATOM      5  HN  UNL     1     -43.067 -50.188  12.096  1.00  0.00     0.189 HD
HETATM    6  C   UNL     1     -41.791 -51.801  12.268  1.00  0.00     0.169 A 
HETATM    7  N   UNL     1     -40.579 -51.295  11.896  1.00  0.00    -0.288 N 
HETATM    8  C   UNL     1     -40.378 -50.044  11.395  1.00  0.00     0.322 C 
HETATM    9  O   UNL     1     -39.235 -49.669  11.140  1.00  0.00    -0.247 OA
HETATM   10  N   UNL     1     -41.478 -49.268  11.196  1.00  0.00    -0.336 N 
HETATM   11  S   UNL     1     -41.843 -53.446  12.696  1.00  0.00    -0.038 SA
HETATM   12  H   UNL     1     -39.760 -51.880  11.975  1.00  0.00     0.172 HD
HETATM   13  H   UNL     1     -42.394 -49.701  11.283  1.00  0.00     0.164 HD
ENDROOT
BRANCH  10  14
HETATM   14  C   UNL     1     -41.456 -47.957  10.562  1.00  0.00     0.111 C 
HETATM   15  C   UNL     1     -42.663 -47.822   9.632  1.00  0.00     0.035 C 
BRANCH  14  16
HETATM   16  C   UNL     1     -41.451 -46.831  11.616  1.00  0.00     0.143 C 
HETATM   17  C   UNL     1     -42.253 -47.124  12.880  1.00  0.00     0.036 C 
HETATM   18  C   UNL     1     -42.817 -45.778  13.293  1.00  0.00     0.029 C 
HETATM   19  C   UNL     1     -42.323 -44.809  12.241  1.00  0.00     0.168 C 
HETATM   20  O   UNL     1     -42.005 -45.608  11.096  1.00  0.00    -0.384 OA
ENDBRANCH  14  16
ENDBRANCH  10  14
BRANCH   1  21
HETATM   21  C   UNL     1     -44.446 -54.389  13.220  1.00  0.00     0.066 C 
BRANCH  21  22
HETATM   22  C   UNL     1     -44.117 -54.999  14.589  1.00  0.00     0.002 C 
HETATM   23  C   UNL     1     -44.375 -54.049  15.751  1.00  0.00     0.005 C 
ENDBRANCH  21  22
ENDBRANCH   1  21
TORSDOF 4
ENDMDL
MODEL 6
REMARK VINA RESULT:      -5.4      4.522      5.501
REMARK  4 active torsions:
REMARK  status: ('A' for Active; 'I' for Inactive)
REMARK    1  A    between atoms: C_2  and  C_3 
REMARK    2  A    between atoms: C_3  and  C_4 
REMARK       I    between atoms: N_10  and  C_11 
REMARK       I    between atoms: C_11  and  N_13 
REMARK    3  A    between atoms: N_13  and  C_14 
REMARK    4  A    between atoms: C_14  and  C_16 
ROOT
HETATM    1  C   UNL     1     -44.419 -51.605  13.488  1.00  0.00     0.069 A 
HETATM    2  N   UNL     1     -43.521 -50.658  13.664  1.00  0.00    -0.296 N 
ATOM      3  HN  UNL     1     -43.744 -49.665  13.740  1.00  0.00     0.187 HD
HETATM    4  N   UNL     1     -42.246 -51.165  13.736  1.00  0.00    -0.279 N 
ATOM      5  HN  UNL     1     -41.409 -50.593  13.848  1.00  0.00     0.189 HD
HETATM    6  C   UNL     1     -42.234 -52.474  13.643  1.00  0.00     0.169 A 
HETATM    7  N   UNL     1     -41.150 -53.304  13.638  1.00  0.00    -0.288 N 
HETATM    8  C   UNL     1     -39.852 -52.888  13.621  1.00  0.00     0.322 C 
HETATM    9  O   UNL     1     -38.948 -53.720  13.671  1.00  0.00    -0.247 OA
HETATM   10  N   UNL     1     -39.627 -51.548  13.543  1.00  0.00    -0.336 N 
HETATM   11  S   UNL     1     -43.763 -53.202  13.480  1.00  0.00    -0.038 SA
HETATM   12  H   UNL     1     -41.298 -54.302  13.629  1.00  0.00     0.172 HD
HETATM   13  H   UNL     1     -40.418 -50.939  13.349  1.00  0.00     0.164 HD
ENDROOT
BRANCH  10  14
HETATM   14  C   UNL     1     -38.311 -50.942  13.397  1.00  0.00     0.111 C 
HETATM   15  C   UNL     1     -38.132 -50.455  11.957  1.00  0.00     0.035 C 
BRANCH  14  16
HETATM   16  C   UNL     1     -38.122 -49.780  14.392  1.00  0.00     0.143 C 
HETATM   17  C   UNL     1     -38.020 -48.396  13.760  1.00  0.00     0.036 C 
HETATM   18  C   UNL     1     -37.053 -47.640  14.651  1.00  0.00     0.029 C 
HETATM   19  C   UNL     1     -36.652 -48.633  15.721  1.00  0.00     0.168 C 
HETATM   20  O   UNL     1     -36.918 -49.927  15.168  1.00  0.00    -0.384 OA
ENDBRANCH  14  16
ENDBRANCH  10  14
BRANCH   1  21
HETATM   21  C   UNL     1     -45.874 -51.345  13.285  1.00  0.00     0.066 C 
BRANCH  21  22
HETATM   22  C   UNL     1     -46.475 -52.259  12.209  1.00  0.00     0.002 C 
HETATM   23  C   UNL     1     -47.339 -51.515  11.200  1.00  0.00     0.005 C 
ENDBRANCH  21  22
ENDBRANCH   1  21
TORSDOF 4
ENDMDL
MODEL 7
REMARK VINA RESULT:      -5.3      4.016      5.291
REMARK  4 active torsions:
REMARK  status: ('A' for Active; 'I' for Inactive)
REMARK    1  A    between atoms: C_2  and  C_3 
REMARK    2  A    between atoms: C_3  and  C_4 
REMARK       I    between atoms: N_10  and  C_11 
REMARK       I    between atoms: C_11  and  N_13 
REMARK    3  A    between atoms: N_13  and  C_14 
REMARK    4  A    between atoms: C_14  and  C_16 
ROOT
HETATM    1  C   UNL     1     -44.138 -52.431  12.861  1.00  0.00     0.069 A 
HETATM    2  N   UNL     1     -43.697 -51.193  12.769  1.00  0.00    -0.296 N 
ATOM      3  HN  UNL     1     -44.293 -50.387  12.586  1.00  0.00     0.187 HD
HETATM    4  N   UNL     1     -42.337 -51.117  12.951  1.00  0.00    -0.279 N 
ATOM      5  HN  UNL     1     -41.802 -50.251  12.897  1.00  0.00     0.189 HD
HETATM    6  C   UNL     1     -41.810 -52.292  13.204  1.00  0.00     0.169 A 
HETATM    7  N   UNL     1     -40.493 -52.595  13.399  1.00  0.00    -0.288 N 
HETATM    8  C   UNL     1     -39.462 -51.715  13.253  1.00  0.00     0.322 C 
HETATM    9  O   UNL     1     -38.315 -52.078  13.505  1.00  0.00    -0.247 OA
HETATM   10  N   UNL     1     -39.769 -50.460  12.825  1.00  0.00    -0.336 N 
HETATM   11  S   UNL     1     -42.915 -53.584  13.260  1.00  0.00    -0.038 SA
HETATM   12  H   UNL     1     -40.241 -53.538  13.654  1.00  0.00     0.172 HD
HETATM   13  H   UNL     1     -40.714 -50.284  12.491  1.00  0.00     0.164 HD
ENDROOT
BRANCH  10  14
HETATM   14  C   UNL     1     -38.784 -49.437  12.505  1.00  0.00     0.111 C 
HETATM   15  C   UNL     1     -37.924 -49.907  11.329  1.00  0.00     0.035 C 
BRANCH  14  16
HETATM   16  C   UNL     1     -39.466 -48.093  12.178  1.00  0.00     0.143 C 
HETATM   17  C   UNL     1     -39.317 -47.014  13.245  1.00  0.00     0.036 C 
HETATM   18  C   UNL     1     -40.620 -46.239  13.189  1.00  0.00     0.029 C 
HETATM   19  C   UNL     1     -41.435 -46.926  12.113  1.00  0.00     0.168 C 
HETATM   20  O   UNL     1     -40.887 -48.243  11.993  1.00  0.00    -0.384 OA
ENDBRANCH  14  16
ENDBRANCH  10  14
BRANCH   1  21
HETATM   21  C   UNL     1     -45.554 -52.831  12.620  1.00  0.00     0.066 C 
BRANCH  21  22
HETATM   22  C   UNL     1     -46.478 -51.614  12.486  1.00  0.00     0.002 C 
HETATM   23  C   UNL     1     -47.289 -51.611  11.198  1.00  0.00     0.005 C 
ENDBRANCH  21  22
ENDBRANCH   1  21
TORSDOF 4
ENDMDL
MODEL 8
REMARK VINA RESULT:      -5.2      3.728      4.814
REMARK  4 active torsions:
REMARK  status: ('A' for Active; 'I' for Inactive)
REMARK    1  A    between atoms: C_2  and  C_3 
REMARK    2  A    between atoms: C_3  and  C_4 
REMARK       I    between atoms: N_10  and  C_11 
REMARK       I    between atoms: C_11  and  N_13 
REMARK    3  A    between atoms: N_13  and  C_14 
REMARK    4  A    between atoms: C_14  and  C_16 
ROOT
HETATM    1  C   UNL     1     -44.009 -52.139  12.756  1.00  0.00     0.069 A 
HETATM    2  N   UNL     1     -44.022 -50.823  12.827  1.00  0.00    -0.296 N 
ATOM      3  HN  UNL     1     -44.841 -50.273  13.083  1.00  0.00     0.187 HD
HETATM    4  N   UNL     1     -42.799 -50.280  12.514  1.00  0.00    -0.279 N 
ATOM      5  HN  UNL     1     -42.610 -49.278  12.488  1.00  0.00     0.189 HD
HETATM    6  C   UNL     1     -41.905 -51.204  12.251  1.00  0.00     0.169 A 
HETATM    7  N   UNL     1     -40.606 -51.027  11.870  1.00  0.00    -0.288 N 
HETATM    8  C   UNL     1     -40.034 -49.823  11.586  1.00  0.00     0.322 C 
HETATM    9  O   UNL     1     -38.839 -49.770  11.302  1.00  0.00    -0.247 OA
HETATM   10  N   UNL     1     -40.838 -48.726  11.630  1.00  0.00    -0.336 N 
HETATM   11  S   UNL     1     -42.461 -52.806  12.378  1.00  0.00    -0.038 SA
HETATM   12  H   UNL     1     -40.012 -51.837  11.769  1.00  0.00     0.172 HD
HETATM   13  H   UNL     1     -41.841 -48.868  11.719  1.00  0.00     0.164 HD
ENDROOT
BRANCH  10  14
HETATM   14  C   UNL     1     -40.421 -47.385  11.243  1.00  0.00     0.111 C 
HETATM   15  C   UNL     1     -41.481 -46.767  10.328  1.00  0.00     0.035 C 
BRANCH  14  16
HETATM   16  C   UNL     1     -40.187 -46.498  12.482  1.00  0.00     0.143 C 
HETATM   17  C   UNL     1     -39.855 -45.040  12.181  1.00  0.00     0.036 C 
HETATM   18  C   UNL     1     -38.892 -44.633  13.280  1.00  0.00     0.029 C 
HETATM   19  C   UNL     1     -38.720 -45.877  14.126  1.00  0.00     0.168 C 
HETATM   20  O   UNL     1     -39.089 -46.973  13.283  1.00  0.00    -0.384 OA
ENDBRANCH  14  16
ENDBRANCH  10  14
BRANCH   1  21
HETATM   21  C   UNL     1     -45.213 -52.995  12.956  1.00  0.00     0.066 C 
BRANCH  21  22
HETATM   22  C   UNL     1     -46.508 -52.172  12.960  1.00  0.00     0.002 C 
HETATM   23  C   UNL     1     -47.056 -51.903  11.565  1.00  0.00     0.005 C 
ENDBRANCH  21  22
ENDBRANCH   1  21
TORSDOF 4
ENDMDL
MODEL 9
REMARK VINA RESULT:      -5.1      4.286      5.134
REMARK  4 active torsions:
REMARK  status: ('A' for Active; 'I' for Inactive)
REMARK    1  A    between atoms: C_2  and  C_3 
REMARK    2  A    between atoms: C_3  and  C_4 
REMARK       I    between atoms: N_10  and  C_11 
REMARK       I    between atoms: C_11  and  N_13 
REMARK    3  A    between atoms: N_13  and  C_14 
REMARK    4  A    between atoms: C_14  and  C_16 
ROOT
HETATM    1  C   UNL     1     -42.512 -47.625  10.984  1.00  0.00     0.069 A 
HETATM    2  N   UNL     1     -42.311 -48.899  10.715  1.00  0.00    -0.296 N 
ATOM      3  HN  UNL     1     -42.023 -49.252   9.802  1.00  0.00     0.187 HD
HETATM    4  N   UNL     1     -42.534 -49.698  11.811  1.00  0.00    -0.279 N 
ATOM      5  HN  UNL     1     -42.453 -50.714  11.802  1.00  0.00     0.189 HD
HETATM    6  C   UNL     1     -42.863 -48.996  12.870  1.00  0.00     0.169 A 
HETATM    7  N   UNL     1     -43.188 -49.457  14.113  1.00  0.00    -0.288 N 
HETATM    8  C   UNL     1     -43.333 -50.772  14.441  1.00  0.00     0.322 C 
HETATM    9  O   UNL     1     -43.577 -51.083  15.605  1.00  0.00    -0.247 OA
HETATM   10  N   UNL     1     -43.202 -51.684  13.439  1.00  0.00    -0.336 N 
HETATM   11  S   UNL     1     -42.912 -47.312  12.634  1.00  0.00    -0.038 SA
HETATM   12  H   UNL     1     -43.354 -48.792  14.853  1.00  0.00     0.172 HD
HETATM   13  H   UNL     1     -43.155 -51.342  12.482  1.00  0.00     0.164 HD
ENDROOT
BRANCH  10  14
HETATM   14  C   UNL     1     -43.441 -53.112  13.590  1.00  0.00     0.111 C 
HETATM   15  C   UNL     1     -44.326 -53.604  12.443  1.00  0.00     0.035 C 
BRANCH  14  16
HETATM   16  C   UNL     1     -42.113 -53.895  13.628  1.00  0.00     0.143 C 
HETATM   17  C   UNL     1     -41.776 -54.533  14.972  1.00  0.00     0.036 C 
HETATM   18  C   UNL     1     -40.263 -54.453  15.062  1.00  0.00     0.029 C 
HETATM   19  C   UNL     1     -39.833 -53.766  13.784  1.00  0.00     0.168 C 
HETATM   20  O   UNL     1     -40.985 -53.056  13.318  1.00  0.00    -0.384 OA
ENDBRANCH  14  16
ENDBRANCH  10  14
BRANCH   1  21
HETATM   21  C   UNL     1     -42.433 -46.537   9.968  1.00  0.00     0.066 C 
BRANCH  21  22
HETATM   22  C   UNL     1     -43.359 -46.800   8.773  1.00  0.00     0.002 C 
HETATM   23  C   UNL     1     -44.829 -46.892   9.158  1.00  0.00     0.005 C 
ENDBRANCH  21  22
ENDBRANCH   1  21
TORSDOF 4
ENDMDL
