MODEL 1
REMARK VINA RESULT:      -6.1      0.000      0.000
REMARK  5 active torsions:
REMARK  status: ('A' for Active; 'I' for Inactive)
REMARK    1  A    between atoms: C_2  and  C_5 
REMARK    2  A    between atoms: C_5  and  O_6 
REMARK    3  A    between atoms: O_6  and  C_7 
REMARK    4  A    between atoms: C_10  and  N_11 
REMARK       I    between atoms: N_11  and  C_12 
REMARK       I    between atoms: C_12  and  N_14 
REMARK    5  A    between atoms: N_14  and  C_15 
ROOT
HETATM    1  C   UNL     1     -40.803 -45.575  10.457  1.00  0.00     0.142 A 
HETATM    2  C   UNL     1     -42.181 -45.523  10.533  1.00  0.00     0.058 A 
HETATM    3  C   UNL     1     -42.870 -46.691  10.841  1.00  0.00     0.035 A 
HETATM    4  C   UNL     1     -42.171 -47.871  11.098  1.00  0.00     0.051 A 
HETATM    5  C   UNL     1     -40.782 -47.815  10.966  1.00  0.00     0.119 A 
HETATM    6  N   UNL     1     -40.080 -46.697  10.649  1.00  0.00    -0.345 N 
ATOM      7  HN  UNL     1     -39.064 -46.705  10.562  1.00  0.00     0.167 HD
ENDROOT
BRANCH   4   8
HETATM    8  N   UNL     1     -42.799 -49.083  11.458  1.00  0.00    -0.308 N 
HETATM    9  C   UNL     1     -43.251 -49.390  12.728  1.00  0.00     0.321 C 
HETATM   10  O   UNL     1     -43.056 -48.708  13.726  1.00  0.00    -0.247 OA
HETATM   11  N   UNL     1     -44.004 -50.541  12.758  1.00  0.00    -0.338 N 
HETATM   12  H   UNL     1     -43.677 -51.271  12.143  1.00  0.00     0.164 HD
HETATM   13  H   UNL     1     -42.802 -49.830  10.778  1.00  0.00     0.170 HD
BRANCH  11  14
HETATM   14  C   UNL     1     -44.633 -50.972  14.012  1.00  0.00     0.087 C 
HETATM   15  C   UNL     1     -43.789 -52.047  14.711  1.00  0.00     0.035 C 
HETATM   16  C   UNL     1     -43.700 -53.360  13.940  1.00  0.00     0.076 C 
HETATM   17  S   UNL     1     -45.320 -54.113  13.615  1.00  0.00    -0.169 SA
HETATM   18  C   UNL     1     -46.172 -52.676  12.901  1.00  0.00     0.076 C 
HETATM   19  C   UNL     1     -46.078 -51.473  13.828  1.00  0.00     0.035 C 
ENDBRANCH  11  14
ENDBRANCH   4   8
BRANCH   1  20
HETATM   20  O   UNL     1     -40.160 -44.385  10.198  1.00  0.00    -0.327 OA
BRANCH  20  21
HETATM   21  C   UNL     1     -40.499 -43.346  11.124  1.00  0.00     0.294 C 
BRANCH  21  22
HETATM   22  C   UNL     1     -39.783 -43.414  12.471  1.00  0.00     0.408 C 
HETATM   23  F   UNL     1     -38.673 -44.182  12.461  1.00  0.00    -0.169 F 
HETATM   24  F   UNL     1     -40.616 -43.947  13.406  1.00  0.00    -0.169 F 
HETATM   25  F   UNL     1     -39.442 -42.184  12.919  1.00  0.00    -0.169 F 
ENDBRANCH  21  22
ENDBRANCH  20  21
ENDBRANCH   1  20
TORSDOF 5
ENDMDL
MODEL 2
REMARK VINA RESULT:      -5.7      5.399      6.838
REMARK  5 active torsions:
REMARK  status: ('A' for Active; 'I' for Inactive)
REMARK    1  A    between atoms: C_2  and  C_5 
REMARK    2  A    between atoms: C_5  and  O_6 
REMARK    3  A    between atoms: O_6  and  C_7 
REMARK    4  A    between atoms: C_10  and  N_11 
REMARK       I    between atoms: N_11  and  C_12 
REMARK       I    between atoms: C_12  and  N_14 
REMARK    5  A    between atoms: N_14  and  C_15 
ROOT
HETATM    1  C   UNL     1     -43.134 -47.598   9.724  1.00  0.00     0.142 A 
HETATM    2  C   UNL     1     -43.541 -47.131  10.959  1.00  0.00     0.058 A 
HETATM    3  C   UNL     1     -42.746 -47.412  12.065  1.00  0.00     0.035 A 
HETATM    4  C   UNL     1     -41.553 -48.120  11.911  1.00  0.00     0.051 A 
HETATM    5  C   UNL     1     -41.255 -48.568  10.622  1.00  0.00     0.119 A 
HETATM    6  N   UNL     1     -42.017 -48.326   9.525  1.00  0.00    -0.345 N 
ATOM      7  HN  UNL     1     -41.760 -48.676   8.602  1.00  0.00     0.167 HD
ENDROOT
BRANCH   4   8
HETATM    8  N   UNL     1     -40.676 -48.405  12.980  1.00  0.00    -0.308 N 
HETATM    9  C   UNL     1     -39.692 -47.552  13.441  1.00  0.00     0.321 C 
HETATM   10  O   UNL     1     -39.372 -46.496  12.908  1.00  0.00    -0.247 OA
HETATM   11  N   UNL     1     -39.122 -47.986  14.616  1.00  0.00    -0.338 N 
HETATM   12  H   UNL     1     -38.999 -48.985  14.677  1.00  0.00     0.164 HD
HETATM   13  H   UNL     1     -40.676 -49.346  13.348  1.00  0.00     0.170 HD
BRANCH  11  14
HETATM   14  C   UNL     1     -38.115 -47.158  15.290  1.00  0.00     0.087 C 
HETATM   15  C   UNL     1     -36.722 -47.795  15.191  1.00  0.00     0.035 C 
HETATM   16  C   UNL     1     -36.592 -49.117  15.941  1.00  0.00     0.076 C 
HETATM   17  S   UNL     1     -36.965 -48.976  17.712  1.00  0.00    -0.169 SA
HETATM   18  C   UNL     1     -38.567 -48.125  17.607  1.00  0.00     0.076 C 
HETATM   19  C   UNL     1     -38.457 -46.864  16.763  1.00  0.00     0.035 C 
ENDBRANCH  11  14
ENDBRANCH   4   8
BRANCH   1  20
HETATM   20  O   UNL     1     -43.925 -47.255   8.651  1.00  0.00    -0.327 OA
BRANCH  20  21
HETATM   21  C   UNL     1     -45.248 -46.855   9.028  1.00  0.00     0.294 C 
BRANCH  21  22
HETATM   22  C   UNL     1     -46.325 -47.925   8.863  1.00  0.00     0.408 C 
HETATM   23  F   UNL     1     -47.584 -47.442   8.900  1.00  0.00    -0.169 F 
HETATM   24  F   UNL     1     -46.227 -48.833   9.871  1.00  0.00    -0.169 F 
HETATM   25  F   UNL     1     -46.171 -48.615   7.709  1.00  0.00    -0.169 F 
ENDBRANCH  21  22
ENDBRANCH  20  21
ENDBRANCH   1  20
TORSDOF 5
ENDMDL
MODEL 3
REMARK VINA RESULT:      -5.6      4.445      5.381
REMARK  5 active torsions:
REMARK  status: ('A' for Active; 'I' for Inactive)
REMARK    1  A    between atoms: C_2  and  C_5 
REMARK    2  A    between atoms: C_5  and  O_6 
REMARK    3  A    between atoms: O_6  and  C_7 
REMARK    4  A    between atoms: C_10  and  N_11 
REMARK       I    between atoms: N_11  and  C_12 
REMARK       I    between atoms: C_12  and  N_14 
REMARK    5  A    between atoms: N_14  and  C_15 
ROOT
HETATM    1  C   UNL     1     -42.533 -47.783  10.457  1.00  0.00     0.142 A 
HETATM    2  C   UNL     1     -43.138 -47.891  11.694  1.00  0.00     0.058 A 
HETATM    3  C   UNL     1     -42.640 -48.830  12.592  1.00  0.00     0.035 A 
HETATM    4  C   UNL     1     -41.536 -49.612  12.250  1.00  0.00     0.051 A 
HETATM    5  C   UNL     1     -41.022 -49.438  10.963  1.00  0.00     0.119 A 
HETATM    6  N   UNL     1     -41.495 -48.544  10.057  1.00  0.00    -0.345 N 
ATOM      7  HN  UNL     1     -41.088 -48.454   9.126  1.00  0.00     0.167 HD
ENDROOT
BRANCH   4   8
HETATM    8  N   UNL     1     -40.951 -50.554  13.124  1.00  0.00    -0.308 N 
HETATM    9  C   UNL     1     -41.222 -51.909  13.119  1.00  0.00     0.321 C 
HETATM   10  O   UNL     1     -42.089 -52.449  12.443  1.00  0.00    -0.247 OA
HETATM   11  N   UNL     1     -40.369 -52.623  13.929  1.00  0.00    -0.338 N 
HETATM   12  H   UNL     1     -40.120 -52.157  14.788  1.00  0.00     0.164 HD
HETATM   13  H   UNL     1     -40.399 -50.200  13.893  1.00  0.00     0.170 HD
BRANCH  11  14
HETATM   14  C   UNL     1     -40.461 -54.087  13.979  1.00  0.00     0.087 C 
HETATM   15  C   UNL     1     -41.650 -54.535  14.842  1.00  0.00     0.035 C 
HETATM   16  C   UNL     1     -41.510 -54.180  16.319  1.00  0.00     0.076 C 
HETATM   17  S   UNL     1     -40.024 -54.886  17.088  1.00  0.00    -0.169 SA
HETATM   18  C   UNL     1     -38.781 -54.337  15.882  1.00  0.00     0.076 C 
HETATM   19  C   UNL     1     -39.167 -54.761  14.473  1.00  0.00     0.035 C 
ENDBRANCH  11  14
ENDBRANCH   4   8
BRANCH   1  20
HETATM   20  O   UNL     1     -43.027 -46.808   9.620  1.00  0.00    -0.327 OA
BRANCH  20  21
HETATM   21  C   UNL     1     -43.778 -47.334   8.519  1.00  0.00     0.294 C 
BRANCH  21  22
HETATM   22  C   UNL     1     -45.280 -47.468   8.760  1.00  0.00     0.408 C 
HETATM   23  F   UNL     1     -45.595 -48.016   9.952  1.00  0.00    -0.169 F 
HETATM   24  F   UNL     1     -45.827 -48.270   7.807  1.00  0.00    -0.169 F 
HETATM   25  F   UNL     1     -45.910 -46.274   8.664  1.00  0.00    -0.169 F 
ENDBRANCH  21  22
ENDBRANCH  20  21
ENDBRANCH   1  20
TORSDOF 5
ENDMDL
MODEL 4
REMARK VINA RESULT:      -5.6      7.109      9.147
REMARK  5 active torsions:
REMARK  status: ('A' for Active; 'I' for Inactive)
REMARK    1  A    between atoms: C_2  and  C_5 
REMARK    2  A    between atoms: C_5  and  O_6 
REMARK    3  A    between atoms: O_6  and  C_7 
REMARK    4  A    between atoms: C_10  and  N_11 
REMARK       I    between atoms: N_11  and  C_12 
REMARK       I    between atoms: C_12  and  N_14 
REMARK    5  A    between atoms: N_14  and  C_15 
ROOT
HETATM    1  C   UNL     1     -43.989 -53.914  13.006  1.00  0.00     0.142 A 
HETATM    2  C   UNL     1     -44.051 -54.637  14.182  1.00  0.00     0.058 A 
HETATM    3  C   UNL     1     -42.860 -54.939  14.834  1.00  0.00     0.035 A 
HETATM    4  C   UNL     1     -41.644 -54.487  14.320  1.00  0.00     0.051 A 
HETATM    5  C   UNL     1     -41.698 -53.790  13.111  1.00  0.00     0.119 A 
HETATM    6  N   UNL     1     -42.840 -53.494  12.440  1.00  0.00    -0.345 N 
ATOM      7  HN  UNL     1     -42.830 -52.983  11.557  1.00  0.00     0.167 HD
ENDROOT
BRANCH   4   8
HETATM    8  N   UNL     1     -40.401 -54.718  14.949  1.00  0.00    -0.308 N 
HETATM    9  C   UNL     1     -40.099 -54.364  16.251  1.00  0.00     0.321 C 
HETATM   10  O   UNL     1     -40.822 -53.699  16.983  1.00  0.00    -0.247 OA
HETATM   11  N   UNL     1     -38.899 -54.886  16.676  1.00  0.00    -0.338 N 
HETATM   12  H   UNL     1     -38.177 -54.903  15.972  1.00  0.00     0.164 HD
HETATM   13  H   UNL     1     -39.638 -55.042  14.374  1.00  0.00     0.170 HD
BRANCH  11  14
HETATM   14  C   UNL     1     -38.461 -54.678  18.062  1.00  0.00     0.087 C 
HETATM   15  C   UNL     1     -36.938 -54.499  18.137  1.00  0.00     0.035 C 
HETATM   16  C   UNL     1     -36.149 -55.744  17.744  1.00  0.00     0.076 C 
HETATM   17  S   UNL     1     -36.545 -57.195  18.762  1.00  0.00    -0.169 SA
HETATM   18  C   UNL     1     -38.355 -57.164  18.623  1.00  0.00     0.076 C 
HETATM   19  C   UNL     1     -38.908 -55.802  19.016  1.00  0.00     0.035 C 
ENDBRANCH  11  14
ENDBRANCH   4   8
BRANCH   1  20
HETATM   20  O   UNL     1     -45.194 -53.597  12.420  1.00  0.00    -0.327 OA
BRANCH  20  21
HETATM   21  C   UNL     1     -46.135 -53.024  13.337  1.00  0.00     0.294 C 
BRANCH  21  22
HETATM   22  C   UNL     1     -46.437 -51.544  13.121  1.00  0.00     0.408 C 
HETATM   23  F   UNL     1     -47.124 -51.287  11.988  1.00  0.00    -0.169 F 
HETATM   24  F   UNL     1     -45.273 -50.845  13.036  1.00  0.00    -0.169 F 
HETATM   25  F   UNL     1     -47.125 -51.017  14.160  1.00  0.00    -0.169 F 
ENDBRANCH  21  22
ENDBRANCH  20  21
ENDBRANCH   1  20
TORSDOF 5
ENDMDL
MODEL 5
REMARK VINA RESULT:      -5.4      5.570      8.850
REMARK  5 active torsions:
REMARK  status: ('A' for Active; 'I' for Inactive)
REMARK    1  A    between atoms: C_2  and  C_5 
REMARK    2  A    between atoms: C_5  and  O_6 
REMARK    3  A    between atoms: O_6  and  C_7 
REMARK    4  A    between atoms: C_10  and  N_11 
REMARK       I    between atoms: N_11  and  C_12 
REMARK       I    between atoms: C_12  and  N_14 
REMARK    5  A    between atoms: N_14  and  C_15 
ROOT
HETATM    1  C   UNL     1     -43.956 -52.671  12.625  1.00  0.00     0.142 A 
HETATM    2  C   UNL     1     -44.523 -51.551  13.200  1.00  0.00     0.058 A 
HETATM    3  C   UNL     1     -43.789 -50.369  13.208  1.00  0.00     0.035 A 
HETATM    4  C   UNL     1     -42.526 -50.324  12.616  1.00  0.00     0.051 A 
HETATM    5  C   UNL     1     -42.040 -51.523  12.089  1.00  0.00     0.119 A 
HETATM    6  N   UNL     1     -42.723 -52.696  12.081  1.00  0.00    -0.345 N 
ATOM      7  HN  UNL     1     -42.326 -53.548  11.686  1.00  0.00     0.167 HD
ENDROOT
BRANCH   4   8
HETATM    8  N   UNL     1     -41.742 -49.152  12.548  1.00  0.00    -0.308 N 
HETATM    9  C   UNL     1     -41.793 -48.227  11.522  1.00  0.00     0.321 C 
HETATM   10  O   UNL     1     -42.430 -48.364  10.485  1.00  0.00    -0.247 OA
HETATM   11  N   UNL     1     -41.082 -47.084  11.804  1.00  0.00    -0.338 N 
HETATM   12  H   UNL     1     -40.221 -47.240  12.307  1.00  0.00     0.164 HD
HETATM   13  H   UNL     1     -40.999 -49.045  13.224  1.00  0.00     0.170 HD
BRANCH  11  14
HETATM   14  C   UNL     1     -41.095 -45.962  10.858  1.00  0.00     0.087 C 
HETATM   15  C   UNL     1     -39.754 -45.214  10.871  1.00  0.00     0.035 C 
HETATM   16  C   UNL     1     -39.453 -44.507  12.188  1.00  0.00     0.076 C 
HETATM   17  S   UNL     1     -40.720 -43.294  12.657  1.00  0.00    -0.169 SA
HETATM   18  C   UNL     1     -42.199 -44.333  12.481  1.00  0.00     0.076 C 
HETATM   19  C   UNL     1     -42.252 -44.974  11.103  1.00  0.00     0.035 C 
ENDBRANCH  11  14
ENDBRANCH   4   8
BRANCH   1  20
HETATM   20  O   UNL     1     -44.738 -53.804  12.596  1.00  0.00    -0.327 OA
BRANCH  20  21
HETATM   21  C   UNL     1     -44.774 -54.499  13.848  1.00  0.00     0.294 C 
BRANCH  21  22
HETATM   22  C   UNL     1     -46.128 -54.506  14.552  1.00  0.00     0.408 C 
HETATM   23  F   UNL     1     -46.044 -54.443  15.897  1.00  0.00    -0.169 F 
HETATM   24  F   UNL     1     -46.792 -55.657  14.258  1.00  0.00    -0.169 F 
HETATM   25  F   UNL     1     -46.916 -53.491  14.129  1.00  0.00    -0.169 F 
ENDBRANCH  21  22
ENDBRANCH  20  21
ENDBRANCH   1  20
TORSDOF 5
ENDMDL
MODEL 6
REMARK VINA RESULT:      -5.3      1.613      2.214
REMARK  5 active torsions:
REMARK  status: ('A' for Active; 'I' for Inactive)
REMARK    1  A    between atoms: C_2  and  C_5 
REMARK    2  A    between atoms: C_5  and  O_6 
REMARK    3  A    between atoms: O_6  and  C_7 
REMARK    4  A    between atoms: C_10  and  N_11 
REMARK       I    between atoms: N_11  and  C_12 
REMARK       I    between atoms: C_12  and  N_14 
REMARK    5  A    between atoms: N_14  and  C_15 
ROOT
HETATM    1  C   UNL     1     -40.501 -46.309  11.287  1.00  0.00     0.142 A 
HETATM    2  C   UNL     1     -40.713 -46.634  12.614  1.00  0.00     0.058 A 
HETATM    3  C   UNL     1     -41.528 -47.724  12.904  1.00  0.00     0.035 A 
HETATM    4  C   UNL     1     -42.084 -48.479  11.871  1.00  0.00     0.051 A 
HETATM    5  C   UNL     1     -41.826 -48.044  10.570  1.00  0.00     0.119 A 
HETATM    6  N   UNL     1     -41.050 -46.975  10.252  1.00  0.00    -0.345 N 
ATOM      7  HN  UNL     1     -40.892 -46.693   9.285  1.00  0.00     0.167 HD
ENDROOT
BRANCH   4   8
HETATM    8  N   UNL     1     -42.885 -49.621  12.090  1.00  0.00    -0.308 N 
HETATM    9  C   UNL     1     -42.399 -50.880  12.387  1.00  0.00     0.321 C 
HETATM   10  O   UNL     1     -41.215 -51.196  12.379  1.00  0.00    -0.247 OA
HETATM   11  N   UNL     1     -43.392 -51.759  12.753  1.00  0.00    -0.338 N 
HETATM   12  H   UNL     1     -44.254 -51.654  12.239  1.00  0.00     0.164 HD
HETATM   13  H   UNL     1     -43.871 -49.548  11.886  1.00  0.00     0.170 HD
BRANCH  11  14
HETATM   14  C   UNL     1     -43.045 -53.119  13.182  1.00  0.00     0.087 C 
HETATM   15  C   UNL     1     -44.123 -54.124  12.752  1.00  0.00     0.035 C 
HETATM   16  C   UNL     1     -45.470 -53.916  13.437  1.00  0.00     0.076 C 
HETATM   17  S   UNL     1     -45.376 -54.009  15.248  1.00  0.00    -0.169 SA
HETATM   18  C   UNL     1     -44.006 -52.851  15.529  1.00  0.00     0.076 C 
HETATM   19  C   UNL     1     -42.791 -53.233  14.697  1.00  0.00     0.035 C 
ENDBRANCH  11  14
ENDBRANCH   4   8
BRANCH   1  20
HETATM   20  O   UNL     1     -39.649 -45.255  11.046  1.00  0.00    -0.327 OA
BRANCH  20  21
HETATM   21  C   UNL     1     -39.375 -44.470  12.213  1.00  0.00     0.294 C 
BRANCH  21  22
HETATM   22  C   UNL     1     -40.109 -43.134  12.286  1.00  0.00     0.408 C 
HETATM   23  F   UNL     1     -40.477 -42.646  11.083  1.00  0.00    -0.169 F 
HETATM   24  F   UNL     1     -39.301 -42.198  12.854  1.00  0.00    -0.169 F 
HETATM   25  F   UNL     1     -41.212 -43.211  13.065  1.00  0.00    -0.169 F 
ENDBRANCH  21  22
ENDBRANCH  20  21
ENDBRANCH   1  20
TORSDOF 5
ENDMDL
MODEL 7
REMARK VINA RESULT:      -5.2      5.952      8.600
REMARK  5 active torsions:
REMARK  status: ('A' for Active; 'I' for Inactive)
REMARK    1  A    between atoms: C_2  and  C_5 
REMARK    2  A    between atoms: C_5  and  O_6 
REMARK    3  A    between atoms: O_6  and  C_7 
REMARK    4  A    between atoms: C_10  and  N_11 
REMARK       I    between atoms: N_11  and  C_12 
REMARK       I    between atoms: C_12  and  N_14 
REMARK    5  A    between atoms: N_14  and  C_15 
ROOT
HETATM    1  C   UNL     1     -39.546 -54.210  14.011  1.00  0.00     0.142 A 
HETATM    2  C   UNL     1     -40.661 -54.476  13.240  1.00  0.00     0.058 A 
HETATM    3  C   UNL     1     -41.219 -53.434  12.505  1.00  0.00     0.035 A 
HETATM    4  C   UNL     1     -40.636 -52.167  12.530  1.00  0.00     0.051 A 
HETATM    5  C   UNL     1     -39.529 -52.005  13.365  1.00  0.00     0.119 A 
HETATM    6  N   UNL     1     -38.970 -52.995  14.109  1.00  0.00    -0.345 N 
ATOM      7  HN  UNL     1     -38.161 -52.828  14.707  1.00  0.00     0.167 HD
ENDROOT
BRANCH   4   8
HETATM    8  N   UNL     1     -41.121 -51.074  11.779  1.00  0.00    -0.308 N 
HETATM    9  C   UNL     1     -42.156 -50.246  12.170  1.00  0.00     0.321 C 
HETATM   10  O   UNL     1     -42.863 -50.423  13.154  1.00  0.00    -0.247 OA
HETATM   11  N   UNL     1     -42.289 -49.145  11.356  1.00  0.00    -0.338 N 
HETATM   12  H   UNL     1     -42.123 -49.325  10.377  1.00  0.00     0.164 HD
HETATM   13  H   UNL     1     -40.783 -50.969  10.833  1.00  0.00     0.170 HD
BRANCH  11  14
HETATM   14  C   UNL     1     -43.286 -48.116  11.674  1.00  0.00     0.087 C 
HETATM   15  C   UNL     1     -43.835 -47.466  10.396  1.00  0.00     0.035 C 
HETATM   16  C   UNL     1     -42.799 -46.665   9.615  1.00  0.00     0.076 C 
HETATM   17  S   UNL     1     -42.047 -45.327  10.586  1.00  0.00    -0.169 SA
HETATM   18  C   UNL     1     -41.567 -46.271  12.062  1.00  0.00     0.076 C 
HETATM   19  C   UNL     1     -42.756 -47.031  12.631  1.00  0.00     0.035 C 
ENDBRANCH  11  14
ENDBRANCH   4   8
BRANCH   1  20
HETATM   20  O   UNL     1     -38.998 -55.280  14.682  1.00  0.00    -0.327 OA
BRANCH  20  21
HETATM   21  C   UNL     1     -38.930 -55.085  16.099  1.00  0.00     0.294 C 
BRANCH  21  22
HETATM   22  C   UNL     1     -40.238 -55.312  16.853  1.00  0.00     0.408 C 
HETATM   23  F   UNL     1     -40.999 -54.203  16.970  1.00  0.00    -0.169 F 
HETATM   24  F   UNL     1     -39.971 -55.736  18.117  1.00  0.00    -0.169 F 
HETATM   25  F   UNL     1     -40.987 -56.279  16.274  1.00  0.00    -0.169 F 
ENDBRANCH  21  22
ENDBRANCH  20  21
ENDBRANCH   1  20
TORSDOF 5
ENDMDL
MODEL 8
REMARK VINA RESULT:      -5.2      5.959      9.139
REMARK  5 active torsions:
REMARK  status: ('A' for Active; 'I' for Inactive)
REMARK    1  A    between atoms: C_2  and  C_5 
REMARK    2  A    between atoms: C_5  and  O_6 
REMARK    3  A    between atoms: O_6  and  C_7 
REMARK    4  A    between atoms: C_10  and  N_11 
REMARK       I    between atoms: N_11  and  C_12 
REMARK       I    between atoms: C_12  and  N_14 
REMARK    5  A    between atoms: N_14  and  C_15 
ROOT
HETATM    1  C   UNL     1     -41.955 -46.799  10.522  1.00  0.00     0.142 A 
HETATM    2  C   UNL     1     -42.580 -46.264  11.633  1.00  0.00     0.058 A 
HETATM    3  C   UNL     1     -41.978 -45.187  12.274  1.00  0.00     0.035 A 
HETATM    4  C   UNL     1     -40.790 -44.649  11.777  1.00  0.00     0.051 A 
HETATM    5  C   UNL     1     -40.232 -45.286  10.666  1.00  0.00     0.119 A 
HETATM    6  N   UNL     1     -40.784 -46.350  10.028  1.00  0.00    -0.345 N 
ATOM      7  HN  UNL     1     -40.339 -46.784   9.220  1.00  0.00     0.167 HD
ENDROOT
BRANCH   4   8
HETATM    8  N   UNL     1     -40.144 -43.531  12.350  1.00  0.00    -0.308 N 
HETATM    9  C   UNL     1     -40.508 -42.216  12.135  1.00  0.00     0.321 C 
HETATM   10  O   UNL     1     -41.353 -41.843  11.330  1.00  0.00    -0.247 OA
HETATM   11  N   UNL     1     -39.851 -41.341  12.970  1.00  0.00    -0.338 N 
HETATM   12  H   UNL     1     -38.888 -41.580  13.151  1.00  0.00     0.164 HD
HETATM   13  H   UNL     1     -39.278 -43.692  12.843  1.00  0.00     0.170 HD
BRANCH  11  14
HETATM   14  C   UNL     1     -40.177 -39.911  12.934  1.00  0.00     0.087 C 
HETATM   15  C   UNL     1     -38.906 -39.059  12.813  1.00  0.00     0.035 C 
HETATM   16  C   UNL     1     -37.989 -39.139  14.029  1.00  0.00     0.076 C 
HETATM   17  S   UNL     1     -38.799 -38.632  15.573  1.00  0.00    -0.169 SA
HETATM   18  C   UNL     1     -40.294 -39.660  15.470  1.00  0.00     0.076 C 
HETATM   19  C   UNL     1     -41.009 -39.447  14.144  1.00  0.00     0.035 C 
ENDBRANCH  11  14
ENDBRANCH   4   8
BRANCH   1  20
HETATM   20  O   UNL     1     -42.612 -47.831   9.891  1.00  0.00    -0.327 OA
BRANCH  20  21
HETATM   21  C   UNL     1     -43.380 -47.405   8.759  1.00  0.00     0.294 C 
BRANCH  21  22
HETATM   22  C   UNL     1     -44.895 -47.473   8.936  1.00  0.00     0.408 C 
HETATM   23  F   UNL     1     -45.511 -48.286   8.052  1.00  0.00    -0.169 F 
HETATM   24  F   UNL     1     -45.432 -46.235   8.766  1.00  0.00    -0.169 F 
HETATM   25  F   UNL     1     -45.235 -47.871  10.184  1.00  0.00    -0.169 F 
ENDBRANCH  21  22
ENDBRANCH  20  21
ENDBRANCH   1  20
TORSDOF 5
ENDMDL
MODEL 9
REMARK VINA RESULT:      -5.1      9.098     11.454
REMARK  5 active torsions:
REMARK  status: ('A' for Active; 'I' for Inactive)
REMARK    1  A    between atoms: C_2  and  C_5 
REMARK    2  A    between atoms: C_5  and  O_6 
REMARK    3  A    between atoms: O_6  and  C_7 
REMARK    4  A    between atoms: C_10  and  N_11 
REMARK       I    between atoms: N_11  and  C_12 
REMARK       I    between atoms: C_12  and  N_14 
REMARK    5  A    between atoms: N_14  and  C_15 
ROOT
HETATM    1  C   UNL     1     -42.488 -55.413  15.870  1.00  0.00     0.142 A 
HETATM    2  C   UNL     1     -41.661 -54.580  15.141  1.00  0.00     0.058 A 
HETATM    3  C   UNL     1     -40.285 -54.728  15.280  1.00  0.00     0.035 A 
HETATM    4  C   UNL     1     -39.767 -55.721  16.114  1.00  0.00     0.051 A 
HETATM    5  C   UNL     1     -40.694 -56.487  16.824  1.00  0.00     0.119 A 
HETATM    6  N   UNL     1     -42.042 -56.356  16.724  1.00  0.00    -0.345 N 
ATOM      7  HN  UNL     1     -42.681 -56.938  17.265  1.00  0.00     0.167 HD
ENDROOT
BRANCH   4   8
HETATM    8  N   UNL     1     -38.384 -55.957  16.272  1.00  0.00    -0.308 N 
HETATM    9  C   UNL     1     -37.590 -55.371  17.239  1.00  0.00     0.321 C 
HETATM   10  O   UNL     1     -37.952 -54.484  18.002  1.00  0.00    -0.247 OA
HETATM   11  N   UNL     1     -36.334 -55.928  17.301  1.00  0.00    -0.338 N 
HETATM   12  H   UNL     1     -35.943 -56.181  16.406  1.00  0.00     0.164 HD
HETATM   13  H   UNL     1     -37.914 -56.486  15.552  1.00  0.00     0.170 HD
BRANCH  11  14
HETATM   14  C   UNL     1     -35.385 -55.482  18.329  1.00  0.00     0.087 C 
HETATM   15  C   UNL     1     -33.968 -55.351  17.751  1.00  0.00     0.035 C 
HETATM   16  C   UNL     1     -33.354 -56.678  17.315  1.00  0.00     0.076 C 
HETATM   17  S   UNL     1     -33.249 -57.895  18.658  1.00  0.00    -0.169 SA
HETATM   18  C   UNL     1     -34.963 -57.820  19.255  1.00  0.00     0.076 C 
HETATM   19  C   UNL     1     -35.365 -56.388  19.574  1.00  0.00     0.035 C 
ENDBRANCH  11  14
ENDBRANCH   4   8
BRANCH   1  20
HETATM   20  O   UNL     1     -43.841 -55.264  15.663  1.00  0.00    -0.327 OA
BRANCH  20  21
HETATM   21  C   UNL     1     -44.163 -54.167  14.799  1.00  0.00     0.294 C 
BRANCH  21  22
HETATM   22  C   UNL     1     -45.019 -54.523  13.586  1.00  0.00     0.408 C 
HETATM   23  F   UNL     1     -44.356 -54.455  12.413  1.00  0.00    -0.169 F 
HETATM   24  F   UNL     1     -46.064 -53.657  13.493  1.00  0.00    -0.169 F 
HETATM   25  F   UNL     1     -45.555 -55.760  13.698  1.00  0.00    -0.169 F 
ENDBRANCH  21  22
ENDBRANCH  20  21
ENDBRANCH   1  20
TORSDOF 5
ENDMDL
