MODEL 1
REMARK VINA RESULT:      -5.7      0.000      0.000
REMARK  5 active torsions:
REMARK  status: ('A' for Active; 'I' for Inactive)
REMARK    1  A    between atoms: S_2  and  N_4 
REMARK    2  A    between atoms: S_2  and  N_14 
REMARK    3  A    between atoms: N_4  and  C_5 
REMARK    4  A    between atoms: C_5  and  C_6 
REMARK    5  A    between atoms: C_6  and  C_7 
ROOT
HETATM    1  N   UNL     1     -42.761 -52.532  11.787  1.00  0.00    -0.202 NA
HETATM    2  H   UNL     1     -43.204 -51.616  11.816  1.00  0.00     0.141 HD
ENDROOT
BRANCH   1   3
HETATM    3  S   UNL     1     -43.497 -53.496  12.951  1.00  0.00     0.298 S 
HETATM    4  O   UNL     1     -44.675 -54.097  12.380  1.00  0.00    -0.188 OA
HETATM    5  O   UNL     1     -42.455 -54.285  13.558  1.00  0.00    -0.188 OA
BRANCH   3   6
HETATM    6  N   UNL     1     -43.977 -52.281  14.008  1.00  0.00    -0.298 N 
HETATM    7  C   UNL     1     -44.535 -52.663  15.322  1.00  0.00     0.136 C 
HETATM    8  C   UNL     1     -46.024 -52.979  15.221  1.00  0.00     0.021 C 
HETATM    9  C   UNL     1     -46.798 -51.839  14.565  1.00  0.00     0.003 C 
HETATM   10  C   UNL     1     -46.165 -51.421  13.240  1.00  0.00     0.021 C 
HETATM   11  C   UNL     1     -44.681 -51.122  13.408  1.00  0.00     0.136 C 
ENDBRANCH   3   6
ENDBRANCH   1   3
BRANCH   1  12
HETATM   12  C   UNL     1     -41.287 -52.352  11.899  1.00  0.00     0.112 C 
BRANCH  12  13
HETATM   13  C   UNL     1     -40.887 -51.245  12.865  1.00  0.00     0.072 C 
BRANCH  13  14
HETATM   14  C   UNL     1     -40.903 -49.905  12.181  1.00  0.00     0.010 A 
HETATM   15  C   UNL     1     -39.835 -49.027  12.341  1.00  0.00     0.025 A 
HETATM   16  C   UNL     1     -39.883 -47.790  11.710  1.00  0.00     0.003 A 
HETATM   17  C   UNL     1     -40.989 -47.466  10.933  1.00  0.00     0.017 A 
HETATM   18  C   UNL     1     -42.006 -48.399  10.823  1.00  0.00     0.088 A 
HETATM   19  N   UNL     1     -41.989 -49.605  11.429  1.00  0.00    -0.369 N 
ATOM     20  HN  UNL     1     -42.761 -50.263  11.325  1.00  0.00     0.165 HD
ENDBRANCH  13  14
ENDBRANCH  12  13
ENDBRANCH   1  12
TORSDOF 5
ENDMDL
MODEL 2
REMARK VINA RESULT:      -5.6      1.572      2.085
REMARK  5 active torsions:
REMARK  status: ('A' for Active; 'I' for Inactive)
REMARK    1  A    between atoms: S_2  and  N_4 
REMARK    2  A    between atoms: S_2  and  N_14 
REMARK    3  A    between atoms: N_4  and  C_5 
REMARK    4  A    between atoms: C_5  and  C_6 
REMARK    5  A    between atoms: C_6  and  C_7 
ROOT
HETATM    1  N   UNL     1     -43.020 -52.779  11.768  1.00  0.00    -0.202 NA
HETATM    2  H   UNL     1     -43.523 -51.906  11.624  1.00  0.00     0.141 HD
ENDROOT
BRANCH   1   3
HETATM    3  S   UNL     1     -43.766 -53.600  13.031  1.00  0.00     0.298 S 
HETATM    4  O   UNL     1     -44.994 -54.180  12.548  1.00  0.00    -0.188 OA
HETATM    5  O   UNL     1     -42.748 -54.393  13.672  1.00  0.00    -0.188 OA
BRANCH   3   6
HETATM    6  N   UNL     1     -44.144 -52.277  13.994  1.00  0.00    -0.298 N 
HETATM    7  C   UNL     1     -44.554 -52.512  15.395  1.00  0.00     0.136 C 
HETATM    8  C   UNL     1     -46.041 -52.837  15.491  1.00  0.00     0.021 C 
HETATM    9  C   UNL     1     -46.894 -51.776  14.802  1.00  0.00     0.003 C 
HETATM   10  C   UNL     1     -46.413 -51.507  13.378  1.00  0.00     0.021 C 
HETATM   11  C   UNL     1     -44.923 -51.191  13.351  1.00  0.00     0.136 C 
ENDBRANCH   3   6
ENDBRANCH   1   3
BRANCH   1  12
HETATM   12  C   UNL     1     -41.572 -52.473  11.930  1.00  0.00     0.112 C 
BRANCH  12  13
HETATM   13  C   UNL     1     -41.285 -50.986  12.091  1.00  0.00     0.072 C 
BRANCH  13  14
HETATM   14  C   UNL     1     -39.804 -50.732  12.173  1.00  0.00     0.010 A 
HETATM   15  C   UNL     1     -39.076 -51.194  13.266  1.00  0.00     0.025 A 
HETATM   16  C   UNL     1     -37.713 -50.932  13.324  1.00  0.00     0.003 A 
HETATM   17  C   UNL     1     -37.113 -50.224  12.289  1.00  0.00     0.017 A 
HETATM   18  C   UNL     1     -37.908 -49.805  11.237  1.00  0.00     0.088 A 
HETATM   19  N   UNL     1     -39.235 -50.040  11.157  1.00  0.00    -0.369 N 
ATOM     20  HN  UNL     1     -39.787 -49.710  10.365  1.00  0.00     0.165 HD
ENDBRANCH  13  14
ENDBRANCH  12  13
ENDBRANCH   1  12
TORSDOF 5
ENDMDL
MODEL 3
REMARK VINA RESULT:      -5.6      2.716      4.310
REMARK  5 active torsions:
REMARK  status: ('A' for Active; 'I' for Inactive)
REMARK    1  A    between atoms: S_2  and  N_4 
REMARK    2  A    between atoms: S_2  and  N_14 
REMARK    3  A    between atoms: N_4  and  C_5 
REMARK    4  A    between atoms: C_5  and  C_6 
REMARK    5  A    between atoms: C_6  and  C_7 
ROOT
HETATM    1  N   UNL     1     -43.277 -53.002  12.001  1.00  0.00    -0.202 NA
HETATM    2  H   UNL     1     -43.594 -52.270  11.369  1.00  0.00     0.141 HD
ENDROOT
BRANCH   1   3
HETATM    3  S   UNL     1     -44.597 -53.502  12.914  1.00  0.00     0.298 S 
HETATM    4  O   UNL     1     -45.797 -53.309  12.140  1.00  0.00    -0.188 OA
HETATM    5  O   UNL     1     -44.252 -54.782  13.480  1.00  0.00    -0.188 OA
BRANCH   3   6
HETATM    6  N   UNL     1     -44.534 -52.319  14.104  1.00  0.00    -0.298 N 
HETATM    7  C   UNL     1     -44.541 -52.736  15.523  1.00  0.00     0.136 C 
HETATM    8  C   UNL     1     -45.962 -52.974  16.023  1.00  0.00     0.021 C 
HETATM    9  C   UNL     1     -46.859 -51.768  15.763  1.00  0.00     0.003 C 
HETATM   10  C   UNL     1     -46.786 -51.317  14.307  1.00  0.00     0.021 C 
HETATM   11  C   UNL     1     -45.343 -51.099  13.869  1.00  0.00     0.136 C 
ENDBRANCH   3   6
ENDBRANCH   1   3
BRANCH   1  12
HETATM   12  C   UNL     1     -42.092 -52.503  12.753  1.00  0.00     0.112 C 
BRANCH  12  13
HETATM   13  C   UNL     1     -40.852 -53.368  12.567  1.00  0.00     0.072 C 
BRANCH  13  14
HETATM   14  C   UNL     1     -40.511 -54.096  13.838  1.00  0.00     0.010 A 
HETATM   15  C   UNL     1     -39.193 -54.461  14.101  1.00  0.00     0.025 A 
HETATM   16  C   UNL     1     -38.908 -55.146  15.275  1.00  0.00     0.003 A 
HETATM   17  C   UNL     1     -39.941 -55.441  16.158  1.00  0.00     0.017 A 
HETATM   18  C   UNL     1     -41.222 -55.038  15.822  1.00  0.00     0.088 A 
HETATM   19  N   UNL     1     -41.529 -54.376  14.686  1.00  0.00    -0.369 N 
ATOM     20  HN  UNL     1     -42.488 -54.100  14.474  1.00  0.00     0.165 HD
ENDBRANCH  13  14
ENDBRANCH  12  13
ENDBRANCH   1  12
TORSDOF 5
ENDMDL
MODEL 4
REMARK VINA RESULT:      -5.3      3.326      4.874
REMARK  5 active torsions:
REMARK  status: ('A' for Active; 'I' for Inactive)
REMARK    1  A    between atoms: S_2  and  N_4 
REMARK    2  A    between atoms: S_2  and  N_14 
REMARK    3  A    between atoms: N_4  and  C_5 
REMARK    4  A    between atoms: C_5  and  C_6 
REMARK    5  A    between atoms: C_6  and  C_7 
ROOT
HETATM    1  N   UNL     1     -43.212 -53.981  12.939  1.00  0.00    -0.202 NA
HETATM    2  H   UNL     1     -43.812 -53.538  12.247  1.00  0.00     0.141 HD
ENDROOT
BRANCH   1   3
HETATM    3  S   UNL     1     -44.126 -54.233  14.327  1.00  0.00     0.298 S 
HETATM    4  O   UNL     1     -44.105 -55.637  14.649  1.00  0.00    -0.188 OA
HETATM    5  O   UNL     1     -43.728 -53.225  15.278  1.00  0.00    -0.188 OA
BRANCH   3   6
HETATM    6  N   UNL     1     -45.637 -53.854  13.698  1.00  0.00    -0.298 N 
HETATM    7  C   UNL     1     -45.735 -52.788  12.677  1.00  0.00     0.136 C 
HETATM    8  C   UNL     1     -45.806 -51.408  13.322  1.00  0.00     0.021 C 
HETATM    9  C   UNL     1     -46.921 -51.329  14.360  1.00  0.00     0.003 C 
HETATM   10  C   UNL     1     -46.836 -52.475  15.365  1.00  0.00     0.021 C 
HETATM   11  C   UNL     1     -46.766 -53.823  14.659  1.00  0.00     0.136 C 
ENDBRANCH   3   6
ENDBRANCH   1   3
BRANCH   1  12
HETATM   12  C   UNL     1     -41.976 -53.164  13.090  1.00  0.00     0.112 C 
BRANCH  12  13
HETATM   13  C   UNL     1     -40.696 -53.977  12.945  1.00  0.00     0.072 C 
BRANCH  13  14
HETATM   14  C   UNL     1     -40.236 -54.496  14.280  1.00  0.00     0.010 A 
HETATM   15  C   UNL     1     -38.904 -54.853  14.469  1.00  0.00     0.025 A 
HETATM   16  C   UNL     1     -38.510 -55.343  15.707  1.00  0.00     0.003 A 
HETATM   17  C   UNL     1     -39.451 -55.457  16.724  1.00  0.00     0.017 A 
HETATM   18  C   UNL     1     -40.753 -55.074  16.454  1.00  0.00     0.088 A 
HETATM   19  N   UNL     1     -41.166 -54.601  15.259  1.00  0.00    -0.369 N 
ATOM     20  HN  UNL     1     -42.137 -54.333  15.100  1.00  0.00     0.165 HD
ENDBRANCH  13  14
ENDBRANCH  12  13
ENDBRANCH   1  12
TORSDOF 5
ENDMDL
MODEL 5
REMARK VINA RESULT:      -5.3      2.492      3.329
REMARK  5 active torsions:
REMARK  status: ('A' for Active; 'I' for Inactive)
REMARK    1  A    between atoms: S_2  and  N_4 
REMARK    2  A    between atoms: S_2  and  N_14 
REMARK    3  A    between atoms: N_4  and  C_5 
REMARK    4  A    between atoms: C_5  and  C_6 
REMARK    5  A    between atoms: C_6  and  C_7 
ROOT
HETATM    1  N   UNL     1     -41.593 -50.557  11.594  1.00  0.00    -0.202 NA
HETATM    2  H   UNL     1     -42.297 -50.049  12.125  1.00  0.00     0.141 HD
ENDROOT
BRANCH   1   3
HETATM    3  S   UNL     1     -40.885 -51.684  12.621  1.00  0.00     0.298 S 
HETATM    4  O   UNL     1     -40.673 -52.909  11.892  1.00  0.00    -0.188 OA
HETATM    5  O   UNL     1     -39.814 -51.007  13.307  1.00  0.00    -0.188 OA
BRANCH   3   6
HETATM    6  N   UNL     1     -42.179 -51.906  13.670  1.00  0.00    -0.298 N 
HETATM    7  C   UNL     1     -42.070 -52.936  14.724  1.00  0.00     0.136 C 
HETATM    8  C   UNL     1     -42.440 -54.317  14.191  1.00  0.00     0.021 C 
HETATM    9  C   UNL     1     -43.809 -54.311  13.516  1.00  0.00     0.003 C 
HETATM   10  C   UNL     1     -43.917 -53.199  12.476  1.00  0.00     0.021 C 
HETATM   11  C   UNL     1     -43.534 -51.849  13.071  1.00  0.00     0.136 C 
ENDBRANCH   3   6
ENDBRANCH   1   3
BRANCH   1  12
HETATM   12  C   UNL     1     -40.681 -49.573  10.948  1.00  0.00     0.112 C 
BRANCH  12  13
HETATM   13  C   UNL     1     -40.964 -48.133  11.356  1.00  0.00     0.072 C 
BRANCH  13  14
HETATM   14  C   UNL     1     -41.949 -47.493  10.416  1.00  0.00     0.010 A 
HETATM   15  C   UNL     1     -42.355 -46.177  10.620  1.00  0.00     0.025 A 
HETATM   16  C   UNL     1     -43.277 -45.617   9.745  1.00  0.00     0.003 A 
HETATM   17  C   UNL     1     -43.764 -46.379   8.689  1.00  0.00     0.017 A 
HETATM   18  C   UNL     1     -43.303 -47.678   8.556  1.00  0.00     0.088 A 
HETATM   19  N   UNL     1     -42.413 -48.251   9.393  1.00  0.00    -0.369 N 
ATOM     20  HN  UNL     1     -42.102 -49.213   9.262  1.00  0.00     0.165 HD
ENDBRANCH  13  14
ENDBRANCH  12  13
ENDBRANCH   1  12
TORSDOF 5
ENDMDL
MODEL 6
REMARK VINA RESULT:      -5.3      2.380      6.152
REMARK  5 active torsions:
REMARK  status: ('A' for Active; 'I' for Inactive)
REMARK    1  A    between atoms: S_2  and  N_4 
REMARK    2  A    between atoms: S_2  and  N_14 
REMARK    3  A    between atoms: N_4  and  C_5 
REMARK    4  A    between atoms: C_5  and  C_6 
REMARK    5  A    between atoms: C_6  and  C_7 
ROOT
HETATM    1  N   UNL     1     -41.638 -52.761  14.070  1.00  0.00    -0.202 NA
HETATM    2  H   UNL     1     -42.242 -52.013  13.737  1.00  0.00     0.141 HD
ENDROOT
BRANCH   1   3
HETATM    3  S   UNL     1     -40.237 -52.743  13.142  1.00  0.00     0.298 S 
HETATM    4  O   UNL     1     -39.336 -53.751  13.642  1.00  0.00    -0.188 OA
HETATM    5  O   UNL     1     -40.650 -52.706  11.762  1.00  0.00    -0.188 OA
BRANCH   3   6
HETATM    6  N   UNL     1     -39.657 -51.235  13.602  1.00  0.00    -0.298 N 
HETATM    7  C   UNL     1     -40.123 -50.040  12.866  1.00  0.00     0.136 C 
HETATM    8  C   UNL     1     -39.306 -49.818  11.597  1.00  0.00     0.021 C 
HETATM    9  C   UNL     1     -37.809 -49.778  11.891  1.00  0.00     0.003 C 
HETATM   10  C   UNL     1     -37.365 -50.991  12.705  1.00  0.00     0.021 C 
HETATM   11  C   UNL     1     -38.219 -51.158  13.956  1.00  0.00     0.136 C 
ENDBRANCH   3   6
ENDBRANCH   1   3
BRANCH   1  12
HETATM   12  C   UNL     1     -42.416 -54.031  14.085  1.00  0.00     0.112 C 
BRANCH  12  13
HETATM   13  C   UNL     1     -43.577 -54.037  13.098  1.00  0.00     0.072 C 
BRANCH  13  14
HETATM   14  C   UNL     1     -44.665 -53.100  13.545  1.00  0.00     0.010 A 
HETATM   15  C   UNL     1     -45.559 -52.575  12.616  1.00  0.00     0.025 A 
HETATM   16  C   UNL     1     -46.545 -51.700  13.054  1.00  0.00     0.003 A 
HETATM   17  C   UNL     1     -46.619 -51.379  14.404  1.00  0.00     0.017 A 
HETATM   18  C   UNL     1     -45.694 -51.950  15.262  1.00  0.00     0.088 A 
HETATM   19  N   UNL     1     -44.721 -52.798  14.864  1.00  0.00    -0.369 N 
ATOM     20  HN  UNL     1     -44.057 -53.193  15.529  1.00  0.00     0.165 HD
ENDBRANCH  13  14
ENDBRANCH  12  13
ENDBRANCH   1  12
TORSDOF 5
ENDMDL
MODEL 7
REMARK VINA RESULT:      -5.3      2.010      5.758
REMARK  5 active torsions:
REMARK  status: ('A' for Active; 'I' for Inactive)
REMARK    1  A    between atoms: S_2  and  N_4 
REMARK    2  A    between atoms: S_2  and  N_14 
REMARK    3  A    between atoms: N_4  and  C_5 
REMARK    4  A    between atoms: C_5  and  C_6 
REMARK    5  A    between atoms: C_6  and  C_7 
ROOT
HETATM    1  N   UNL     1     -42.297 -51.914  11.938  1.00  0.00    -0.202 NA
HETATM    2  H   UNL     1     -41.609 -52.009  11.193  1.00  0.00     0.141 HD
ENDROOT
BRANCH   1   3
HETATM    3  S   UNL     1     -42.097 -50.396  12.633  1.00  0.00     0.298 S 
HETATM    4  O   UNL     1     -43.384 -49.756  12.729  1.00  0.00    -0.188 OA
HETATM    5  O   UNL     1     -41.243 -50.572  13.781  1.00  0.00    -0.188 OA
BRANCH   3   6
HETATM    6  N   UNL     1     -41.232 -49.670  11.389  1.00  0.00    -0.298 N 
HETATM    7  C   UNL     1     -39.755 -49.668  11.456  1.00  0.00     0.136 C 
HETATM    8  C   UNL     1     -39.240 -48.513  12.308  1.00  0.00     0.021 C 
HETATM    9  C   UNL     1     -39.807 -47.175  11.843  1.00  0.00     0.003 C 
HETATM   10  C   UNL     1     -41.328 -47.221  11.721  1.00  0.00     0.021 C 
HETATM   11  C   UNL     1     -41.777 -48.395  10.861  1.00  0.00     0.136 C 
ENDBRANCH   3   6
ENDBRANCH   1   3
BRANCH   1  12
HETATM   12  C   UNL     1     -42.179 -53.088  12.847  1.00  0.00     0.112 C 
BRANCH  12  13
HETATM   13  C   UNL     1     -43.470 -53.886  12.970  1.00  0.00     0.072 C 
BRANCH  13  14
HETATM   14  C   UNL     1     -44.618 -52.992  13.355  1.00  0.00     0.010 A 
HETATM   15  C   UNL     1     -44.909 -52.770  14.698  1.00  0.00     0.025 A 
HETATM   16  C   UNL     1     -45.984 -51.953  15.026  1.00  0.00     0.003 A 
HETATM   17  C   UNL     1     -46.733 -51.375  14.007  1.00  0.00     0.017 A 
HETATM   18  C   UNL     1     -46.372 -51.644  12.698  1.00  0.00     0.088 A 
HETATM   19  N   UNL     1     -45.338 -52.438  12.351  1.00  0.00    -0.369 N 
ATOM     20  HN  UNL     1     -45.108 -52.614  11.373  1.00  0.00     0.165 HD
ENDBRANCH  13  14
ENDBRANCH  12  13
ENDBRANCH   1  12
TORSDOF 5
ENDMDL
MODEL 8
REMARK VINA RESULT:      -5.2      1.374      1.942
REMARK  5 active torsions:
REMARK  status: ('A' for Active; 'I' for Inactive)
REMARK    1  A    between atoms: S_2  and  N_4 
REMARK    2  A    between atoms: S_2  and  N_14 
REMARK    3  A    between atoms: N_4  and  C_5 
REMARK    4  A    between atoms: C_5  and  C_6 
REMARK    5  A    between atoms: C_6  and  C_7 
ROOT
HETATM    1  N   UNL     1     -42.875 -52.143  12.237  1.00  0.00    -0.202 NA
HETATM    2  H   UNL     1     -43.768 -51.895  11.817  1.00  0.00     0.141 HD
ENDROOT
BRANCH   1   3
HETATM    3  S   UNL     1     -43.168 -53.296  13.425  1.00  0.00     0.298 S 
HETATM    4  O   UNL     1     -42.284 -54.415  13.214  1.00  0.00    -0.188 OA
HETATM    5  O   UNL     1     -43.225 -52.595  14.683  1.00  0.00    -0.188 OA
BRANCH   3   6
HETATM    6  N   UNL     1     -44.717 -53.745  12.955  1.00  0.00    -0.298 N 
HETATM    7  C   UNL     1     -45.673 -52.689  12.559  1.00  0.00     0.136 C 
HETATM    8  C   UNL     1     -46.364 -52.082  13.775  1.00  0.00     0.021 C 
HETATM    9  C   UNL     1     -47.005 -53.154  14.652  1.00  0.00     0.003 C 
HETATM   10  C   UNL     1     -46.015 -54.264  14.995  1.00  0.00     0.021 C 
HETATM   11  C   UNL     1     -45.360 -54.826  13.740  1.00  0.00     0.136 C 
ENDBRANCH   3   6
ENDBRANCH   1   3
BRANCH   1  12
HETATM   12  C   UNL     1     -42.189 -50.894  12.670  1.00  0.00     0.112 C 
BRANCH  12  13
HETATM   13  C   UNL     1     -41.008 -50.518  11.785  1.00  0.00     0.072 C 
BRANCH  13  14
HETATM   14  C   UNL     1     -41.089 -49.076  11.367  1.00  0.00     0.010 A 
HETATM   15  C   UNL     1     -40.093 -48.181  11.748  1.00  0.00     0.025 A 
HETATM   16  C   UNL     1     -40.201 -46.851  11.361  1.00  0.00     0.003 A 
HETATM   17  C   UNL     1     -41.294 -46.451  10.599  1.00  0.00     0.017 A 
HETATM   18  C   UNL     1     -42.236 -47.406  10.259  1.00  0.00     0.088 A 
HETATM   19  N   UNL     1     -42.161 -48.703  10.626  1.00  0.00    -0.369 N 
ATOM     20  HN  UNL     1     -42.880 -49.375  10.357  1.00  0.00     0.165 HD
ENDBRANCH  13  14
ENDBRANCH  12  13
ENDBRANCH   1  12
TORSDOF 5
ENDMDL
MODEL 9
REMARK VINA RESULT:      -5.1      2.681      5.549
REMARK  5 active torsions:
REMARK  status: ('A' for Active; 'I' for Inactive)
REMARK    1  A    between atoms: S_2  and  N_4 
REMARK    2  A    between atoms: S_2  and  N_14 
REMARK    3  A    between atoms: N_4  and  C_5 
REMARK    4  A    between atoms: C_5  and  C_6 
REMARK    5  A    between atoms: C_6  and  C_7 
ROOT
HETATM    1  N   UNL     1     -40.722 -51.713  13.928  1.00  0.00    -0.202 NA
HETATM    2  H   UNL     1     -41.724 -51.882  13.861  1.00  0.00     0.141 HD
ENDROOT
BRANCH   1   3
HETATM    3  S   UNL     1     -40.211 -51.060  12.466  1.00  0.00     0.298 S 
HETATM    4  O   UNL     1     -38.783 -51.225  12.358  1.00  0.00    -0.188 OA
HETATM    5  O   UNL     1     -41.115 -51.543  11.454  1.00  0.00    -0.188 OA
BRANCH   3   6
HETATM    6  N   UNL     1     -40.537 -49.444  12.793  1.00  0.00    -0.298 N 
HETATM    7  C   UNL     1     -41.740 -49.108  13.583  1.00  0.00     0.136 C 
HETATM    8  C   UNL     1     -42.982 -49.040  12.700  1.00  0.00     0.021 C 
HETATM    9  C   UNL     1     -42.778 -48.102  11.514  1.00  0.00     0.003 C 
HETATM   10  C   UNL     1     -41.497 -48.430  10.752  1.00  0.00     0.021 C 
HETATM   11  C   UNL     1     -40.297 -48.484  11.689  1.00  0.00     0.136 C 
ENDBRANCH   3   6
ENDBRANCH   1   3
BRANCH   1  12
HETATM   12  C   UNL     1     -40.056 -52.970  14.370  1.00  0.00     0.112 C 
BRANCH  12  13
HETATM   13  C   UNL     1     -40.549 -54.206  13.630  1.00  0.00     0.072 C 
BRANCH  13  14
HETATM   14  C   UNL     1     -42.052 -54.267  13.631  1.00  0.00     0.010 A 
HETATM   15  C   UNL     1     -42.727 -54.823  14.715  1.00  0.00     0.025 A 
HETATM   16  C   UNL     1     -44.115 -54.881  14.683  1.00  0.00     0.003 A 
HETATM   17  C   UNL     1     -44.791 -54.377  13.579  1.00  0.00     0.017 A 
HETATM   18  C   UNL     1     -44.044 -53.837  12.547  1.00  0.00     0.088 A 
HETATM   19  N   UNL     1     -42.696 -53.773  12.547  1.00  0.00    -0.369 N 
ATOM     20  HN  UNL     1     -42.182 -53.369  11.763  1.00  0.00     0.165 HD
ENDBRANCH  13  14
ENDBRANCH  12  13
ENDBRANCH   1  12
TORSDOF 5
ENDMDL
