MODEL 1
REMARK VINA RESULT:      -5.6      0.000      0.000
REMARK  8 active torsions:
REMARK  status: ('A' for Active; 'I' for Inactive)
REMARK    1  A    between atoms: O_1  and  C_2 
REMARK    2  A    between atoms: C_2  and  CA_3 
REMARK    3  A    between atoms: CA_3  and  C_4 
REMARK    4  A    between atoms: CA_3  and  N_12 
REMARK    5  A    between atoms: C_4  and  C_5 
REMARK       I    between atoms: N_12  and  C_13 
REMARK    6  A    between atoms: C_13  and  C_15 
REMARK    7  A    between atoms: C_15  and  C_16 
REMARK    8  A    between atoms: C_16  and  C_17 
ROOT
HETATM    1  CA  UNL     1     -40.661 -52.964  13.626  1.00  0.00     0.113 C 
ENDROOT
BRANCH   1   2
HETATM    2  C   UNL     1     -39.305 -53.583  14.022  1.00  0.00     0.189 C 
BRANCH   2   3
HETATM    3  O   UNL     1     -39.005 -54.750  13.271  1.00  0.00    -0.399 OA
HETATM    4  H   UNL     1     -39.066 -54.502  12.331  1.00  0.00     0.209 HD
ENDBRANCH   2   3
ENDBRANCH   1   2
BRANCH   1   5
HETATM    5  C   UNL     1     -40.640 -52.352  12.207  1.00  0.00     0.084 C 
BRANCH   5   6
HETATM    6  C   UNL     1     -41.336 -51.019  12.119  1.00  0.00     0.011 A 
HETATM    7  C   UNL     1     -42.434 -50.737  12.928  1.00  0.00     0.025 A 
HETATM    8  C   UNL     1     -43.073 -49.506  12.797  1.00  0.00     0.003 A 
HETATM    9  C   UNL     1     -42.588 -48.589  11.876  1.00  0.00     0.017 A 
HETATM   10  C   UNL     1     -41.486 -48.943  11.117  1.00  0.00     0.088 A 
HETATM   11  N   UNL     1     -40.863 -50.138  11.205  1.00  0.00    -0.369 N 
ATOM     12  HN  UNL     1     -40.069 -50.369  10.608  1.00  0.00     0.165 HD
ENDBRANCH   5   6
ENDBRANCH   1   5
BRANCH   1  13
HETATM   13  N   UNL     1     -41.737 -53.944  13.818  1.00  0.00    -0.354 N 
HETATM   14  C   UNL     1     -42.494 -54.019  14.964  1.00  0.00     0.217 C 
HETATM   15  O   UNL     1     -42.363 -53.267  15.920  1.00  0.00    -0.274 OA
HETATM   16  H   UNL     1     -41.913 -54.609  13.075  1.00  0.00     0.162 HD
BRANCH  14  17
HETATM   17  C   UNL     1     -43.549 -55.104  14.930  1.00  0.00     0.103 C 
BRANCH  17  18
HETATM   18  C   UNL     1     -44.685 -54.723  13.984  1.00  0.00     0.014 C 
BRANCH  18  19
HETATM   19  C   UNL     1     -44.951 -53.220  13.944  1.00  0.00    -0.014 C 
HETATM   20  C   UNL     1     -45.922 -52.718  15.021  1.00  0.00     0.004 C 
HETATM   21  C   UNL     1     -46.810 -51.672  14.345  1.00  0.00     0.000 C 
HETATM   22  C   UNL     1     -46.231 -51.464  12.954  1.00  0.00     0.000 C 
HETATM   23  C   UNL     1     -45.597 -52.802  12.623  1.00  0.00     0.004 C 
ENDBRANCH  18  19
ENDBRANCH  17  18
ENDBRANCH  14  17
ENDBRANCH   1  13
TORSDOF 8
ENDMDL
MODEL 2
REMARK VINA RESULT:      -5.6      2.366      4.565
REMARK  8 active torsions:
REMARK  status: ('A' for Active; 'I' for Inactive)
REMARK    1  A    between atoms: O_1  and  C_2 
REMARK    2  A    between atoms: C_2  and  CA_3 
REMARK    3  A    between atoms: CA_3  and  C_4 
REMARK    4  A    between atoms: CA_3  and  N_12 
REMARK    5  A    between atoms: C_4  and  C_5 
REMARK       I    between atoms: N_12  and  C_13 
REMARK    6  A    between atoms: C_13  and  C_15 
REMARK    7  A    between atoms: C_15  and  C_16 
REMARK    8  A    between atoms: C_16  and  C_17 
ROOT
HETATM    1  CA  UNL     1     -42.293 -52.779  12.926  1.00  0.00     0.113 C 
ENDROOT
BRANCH   1   2
HETATM    2  C   UNL     1     -41.427 -52.291  11.746  1.00  0.00     0.189 C 
BRANCH   2   3
HETATM    3  O   UNL     1     -40.554 -53.302  11.262  1.00  0.00    -0.399 OA
HETATM    4  H   UNL     1     -39.664 -53.084  11.592  1.00  0.00     0.209 HD
ENDBRANCH   2   3
ENDBRANCH   1   2
BRANCH   1   5
HETATM    5  C   UNL     1     -41.688 -52.403  14.298  1.00  0.00     0.084 C 
BRANCH   5   6
HETATM    6  C   UNL     1     -40.938 -53.532  14.952  1.00  0.00     0.011 A 
HETATM    7  C   UNL     1     -39.584 -53.730  14.689  1.00  0.00     0.025 A 
HETATM    8  C   UNL     1     -38.929 -54.806  15.287  1.00  0.00     0.003 A 
HETATM    9  C   UNL     1     -39.639 -55.638  16.139  1.00  0.00     0.017 A 
HETATM   10  C   UNL     1     -40.979 -55.368  16.354  1.00  0.00     0.088 A 
HETATM   11  N   UNL     1     -41.645 -54.349  15.769  1.00  0.00    -0.369 N 
ATOM     12  HN  UNL     1     -42.640 -54.199  15.935  1.00  0.00     0.165 HD
ENDBRANCH   5   6
ENDBRANCH   1   5
BRANCH   1  13
HETATM   13  N   UNL     1     -43.678 -52.321  12.758  1.00  0.00    -0.354 N 
HETATM   14  C   UNL     1     -44.743 -53.179  12.614  1.00  0.00     0.217 C 
HETATM   15  O   UNL     1     -44.647 -54.398  12.637  1.00  0.00    -0.274 OA
HETATM   16  H   UNL     1     -43.849 -51.324  12.726  1.00  0.00     0.162 HD
BRANCH  14  17
HETATM   17  C   UNL     1     -46.076 -52.477  12.463  1.00  0.00     0.103 C 
BRANCH  17  18
HETATM   18  C   UNL     1     -46.173 -51.290  13.417  1.00  0.00     0.014 C 
BRANCH  18  19
HETATM   19  C   UNL     1     -46.117 -51.697  14.887  1.00  0.00    -0.014 C 
HETATM   20  C   UNL     1     -47.445 -51.543  15.640  1.00  0.00     0.004 C 
HETATM   21  C   UNL     1     -47.094 -51.000  17.025  1.00  0.00     0.000 C 
HETATM   22  C   UNL     1     -45.575 -51.014  17.110  1.00  0.00     0.000 C 
HETATM   23  C   UNL     1     -45.132 -50.830  15.671  1.00  0.00     0.004 C 
ENDBRANCH  18  19
ENDBRANCH  17  18
ENDBRANCH  14  17
ENDBRANCH   1  13
TORSDOF 8
ENDMDL
MODEL 3
REMARK VINA RESULT:      -5.5      5.068      7.660
REMARK  8 active torsions:
REMARK  status: ('A' for Active; 'I' for Inactive)
REMARK    1  A    between atoms: O_1  and  C_2 
REMARK    2  A    between atoms: C_2  and  CA_3 
REMARK    3  A    between atoms: CA_3  and  C_4 
REMARK    4  A    between atoms: CA_3  and  N_12 
REMARK    5  A    between atoms: C_4  and  C_5 
REMARK       I    between atoms: N_12  and  C_13 
REMARK    6  A    between atoms: C_13  and  C_15 
REMARK    7  A    between atoms: C_15  and  C_16 
REMARK    8  A    between atoms: C_16  and  C_17 
ROOT
HETATM    1  CA  UNL     1     -42.766 -46.637  10.024  1.00  0.00     0.113 C 
ENDROOT
BRANCH   1   2
HETATM    2  C   UNL     1     -42.474 -45.212  10.540  1.00  0.00     0.189 C 
BRANCH   2   3
HETATM    3  O   UNL     1     -43.415 -44.262  10.060  1.00  0.00    -0.399 OA
HETATM    4  H   UNL     1     -43.473 -44.386   9.096  1.00  0.00     0.209 HD
ENDBRANCH   2   3
ENDBRANCH   1   2
BRANCH   1   5
HETATM    5  C   UNL     1     -43.280 -46.645   8.567  1.00  0.00     0.084 C 
BRANCH   5   6
HETATM    6  C   UNL     1     -44.519 -47.478   8.373  1.00  0.00     0.011 A 
HETATM    7  C   UNL     1     -45.536 -47.469   9.325  1.00  0.00     0.025 A 
HETATM    8  C   UNL     1     -46.654 -48.278   9.128  1.00  0.00     0.003 A 
HETATM    9  C   UNL     1     -46.730 -49.056   7.982  1.00  0.00     0.017 A 
HETATM   10  C   UNL     1     -45.682 -49.000   7.081  1.00  0.00     0.088 A 
HETATM   11  N   UNL     1     -44.576 -48.245   7.259  1.00  0.00    -0.369 N 
ATOM     12  HN  UNL     1     -43.813 -48.253   6.580  1.00  0.00     0.165 HD
ENDBRANCH   5   6
ENDBRANCH   1   5
BRANCH   1  13
HETATM   13  N   UNL     1     -41.594 -47.496  10.231  1.00  0.00    -0.354 N 
HETATM   14  C   UNL     1     -41.601 -48.595  11.058  1.00  0.00     0.217 C 
HETATM   15  O   UNL     1     -42.583 -48.977  11.680  1.00  0.00    -0.274 OA
HETATM   16  H   UNL     1     -40.735 -47.252   9.754  1.00  0.00     0.162 HD
BRANCH  14  17
HETATM   17  C   UNL     1     -40.279 -49.332  11.106  1.00  0.00     0.103 C 
BRANCH  17  18
HETATM   18  C   UNL     1     -39.205 -48.473  11.767  1.00  0.00     0.014 C 
BRANCH  18  19
HETATM   19  C   UNL     1     -38.167 -49.294  12.528  1.00  0.00    -0.014 C 
HETATM   20  C   UNL     1     -38.572 -50.752  12.783  1.00  0.00     0.004 C 
HETATM   21  C   UNL     1     -38.107 -51.085  14.201  1.00  0.00     0.000 C 
HETATM   22  C   UNL     1     -37.297 -49.886  14.672  1.00  0.00     0.000 C 
HETATM   23  C   UNL     1     -37.911 -48.720  13.921  1.00  0.00     0.004 C 
ENDBRANCH  18  19
ENDBRANCH  17  18
ENDBRANCH  14  17
ENDBRANCH   1  13
TORSDOF 8
ENDMDL
MODEL 4
REMARK VINA RESULT:      -5.5      2.872      4.354
REMARK  8 active torsions:
REMARK  status: ('A' for Active; 'I' for Inactive)
REMARK    1  A    between atoms: O_1  and  C_2 
REMARK    2  A    between atoms: C_2  and  CA_3 
REMARK    3  A    between atoms: CA_3  and  C_4 
REMARK    4  A    between atoms: CA_3  and  N_12 
REMARK    5  A    between atoms: C_4  and  C_5 
REMARK       I    between atoms: N_12  and  C_13 
REMARK    6  A    between atoms: C_13  and  C_15 
REMARK    7  A    between atoms: C_15  and  C_16 
REMARK    8  A    between atoms: C_16  and  C_17 
ROOT
HETATM    1  CA  UNL     1     -41.559 -49.100  11.348  1.00  0.00     0.113 C 
ENDROOT
BRANCH   1   2
HETATM    2  C   UNL     1     -42.478 -48.067  10.662  1.00  0.00     0.189 C 
BRANCH   2   3
HETATM    3  O   UNL     1     -42.370 -48.106   9.246  1.00  0.00    -0.399 OA
HETATM    4  H   UNL     1     -43.255 -47.901   8.892  1.00  0.00     0.209 HD
ENDBRANCH   2   3
ENDBRANCH   1   2
BRANCH   1   5
HETATM    5  C   UNL     1     -40.399 -48.437  12.124  1.00  0.00     0.084 C 
BRANCH   5   6
HETATM    6  C   UNL     1     -39.228 -49.356  12.351  1.00  0.00     0.011 A 
HETATM    7  C   UNL     1     -38.296 -49.581  11.341  1.00  0.00     0.025 A 
HETATM    8  C   UNL     1     -37.243 -50.464  11.576  1.00  0.00     0.003 A 
HETATM    9  C   UNL     1     -37.144 -51.079  12.815  1.00  0.00     0.017 A 
HETATM   10  C   UNL     1     -38.105 -50.794  13.768  1.00  0.00     0.088 A 
HETATM   11  N   UNL     1     -39.150 -49.964  13.559  1.00  0.00    -0.369 N 
ATOM     12  HN  UNL     1     -39.852 -49.801  14.281  1.00  0.00     0.165 HD
ENDBRANCH   5   6
ENDBRANCH   1   5
BRANCH   1  13
HETATM   13  N   UNL     1     -42.359 -50.015  12.172  1.00  0.00    -0.354 N 
HETATM   14  C   UNL     1     -42.089 -51.359  12.286  1.00  0.00     0.217 C 
HETATM   15  O   UNL     1     -41.149 -51.916  11.736  1.00  0.00    -0.274 OA
HETATM   16  H   UNL     1     -43.160 -49.637  12.663  1.00  0.00     0.162 HD
BRANCH  14  17
HETATM   17  C   UNL     1     -43.045 -52.099  13.198  1.00  0.00     0.103 C 
BRANCH  17  18
HETATM   18  C   UNL     1     -43.969 -53.005  12.390  1.00  0.00     0.014 C 
BRANCH  18  19
HETATM   19  C   UNL     1     -45.430 -52.909  12.824  1.00  0.00    -0.014 C 
HETATM   20  C   UNL     1     -45.904 -51.487  13.149  1.00  0.00     0.004 C 
HETATM   21  C   UNL     1     -46.802 -51.603  14.381  1.00  0.00     0.000 C 
HETATM   22  C   UNL     1     -46.970 -53.093  14.640  1.00  0.00     0.000 C 
HETATM   23  C   UNL     1     -45.684 -53.699  14.108  1.00  0.00     0.004 C 
ENDBRANCH  18  19
ENDBRANCH  17  18
ENDBRANCH  14  17
ENDBRANCH   1  13
TORSDOF 8
ENDMDL
MODEL 5
REMARK VINA RESULT:      -5.5      2.356      5.923
REMARK  8 active torsions:
REMARK  status: ('A' for Active; 'I' for Inactive)
REMARK    1  A    between atoms: O_1  and  C_2 
REMARK    2  A    between atoms: C_2  and  CA_3 
REMARK    3  A    between atoms: CA_3  and  C_4 
REMARK    4  A    between atoms: CA_3  and  N_12 
REMARK    5  A    between atoms: C_4  and  C_5 
REMARK       I    between atoms: N_12  and  C_13 
REMARK    6  A    between atoms: C_13  and  C_15 
REMARK    7  A    between atoms: C_15  and  C_16 
REMARK    8  A    between atoms: C_16  and  C_17 
ROOT
HETATM    1  CA  UNL     1     -45.063 -52.047  13.011  1.00  0.00     0.113 C 
ENDROOT
BRANCH   1   2
HETATM    2  C   UNL     1     -46.546 -51.901  12.612  1.00  0.00     0.189 C 
BRANCH   2   3
HETATM    3  O   UNL     1     -46.824 -52.482  11.346  1.00  0.00    -0.399 OA
HETATM    4  H   UNL     1     -47.794 -52.552  11.277  1.00  0.00     0.209 HD
ENDBRANCH   2   3
ENDBRANCH   1   2
BRANCH   1   5
HETATM    5  C   UNL     1     -44.412 -53.315  12.414  1.00  0.00     0.084 C 
BRANCH   5   6
HETATM    6  C   UNL     1     -43.092 -53.666  13.047  1.00  0.00     0.011 A 
HETATM    7  C   UNL     1     -43.040 -54.187  14.338  1.00  0.00     0.025 A 
HETATM    8  C   UNL     1     -41.799 -54.469  14.904  1.00  0.00     0.003 A 
HETATM    9  C   UNL     1     -40.651 -54.239  14.161  1.00  0.00     0.017 A 
HETATM   10  C   UNL     1     -40.788 -53.729  12.882  1.00  0.00     0.088 A 
HETATM   11  N   UNL     1     -41.977 -53.422  12.318  1.00  0.00    -0.369 N 
ATOM     12  HN  UNL     1     -42.032 -53.022  11.381  1.00  0.00     0.165 HD
ENDBRANCH   5   6
ENDBRANCH   1   5
BRANCH   1  13
HETATM   13  N   UNL     1     -44.332 -50.815  12.691  1.00  0.00    -0.354 N 
HETATM   14  C   UNL     1     -43.583 -50.121  13.612  1.00  0.00     0.217 C 
HETATM   15  O   UNL     1     -43.432 -50.473  14.774  1.00  0.00    -0.274 OA
HETATM   16  H   UNL     1     -44.404 -50.450  11.749  1.00  0.00     0.162 HD
BRANCH  14  17
HETATM   17  C   UNL     1     -42.914 -48.885  13.050  1.00  0.00     0.103 C 
BRANCH  17  18
HETATM   18  C   UNL     1     -41.990 -49.250  11.892  1.00  0.00     0.014 C 
BRANCH  18  19
HETATM   19  C   UNL     1     -42.059 -48.256  10.735  1.00  0.00    -0.014 C 
HETATM   20  C   UNL     1     -41.078 -47.081  10.848  1.00  0.00     0.004 C 
HETATM   21  C   UNL     1     -41.837 -45.842  10.372  1.00  0.00     0.000 C 
HETATM   22  C   UNL     1     -43.169 -46.344   9.834  1.00  0.00     0.000 C 
HETATM   23  C   UNL     1     -43.435 -47.598  10.645  1.00  0.00     0.004 C 
ENDBRANCH  18  19
ENDBRANCH  17  18
ENDBRANCH  14  17
ENDBRANCH   1  13
TORSDOF 8
ENDMDL
MODEL 6
REMARK VINA RESULT:      -5.5      2.786      3.914
REMARK  8 active torsions:
REMARK  status: ('A' for Active; 'I' for Inactive)
REMARK    1  A    between atoms: O_1  and  C_2 
REMARK    2  A    between atoms: C_2  and  CA_3 
REMARK    3  A    between atoms: CA_3  and  C_4 
REMARK    4  A    between atoms: CA_3  and  N_12 
REMARK    5  A    between atoms: C_4  and  C_5 
REMARK       I    between atoms: N_12  and  C_13 
REMARK    6  A    between atoms: C_13  and  C_15 
REMARK    7  A    between atoms: C_15  and  C_16 
REMARK    8  A    between atoms: C_16  and  C_17 
ROOT
HETATM    1  CA  UNL     1     -39.901 -49.704  12.017  1.00  0.00     0.113 C 
ENDROOT
BRANCH   1   2
HETATM    2  C   UNL     1     -38.391 -49.611  11.715  1.00  0.00     0.189 C 
BRANCH   2   3
HETATM    3  O   UNL     1     -38.076 -50.048  10.400  1.00  0.00    -0.399 OA
HETATM    4  H   UNL     1     -37.408 -50.751  10.491  1.00  0.00     0.209 HD
ENDBRANCH   2   3
ENDBRANCH   1   2
BRANCH   1   5
HETATM    5  C   UNL     1     -40.729 -48.673  11.216  1.00  0.00     0.084 C 
BRANCH   5   6
HETATM    6  C   UNL     1     -40.320 -47.247  11.473  1.00  0.00     0.011 A 
HETATM    7  C   UNL     1     -40.207 -46.765  12.775  1.00  0.00     0.025 A 
HETATM    8  C   UNL     1     -39.858 -45.430  12.974  1.00  0.00     0.003 A 
HETATM    9  C   UNL     1     -39.617 -44.625  11.871  1.00  0.00     0.017 A 
HETATM   10  C   UNL     1     -39.741 -45.183  10.611  1.00  0.00     0.088 A 
HETATM   11  N   UNL     1     -40.103 -46.466  10.389  1.00  0.00    -0.369 N 
ATOM     12  HN  UNL     1     -40.209 -46.831   9.442  1.00  0.00     0.165 HD
ENDBRANCH   5   6
ENDBRANCH   1   5
BRANCH   1  13
HETATM   13  N   UNL     1     -40.366 -51.085  11.838  1.00  0.00    -0.354 N 
HETATM   14  C   UNL     1     -40.392 -52.010  12.856  1.00  0.00     0.217 C 
HETATM   15  O   UNL     1     -40.057 -51.769  14.008  1.00  0.00    -0.274 OA
HETATM   16  H   UNL     1     -40.662 -51.372  10.914  1.00  0.00     0.162 HD
BRANCH  14  17
HETATM   17  C   UNL     1     -40.919 -53.366  12.437  1.00  0.00     0.103 C 
BRANCH  17  18
HETATM   18  C   UNL     1     -41.473 -54.126  13.638  1.00  0.00     0.014 C 
BRANCH  18  19
HETATM   19  C   UNL     1     -42.947 -53.827  13.906  1.00  0.00    -0.014 C 
HETATM   20  C   UNL     1     -43.708 -54.963  14.603  1.00  0.00     0.004 C 
HETATM   21  C   UNL     1     -45.087 -55.024  13.943  1.00  0.00     0.000 C 
HETATM   22  C   UNL     1     -45.159 -53.825  13.008  1.00  0.00     0.000 C 
HETATM   23  C   UNL     1     -43.715 -53.594  12.606  1.00  0.00     0.004 C 
ENDBRANCH  18  19
ENDBRANCH  17  18
ENDBRANCH  14  17
ENDBRANCH   1  13
TORSDOF 8
ENDMDL
MODEL 7
REMARK VINA RESULT:      -5.4      1.483      2.084
REMARK  8 active torsions:
REMARK  status: ('A' for Active; 'I' for Inactive)
REMARK    1  A    between atoms: O_1  and  C_2 
REMARK    2  A    between atoms: C_2  and  CA_3 
REMARK    3  A    between atoms: CA_3  and  C_4 
REMARK    4  A    between atoms: CA_3  and  N_12 
REMARK    5  A    between atoms: C_4  and  C_5 
REMARK       I    between atoms: N_12  and  C_13 
REMARK    6  A    between atoms: C_13  and  C_15 
REMARK    7  A    between atoms: C_15  and  C_16 
REMARK    8  A    between atoms: C_16  and  C_17 
ROOT
HETATM    1  CA  UNL     1     -41.663 -53.767  14.049  1.00  0.00     0.113 C 
ENDROOT
BRANCH   1   2
HETATM    2  C   UNL     1     -40.811 -54.294  12.876  1.00  0.00     0.189 C 
BRANCH   2   3
HETATM    3  O   UNL     1     -39.441 -54.435  13.224  1.00  0.00    -0.399 OA
HETATM    4  H   UNL     1     -39.136 -55.271  12.829  1.00  0.00     0.209 HD
ENDBRANCH   2   3
ENDBRANCH   1   2
BRANCH   1   5
HETATM    5  C   UNL     1     -41.172 -52.397  14.567  1.00  0.00     0.084 C 
BRANCH   5   6
HETATM    6  C   UNL     1     -40.922 -51.395  13.471  1.00  0.00     0.011 A 
HETATM    7  C   UNL     1     -41.975 -50.669  12.920  1.00  0.00     0.025 A 
HETATM    8  C   UNL     1     -41.711 -49.775  11.884  1.00  0.00     0.003 A 
HETATM    9  C   UNL     1     -40.406 -49.621  11.443  1.00  0.00     0.017 A 
HETATM   10  C   UNL     1     -39.415 -50.372  12.049  1.00  0.00     0.088 A 
HETATM   11  N   UNL     1     -39.646 -51.265  13.037  1.00  0.00    -0.369 N 
ATOM     12  HN  UNL     1     -38.889 -51.819  13.440  1.00  0.00     0.165 HD
ENDBRANCH   5   6
ENDBRANCH   1   5
BRANCH   1  13
HETATM   13  N   UNL     1     -43.084 -53.771  13.680  1.00  0.00    -0.354 N 
HETATM   14  C   UNL     1     -43.995 -54.665  14.194  1.00  0.00     0.217 C 
HETATM   15  O   UNL     1     -43.718 -55.522  15.022  1.00  0.00    -0.274 OA
HETATM   16  H   UNL     1     -43.401 -53.094  12.997  1.00  0.00     0.162 HD
BRANCH  14  17
HETATM   17  C   UNL     1     -45.403 -54.472  13.673  1.00  0.00     0.103 C 
BRANCH  17  18
HETATM   18  C   UNL     1     -45.541 -53.119  12.980  1.00  0.00     0.014 C 
BRANCH  18  19
HETATM   19  C   UNL     1     -46.241 -52.073  13.844  1.00  0.00    -0.014 C 
HETATM   20  C   UNL     1     -45.290 -51.142  14.609  1.00  0.00     0.004 C 
HETATM   21  C   UNL     1     -45.905 -50.944  15.995  1.00  0.00     0.000 C 
HETATM   22  C   UNL     1     -47.271 -51.614  15.949  1.00  0.00     0.000 C 
HETATM   23  C   UNL     1     -47.093 -52.725  14.932  1.00  0.00     0.004 C 
ENDBRANCH  18  19
ENDBRANCH  17  18
ENDBRANCH  14  17
ENDBRANCH   1  13
TORSDOF 8
ENDMDL
MODEL 8
REMARK VINA RESULT:      -5.4      2.265      3.153
REMARK  8 active torsions:
REMARK  status: ('A' for Active; 'I' for Inactive)
REMARK    1  A    between atoms: O_1  and  C_2 
REMARK    2  A    between atoms: C_2  and  CA_3 
REMARK    3  A    between atoms: CA_3  and  C_4 
REMARK    4  A    between atoms: CA_3  and  N_12 
REMARK    5  A    between atoms: C_4  and  C_5 
REMARK       I    between atoms: N_12  and  C_13 
REMARK    6  A    between atoms: C_13  and  C_15 
REMARK    7  A    between atoms: C_15  and  C_16 
REMARK    8  A    between atoms: C_16  and  C_17 
ROOT
HETATM    1  CA  UNL     1     -38.941 -49.879  12.144  1.00  0.00     0.113 C 
ENDROOT
BRANCH   1   2
HETATM    2  C   UNL     1     -37.542 -50.324  11.669  1.00  0.00     0.189 C 
BRANCH   2   3
HETATM    3  O   UNL     1     -37.332 -50.059  10.289  1.00  0.00    -0.399 OA
HETATM    4  H   UNL     1     -37.066 -49.125  10.220  1.00  0.00     0.209 HD
ENDBRANCH   2   3
ENDBRANCH   1   2
BRANCH   1   5
HETATM    5  C   UNL     1     -39.271 -48.427  11.732  1.00  0.00     0.084 C 
BRANCH   5   6
HETATM    6  C   UNL     1     -40.745 -48.176  11.553  1.00  0.00     0.011 A 
HETATM    7  C   UNL     1     -41.583 -48.051  12.659  1.00  0.00     0.025 A 
HETATM    8  C   UNL     1     -42.947 -47.852  12.455  1.00  0.00     0.003 A 
HETATM    9  C   UNL     1     -43.429 -47.766  11.158  1.00  0.00     0.017 A 
HETATM   10  C   UNL     1     -42.530 -47.891  10.114  1.00  0.00     0.088 A 
HETATM   11  N   UNL     1     -41.207 -48.110  10.282  1.00  0.00    -0.369 N 
ATOM     12  HN  UNL     1     -40.582 -48.222   9.484  1.00  0.00     0.165 HD
ENDBRANCH   5   6
ENDBRANCH   1   5
BRANCH   1  13
HETATM   13  N   UNL     1     -39.952 -50.850  11.709  1.00  0.00    -0.354 N 
HETATM   14  C   UNL     1     -40.621 -51.683  12.576  1.00  0.00     0.217 C 
HETATM   15  O   UNL     1     -40.458 -51.680  13.788  1.00  0.00    -0.274 OA
HETATM   16  H   UNL     1     -40.149 -50.920  10.719  1.00  0.00     0.162 HD
BRANCH  14  17
HETATM   17  C   UNL     1     -41.624 -52.592  11.898  1.00  0.00     0.103 C 
BRANCH  17  18
HETATM   18  C   UNL     1     -42.646 -53.114  12.904  1.00  0.00     0.014 C 
BRANCH  18  19
HETATM   19  C   UNL     1     -44.046 -52.548  12.681  1.00  0.00    -0.014 C 
HETATM   20  C   UNL     1     -44.321 -51.225  13.409  1.00  0.00     0.004 C 
HETATM   21  C   UNL     1     -45.752 -51.315  13.939  1.00  0.00     0.000 C 
HETATM   22  C   UNL     1     -46.333 -52.600  13.368  1.00  0.00     0.000 C 
HETATM   23  C   UNL     1     -45.123 -53.500  13.201  1.00  0.00     0.004 C 
ENDBRANCH  18  19
ENDBRANCH  17  18
ENDBRANCH  14  17
ENDBRANCH   1  13
TORSDOF 8
ENDMDL
MODEL 9
REMARK VINA RESULT:      -5.3      1.909      3.969
REMARK  8 active torsions:
REMARK  status: ('A' for Active; 'I' for Inactive)
REMARK    1  A    between atoms: O_1  and  C_2 
REMARK    2  A    between atoms: C_2  and  CA_3 
REMARK    3  A    between atoms: CA_3  and  C_4 
REMARK    4  A    between atoms: CA_3  and  N_12 
REMARK    5  A    between atoms: C_4  and  C_5 
REMARK       I    between atoms: N_12  and  C_13 
REMARK    6  A    between atoms: C_13  and  C_15 
REMARK    7  A    between atoms: C_15  and  C_16 
REMARK    8  A    between atoms: C_16  and  C_17 
ROOT
HETATM    1  CA  UNL     1     -40.433 -52.650  13.155  1.00  0.00     0.113 C 
ENDROOT
BRANCH   1   2
HETATM    2  C   UNL     1     -39.181 -52.889  14.023  1.00  0.00     0.189 C 
BRANCH   2   3
HETATM    3  O   UNL     1     -38.453 -54.039  13.614  1.00  0.00    -0.399 OA
HETATM    4  H   UNL     1     -37.790 -53.736  12.967  1.00  0.00     0.209 HD
ENDBRANCH   2   3
ENDBRANCH   1   2
BRANCH   1   5
HETATM    5  C   UNL     1     -41.065 -53.968  12.652  1.00  0.00     0.084 C 
BRANCH   5   6
HETATM    6  C   UNL     1     -42.465 -54.192  13.158  1.00  0.00     0.011 A 
HETATM    7  C   UNL     1     -42.685 -54.739  14.420  1.00  0.00     0.025 A 
HETATM    8  C   UNL     1     -43.994 -54.963  14.842  1.00  0.00     0.003 A 
HETATM    9  C   UNL     1     -45.042 -54.619  14.001  1.00  0.00     0.017 A 
HETATM   10  C   UNL     1     -44.740 -54.071  12.767  1.00  0.00     0.088 A 
HETATM   11  N   UNL     1     -43.480 -53.868  12.322  1.00  0.00    -0.369 N 
ATOM     12  HN  UNL     1     -43.301 -53.485  11.394  1.00  0.00     0.165 HD
ENDBRANCH   5   6
ENDBRANCH   1   5
BRANCH   1  13
HETATM   13  N   UNL     1     -41.383 -51.788  13.870  1.00  0.00    -0.354 N 
HETATM   14  C   UNL     1     -42.030 -50.727  13.280  1.00  0.00     0.217 C 
HETATM   15  O   UNL     1     -41.899 -50.414  12.104  1.00  0.00    -0.274 OA
HETATM   16  H   UNL     1     -41.551 -51.974  14.850  1.00  0.00     0.162 HD
BRANCH  14  17
HETATM   17  C   UNL     1     -42.967 -49.988  14.211  1.00  0.00     0.103 C 
BRANCH  17  18
HETATM   18  C   UNL     1     -44.380 -50.557  14.118  1.00  0.00     0.014 C 
BRANCH  18  19
HETATM   19  C   UNL     1     -45.045 -50.732  15.481  1.00  0.00    -0.014 C 
HETATM   20  C   UNL     1     -44.285 -51.652  16.446  1.00  0.00     0.004 C 
HETATM   21  C   UNL     1     -45.343 -52.487  17.168  1.00  0.00     0.000 C 
HETATM   22  C   UNL     1     -46.689 -51.921  16.742  1.00  0.00     0.000 C 
HETATM   23  C   UNL     1     -46.426 -51.375  15.351  1.00  0.00     0.004 C 
ENDBRANCH  18  19
ENDBRANCH  17  18
ENDBRANCH  14  17
ENDBRANCH   1  13
TORSDOF 8
ENDMDL
