MODEL 1
REMARK VINA RESULT:      -6.1      0.000      0.000
REMARK  3 active torsions:
REMARK  status: ('A' for Active; 'I' for Inactive)
REMARK    1  A    between atoms: C_6  and  N_7 
REMARK       I    between atoms: N_7  and  C_8 
REMARK       I    between atoms: C_8  and  N_10 
REMARK    2  A    between atoms: N_10  and  C_11 
REMARK    3  A    between atoms: C_14  and  O_15 
ROOT
HETATM    1  N   UNL     1     -41.792 -49.289  10.823  1.00  0.00    -0.295 N 
HETATM    2  C   UNL     1     -42.055 -48.029  10.376  1.00  0.00     0.322 C 
HETATM    3  O   UNL     1     -43.043 -47.826   9.675  1.00  0.00    -0.247 OA
HETATM    4  N   UNL     1     -41.207 -47.038  10.787  1.00  0.00    -0.338 N 
HETATM    5  H   UNL     1     -42.510 -49.954  10.575  1.00  0.00     0.172 HD
HETATM    6  H   UNL     1     -40.336 -47.380  11.191  1.00  0.00     0.164 HD
ENDROOT
BRANCH   1   7
HETATM    7  C   UNL     1     -40.690 -49.736  11.554  1.00  0.00     0.109 A 
HETATM    8  C   UNL     1     -40.886 -50.136  12.867  1.00  0.00     0.049 A 
HETATM    9  C   UNL     1     -39.778 -50.530  13.613  1.00  0.00     0.006 A 
HETATM   10  C   UNL     1     -38.520 -50.548  13.017  1.00  0.00     0.025 A 
HETATM   11  C   UNL     1     -38.411 -50.175  11.685  1.00  0.00     0.007 A 
HETATM   12  C   UNL     1     -37.097 -50.172  10.967  1.00  0.00     0.068 C 
HETATM   13  N   UNL     1     -39.474 -49.755  10.965  1.00  0.00    -0.346 N 
ATOM     14  HN  UNL     1     -39.361 -49.457   9.996  1.00  0.00     0.167 HD
ENDBRANCH   1   7
BRANCH   4  15
HETATM   15  C   UNL     1     -41.286 -45.686  10.264  1.00  0.00     0.086 C 
HETATM   16  C   UNL     1     -39.905 -45.005  10.268  1.00  0.00     0.028 C 
HETATM   17  C   UNL     1     -39.624 -44.105  11.464  1.00  0.00     0.034 C 
HETATM   18  C   UNL     1     -40.770 -43.143  11.737  1.00  0.00     0.118 C 
HETATM   19  C   UNL     1     -42.039 -43.926  12.041  1.00  0.00     0.034 C 
HETATM   20  C   UNL     1     -42.432 -44.893  10.924  1.00  0.00     0.028 C 
BRANCH  18  21
HETATM   21  O   UNL     1     -40.964 -42.255  10.631  1.00  0.00    -0.396 OA
HETATM   22  H   UNL     1     -40.402 -41.472  10.752  1.00  0.00     0.210 HD
ENDBRANCH  18  21
ENDBRANCH   4  15
TORSDOF 3
ENDMDL
MODEL 2
REMARK VINA RESULT:      -6.1      3.363      4.779
REMARK  3 active torsions:
REMARK  status: ('A' for Active; 'I' for Inactive)
REMARK    1  A    between atoms: C_6  and  N_7 
REMARK       I    between atoms: N_7  and  C_8 
REMARK       I    between atoms: C_8  and  N_10 
REMARK    2  A    between atoms: N_10  and  C_11 
REMARK    3  A    between atoms: C_14  and  O_15 
ROOT
HETATM    1  N   UNL     1     -42.102 -51.479  12.893  1.00  0.00    -0.295 N 
HETATM    2  C   UNL     1     -41.428 -50.639  12.057  1.00  0.00     0.322 C 
HETATM    3  O   UNL     1     -40.252 -50.868  11.784  1.00  0.00    -0.247 OA
HETATM    4  N   UNL     1     -42.135 -49.597  11.526  1.00  0.00    -0.338 N 
HETATM    5  H   UNL     1     -41.558 -52.284  13.166  1.00  0.00     0.172 HD
HETATM    6  H   UNL     1     -43.025 -49.421  11.992  1.00  0.00     0.164 HD
ENDROOT
BRANCH   1   7
HETATM    7  C   UNL     1     -43.401 -51.350  13.385  1.00  0.00     0.109 A 
HETATM    8  C   UNL     1     -43.573 -50.940  14.698  1.00  0.00     0.049 A 
HETATM    9  C   UNL     1     -44.869 -50.864  15.205  1.00  0.00     0.006 A 
HETATM   10  C   UNL     1     -45.948 -51.162  14.378  1.00  0.00     0.025 A 
HETATM   11  C   UNL     1     -45.697 -51.523  13.062  1.00  0.00     0.007 A 
HETATM   12  C   UNL     1     -46.801 -51.852  12.105  1.00  0.00     0.068 C 
HETATM   13  N   UNL     1     -44.443 -51.636  12.573  1.00  0.00    -0.346 N 
ATOM     14  HN  UNL     1     -44.286 -51.933  11.610  1.00  0.00     0.167 HD
ENDBRANCH   1   7
BRANCH   4  15
HETATM   15  C   UNL     1     -41.502 -48.549  10.746  1.00  0.00     0.086 C 
HETATM   16  C   UNL     1     -40.716 -47.580  11.648  1.00  0.00     0.028 C 
HETATM   17  C   UNL     1     -41.453 -46.304  12.035  1.00  0.00     0.034 C 
HETATM   18  C   UNL     1     -42.088 -45.624  10.830  1.00  0.00     0.118 C 
HETATM   19  C   UNL     1     -43.100 -46.561  10.184  1.00  0.00     0.034 C 
HETATM   20  C   UNL     1     -42.497 -47.900   9.762  1.00  0.00     0.028 C 
BRANCH  18  21
HETATM   21  O   UNL     1     -41.090 -45.216   9.890  1.00  0.00    -0.396 OA
HETATM   22  H   UNL     1     -41.512 -45.057   9.029  1.00  0.00     0.210 HD
ENDBRANCH  18  21
ENDBRANCH   4  15
TORSDOF 3
ENDMDL
MODEL 3
REMARK VINA RESULT:      -6.0      4.401      7.851
REMARK  3 active torsions:
REMARK  status: ('A' for Active; 'I' for Inactive)
REMARK    1  A    between atoms: C_6  and  N_7 
REMARK       I    between atoms: N_7  and  C_8 
REMARK       I    between atoms: C_8  and  N_10 
REMARK    2  A    between atoms: N_10  and  C_11 
REMARK    3  A    between atoms: C_14  and  O_15 
ROOT
HETATM    1  N   UNL     1     -41.195 -50.738  12.005  1.00  0.00    -0.295 N 
HETATM    2  C   UNL     1     -41.741 -51.981  12.126  1.00  0.00     0.322 C 
HETATM    3  O   UNL     1     -41.046 -52.973  11.916  1.00  0.00    -0.247 OA
HETATM    4  N   UNL     1     -43.045 -52.047  12.530  1.00  0.00    -0.338 N 
HETATM    5  H   UNL     1     -40.205 -50.758  11.810  1.00  0.00     0.172 HD
HETATM    6  H   UNL     1     -43.541 -51.158  12.471  1.00  0.00     0.164 HD
ENDROOT
BRANCH   1   7
HETATM    7  C   UNL     1     -41.829 -49.500  12.121  1.00  0.00     0.109 A 
HETATM    8  C   UNL     1     -41.789 -48.848  13.344  1.00  0.00     0.049 A 
HETATM    9  C   UNL     1     -42.468 -47.639  13.474  1.00  0.00     0.006 A 
HETATM   10  C   UNL     1     -43.130 -47.102  12.374  1.00  0.00     0.025 A 
HETATM   11  C   UNL     1     -43.087 -47.792  11.171  1.00  0.00     0.007 A 
HETATM   12  C   UNL     1     -43.767 -47.281   9.939  1.00  0.00     0.068 C 
HETATM   13  N   UNL     1     -42.464 -48.984  11.046  1.00  0.00    -0.346 N 
ATOM     14  HN  UNL     1     -42.474 -49.485  10.157  1.00  0.00     0.167 HD
ENDBRANCH   1   7
BRANCH   4  15
HETATM   15  C   UNL     1     -43.787 -53.295  12.551  1.00  0.00     0.086 C 
HETATM   16  C   UNL     1     -45.301 -53.046  12.427  1.00  0.00     0.028 C 
HETATM   17  C   UNL     1     -46.069 -53.023  13.743  1.00  0.00     0.034 C 
HETATM   18  C   UNL     1     -45.724 -54.214  14.626  1.00  0.00     0.118 C 
HETATM   19  C   UNL     1     -44.240 -54.194  14.961  1.00  0.00     0.034 C 
HETATM   20  C   UNL     1     -43.343 -54.193  13.724  1.00  0.00     0.028 C 
BRANCH  18  21
HETATM   21  O   UNL     1     -46.094 -55.442  13.992  1.00  0.00    -0.396 OA
HETATM   22  H   UNL     1     -45.419 -56.114  14.187  1.00  0.00     0.210 HD
ENDBRANCH  18  21
ENDBRANCH   4  15
TORSDOF 3
ENDMDL
MODEL 4
REMARK VINA RESULT:      -5.9      4.098      5.780
REMARK  3 active torsions:
REMARK  status: ('A' for Active; 'I' for Inactive)
REMARK    1  A    between atoms: C_6  and  N_7 
REMARK       I    between atoms: N_7  and  C_8 
REMARK       I    between atoms: C_8  and  N_10 
REMARK    2  A    between atoms: N_10  and  C_11 
REMARK    3  A    between atoms: C_14  and  O_15 
ROOT
HETATM    1  N   UNL     1     -43.078 -52.857  12.634  1.00  0.00    -0.295 N 
HETATM    2  C   UNL     1     -41.991 -52.140  12.230  1.00  0.00     0.322 C 
HETATM    3  O   UNL     1     -40.928 -52.718  12.016  1.00  0.00    -0.247 OA
HETATM    4  N   UNL     1     -42.172 -50.799  12.037  1.00  0.00    -0.338 N 
HETATM    5  H   UNL     1     -42.910 -53.852  12.655  1.00  0.00     0.172 HD
HETATM    6  H   UNL     1     -43.036 -50.436  12.440  1.00  0.00     0.164 HD
ENDROOT
BRANCH   1   7
HETATM    7  C   UNL     1     -44.339 -52.384  13.002  1.00  0.00     0.109 A 
HETATM    8  C   UNL     1     -44.562 -52.061  14.332  1.00  0.00     0.049 A 
HETATM    9  C   UNL     1     -45.835 -51.640  14.707  1.00  0.00     0.006 A 
HETATM   10  C   UNL     1     -46.831 -51.520  13.742  1.00  0.00     0.025 A 
HETATM   11  C   UNL     1     -46.519 -51.820  12.425  1.00  0.00     0.007 A 
HETATM   12  C   UNL     1     -47.529 -51.711  11.325  1.00  0.00     0.068 C 
HETATM   13  N   UNL     1     -45.297 -52.265  12.057  1.00  0.00    -0.346 N 
ATOM     14  HN  UNL     1     -45.103 -52.508  11.085  1.00  0.00     0.167 HD
ENDBRANCH   1   7
BRANCH   4  15
HETATM   15  C   UNL     1     -41.067 -49.901  11.756  1.00  0.00     0.086 C 
HETATM   16  C   UNL     1     -40.343 -49.484  13.049  1.00  0.00     0.028 C 
HETATM   17  C   UNL     1     -40.770 -48.143  13.633  1.00  0.00     0.034 C 
HETATM   18  C   UNL     1     -40.800 -47.046  12.579  1.00  0.00     0.118 C 
HETATM   19  C   UNL     1     -41.795 -47.408  11.487  1.00  0.00     0.034 C 
HETATM   20  C   UNL     1     -41.499 -48.752  10.823  1.00  0.00     0.028 C 
BRANCH  18  21
HETATM   21  O   UNL     1     -39.494 -46.826  12.035  1.00  0.00    -0.396 OA
HETATM   22  H   UNL     1     -39.541 -46.886  11.066  1.00  0.00     0.210 HD
ENDBRANCH  18  21
ENDBRANCH   4  15
TORSDOF 3
ENDMDL
MODEL 5
REMARK VINA RESULT:      -5.8      5.359      7.835
REMARK  3 active torsions:
REMARK  status: ('A' for Active; 'I' for Inactive)
REMARK    1  A    between atoms: C_6  and  N_7 
REMARK       I    between atoms: N_7  and  C_8 
REMARK       I    between atoms: C_8  and  N_10 
REMARK    2  A    between atoms: N_10  and  C_11 
REMARK    3  A    between atoms: C_14  and  O_15 
ROOT
HETATM    1  N   UNL     1     -43.032 -53.642  12.344  1.00  0.00    -0.295 N 
HETATM    2  C   UNL     1     -44.255 -53.736  12.939  1.00  0.00     0.322 C 
HETATM    3  O   UNL     1     -45.038 -54.614  12.583  1.00  0.00    -0.247 OA
HETATM    4  N   UNL     1     -44.520 -52.856  13.951  1.00  0.00    -0.338 N 
HETATM    5  H   UNL     1     -42.857 -54.383  11.682  1.00  0.00     0.172 HD
HETATM    6  H   UNL     1     -43.870 -52.072  13.997  1.00  0.00     0.164 HD
ENDROOT
BRANCH   1   7
HETATM    7  C   UNL     1     -42.044 -52.677  12.546  1.00  0.00     0.109 A 
HETATM    8  C   UNL     1     -40.977 -52.988  13.376  1.00  0.00     0.049 A 
HETATM    9  C   UNL     1     -40.020 -52.006  13.620  1.00  0.00     0.006 A 
HETATM   10  C   UNL     1     -40.136 -50.764  13.003  1.00  0.00     0.025 A 
HETATM   11  C   UNL     1     -41.209 -50.544  12.152  1.00  0.00     0.007 A 
HETATM   12  C   UNL     1     -41.405 -49.239  11.443  1.00  0.00     0.068 C 
HETATM   13  N   UNL     1     -42.163 -51.477  11.939  1.00  0.00    -0.346 N 
ATOM     14  HN  UNL     1     -42.958 -51.277  11.331  1.00  0.00     0.167 HD
ENDBRANCH   1   7
BRANCH   4  15
HETATM   15  C   UNL     1     -45.833 -52.751  14.561  1.00  0.00     0.086 C 
HETATM   16  C   UNL     1     -46.189 -51.285  14.869  1.00  0.00     0.028 C 
HETATM   17  C   UNL     1     -45.921 -50.835  16.299  1.00  0.00     0.034 C 
HETATM   18  C   UNL     1     -46.476 -51.817  17.321  1.00  0.00     0.118 C 
HETATM   19  C   UNL     1     -45.819 -53.177  17.138  1.00  0.00     0.034 C 
HETATM   20  C   UNL     1     -45.992 -53.745  15.730  1.00  0.00     0.028 C 
BRANCH  18  21
HETATM   21  O   UNL     1     -47.900 -51.914  17.213  1.00  0.00    -0.396 OA
HETATM   22  H   UNL     1     -48.230 -51.159  16.697  1.00  0.00     0.210 HD
ENDBRANCH  18  21
ENDBRANCH   4  15
TORSDOF 3
ENDMDL
MODEL 6
REMARK VINA RESULT:      -5.7      4.963      8.146
REMARK  3 active torsions:
REMARK  status: ('A' for Active; 'I' for Inactive)
REMARK    1  A    between atoms: C_6  and  N_7 
REMARK       I    between atoms: N_7  and  C_8 
REMARK       I    between atoms: C_8  and  N_10 
REMARK    2  A    between atoms: N_10  and  C_11 
REMARK    3  A    between atoms: C_14  and  O_15 
ROOT
HETATM    1  N   UNL     1     -43.667 -50.138  12.877  1.00  0.00    -0.295 N 
HETATM    2  C   UNL     1     -42.468 -50.698  12.549  1.00  0.00     0.322 C 
HETATM    3  O   UNL     1     -41.715 -50.113  11.774  1.00  0.00    -0.247 OA
HETATM    4  N   UNL     1     -42.153 -51.882  13.155  1.00  0.00    -0.338 N 
HETATM    5  H   UNL     1     -43.794 -49.218  12.481  1.00  0.00     0.172 HD
HETATM    6  H   UNL     1     -42.944 -52.339  13.607  1.00  0.00     0.164 HD
ENDROOT
BRANCH   1   7
HETATM    7  C   UNL     1     -44.686 -50.675  13.665  1.00  0.00     0.109 A 
HETATM    8  C   UNL     1     -45.721 -51.350  13.038  1.00  0.00     0.049 A 
HETATM    9  C   UNL     1     -46.765 -51.839  13.821  1.00  0.00     0.006 A 
HETATM   10  C   UNL     1     -46.724 -51.671  15.202  1.00  0.00     0.025 A 
HETATM   11  C   UNL     1     -45.632 -51.022  15.760  1.00  0.00     0.007 A 
HETATM   12  C   UNL     1     -45.507 -50.806  17.236  1.00  0.00     0.068 C 
HETATM   13  N   UNL     1     -44.634 -50.511  15.005  1.00  0.00    -0.346 N 
ATOM     14  HN  UNL     1     -43.858 -50.012  15.440  1.00  0.00     0.167 HD
ENDBRANCH   1   7
BRANCH   4  15
HETATM   15  C   UNL     1     -40.982 -52.656  12.781  1.00  0.00     0.086 C 
HETATM   16  C   UNL     1     -41.228 -54.164  12.963  1.00  0.00     0.028 C 
HETATM   17  C   UNL     1     -40.717 -54.756  14.270  1.00  0.00     0.034 C 
HETATM   18  C   UNL     1     -39.282 -54.341  14.562  1.00  0.00     0.118 C 
HETATM   19  C   UNL     1     -39.199 -52.826  14.682  1.00  0.00     0.034 C 
HETATM   20  C   UNL     1     -39.704 -52.095  13.438  1.00  0.00     0.028 C 
BRANCH  18  21
HETATM   21  O   UNL     1     -38.394 -54.828  13.551  1.00  0.00    -0.396 OA
HETATM   22  H   UNL     1     -37.495 -54.511  13.740  1.00  0.00     0.210 HD
ENDBRANCH  18  21
ENDBRANCH   4  15
TORSDOF 3
ENDMDL
MODEL 7
REMARK VINA RESULT:      -5.6      6.846      9.026
REMARK  3 active torsions:
REMARK  status: ('A' for Active; 'I' for Inactive)
REMARK    1  A    between atoms: C_6  and  N_7 
REMARK       I    between atoms: N_7  and  C_8 
REMARK       I    between atoms: C_8  and  N_10 
REMARK    2  A    between atoms: N_10  and  C_11 
REMARK    3  A    between atoms: C_14  and  O_15 
ROOT
HETATM    1  N   UNL     1     -45.666 -53.304  13.928  1.00  0.00    -0.295 N 
HETATM    2  C   UNL     1     -44.525 -53.784  13.358  1.00  0.00     0.322 C 
HETATM    3  O   UNL     1     -44.577 -54.326  12.257  1.00  0.00    -0.247 OA
HETATM    4  N   UNL     1     -43.360 -53.583  14.045  1.00  0.00    -0.338 N 
HETATM    5  H   UNL     1     -46.473 -53.387  13.327  1.00  0.00     0.172 HD
HETATM    6  H   UNL     1     -43.495 -53.306  15.016  1.00  0.00     0.164 HD
ENDROOT
BRANCH   1   7
HETATM    7  C   UNL     1     -45.829 -52.735  15.192  1.00  0.00     0.109 A 
HETATM    8  C   UNL     1     -45.884 -51.354  15.293  1.00  0.00     0.049 A 
HETATM    9  C   UNL     1     -45.992 -50.785  16.560  1.00  0.00     0.006 A 
HETATM   10  C   UNL     1     -46.080 -51.610  17.678  1.00  0.00     0.025 A 
HETATM   11  C   UNL     1     -46.062 -52.985  17.492  1.00  0.00     0.007 A 
HETATM   12  C   UNL     1     -46.159 -53.942  18.639  1.00  0.00     0.068 C 
HETATM   13  N   UNL     1     -45.919 -53.545  16.270  1.00  0.00    -0.346 N 
ATOM     14  HN  UNL     1     -45.879 -54.558  16.165  1.00  0.00     0.167 HD
ENDBRANCH   1   7
BRANCH   4  15
HETATM   15  C   UNL     1     -42.102 -54.174  13.625  1.00  0.00     0.086 C 
HETATM   16  C   UNL     1     -41.267 -54.630  14.835  1.00  0.00     0.028 C 
HETATM   17  C   UNL     1     -40.199 -53.648  15.298  1.00  0.00     0.034 C 
HETATM   18  C   UNL     1     -39.353 -53.138  14.141  1.00  0.00     0.118 C 
HETATM   19  C   UNL     1     -40.237 -52.413  13.137  1.00  0.00     0.034 C 
HETATM   20  C   UNL     1     -41.375 -53.280  12.600  1.00  0.00     0.028 C 
BRANCH  18  21
HETATM   21  O   UNL     1     -38.639 -54.211  13.519  1.00  0.00    -0.396 OA
HETATM   22  H   UNL     1     -37.854 -54.419  14.053  1.00  0.00     0.210 HD
ENDBRANCH  18  21
ENDBRANCH   4  15
TORSDOF 3
ENDMDL
MODEL 8
REMARK VINA RESULT:      -5.5      6.077      7.987
REMARK  3 active torsions:
REMARK  status: ('A' for Active; 'I' for Inactive)
REMARK    1  A    between atoms: C_6  and  N_7 
REMARK       I    between atoms: N_7  and  C_8 
REMARK       I    between atoms: C_8  and  N_10 
REMARK    2  A    between atoms: N_10  and  C_11 
REMARK    3  A    between atoms: C_14  and  O_15 
ROOT
HETATM    1  N   UNL     1     -43.040 -53.929  12.562  1.00  0.00    -0.295 N 
HETATM    2  C   UNL     1     -44.296 -53.925  13.092  1.00  0.00     0.322 C 
HETATM    3  O   UNL     1     -45.137 -54.714  12.667  1.00  0.00    -0.247 OA
HETATM    4  N   UNL     1     -44.530 -53.056  14.121  1.00  0.00    -0.338 N 
HETATM    5  H   UNL     1     -42.900 -54.662  11.883  1.00  0.00     0.172 HD
HETATM    6  H   UNL     1     -43.813 -52.339  14.227  1.00  0.00     0.164 HD
ENDROOT
BRANCH   1   7
HETATM    7  C   UNL     1     -41.978 -53.069  12.847  1.00  0.00     0.109 A 
HETATM    8  C   UNL     1     -41.874 -51.887  12.130  1.00  0.00     0.049 A 
HETATM    9  C   UNL     1     -40.785 -51.055  12.378  1.00  0.00     0.006 A 
HETATM   10  C   UNL     1     -39.858 -51.409  13.355  1.00  0.00     0.025 A 
HETATM   11  C   UNL     1     -40.055 -52.587  14.060  1.00  0.00     0.007 A 
HETATM   12  C   UNL     1     -39.110 -53.037  15.131  1.00  0.00     0.068 C 
HETATM   13  N   UNL     1     -41.087 -53.419  13.801  1.00  0.00    -0.346 N 
ATOM     14  HN  UNL     1     -41.191 -54.294  14.315  1.00  0.00     0.167 HD
ENDBRANCH   1   7
BRANCH   4  15
HETATM   15  C   UNL     1     -45.858 -52.846  14.669  1.00  0.00     0.086 C 
HETATM   16  C   UNL     1     -46.148 -51.348  14.871  1.00  0.00     0.028 C 
HETATM   17  C   UNL     1     -45.910 -50.821  16.281  1.00  0.00     0.034 C 
HETATM   18  C   UNL     1     -46.555 -51.706  17.337  1.00  0.00     0.118 C 
HETATM   19  C   UNL     1     -45.964 -53.107  17.266  1.00  0.00     0.034 C 
HETATM   20  C   UNL     1     -46.113 -53.754  15.889  1.00  0.00     0.028 C 
BRANCH  18  21
HETATM   21  O   UNL     1     -47.977 -51.738  17.177  1.00  0.00    -0.396 OA
HETATM   22  H   UNL     1     -48.334 -50.850  17.349  1.00  0.00     0.210 HD
ENDBRANCH  18  21
ENDBRANCH   4  15
TORSDOF 3
ENDMDL
MODEL 9
REMARK VINA RESULT:      -5.4      6.158      8.828
REMARK  3 active torsions:
REMARK  status: ('A' for Active; 'I' for Inactive)
REMARK    1  A    between atoms: C_6  and  N_7 
REMARK       I    between atoms: N_7  and  C_8 
REMARK       I    between atoms: C_8  and  N_10 
REMARK    2  A    between atoms: N_10  and  C_11 
REMARK    3  A    between atoms: C_14  and  O_15 
ROOT
HETATM    1  N   UNL     1     -46.900 -52.743  13.959  1.00  0.00    -0.295 N 
HETATM    2  C   UNL     1     -45.898 -52.731  13.035  1.00  0.00     0.322 C 
HETATM    3  O   UNL     1     -46.163 -52.909  11.849  1.00  0.00    -0.247 OA
HETATM    4  N   UNL     1     -44.638 -52.466  13.494  1.00  0.00    -0.338 N 
HETATM    5  H   UNL     1     -47.816 -52.836  13.546  1.00  0.00     0.172 HD
HETATM    6  H   UNL     1     -44.543 -52.538  14.507  1.00  0.00     0.164 HD
ENDROOT
BRANCH   1   7
HETATM    7  C   UNL     1     -46.799 -52.641  15.347  1.00  0.00     0.109 A 
HETATM    8  C   UNL     1     -46.068 -53.602  16.029  1.00  0.00     0.049 A 
HETATM    9  C   UNL     1     -46.013 -53.531  17.419  1.00  0.00     0.006 A 
HETATM   10  C   UNL     1     -46.653 -52.486  18.079  1.00  0.00     0.025 A 
HETATM   11  C   UNL     1     -47.328 -51.538  17.324  1.00  0.00     0.007 A 
HETATM   12  C   UNL     1     -48.037 -50.380  17.955  1.00  0.00     0.068 C 
HETATM   13  N   UNL     1     -47.420 -51.620  15.979  1.00  0.00    -0.346 N 
ATOM     14  HN  UNL     1     -47.948 -50.926  15.450  1.00  0.00     0.167 HD
ENDBRANCH   1   7
BRANCH   4  15
HETATM   15  C   UNL     1     -43.466 -52.574  12.645  1.00  0.00     0.086 C 
HETATM   16  C   UNL     1     -42.792 -53.950  12.793  1.00  0.00     0.028 C 
HETATM   17  C   UNL     1     -41.612 -53.998  13.757  1.00  0.00     0.034 C 
HETATM   18  C   UNL     1     -40.625 -52.868  13.507  1.00  0.00     0.118 C 
HETATM   19  C   UNL     1     -41.317 -51.527  13.698  1.00  0.00     0.034 C 
HETATM   20  C   UNL     1     -42.542 -51.348  12.802  1.00  0.00     0.028 C 
BRANCH  18  21
HETATM   21  O   UNL     1     -40.052 -52.971  12.199  1.00  0.00    -0.396 OA
HETATM   22  H   UNL     1     -39.948 -53.910  11.973  1.00  0.00     0.210 HD
ENDBRANCH  18  21
ENDBRANCH   4  15
TORSDOF 3
ENDMDL
