MODEL 1
REMARK VINA RESULT:      -6.0      0.000      0.000
REMARK  4 active torsions:
REMARK  status: ('A' for Active; 'I' for Inactive)
REMARK    1  A    between atoms: C_2  and  N_3 
REMARK       I    between atoms: N_6  and  C_9 
REMARK       I    between atoms: C_9  and  N_11 
REMARK    2  A    between atoms: N_11  and  C_12 
REMARK    3  A    between atoms: C_12  and  C_13 
REMARK    4  A    between atoms: C_13  and  C_14 
ROOT
HETATM    1  N   UNL     1     -43.651 -53.768  14.865  1.00  0.00     0.091 N 
HETATM    2  C   UNL     1     -43.968 -52.586  14.033  1.00  0.00     0.292 C 
HETATM    3  C   UNL     1     -43.221 -52.517  12.684  1.00  0.00     0.158 C 
HETATM    4  N   UNL     1     -41.773 -52.674  12.863  1.00  0.00    -0.331 N 
HETATM    5  C   UNL     1     -41.388 -53.817  13.695  1.00  0.00     0.158 C 
HETATM    6  C   UNL     1     -42.174 -53.838  15.023  1.00  0.00     0.292 C 
HETATM    7  C   UNL     1     -40.781 -51.849  12.379  1.00  0.00     0.318 C 
HETATM    8  O   UNL     1     -39.590 -52.019  12.634  1.00  0.00    -0.247 OA
HETATM    9  N   UNL     1     -41.195 -50.795  11.612  1.00  0.00    -0.343 N 
HETATM   10  H   UNL     1     -42.076 -50.866  11.130  1.00  0.00     0.164 HD
ENDROOT
BRANCH   9  11
HETATM   11  C   UNL     1     -40.234 -49.847  11.081  1.00  0.00     0.130 C 
BRANCH  11  12
HETATM   12  C   UNL     1     -40.502 -48.408  11.517  1.00  0.00     0.077 C 
BRANCH  12  13
HETATM   13  C   UNL     1     -41.554 -47.731  10.697  1.00  0.00     0.018 A 
HETATM   14  C   UNL     1     -42.172 -46.527  10.983  1.00  0.00     0.076 A 
HETATM   15  S   UNL     1     -43.295 -46.133   9.752  1.00  0.00    -0.087 SA
HETATM   16  C   UNL     1     -42.882 -47.583   8.928  1.00  0.00     0.046 A 
HETATM   17  C   UNL     1     -43.539 -47.929   7.637  1.00  0.00     0.076 C 
HETATM   18  N   UNL     1     -41.965 -48.327   9.513  1.00  0.00    -0.357 N 
ATOM     19  HN  UNL     1     -41.610 -49.211   9.149  1.00  0.00     0.166 HD
ENDBRANCH  12  13
ENDBRANCH  11  12
ENDBRANCH   9  11
BRANCH   1  20
HETATM   20  C   UNL     1     -44.176 -55.034  14.331  1.00  0.00     0.268 C 
HETATM   21  C   UNL     1     -45.660 -54.983  13.982  1.00  0.00     0.037 C 
ENDBRANCH   1  20
TORSDOF 4
ENDMDL
MODEL 2
REMARK VINA RESULT:      -5.4      1.565      1.975
REMARK  4 active torsions:
REMARK  status: ('A' for Active; 'I' for Inactive)
REMARK    1  A    between atoms: C_2  and  N_3 
REMARK       I    between atoms: N_6  and  C_9 
REMARK       I    between atoms: C_9  and  N_11 
REMARK    2  A    between atoms: N_11  and  C_12 
REMARK    3  A    between atoms: C_12  and  C_13 
REMARK    4  A    between atoms: C_13  and  C_14 
ROOT
HETATM    1  N   UNL     1     -44.089 -53.314  14.128  1.00  0.00     0.091 N 
HETATM    2  C   UNL     1     -43.633 -52.018  13.577  1.00  0.00     0.292 C 
HETATM    3  C   UNL     1     -42.482 -52.112  12.554  1.00  0.00     0.158 C 
HETATM    4  N   UNL     1     -41.358 -52.896  13.079  1.00  0.00    -0.331 N 
HETATM    5  C   UNL     1     -41.742 -54.186  13.659  1.00  0.00     0.158 C 
HETATM    6  C   UNL     1     -42.902 -54.030  14.664  1.00  0.00     0.292 C 
HETATM    7  C   UNL     1     -40.032 -52.525  13.120  1.00  0.00     0.318 C 
HETATM    8  O   UNL     1     -39.162 -53.220  13.641  1.00  0.00    -0.247 OA
HETATM    9  N   UNL     1     -39.729 -51.311  12.569  1.00  0.00    -0.343 N 
HETATM   10  H   UNL     1     -40.339 -50.936  11.861  1.00  0.00     0.164 HD
ENDROOT
BRANCH   9  11
HETATM   11  C   UNL     1     -38.368 -50.810  12.590  1.00  0.00     0.130 C 
BRANCH  11  12
HETATM   12  C   UNL     1     -38.185 -49.526  11.785  1.00  0.00     0.077 C 
BRANCH  12  13
HETATM   13  C   UNL     1     -39.394 -48.645  11.797  1.00  0.00     0.018 A 
HETATM   14  C   UNL     1     -39.705 -47.687  12.744  1.00  0.00     0.076 A 
HETATM   15  S   UNL     1     -41.175 -46.911  12.337  1.00  0.00    -0.087 SA
HETATM   16  C   UNL     1     -41.295 -47.897  10.935  1.00  0.00     0.046 A 
HETATM   17  C   UNL     1     -42.449 -47.751  10.006  1.00  0.00     0.076 C 
HETATM   18  N   UNL     1     -40.310 -48.755  10.760  1.00  0.00    -0.357 N 
ATOM     19  HN  UNL     1     -40.233 -49.405   9.978  1.00  0.00     0.166 HD
ENDBRANCH  12  13
ENDBRANCH  11  12
ENDBRANCH   9  11
BRANCH   1  20
HETATM   20  C   UNL     1     -44.809 -54.155  13.159  1.00  0.00     0.268 C 
HETATM   21  C   UNL     1     -45.572 -55.310  13.799  1.00  0.00     0.037 C 
ENDBRANCH   1  20
TORSDOF 4
ENDMDL
MODEL 3
REMARK VINA RESULT:      -5.3      1.646      1.908
REMARK  4 active torsions:
REMARK  status: ('A' for Active; 'I' for Inactive)
REMARK    1  A    between atoms: C_2  and  N_3 
REMARK       I    between atoms: N_6  and  C_9 
REMARK       I    between atoms: C_9  and  N_11 
REMARK    2  A    between atoms: N_11  and  C_12 
REMARK    3  A    between atoms: C_12  and  C_13 
REMARK    4  A    between atoms: C_13  and  C_14 
ROOT
HETATM    1  N   UNL     1     -43.903 -53.873  14.920  1.00  0.00     0.091 N 
HETATM    2  C   UNL     1     -44.192 -52.581  14.257  1.00  0.00     0.292 C 
HETATM    3  C   UNL     1     -43.638 -52.445  12.824  1.00  0.00     0.158 C 
HETATM    4  N   UNL     1     -42.208 -52.769  12.766  1.00  0.00    -0.331 N 
HETATM    5  C   UNL     1     -41.848 -54.029  13.423  1.00  0.00     0.158 C 
HETATM    6  C   UNL     1     -42.438 -54.112  14.847  1.00  0.00     0.292 C 
HETATM    7  C   UNL     1     -41.203 -52.004  12.216  1.00  0.00     0.318 C 
HETATM    8  O   UNL     1     -40.016 -52.323  12.272  1.00  0.00    -0.247 OA
HETATM    9  N   UNL     1     -41.592 -50.837  11.620  1.00  0.00    -0.343 N 
HETATM   10  H   UNL     1     -42.534 -50.763  11.272  1.00  0.00     0.164 HD
ENDROOT
BRANCH   9  11
HETATM   11  C   UNL     1     -40.610 -49.942  11.040  1.00  0.00     0.130 C 
BRANCH  11  12
HETATM   12  C   UNL     1     -40.162 -48.836  11.993  1.00  0.00     0.077 C 
BRANCH  12  13
HETATM   13  C   UNL     1     -40.527 -47.465  11.519  1.00  0.00     0.018 A 
HETATM   14  C   UNL     1     -41.734 -46.820  11.715  1.00  0.00     0.076 A 
HETATM   15  S   UNL     1     -41.690 -45.259  11.014  1.00  0.00    -0.087 SA
HETATM   16  C   UNL     1     -40.075 -45.548  10.502  1.00  0.00     0.046 A 
HETATM   17  C   UNL     1     -39.325 -44.503   9.751  1.00  0.00     0.076 C 
HETATM   18  N   UNL     1     -39.579 -46.724  10.825  1.00  0.00    -0.357 N 
ATOM     19  HN  UNL     1     -38.638 -47.044  10.599  1.00  0.00     0.166 HD
ENDBRANCH  12  13
ENDBRANCH  11  12
ENDBRANCH   9  11
BRANCH   1  20
HETATM   20  C   UNL     1     -44.644 -55.013  14.357  1.00  0.00     0.268 C 
HETATM   21  C   UNL     1     -46.155 -54.809  14.334  1.00  0.00     0.037 C 
ENDBRANCH   1  20
TORSDOF 4
ENDMDL
MODEL 4
REMARK VINA RESULT:      -4.8      2.129      3.071
REMARK  4 active torsions:
REMARK  status: ('A' for Active; 'I' for Inactive)
REMARK    1  A    between atoms: C_2  and  N_3 
REMARK       I    between atoms: N_6  and  C_9 
REMARK       I    between atoms: C_9  and  N_11 
REMARK    2  A    between atoms: N_11  and  C_12 
REMARK    3  A    between atoms: C_12  and  C_13 
REMARK    4  A    between atoms: C_13  and  C_14 
ROOT
HETATM    1  N   UNL     1     -41.939 -53.074  14.769  1.00  0.00     0.091 N 
HETATM    2  C   UNL     1     -42.916 -52.072  14.287  1.00  0.00     0.292 C 
HETATM    3  C   UNL     1     -42.834 -51.750  12.780  1.00  0.00     0.158 C 
HETATM    4  N   UNL     1     -41.466 -51.401  12.379  1.00  0.00    -0.331 N 
HETATM    5  C   UNL     1     -40.443 -52.343  12.840  1.00  0.00     0.158 C 
HETATM    6  C   UNL     1     -40.583 -52.633  14.350  1.00  0.00     0.292 C 
HETATM    7  C   UNL     1     -41.065 -50.286  11.677  1.00  0.00     0.318 C 
HETATM    8  O   UNL     1     -39.884 -50.037  11.440  1.00  0.00    -0.247 OA
HETATM    9  N   UNL     1     -42.059 -49.438  11.273  1.00  0.00    -0.343 N 
HETATM   10  H   UNL     1     -42.988 -49.806  11.153  1.00  0.00     0.164 HD
ENDROOT
BRANCH   9  11
HETATM   11  C   UNL     1     -41.742 -48.218  10.557  1.00  0.00     0.130 C 
BRANCH  11  12
HETATM   12  C   UNL     1     -42.840 -47.160  10.649  1.00  0.00     0.077 C 
BRANCH  12  13
HETATM   13  C   UNL     1     -42.432 -45.955  11.436  1.00  0.00     0.018 A 
HETATM   14  C   UNL     1     -41.532 -44.981  11.043  1.00  0.00     0.076 A 
HETATM   15  S   UNL     1     -41.395 -43.782  12.256  1.00  0.00    -0.087 SA
HETATM   16  C   UNL     1     -42.537 -44.635  13.214  1.00  0.00     0.046 A 
HETATM   17  C   UNL     1     -42.942 -44.112  14.548  1.00  0.00     0.076 C 
HETATM   18  N   UNL     1     -43.007 -45.745  12.682  1.00  0.00    -0.357 N 
ATOM     19  HN  UNL     1     -43.692 -46.359  13.121  1.00  0.00     0.166 HD
ENDBRANCH  12  13
ENDBRANCH  11  12
ENDBRANCH   9  11
BRANCH   1  20
HETATM   20  C   UNL     1     -42.207 -54.443  14.302  1.00  0.00     0.268 C 
HETATM   21  C   UNL     1     -43.593 -54.957  14.678  1.00  0.00     0.037 C 
ENDBRANCH   1  20
TORSDOF 4
ENDMDL
MODEL 5
REMARK VINA RESULT:      -4.8      3.536      6.718
REMARK  4 active torsions:
REMARK  status: ('A' for Active; 'I' for Inactive)
REMARK    1  A    between atoms: C_2  and  N_3 
REMARK       I    between atoms: N_6  and  C_9 
REMARK       I    between atoms: C_9  and  N_11 
REMARK    2  A    between atoms: N_11  and  C_12 
REMARK    3  A    between atoms: C_12  and  C_13 
REMARK    4  A    between atoms: C_13  and  C_14 
ROOT
HETATM    1  N   UNL     1     -39.063 -48.494  14.232  1.00  0.00     0.091 N 
HETATM    2  C   UNL     1     -39.452 -49.620  15.111  1.00  0.00     0.292 C 
HETATM    3  C   UNL     1     -39.247 -51.024  14.506  1.00  0.00     0.158 C 
HETATM    4  N   UNL     1     -39.873 -51.136  13.183  1.00  0.00    -0.331 N 
HETATM    5  C   UNL     1     -39.546 -50.041  12.266  1.00  0.00     0.158 C 
HETATM    6  C   UNL     1     -39.761 -48.664  12.930  1.00  0.00     0.292 C 
HETATM    7  C   UNL     1     -40.747 -52.112  12.757  1.00  0.00     0.318 C 
HETATM    8  O   UNL     1     -41.279 -52.092  11.649  1.00  0.00    -0.247 OA
HETATM    9  N   UNL     1     -41.022 -53.107  13.653  1.00  0.00    -0.343 N 
HETATM   10  H   UNL     1     -40.346 -53.310  14.372  1.00  0.00     0.164 HD
ENDROOT
BRANCH   9  11
HETATM   11  C   UNL     1     -41.954 -54.166  13.317  1.00  0.00     0.130 C 
BRANCH  11  12
HETATM   12  C   UNL     1     -42.855 -54.570  14.482  1.00  0.00     0.077 C 
BRANCH  12  13
HETATM   13  C   UNL     1     -44.253 -54.053  14.352  1.00  0.00     0.018 A 
HETATM   14  C   UNL     1     -45.285 -54.235  15.255  1.00  0.00     0.076 A 
HETATM   15  S   UNL     1     -46.699 -53.448  14.700  1.00  0.00    -0.087 SA
HETATM   16  C   UNL     1     -45.846 -52.922  13.305  1.00  0.00     0.046 A 
HETATM   17  C   UNL     1     -46.528 -52.095  12.272  1.00  0.00     0.076 C 
HETATM   18  N   UNL     1     -44.584 -53.294  13.238  1.00  0.00    -0.357 N 
ATOM     19  HN  UNL     1     -43.945 -53.060  12.480  1.00  0.00     0.166 HD
ENDBRANCH  12  13
ENDBRANCH  11  12
ENDBRANCH   9  11
BRANCH   1  20
HETATM   20  C   UNL     1     -37.611 -48.366  14.030  1.00  0.00     0.268 C 
HETATM   21  C   UNL     1     -36.831 -48.152  15.323  1.00  0.00     0.037 C 
ENDBRANCH   1  20
TORSDOF 4
ENDMDL
MODEL 6
REMARK VINA RESULT:      -4.8      3.759      4.587
REMARK  4 active torsions:
REMARK  status: ('A' for Active; 'I' for Inactive)
REMARK    1  A    between atoms: C_2  and  N_3 
REMARK       I    between atoms: N_6  and  C_9 
REMARK       I    between atoms: C_9  and  N_11 
REMARK    2  A    between atoms: N_11  and  C_12 
REMARK    3  A    between atoms: C_12  and  C_13 
REMARK    4  A    between atoms: C_13  and  C_14 
ROOT
HETATM    1  N   UNL     1     -45.709 -52.051  13.479  1.00  0.00     0.091 N 
HETATM    2  C   UNL     1     -44.440 -51.315  13.277  1.00  0.00     0.292 C 
HETATM    3  C   UNL     1     -43.256 -52.175  12.789  1.00  0.00     0.158 C 
HETATM    4  N   UNL     1     -43.062 -53.355  13.640  1.00  0.00    -0.331 N 
HETATM    5  C   UNL     1     -44.285 -54.121  13.898  1.00  0.00     0.158 C 
HETATM    6  C   UNL     1     -45.434 -53.206  14.372  1.00  0.00     0.292 C 
HETATM    7  C   UNL     1     -41.891 -53.766  14.238  1.00  0.00     0.318 C 
HETATM    8  O   UNL     1     -41.832 -54.735  14.993  1.00  0.00    -0.247 OA
HETATM    9  N   UNL     1     -40.781 -53.015  13.967  1.00  0.00    -0.343 N 
HETATM   10  H   UNL     1     -40.755 -52.481  13.114  1.00  0.00     0.164 HD
ENDROOT
BRANCH   9  11
HETATM   11  C   UNL     1     -39.504 -53.341  14.572  1.00  0.00     0.130 C 
BRANCH  11  12
HETATM   12  C   UNL     1     -38.803 -52.134  15.192  1.00  0.00     0.077 C 
BRANCH  12  13
HETATM   13  C   UNL     1     -38.646 -50.991  14.241  1.00  0.00     0.018 A 
HETATM   14  C   UNL     1     -39.101 -49.698  14.425  1.00  0.00     0.076 A 
HETATM   15  S   UNL     1     -38.675 -48.725  13.084  1.00  0.00    -0.087 SA
HETATM   16  C   UNL     1     -37.916 -50.084  12.354  1.00  0.00     0.046 A 
HETATM   17  C   UNL     1     -37.257 -49.955  11.025  1.00  0.00     0.076 C 
HETATM   18  N   UNL     1     -37.963 -51.201  13.051  1.00  0.00    -0.357 N 
ATOM     19  HN  UNL     1     -37.557 -52.089  12.758  1.00  0.00     0.166 HD
ENDBRANCH  12  13
ENDBRANCH  11  12
ENDBRANCH   9  11
BRANCH   1  20
HETATM   20  C   UNL     1     -46.346 -52.499  12.230  1.00  0.00     0.268 C 
HETATM   21  C   UNL     1     -47.168 -51.416  11.540  1.00  0.00     0.037 C 
ENDBRANCH   1  20
TORSDOF 4
ENDMDL
MODEL 7
REMARK VINA RESULT:      -4.8      3.006      4.217
REMARK  4 active torsions:
REMARK  status: ('A' for Active; 'I' for Inactive)
REMARK    1  A    between atoms: C_2  and  N_3 
REMARK       I    between atoms: N_6  and  C_9 
REMARK       I    between atoms: C_9  and  N_11 
REMARK    2  A    between atoms: N_11  and  C_12 
REMARK    3  A    between atoms: C_12  and  C_13 
REMARK    4  A    between atoms: C_13  and  C_14 
ROOT
HETATM    1  N   UNL     1     -44.371 -53.299  15.084  1.00  0.00     0.091 N 
HETATM    2  C   UNL     1     -44.253 -51.882  14.673  1.00  0.00     0.292 C 
HETATM    3  C   UNL     1     -43.926 -51.659  13.182  1.00  0.00     0.158 C 
HETATM    4  N   UNL     1     -42.752 -52.437  12.767  1.00  0.00    -0.331 N 
HETATM    5  C   UNL     1     -42.794 -53.848  13.159  1.00  0.00     0.158 C 
HETATM    6  C   UNL     1     -43.136 -54.007  14.656  1.00  0.00     0.292 C 
HETATM    7  C   UNL     1     -41.635 -51.970  12.110  1.00  0.00     0.318 C 
HETATM    8  O   UNL     1     -40.664 -52.681  11.859  1.00  0.00    -0.247 OA
HETATM    9  N   UNL     1     -41.645 -50.646  11.770  1.00  0.00    -0.343 N 
HETATM   10  H   UNL     1     -42.532 -50.184  11.653  1.00  0.00     0.164 HD
ENDROOT
BRANCH   9  11
HETATM   11  C   UNL     1     -40.504 -50.045  11.106  1.00  0.00     0.130 C 
BRANCH  11  12
HETATM   12  C   UNL     1     -39.972 -48.806  11.821  1.00  0.00     0.077 C 
BRANCH  12  13
HETATM   13  C   UNL     1     -38.978 -49.126  12.893  1.00  0.00     0.018 A 
HETATM   14  C   UNL     1     -38.486 -50.378  13.212  1.00  0.00     0.076 A 
HETATM   15  S   UNL     1     -37.355 -50.259  14.491  1.00  0.00    -0.087 SA
HETATM   16  C   UNL     1     -37.595 -48.558  14.530  1.00  0.00     0.046 A 
HETATM   17  C   UNL     1     -36.850 -47.714  15.504  1.00  0.00     0.076 C 
HETATM   18  N   UNL     1     -38.456 -48.087  13.652  1.00  0.00    -0.357 N 
ATOM     19  HN  UNL     1     -38.704 -47.104  13.546  1.00  0.00     0.166 HD
ENDBRANCH  12  13
ENDBRANCH  11  12
ENDBRANCH   9  11
BRANCH   1  20
HETATM   20  C   UNL     1     -45.567 -53.977  14.558  1.00  0.00     0.268 C 
HETATM   21  C   UNL     1     -46.859 -53.198  14.780  1.00  0.00     0.037 C 
ENDBRANCH   1  20
TORSDOF 4
ENDMDL
MODEL 8
REMARK VINA RESULT:      -4.7      2.258      3.079
REMARK  4 active torsions:
REMARK  status: ('A' for Active; 'I' for Inactive)
REMARK    1  A    between atoms: C_2  and  N_3 
REMARK       I    between atoms: N_6  and  C_9 
REMARK       I    between atoms: C_9  and  N_11 
REMARK    2  A    between atoms: N_11  and  C_12 
REMARK    3  A    between atoms: C_12  and  C_13 
REMARK    4  A    between atoms: C_13  and  C_14 
ROOT
HETATM    1  N   UNL     1     -46.105 -53.577  15.928  1.00  0.00     0.091 N 
HETATM    2  C   UNL     1     -44.819 -54.169  15.495  1.00  0.00     0.292 C 
HETATM    3  C   UNL     1     -43.647 -53.172  15.382  1.00  0.00     0.158 C 
HETATM    4  N   UNL     1     -44.006 -52.010  14.561  1.00  0.00    -0.331 N 
HETATM    5  C   UNL     1     -45.281 -51.386  14.923  1.00  0.00     0.158 C 
HETATM    6  C   UNL     1     -46.411 -52.432  15.032  1.00  0.00     0.292 C 
HETATM    7  C   UNL     1     -43.306 -51.501  13.489  1.00  0.00     0.318 C 
HETATM    8  O   UNL     1     -43.716 -50.560  12.812  1.00  0.00    -0.247 OA
HETATM    9  N   UNL     1     -42.125 -52.122  13.191  1.00  0.00    -0.343 N 
HETATM   10  H   UNL     1     -41.643 -52.619  13.921  1.00  0.00     0.164 HD
ENDROOT
BRANCH   9  11
HETATM   11  C   UNL     1     -41.327 -51.686  12.061  1.00  0.00     0.130 C 
BRANCH  11  12
HETATM   12  C   UNL     1     -40.351 -50.564  12.409  1.00  0.00     0.077 C 
BRANCH  12  13
HETATM   13  C   UNL     1     -40.700 -49.259  11.766  1.00  0.00     0.018 A 
HETATM   14  C   UNL     1     -40.036 -48.057  11.931  1.00  0.00     0.076 A 
HETATM   15  S   UNL     1     -40.777 -46.840  10.984  1.00  0.00    -0.087 SA
HETATM   16  C   UNL     1     -41.924 -47.990  10.423  1.00  0.00     0.046 A 
HETATM   17  C   UNL     1     -42.987 -47.587   9.461  1.00  0.00     0.076 C 
HETATM   18  N   UNL     1     -41.779 -49.211  10.895  1.00  0.00    -0.357 N 
ATOM     19  HN  UNL     1     -42.374 -50.004  10.656  1.00  0.00     0.166 HD
ENDBRANCH  12  13
ENDBRANCH  11  12
ENDBRANCH   9  11
BRANCH   1  20
HETATM   20  C   UNL     1     -46.124 -53.154  17.337  1.00  0.00     0.268 C 
HETATM   21  C   UNL     1     -45.813 -54.278  18.319  1.00  0.00     0.037 C 
ENDBRANCH   1  20
TORSDOF 4
ENDMDL
MODEL 9
REMARK VINA RESULT:      -4.7      3.226      6.764
REMARK  4 active torsions:
REMARK  status: ('A' for Active; 'I' for Inactive)
REMARK    1  A    between atoms: C_2  and  N_3 
REMARK       I    between atoms: N_6  and  C_9 
REMARK       I    between atoms: C_9  and  N_11 
REMARK    2  A    between atoms: N_11  and  C_12 
REMARK    3  A    between atoms: C_12  and  C_13 
REMARK    4  A    between atoms: C_13  and  C_14 
ROOT
HETATM    1  N   UNL     1     -39.587 -46.988  12.883  1.00  0.00     0.091 N 
HETATM    2  C   UNL     1     -39.010 -48.171  12.207  1.00  0.00     0.292 C 
HETATM    3  C   UNL     1     -39.986 -49.348  12.002  1.00  0.00     0.158 C 
HETATM    4  N   UNL     1     -40.652 -49.719  13.257  1.00  0.00    -0.331 N 
HETATM    5  C   UNL     1     -41.231 -48.589  13.989  1.00  0.00     0.158 C 
HETATM    6  C   UNL     1     -40.212 -47.441  14.153  1.00  0.00     0.292 C 
HETATM    7  C   UNL     1     -40.737 -50.976  13.813  1.00  0.00     0.318 C 
HETATM    8  O   UNL     1     -41.260 -51.187  14.906  1.00  0.00    -0.247 OA
HETATM    9  N   UNL     1     -40.178 -51.994  13.091  1.00  0.00    -0.343 N 
HETATM   10  H   UNL     1     -40.087 -51.885  12.095  1.00  0.00     0.164 HD
ENDROOT
BRANCH   9  11
HETATM   11  C   UNL     1     -40.184 -53.351  13.602  1.00  0.00     0.130 C 
BRANCH  11  12
HETATM   12  C   UNL     1     -41.144 -54.274  12.854  1.00  0.00     0.077 C 
BRANCH  12  13
HETATM   13  C   UNL     1     -42.567 -54.122  13.290  1.00  0.00     0.018 A 
HETATM   14  C   UNL     1     -43.122 -54.594  14.465  1.00  0.00     0.076 A 
HETATM   15  S   UNL     1     -44.778 -54.168  14.548  1.00  0.00    -0.087 SA
HETATM   16  C   UNL     1     -44.641 -53.387  13.023  1.00  0.00     0.046 A 
HETATM   17  C   UNL     1     -45.822 -52.719  12.411  1.00  0.00     0.076 C 
HETATM   18  N   UNL     1     -43.446 -53.427  12.471  1.00  0.00    -0.357 N 
ATOM     19  HN  UNL     1     -43.202 -53.008  11.574  1.00  0.00     0.166 HD
ENDBRANCH  12  13
ENDBRANCH  11  12
ENDBRANCH   9  11
BRANCH   1  20
HETATM   20  C   UNL     1     -40.557 -46.245  12.063  1.00  0.00     0.268 C 
HETATM   21  C   UNL     1     -40.013 -45.825  10.702  1.00  0.00     0.037 C 
ENDBRANCH   1  20
TORSDOF 4
ENDMDL
