MODEL 1
REMARK VINA RESULT:      -5.8      0.000      0.000
REMARK  6 active torsions:
REMARK  status: ('A' for Active; 'I' for Inactive)
REMARK       I    between atoms: C_2  and  N_4 
REMARK    1  A    between atoms: N_4  and  C_5 
REMARK    2  A    between atoms: C_5  and  C_6 
REMARK    3  A    between atoms: C_6  and  C_7 
REMARK    4  A    between atoms: C_10  and  C_11 
REMARK    5  A    between atoms: C_11  and  C_12 
REMARK    6  A    between atoms: C_12  and  C_13 
ROOT
HETATM    1  C   UNL     1     -42.237 -49.337  11.970  1.00  0.00     0.052 A 
HETATM    2  N   UNL     1     -42.999 -50.272  12.496  1.00  0.00    -0.357 N 
ATOM      3  HN  UNL     1     -43.956 -50.129  12.819  1.00  0.00     0.166 HD
HETATM    4  C   UNL     1     -42.320 -51.478  12.550  1.00  0.00     0.016 A 
HETATM    5  C   UNL     1     -41.038 -51.438  12.035  1.00  0.00     0.076 A 
HETATM    6  S   UNL     1     -40.678 -49.861  11.468  1.00  0.00    -0.087 SA
ENDROOT
BRANCH   1   7
HETATM    7  C   UNL     1     -42.654 -47.910  11.783  1.00  0.00     0.084 C 
BRANCH   7   8
HETATM    8  C   UNL     1     -43.074 -47.646  10.336  1.00  0.00     0.129 C 
BRANCH   8   9
HETATM    9  N   UNL     1     -44.480 -47.302  10.218  1.00  0.00    -0.361 N 
HETATM   10  C   UNL     1     -45.185 -47.525   9.058  1.00  0.00     0.213 C 
HETATM   11  C   UNL     1     -46.620 -47.083   9.136  1.00  0.00     0.117 C 
HETATM   12  O   UNL     1     -44.705 -48.044   8.057  1.00  0.00    -0.274 OA
HETATM   13  H   UNL     1     -44.956 -46.914  11.025  1.00  0.00     0.162 HD
ENDBRANCH   8   9
ENDBRANCH   7   8
ENDBRANCH   1   7
BRANCH   4  14
HETATM   14  C   UNL     1     -43.005 -52.658  13.164  1.00  0.00     0.058 C 
BRANCH  14  15
HETATM   15  C   UNL     1     -44.180 -53.152  12.316  1.00  0.00     0.010 C 
BRANCH  15  16
HETATM   16  C   UNL     1     -45.524 -53.072  13.047  1.00  0.00    -0.014 C 
HETATM   17  C   UNL     1     -46.147 -51.669  12.966  1.00  0.00     0.004 C 
HETATM   18  C   UNL     1     -46.814 -51.412  14.318  1.00  0.00     0.000 C 
HETATM   19  C   UNL     1     -46.705 -52.715  15.094  1.00  0.00     0.000 C 
HETATM   20  C   UNL     1     -45.443 -53.361  14.547  1.00  0.00     0.004 C 
ENDBRANCH  15  16
ENDBRANCH  14  15
ENDBRANCH   4  14
TORSDOF 6
ENDMDL
MODEL 2
REMARK VINA RESULT:      -5.7      2.154      2.908
REMARK  6 active torsions:
REMARK  status: ('A' for Active; 'I' for Inactive)
REMARK       I    between atoms: C_2  and  N_4 
REMARK    1  A    between atoms: N_4  and  C_5 
REMARK    2  A    between atoms: C_5  and  C_6 
REMARK    3  A    between atoms: C_6  and  C_7 
REMARK    4  A    between atoms: C_10  and  C_11 
REMARK    5  A    between atoms: C_11  and  C_12 
REMARK    6  A    between atoms: C_12  and  C_13 
ROOT
HETATM    1  C   UNL     1     -41.588 -52.275  12.436  1.00  0.00     0.052 A 
HETATM    2  N   UNL     1     -42.811 -52.626  12.101  1.00  0.00    -0.357 N 
ATOM      3  HN  UNL     1     -43.370 -52.169  11.380  1.00  0.00     0.166 HD
HETATM    4  C   UNL     1     -43.234 -53.702  12.864  1.00  0.00     0.016 A 
HETATM    5  C   UNL     1     -42.296 -54.169  13.765  1.00  0.00     0.076 A 
HETATM    6  S   UNL     1     -40.857 -53.245  13.654  1.00  0.00    -0.087 SA
ENDROOT
BRANCH   1   7
HETATM    7  C   UNL     1     -40.835 -51.135  11.822  1.00  0.00     0.084 C 
BRANCH   7   8
HETATM    8  C   UNL     1     -41.443 -49.792  12.228  1.00  0.00     0.129 C 
BRANCH   8   9
HETATM    9  N   UNL     1     -42.274 -49.218  11.185  1.00  0.00    -0.361 N 
HETATM   10  C   UNL     1     -41.931 -48.048  10.547  1.00  0.00     0.213 C 
HETATM   11  C   UNL     1     -42.933 -47.615   9.514  1.00  0.00     0.117 C 
HETATM   12  O   UNL     1     -40.905 -47.420  10.781  1.00  0.00    -0.274 OA
HETATM   13  H   UNL     1     -43.114 -49.711  10.905  1.00  0.00     0.162 HD
ENDBRANCH   8   9
ENDBRANCH   7   8
ENDBRANCH   1   7
BRANCH   4  14
HETATM   14  C   UNL     1     -44.623 -54.218  12.664  1.00  0.00     0.058 C 
BRANCH  14  15
HETATM   15  C   UNL     1     -45.255 -54.704  13.972  1.00  0.00     0.010 C 
BRANCH  15  16
HETATM   16  C   UNL     1     -46.333 -53.756  14.506  1.00  0.00    -0.014 C 
HETATM   17  C   UNL     1     -46.526 -52.528  13.602  1.00  0.00     0.004 C 
HETATM   18  C   UNL     1     -46.791 -51.342  14.530  1.00  0.00     0.000 C 
HETATM   19  C   UNL     1     -46.902 -51.923  15.931  1.00  0.00     0.000 C 
HETATM   20  C   UNL     1     -46.026 -53.163  15.882  1.00  0.00     0.004 C 
ENDBRANCH  15  16
ENDBRANCH  14  15
ENDBRANCH   4  14
TORSDOF 6
ENDMDL
MODEL 3
REMARK VINA RESULT:      -5.7      2.081      2.533
REMARK  6 active torsions:
REMARK  status: ('A' for Active; 'I' for Inactive)
REMARK       I    between atoms: C_2  and  N_4 
REMARK    1  A    between atoms: N_4  and  C_5 
REMARK    2  A    between atoms: C_5  and  C_6 
REMARK    3  A    between atoms: C_6  and  C_7 
REMARK    4  A    between atoms: C_10  and  C_11 
REMARK    5  A    between atoms: C_11  and  C_12 
REMARK    6  A    between atoms: C_12  and  C_13 
ROOT
HETATM    1  C   UNL     1     -41.988 -49.934  12.122  1.00  0.00     0.052 A 
HETATM    2  N   UNL     1     -42.895 -50.802  12.520  1.00  0.00    -0.357 N 
ATOM      3  HN  UNL     1     -43.871 -50.577  12.707  1.00  0.00     0.166 HD
HETATM    4  C   UNL     1     -42.335 -52.063  12.650  1.00  0.00     0.016 A 
HETATM    5  C   UNL     1     -40.995 -52.132  12.320  1.00  0.00     0.076 A 
HETATM    6  S   UNL     1     -40.425 -50.590  11.836  1.00  0.00    -0.087 SA
ENDROOT
BRANCH   1   7
HETATM    7  C   UNL     1     -42.251 -48.476  11.902  1.00  0.00     0.084 C 
BRANCH   7   8
HETATM    8  C   UNL     1     -41.838 -48.050  10.492  1.00  0.00     0.129 C 
BRANCH   8   9
HETATM    9  N   UNL     1     -40.744 -47.095  10.497  1.00  0.00    -0.361 N 
HETATM   10  C   UNL     1     -40.959 -45.746  10.331  1.00  0.00     0.213 C 
HETATM   11  C   UNL     1     -39.695 -44.933  10.348  1.00  0.00     0.117 C 
HETATM   12  O   UNL     1     -42.069 -45.244  10.195  1.00  0.00    -0.274 OA
HETATM   13  H   UNL     1     -39.802 -47.435  10.654  1.00  0.00     0.162 HD
ENDBRANCH   8   9
ENDBRANCH   7   8
ENDBRANCH   1   7
BRANCH   4  14
HETATM   14  C   UNL     1     -43.198 -53.181  13.141  1.00  0.00     0.058 C 
BRANCH  14  15
HETATM   15  C   UNL     1     -44.496 -53.309  12.337  1.00  0.00     0.010 C 
BRANCH  15  16
HETATM   16  C   UNL     1     -45.754 -53.161  13.200  1.00  0.00    -0.014 C 
HETATM   17  C   UNL     1     -46.347 -51.745  13.124  1.00  0.00     0.004 C 
HETATM   18  C   UNL     1     -46.863 -51.415  14.525  1.00  0.00     0.000 C 
HETATM   19  C   UNL     1     -46.705 -52.688  15.340  1.00  0.00     0.000 C 
HETATM   20  C   UNL     1     -45.524 -53.392  14.694  1.00  0.00     0.004 C 
ENDBRANCH  15  16
ENDBRANCH  14  15
ENDBRANCH   4  14
TORSDOF 6
ENDMDL
MODEL 4
REMARK VINA RESULT:      -5.6      1.361      1.830
REMARK  6 active torsions:
REMARK  status: ('A' for Active; 'I' for Inactive)
REMARK       I    between atoms: C_2  and  N_4 
REMARK    1  A    between atoms: N_4  and  C_5 
REMARK    2  A    between atoms: C_5  and  C_6 
REMARK    3  A    between atoms: C_6  and  C_7 
REMARK    4  A    between atoms: C_10  and  C_11 
REMARK    5  A    between atoms: C_11  and  C_12 
REMARK    6  A    between atoms: C_12  and  C_13 
ROOT
HETATM    1  C   UNL     1     -41.746 -49.173  11.925  1.00  0.00     0.052 A 
HETATM    2  N   UNL     1     -42.077 -50.446  11.876  1.00  0.00    -0.357 N 
ATOM      3  HN  UNL     1     -43.030 -50.795  11.775  1.00  0.00     0.166 HD
HETATM    4  C   UNL     1     -40.950 -51.245  11.981  1.00  0.00     0.016 A 
HETATM    5  C   UNL     1     -39.762 -50.549  12.089  1.00  0.00     0.076 A 
HETATM    6  S   UNL     1     -40.060 -48.861  12.055  1.00  0.00    -0.087 SA
ENDROOT
BRANCH   1   7
HETATM    7  C   UNL     1     -42.723 -48.040  11.860  1.00  0.00     0.084 C 
BRANCH   7   8
HETATM    8  C   UNL     1     -43.087 -47.710  10.412  1.00  0.00     0.129 C 
BRANCH   8   9
HETATM    9  N   UNL     1     -44.522 -47.687  10.188  1.00  0.00    -0.361 N 
HETATM   10  C   UNL     1     -45.060 -47.800   8.927  1.00  0.00     0.213 C 
HETATM   11  C   UNL     1     -46.561 -47.733   8.911  1.00  0.00     0.117 C 
HETATM   12  O   UNL     1     -44.391 -47.953   7.911  1.00  0.00    -0.274 OA
HETATM   13  H   UNL     1     -45.137 -47.613  10.990  1.00  0.00     0.162 HD
ENDBRANCH   8   9
ENDBRANCH   7   8
ENDBRANCH   1   7
BRANCH   4  14
HETATM   14  C   UNL     1     -41.126 -52.731  11.995  1.00  0.00     0.058 C 
BRANCH  14  15
HETATM   15  C   UNL     1     -41.698 -53.235  13.323  1.00  0.00     0.010 C 
BRANCH  15  16
HETATM   16  C   UNL     1     -42.934 -54.123  13.146  1.00  0.00    -0.014 C 
HETATM   17  C   UNL     1     -44.098 -53.373  12.479  1.00  0.00     0.004 C 
HETATM   18  C   UNL     1     -45.378 -53.872  13.150  1.00  0.00     0.000 C 
HETATM   19  C   UNL     1     -44.953 -55.004  14.073  1.00  0.00     0.000 C 
HETATM   20  C   UNL     1     -43.526 -54.647  14.455  1.00  0.00     0.004 C 
ENDBRANCH  15  16
ENDBRANCH  14  15
ENDBRANCH   4  14
TORSDOF 6
ENDMDL
MODEL 5
REMARK VINA RESULT:      -5.6      3.639      4.684
REMARK  6 active torsions:
REMARK  status: ('A' for Active; 'I' for Inactive)
REMARK       I    between atoms: C_2  and  N_4 
REMARK    1  A    between atoms: N_4  and  C_5 
REMARK    2  A    between atoms: C_5  and  C_6 
REMARK    3  A    between atoms: C_6  and  C_7 
REMARK    4  A    between atoms: C_10  and  C_11 
REMARK    5  A    between atoms: C_11  and  C_12 
REMARK    6  A    between atoms: C_12  and  C_13 
ROOT
HETATM    1  C   UNL     1     -41.711 -51.735  12.301  1.00  0.00     0.052 A 
HETATM    2  N   UNL     1     -42.997 -52.013  12.264  1.00  0.00    -0.357 N 
ATOM      3  HN  UNL     1     -43.713 -51.401  11.872  1.00  0.00     0.166 HD
HETATM    4  C   UNL     1     -43.243 -53.253  12.831  1.00  0.00     0.016 A 
HETATM    5  C   UNL     1     -42.113 -53.913  13.277  1.00  0.00     0.076 A 
HETATM    6  S   UNL     1     -40.718 -52.965  12.977  1.00  0.00    -0.087 SA
ENDROOT
BRANCH   1   7
HETATM    7  C   UNL     1     -41.104 -50.465  11.790  1.00  0.00     0.084 C 
BRANCH   7   8
HETATM    8  C   UNL     1     -39.666 -50.305  12.287  1.00  0.00     0.129 C 
BRANCH   8   9
HETATM    9  N   UNL     1     -38.728 -50.051  11.207  1.00  0.00    -0.361 N 
HETATM   10  C   UNL     1     -37.456 -50.574  11.215  1.00  0.00     0.213 C 
HETATM   11  C   UNL     1     -36.640 -50.178  10.017  1.00  0.00     0.117 C 
HETATM   12  O   UNL     1     -37.024 -51.304  12.100  1.00  0.00    -0.274 OA
HETATM   13  H   UNL     1     -39.035 -49.495  10.417  1.00  0.00     0.162 HD
ENDBRANCH   8   9
ENDBRANCH   7   8
ENDBRANCH   1   7
BRANCH   4  14
HETATM   14  C   UNL     1     -44.658 -53.728  12.927  1.00  0.00     0.058 C 
BRANCH  14  15
HETATM   15  C   UNL     1     -45.659 -52.667  12.458  1.00  0.00     0.010 C 
BRANCH  15  16
HETATM   16  C   UNL     1     -46.439 -52.027  13.610  1.00  0.00    -0.014 C 
HETATM   17  C   UNL     1     -45.581 -51.036  14.413  1.00  0.00     0.004 C 
HETATM   18  C   UNL     1     -45.990 -51.194  15.877  1.00  0.00     0.000 C 
HETATM   19  C   UNL     1     -47.174 -52.148  15.881  1.00  0.00     0.000 C 
HETATM   20  C   UNL     1     -46.944 -53.019  14.658  1.00  0.00     0.004 C 
ENDBRANCH  15  16
ENDBRANCH  14  15
ENDBRANCH   4  14
TORSDOF 6
ENDMDL
MODEL 6
REMARK VINA RESULT:      -5.5      1.965      2.449
REMARK  6 active torsions:
REMARK  status: ('A' for Active; 'I' for Inactive)
REMARK       I    between atoms: C_2  and  N_4 
REMARK    1  A    between atoms: N_4  and  C_5 
REMARK    2  A    between atoms: C_5  and  C_6 
REMARK    3  A    between atoms: C_6  and  C_7 
REMARK    4  A    between atoms: C_10  and  C_11 
REMARK    5  A    between atoms: C_11  and  C_12 
REMARK    6  A    between atoms: C_12  and  C_13 
ROOT
HETATM    1  C   UNL     1     -42.633 -47.991  10.928  1.00  0.00     0.052 A 
HETATM    2  N   UNL     1     -42.827 -49.186  11.446  1.00  0.00    -0.357 N 
ATOM      3  HN  UNL     1     -42.844 -50.055  10.913  1.00  0.00     0.166 HD
HETATM    4  C   UNL     1     -43.007 -49.097  12.816  1.00  0.00     0.016 A 
HETATM    5  C   UNL     1     -42.921 -47.814  13.324  1.00  0.00     0.076 A 
HETATM    6  S   UNL     1     -42.608 -46.699  12.061  1.00  0.00    -0.087 SA
ENDROOT
BRANCH   1   7
HETATM    7  C   UNL     1     -42.425 -47.725   9.469  1.00  0.00     0.084 C 
BRANCH   7   8
HETATM    8  C   UNL     1     -43.642 -47.027   8.859  1.00  0.00     0.129 C 
BRANCH   8   9
HETATM    9  N   UNL     1     -44.530 -47.951   8.175  1.00  0.00    -0.361 N 
HETATM   10  C   UNL     1     -45.845 -48.104   8.550  1.00  0.00     0.213 C 
HETATM   11  C   UNL     1     -46.586 -49.121   7.729  1.00  0.00     0.117 C 
HETATM   12  O   UNL     1     -46.374 -47.468   9.455  1.00  0.00    -0.274 OA
HETATM   13  H   UNL     1     -44.172 -48.474   7.384  1.00  0.00     0.162 HD
ENDBRANCH   8   9
ENDBRANCH   7   8
ENDBRANCH   1   7
BRANCH   4  14
HETATM   14  C   UNL     1     -43.291 -50.349  13.583  1.00  0.00     0.058 C 
BRANCH  14  15
HETATM   15  C   UNL     1     -44.733 -50.831  13.392  1.00  0.00     0.010 C 
BRANCH  15  16
HETATM   16  C   UNL     1     -45.318 -51.489  14.645  1.00  0.00    -0.014 C 
HETATM   17  C   UNL     1     -46.854 -51.535  14.614  1.00  0.00     0.004 C 
HETATM   18  C   UNL     1     -47.325 -51.283  16.046  1.00  0.00     0.000 C 
HETATM   19  C   UNL     1     -46.068 -51.252  16.902  1.00  0.00     0.000 C 
HETATM   20  C   UNL     1     -44.991 -50.760  15.949  1.00  0.00     0.004 C 
ENDBRANCH  15  16
ENDBRANCH  14  15
ENDBRANCH   4  14
TORSDOF 6
ENDMDL
MODEL 7
REMARK VINA RESULT:      -5.5      2.981      3.733
REMARK  6 active torsions:
REMARK  status: ('A' for Active; 'I' for Inactive)
REMARK       I    between atoms: C_2  and  N_4 
REMARK    1  A    between atoms: N_4  and  C_5 
REMARK    2  A    between atoms: C_5  and  C_6 
REMARK    3  A    between atoms: C_6  and  C_7 
REMARK    4  A    between atoms: C_10  and  C_11 
REMARK    5  A    between atoms: C_11  and  C_12 
REMARK    6  A    between atoms: C_12  and  C_13 
ROOT
HETATM    1  C   UNL     1     -40.685 -49.833  11.510  1.00  0.00     0.052 A 
HETATM    2  N   UNL     1     -41.176 -51.049  11.399  1.00  0.00    -0.357 N 
ATOM      3  HN  UNL     1     -41.927 -51.317  10.763  1.00  0.00     0.166 HD
HETATM    4  C   UNL     1     -40.531 -51.914  12.267  1.00  0.00     0.016 A 
HETATM    5  C   UNL     1     -39.529 -51.330  13.019  1.00  0.00     0.076 A 
HETATM    6  S   UNL     1     -39.391 -49.667  12.630  1.00  0.00    -0.087 SA
ENDROOT
BRANCH   1   7
HETATM    7  C   UNL     1     -41.170 -48.649  10.731  1.00  0.00     0.084 C 
BRANCH   7   8
HETATM    8  C   UNL     1     -40.763 -47.340  11.408  1.00  0.00     0.129 C 
BRANCH   8   9
HETATM    9  N   UNL     1     -39.808 -46.579  10.623  1.00  0.00    -0.361 N 
HETATM   10  C   UNL     1     -40.086 -45.307  10.178  1.00  0.00     0.213 C 
HETATM   11  C   UNL     1     -38.975 -44.701   9.368  1.00  0.00     0.117 C 
HETATM   12  O   UNL     1     -41.130 -44.712  10.423  1.00  0.00    -0.274 OA
HETATM   13  H   UNL     1     -38.903 -46.991  10.425  1.00  0.00     0.162 HD
ENDBRANCH   8   9
ENDBRANCH   7   8
ENDBRANCH   1   7
BRANCH   4  14
HETATM   14  C   UNL     1     -40.982 -53.339  12.324  1.00  0.00     0.058 C 
BRANCH  14  15
HETATM   15  C   UNL     1     -41.427 -53.751  13.731  1.00  0.00     0.010 C 
BRANCH  15  16
HETATM   16  C   UNL     1     -42.938 -53.617  13.946  1.00  0.00    -0.014 C 
HETATM   17  C   UNL     1     -43.541 -54.861  14.619  1.00  0.00     0.004 C 
HETATM   18  C   UNL     1     -44.912 -55.079  13.979  1.00  0.00     0.000 C 
HETATM   19  C   UNL     1     -45.146 -53.882  13.071  1.00  0.00     0.000 C 
HETATM   20  C   UNL     1     -43.746 -53.459  12.658  1.00  0.00     0.004 C 
ENDBRANCH  15  16
ENDBRANCH  14  15
ENDBRANCH   4  14
TORSDOF 6
ENDMDL
MODEL 8
REMARK VINA RESULT:      -5.4      2.410      3.106
REMARK  6 active torsions:
REMARK  status: ('A' for Active; 'I' for Inactive)
REMARK       I    between atoms: C_2  and  N_4 
REMARK    1  A    between atoms: N_4  and  C_5 
REMARK    2  A    between atoms: C_5  and  C_6 
REMARK    3  A    between atoms: C_6  and  C_7 
REMARK    4  A    between atoms: C_10  and  C_11 
REMARK    5  A    between atoms: C_11  and  C_12 
REMARK    6  A    between atoms: C_12  and  C_13 
ROOT
HETATM    1  C   UNL     1     -39.247 -50.867  12.337  1.00  0.00     0.052 A 
HETATM    2  N   UNL     1     -40.319 -51.586  12.079  1.00  0.00    -0.357 N 
ATOM      3  HN  UNL     1     -40.931 -51.448  11.276  1.00  0.00     0.166 HD
HETATM    4  C   UNL     1     -40.500 -52.554  13.053  1.00  0.00     0.016 A 
HETATM    5  C   UNL     1     -39.530 -52.565  14.038  1.00  0.00     0.076 A 
HETATM    6  S   UNL     1     -38.368 -51.342  13.737  1.00  0.00    -0.087 SA
ENDROOT
BRANCH   1   7
HETATM    7  C   UNL     1     -38.772 -49.722  11.496  1.00  0.00     0.084 C 
BRANCH   7   8
HETATM    8  C   UNL     1     -39.468 -48.421  11.896  1.00  0.00     0.129 C 
BRANCH   8   9
HETATM    9  N   UNL     1     -40.406 -47.958  10.889  1.00  0.00    -0.361 N 
HETATM   10  C   UNL     1     -41.717 -48.376  10.873  1.00  0.00     0.213 C 
HETATM   11  C   UNL     1     -42.516 -47.795   9.741  1.00  0.00     0.117 C 
HETATM   12  O   UNL     1     -42.200 -49.138  11.703  1.00  0.00    -0.274 OA
HETATM   13  H   UNL     1     -40.088 -47.286  10.200  1.00  0.00     0.162 HD
ENDBRANCH   8   9
ENDBRANCH   7   8
ENDBRANCH   1   7
BRANCH   4  14
HETATM   14  C   UNL     1     -41.699 -53.444  12.963  1.00  0.00     0.058 C 
BRANCH  14  15
HETATM   15  C   UNL     1     -42.878 -52.760  12.265  1.00  0.00     0.010 C 
BRANCH  15  16
HETATM   16  C   UNL     1     -44.210 -53.482  12.491  1.00  0.00    -0.014 C 
HETATM   17  C   UNL     1     -45.335 -52.514  12.894  1.00  0.00     0.004 C 
HETATM   18  C   UNL     1     -46.192 -53.250  13.924  1.00  0.00     0.000 C 
HETATM   19  C   UNL     1     -45.650 -54.669  13.983  1.00  0.00     0.000 C 
HETATM   20  C   UNL     1     -44.184 -54.516  13.617  1.00  0.00     0.004 C 
ENDBRANCH  15  16
ENDBRANCH  14  15
ENDBRANCH   4  14
TORSDOF 6
ENDMDL
MODEL 9
REMARK VINA RESULT:      -5.2      3.393      3.984
REMARK  6 active torsions:
REMARK  status: ('A' for Active; 'I' for Inactive)
REMARK       I    between atoms: C_2  and  N_4 
REMARK    1  A    between atoms: N_4  and  C_5 
REMARK    2  A    between atoms: C_5  and  C_6 
REMARK    3  A    between atoms: C_6  and  C_7 
REMARK    4  A    between atoms: C_10  and  C_11 
REMARK    5  A    between atoms: C_11  and  C_12 
REMARK    6  A    between atoms: C_12  and  C_13 
ROOT
HETATM    1  C   UNL     1     -39.834 -52.285  13.439  1.00  0.00     0.052 A 
HETATM    2  N   UNL     1     -40.980 -51.940  12.890  1.00  0.00    -0.357 N 
ATOM      3  HN  UNL     1     -41.175 -51.030  12.473  1.00  0.00     0.166 HD
HETATM    4  C   UNL     1     -41.885 -52.987  12.958  1.00  0.00     0.016 A 
HETATM    5  C   UNL     1     -41.391 -54.134  13.550  1.00  0.00     0.076 A 
HETATM    6  S   UNL     1     -39.762 -53.899  14.028  1.00  0.00    -0.087 SA
ENDROOT
BRANCH   1   7
HETATM    7  C   UNL     1     -38.645 -51.382  13.553  1.00  0.00     0.084 C 
BRANCH   7   8
HETATM    8  C   UNL     1     -38.352 -50.687  12.222  1.00  0.00     0.129 C 
BRANCH   8   9
HETATM    9  N   UNL     1     -38.684 -49.273  12.247  1.00  0.00    -0.361 N 
HETATM   10  C   UNL     1     -39.843 -48.792  11.682  1.00  0.00     0.213 C 
HETATM   11  C   UNL     1     -39.989 -47.300  11.798  1.00  0.00     0.117 C 
HETATM   12  O   UNL     1     -40.687 -49.501  11.146  1.00  0.00    -0.274 OA
HETATM   13  H   UNL     1     -38.055 -48.634  12.718  1.00  0.00     0.162 HD
ENDBRANCH   8   9
ENDBRANCH   7   8
ENDBRANCH   1   7
BRANCH   4  14
HETATM   14  C   UNL     1     -43.267 -52.774  12.428  1.00  0.00     0.058 C 
BRANCH  14  15
HETATM   15  C   UNL     1     -44.205 -53.935  12.770  1.00  0.00     0.010 C 
BRANCH  15  16
HETATM   16  C   UNL     1     -45.585 -53.471  13.249  1.00  0.00    -0.014 C 
HETATM   17  C   UNL     1     -45.835 -51.985  12.946  1.00  0.00     0.004 C 
HETATM   18  C   UNL     1     -46.615 -51.424  14.135  1.00  0.00     0.000 C 
HETATM   19  C   UNL     1     -46.938 -52.616  15.023  1.00  0.00     0.000 C 
HETATM   20  C   UNL     1     -45.800 -53.587  14.758  1.00  0.00     0.004 C 
ENDBRANCH  15  16
ENDBRANCH  14  15
ENDBRANCH   4  14
TORSDOF 6
ENDMDL
