MODEL 1
REMARK VINA RESULT:      -5.4      0.000      0.000
REMARK  6 active torsions:
REMARK  status: ('A' for Active; 'I' for Inactive)
REMARK    1  A    between atoms: C_2  and  N_3 
REMARK    2  A    between atoms: C_2  and  C_9 
REMARK    3  A    between atoms: N_3  and  C_4 
REMARK    4  A    between atoms: C_4  and  C_5 
REMARK    5  A    between atoms: C_5  and  O_8 
REMARK    6  A    between atoms: C_9  and  N_11 
ROOT
HETATM    1  C   UNL     1     -40.120 -47.258  11.316  1.00  0.00     0.045 C 
HETATM    2  C   UNL     1     -41.056 -48.461  11.115  1.00  0.00     0.240 C 
ENDROOT
BRANCH   2   3
HETATM    3  N   UNL     1     -41.763 -48.216   9.829  1.00  0.00     0.092 N 
HETATM    4  H   UNL     1     -41.945 -49.113   9.379  1.00  0.00     0.316 HD
BRANCH   3   5
HETATM    5  C   UNL     1     -43.013 -47.454   9.978  1.00  0.00     0.306 C 
BRANCH   5   6
HETATM    6  C   UNL     1     -43.553 -46.932   8.618  1.00  0.00     0.077 C 
HETATM    7  C   UNL     1     -43.586 -48.022   7.543  1.00  0.00     0.047 C 
HETATM    8  C   UNL     1     -44.958 -46.354   8.809  1.00  0.00     0.047 C 
BRANCH   6   9
HETATM    9  O   UNL     1     -42.702 -45.881   8.153  1.00  0.00    -0.389 OA
HETATM   10  H   UNL     1     -42.284 -45.508   8.955  1.00  0.00     0.210 HD
ENDBRANCH   6   9
ENDBRANCH   5   6
ENDBRANCH   3   5
ENDBRANCH   2   3
BRANCH   2  11
HETATM   11  C   UNL     1     -40.308 -49.828  11.208  1.00  0.00     0.136 C 
HETATM   12  C   UNL     1     -38.905 -49.731  11.822  1.00  0.00     0.036 C 
BRANCH  11  13
HETATM   13  N   UNL     1     -41.124 -50.864  11.845  1.00  0.00    -0.297 N 
HETATM   14  C   UNL     1     -42.040 -50.673  12.843  1.00  0.00     0.112 A 
HETATM   15  C   UNL     1     -42.598 -51.904  13.096  1.00  0.00     0.037 A 
HETATM   16  C   UNL     1     -41.958 -52.773  12.196  1.00  0.00     0.108 A 
HETATM   17  N   UNL     1     -41.063 -52.145  11.430  1.00  0.00    -0.310 N 
ATOM     18  HN  UNL     1     -40.471 -52.543  10.701  1.00  0.00     0.186 HD
ENDBRANCH  11  13
ENDBRANCH   2  11
TORSDOF 6
ENDMDL
MODEL 2
REMARK VINA RESULT:      -5.3      2.240      5.454
REMARK  6 active torsions:
REMARK  status: ('A' for Active; 'I' for Inactive)
REMARK    1  A    between atoms: C_2  and  N_3 
REMARK    2  A    between atoms: C_2  and  C_9 
REMARK    3  A    between atoms: N_3  and  C_4 
REMARK    4  A    between atoms: C_4  and  C_5 
REMARK    5  A    between atoms: C_5  and  O_8 
REMARK    6  A    between atoms: C_9  and  N_11 
ROOT
HETATM    1  C   UNL     1     -39.881 -49.087  12.035  1.00  0.00     0.045 C 
HETATM    2  C   UNL     1     -41.101 -49.096  11.100  1.00  0.00     0.240 C 
ENDROOT
BRANCH   2   3
HETATM    3  N   UNL     1     -41.996 -50.170  11.607  1.00  0.00     0.092 N 
HETATM    4  H   UNL     1     -42.324 -50.725  10.817  1.00  0.00     0.316 HD
BRANCH   3   5
HETATM    5  C   UNL     1     -41.366 -51.036  12.617  1.00  0.00     0.306 C 
BRANCH   5   6
HETATM    6  C   UNL     1     -41.558 -52.545  12.304  1.00  0.00     0.077 C 
HETATM    7  C   UNL     1     -40.627 -53.439  13.129  1.00  0.00     0.047 C 
HETATM    8  C   UNL     1     -43.014 -52.943  12.558  1.00  0.00     0.047 C 
BRANCH   6   9
HETATM    9  O   UNL     1     -41.272 -52.772  10.921  1.00  0.00    -0.389 OA
HETATM   10  H   UNL     1     -40.300 -52.711  10.841  1.00  0.00     0.210 HD
ENDBRANCH   6   9
ENDBRANCH   5   6
ENDBRANCH   3   5
ENDBRANCH   2   3
BRANCH   2  11
HETATM   11  C   UNL     1     -41.766 -47.689  10.966  1.00  0.00     0.136 C 
HETATM   12  C   UNL     1     -40.766 -46.541  10.780  1.00  0.00     0.036 C 
BRANCH  11  13
HETATM   13  N   UNL     1     -42.827 -47.672   9.956  1.00  0.00    -0.297 N 
HETATM   14  C   UNL     1     -44.137 -47.335  10.164  1.00  0.00     0.112 A 
HETATM   15  C   UNL     1     -44.754 -47.413   8.937  1.00  0.00     0.037 A 
HETATM   16  C   UNL     1     -43.733 -47.798   8.052  1.00  0.00     0.108 A 
HETATM   17  N   UNL     1     -42.558 -47.954   8.666  1.00  0.00    -0.310 N 
ATOM     18  HN  UNL     1     -41.665 -48.223   8.253  1.00  0.00     0.186 HD
ENDBRANCH  11  13
ENDBRANCH   2  11
TORSDOF 6
ENDMDL
MODEL 3
REMARK VINA RESULT:      -5.3      2.006      4.329
REMARK  6 active torsions:
REMARK  status: ('A' for Active; 'I' for Inactive)
REMARK    1  A    between atoms: C_2  and  N_3 
REMARK    2  A    between atoms: C_2  and  C_9 
REMARK    3  A    between atoms: N_3  and  C_4 
REMARK    4  A    between atoms: C_4  and  C_5 
REMARK    5  A    between atoms: C_5  and  O_8 
REMARK    6  A    between atoms: C_9  and  N_11 
ROOT
HETATM    1  C   UNL     1     -40.589 -49.686  11.374  1.00  0.00     0.045 C 
HETATM    2  C   UNL     1     -41.111 -48.343  10.838  1.00  0.00     0.240 C 
ENDROOT
BRANCH   2   3
HETATM    3  N   UNL     1     -42.456 -48.625  10.271  1.00  0.00     0.092 N 
HETATM    4  H   UNL     1     -42.860 -49.421  10.764  1.00  0.00     0.316 HD
BRANCH   3   5
HETATM    5  C   UNL     1     -43.371 -47.474  10.319  1.00  0.00     0.306 C 
BRANCH   5   6
HETATM    6  C   UNL     1     -43.594 -46.837   8.919  1.00  0.00     0.077 C 
HETATM    7  C   UNL     1     -43.545 -47.870   7.789  1.00  0.00     0.047 C 
HETATM    8  C   UNL     1     -44.940 -46.108   8.893  1.00  0.00     0.047 C 
BRANCH   6   9
HETATM    9  O   UNL     1     -42.564 -45.874   8.678  1.00  0.00    -0.389 OA
HETATM   10  H   UNL     1     -42.067 -45.808   9.517  1.00  0.00     0.210 HD
ENDBRANCH   6   9
ENDBRANCH   5   6
ENDBRANCH   3   5
ENDBRANCH   2   3
BRANCH   2  11
HETATM   11  C   UNL     1     -41.071 -47.210  11.912  1.00  0.00     0.136 C 
HETATM   12  C   UNL     1     -40.359 -47.607  13.212  1.00  0.00     0.036 C 
BRANCH  11  13
HETATM   13  N   UNL     1     -40.569 -45.946  11.366  1.00  0.00    -0.297 N 
HETATM   14  C   UNL     1     -40.697 -44.710  11.938  1.00  0.00     0.112 A 
HETATM   15  C   UNL     1     -40.039 -43.832  11.110  1.00  0.00     0.037 A 
HETATM   16  C   UNL     1     -39.543 -44.634  10.068  1.00  0.00     0.108 A 
HETATM   17  N   UNL     1     -39.859 -45.921  10.221  1.00  0.00    -0.310 N 
ATOM     18  HN  UNL     1     -39.619 -46.704   9.612  1.00  0.00     0.186 HD
ENDBRANCH  11  13
ENDBRANCH   2  11
TORSDOF 6
ENDMDL
MODEL 4
REMARK VINA RESULT:      -5.0      4.425      5.637
REMARK  6 active torsions:
REMARK  status: ('A' for Active; 'I' for Inactive)
REMARK    1  A    between atoms: C_2  and  N_3 
REMARK    2  A    between atoms: C_2  and  C_9 
REMARK    3  A    between atoms: N_3  and  C_4 
REMARK    4  A    between atoms: C_4  and  C_5 
REMARK    5  A    between atoms: C_5  and  O_8 
REMARK    6  A    between atoms: C_9  and  N_11 
ROOT
HETATM    1  C   UNL     1     -41.272 -53.981  12.991  1.00  0.00     0.045 C 
HETATM    2  C   UNL     1     -41.399 -52.662  12.212  1.00  0.00     0.240 C 
ENDROOT
BRANCH   2   3
HETATM    3  N   UNL     1     -42.815 -52.589  11.762  1.00  0.00     0.092 N 
HETATM    4  H   UNL     1     -42.859 -52.835  10.773  1.00  0.00     0.316 HD
BRANCH   3   5
HETATM    5  C   UNL     1     -43.728 -53.439  12.544  1.00  0.00     0.306 C 
BRANCH   5   6
HETATM    6  C   UNL     1     -45.052 -52.710  12.903  1.00  0.00     0.077 C 
HETATM    7  C   UNL     1     -45.847 -53.439  13.989  1.00  0.00     0.047 C 
HETATM    8  C   UNL     1     -44.746 -51.281  13.360  1.00  0.00     0.047 C 
BRANCH   6   9
HETATM    9  O   UNL     1     -45.872 -52.635  11.734  1.00  0.00    -0.389 OA
HETATM   10  H   UNL     1     -46.762 -52.921  12.019  1.00  0.00     0.210 HD
ENDBRANCH   6   9
ENDBRANCH   5   6
ENDBRANCH   3   5
ENDBRANCH   2   3
BRANCH   2  11
HETATM   11  C   UNL     1     -40.901 -51.429  13.030  1.00  0.00     0.136 C 
HETATM   12  C   UNL     1     -41.181 -51.525  14.535  1.00  0.00     0.036 C 
BRANCH  11  13
HETATM   13  N   UNL     1     -39.501 -51.103  12.744  1.00  0.00    -0.297 N 
HETATM   14  C   UNL     1     -38.421 -51.423  13.520  1.00  0.00     0.112 A 
HETATM   15  C   UNL     1     -37.313 -50.966  12.846  1.00  0.00     0.037 A 
HETATM   16  C   UNL     1     -37.827 -50.390  11.671  1.00  0.00     0.108 A 
HETATM   17  N   UNL     1     -39.157 -50.474  11.602  1.00  0.00    -0.310 N 
ATOM     18  HN  UNL     1     -39.770 -50.140  10.859  1.00  0.00     0.186 HD
ENDBRANCH  11  13
ENDBRANCH   2  11
TORSDOF 6
ENDMDL
MODEL 5
REMARK VINA RESULT:      -5.0      2.854      6.014
REMARK  6 active torsions:
REMARK  status: ('A' for Active; 'I' for Inactive)
REMARK    1  A    between atoms: C_2  and  N_3 
REMARK    2  A    between atoms: C_2  and  C_9 
REMARK    3  A    between atoms: N_3  and  C_4 
REMARK    4  A    between atoms: C_4  and  C_5 
REMARK    5  A    between atoms: C_5  and  O_8 
REMARK    6  A    between atoms: C_9  and  N_11 
ROOT
HETATM    1  C   UNL     1     -40.943 -48.584  13.020  1.00  0.00     0.045 C 
HETATM    2  C   UNL     1     -40.801 -48.843  11.512  1.00  0.00     0.240 C 
ENDROOT
BRANCH   2   3
HETATM    3  N   UNL     1     -41.118 -50.282  11.313  1.00  0.00     0.092 N 
HETATM    4  H   UNL     1     -41.027 -50.506  10.322  1.00  0.00     0.316 HD
BRANCH   3   5
HETATM    5  C   UNL     1     -40.286 -51.188  12.122  1.00  0.00     0.306 C 
BRANCH   5   6
HETATM    6  C   UNL     1     -40.953 -52.576  12.329  1.00  0.00     0.077 C 
HETATM    7  C   UNL     1     -40.496 -53.260  13.621  1.00  0.00     0.047 C 
HETATM    8  C   UNL     1     -42.476 -52.419  12.341  1.00  0.00     0.047 C 
BRANCH   6   9
HETATM    9  O   UNL     1     -40.604 -53.427  11.234  1.00  0.00    -0.389 OA
HETATM   10  H   UNL     1     -41.447 -53.632  10.783  1.00  0.00     0.210 HD
ENDBRANCH   6   9
ENDBRANCH   5   6
ENDBRANCH   3   5
ENDBRANCH   2   3
BRANCH   2  11
HETATM   11  C   UNL     1     -41.648 -47.854  10.648  1.00  0.00     0.136 C 
HETATM   12  C   UNL     1     -43.154 -47.907  10.936  1.00  0.00     0.036 C 
BRANCH  11  13
HETATM   13  N   UNL     1     -41.120 -46.488  10.693  1.00  0.00    -0.297 N 
HETATM   14  C   UNL     1     -41.786 -45.378  11.136  1.00  0.00     0.112 A 
HETATM   15  C   UNL     1     -40.898 -44.333  11.043  1.00  0.00     0.037 A 
HETATM   16  C   UNL     1     -39.721 -44.914  10.541  1.00  0.00     0.108 A 
HETATM   17  N   UNL     1     -39.850 -46.225  10.330  1.00  0.00    -0.310 N 
ATOM     18  HN  UNL     1     -39.149 -46.876   9.975  1.00  0.00     0.186 HD
ENDBRANCH  11  13
ENDBRANCH   2  11
TORSDOF 6
ENDMDL
MODEL 6
REMARK VINA RESULT:      -4.9      4.277      5.486
REMARK  6 active torsions:
REMARK  status: ('A' for Active; 'I' for Inactive)
REMARK    1  A    between atoms: C_2  and  N_3 
REMARK    2  A    between atoms: C_2  and  C_9 
REMARK    3  A    between atoms: N_3  and  C_4 
REMARK    4  A    between atoms: C_4  and  C_5 
REMARK    5  A    between atoms: C_5  and  O_8 
REMARK    6  A    between atoms: C_9  and  N_11 
ROOT
HETATM    1  C   UNL     1     -41.582 -51.048  13.513  1.00  0.00     0.045 C 
HETATM    2  C   UNL     1     -41.407 -51.992  12.312  1.00  0.00     0.240 C 
ENDROOT
BRANCH   2   3
HETATM    3  N   UNL     1     -40.210 -51.501  11.579  1.00  0.00     0.092 N 
HETATM    4  H   UNL     1     -40.444 -51.409  10.590  1.00  0.00     0.316 HD
BRANCH   3   5
HETATM    5  C   UNL     1     -39.678 -50.231  12.100  1.00  0.00     0.306 C 
BRANCH   5   6
HETATM    6  C   UNL     1     -38.144 -50.286  12.338  1.00  0.00     0.077 C 
HETATM    7  C   UNL     1     -37.341 -49.931  11.083  1.00  0.00     0.047 C 
HETATM    8  C   UNL     1     -37.765 -49.337  13.477  1.00  0.00     0.047 C 
BRANCH   6   9
HETATM    9  O   UNL     1     -37.782 -51.614  12.729  1.00  0.00    -0.389 OA
HETATM   10  H   UNL     1     -37.302 -51.990  11.966  1.00  0.00     0.210 HD
ENDBRANCH   6   9
ENDBRANCH   5   6
ENDBRANCH   3   5
ENDBRANCH   2   3
BRANCH   2  11
HETATM   11  C   UNL     1     -41.355 -53.496  12.730  1.00  0.00     0.136 C 
HETATM   12  C   UNL     1     -40.230 -53.830  13.718  1.00  0.00     0.036 C 
BRANCH  11  13
HETATM   13  N   UNL     1     -42.658 -53.990  13.182  1.00  0.00    -0.297 N 
HETATM   14  C   UNL     1     -42.931 -54.555  14.398  1.00  0.00     0.112 A 
HETATM   15  C   UNL     1     -44.280 -54.823  14.405  1.00  0.00     0.037 A 
HETATM   16  C   UNL     1     -44.734 -54.377  13.151  1.00  0.00     0.108 A 
HETATM   17  N   UNL     1     -43.752 -53.867  12.405  1.00  0.00    -0.310 N 
ATOM     18  HN  UNL     1     -43.816 -53.475  11.466  1.00  0.00     0.186 HD
ENDBRANCH  11  13
ENDBRANCH   2  11
TORSDOF 6
ENDMDL
MODEL 7
REMARK VINA RESULT:      -4.9      3.460      5.129
REMARK  6 active torsions:
REMARK  status: ('A' for Active; 'I' for Inactive)
REMARK    1  A    between atoms: C_2  and  N_3 
REMARK    2  A    between atoms: C_2  and  C_9 
REMARK    3  A    between atoms: N_3  and  C_4 
REMARK    4  A    between atoms: C_4  and  C_5 
REMARK    5  A    between atoms: C_5  and  O_8 
REMARK    6  A    between atoms: C_9  and  N_11 
ROOT
HETATM    1  C   UNL     1     -42.099 -51.004  13.717  1.00  0.00     0.045 C 
HETATM    2  C   UNL     1     -42.365 -51.688  12.366  1.00  0.00     0.240 C 
ENDROOT
BRANCH   2   3
HETATM    3  N   UNL     1     -41.039 -51.814  11.705  1.00  0.00     0.092 N 
HETATM    4  H   UNL     1     -41.126 -51.513  10.734  1.00  0.00     0.316 HD
BRANCH   3   5
HETATM    5  C   UNL     1     -39.968 -51.065  12.381  1.00  0.00     0.306 C 
BRANCH   5   6
HETATM    6  C   UNL     1     -39.450 -49.874  11.529  1.00  0.00     0.077 C 
HETATM    7  C   UNL     1     -39.772 -48.517  12.160  1.00  0.00     0.047 C 
HETATM    8  C   UNL     1     -37.938 -50.004  11.329  1.00  0.00     0.047 C 
BRANCH   6   9
HETATM    9  O   UNL     1     -40.072 -49.920  10.242  1.00  0.00    -0.389 OA
HETATM   10  H   UNL     1     -39.477 -49.423   9.646  1.00  0.00     0.210 HD
ENDBRANCH   6   9
ENDBRANCH   5   6
ENDBRANCH   3   5
ENDBRANCH   2   3
BRANCH   2  11
HETATM   11  C   UNL     1     -43.159 -53.025  12.515  1.00  0.00     0.136 C 
HETATM   12  C   UNL     1     -42.448 -54.081  13.372  1.00  0.00     0.036 C 
BRANCH  11  13
HETATM   13  N   UNL     1     -44.543 -52.803  12.940  1.00  0.00    -0.297 N 
HETATM   14  C   UNL     1     -45.106 -53.222  14.115  1.00  0.00     0.112 A 
HETATM   15  C   UNL     1     -46.399 -52.754  14.112  1.00  0.00     0.037 A 
HETATM   16  C   UNL     1     -46.519 -52.058  12.896  1.00  0.00     0.108 A 
HETATM   17  N   UNL     1     -45.393 -52.082  12.182  1.00  0.00    -0.310 N 
ATOM     18  HN  UNL     1     -45.216 -51.655  11.273  1.00  0.00     0.186 HD
ENDBRANCH  11  13
ENDBRANCH   2  11
TORSDOF 6
ENDMDL
MODEL 8
REMARK VINA RESULT:      -4.8      5.072      5.848
REMARK  6 active torsions:
REMARK  status: ('A' for Active; 'I' for Inactive)
REMARK    1  A    between atoms: C_2  and  N_3 
REMARK    2  A    between atoms: C_2  and  C_9 
REMARK    3  A    between atoms: N_3  and  C_4 
REMARK    4  A    between atoms: C_4  and  C_5 
REMARK    5  A    between atoms: C_5  and  O_8 
REMARK    6  A    between atoms: C_9  and  N_11 
ROOT
HETATM    1  C   UNL     1     -43.865 -54.597  14.143  1.00  0.00     0.045 C 
HETATM    2  C   UNL     1     -43.044 -53.829  13.094  1.00  0.00     0.240 C 
ENDROOT
BRANCH   2   3
HETATM    3  N   UNL     1     -44.035 -53.219  12.168  1.00  0.00     0.092 N 
HETATM    4  H   UNL     1     -43.994 -53.707  11.274  1.00  0.00     0.316 HD
BRANCH   3   5
HETATM    5  C   UNL     1     -45.411 -53.220  12.691  1.00  0.00     0.306 C 
BRANCH   5   6
HETATM    6  C   UNL     1     -46.029 -51.795  12.733  1.00  0.00     0.077 C 
HETATM    7  C   UNL     1     -47.122 -51.599  11.678  1.00  0.00     0.047 C 
HETATM    8  C   UNL     1     -46.602 -51.523  14.126  1.00  0.00     0.047 C 
BRANCH   6   9
HETATM    9  O   UNL     1     -44.999 -50.835  12.482  1.00  0.00    -0.389 OA
HETATM   10  H   UNL     1     -44.947 -50.290  13.292  1.00  0.00     0.210 HD
ENDBRANCH   6   9
ENDBRANCH   5   6
ENDBRANCH   3   5
ENDBRANCH   2   3
BRANCH   2  11
HETATM   11  C   UNL     1     -42.035 -52.826  13.737  1.00  0.00     0.136 C 
HETATM   12  C   UNL     1     -42.637 -51.965  14.855  1.00  0.00     0.036 C 
BRANCH  11  13
HETATM   13  N   UNL     1     -40.789 -53.479  14.147  1.00  0.00    -0.297 N 
HETATM   14  C   UNL     1     -40.210 -53.413  15.384  1.00  0.00     0.112 A 
HETATM   15  C   UNL     1     -39.091 -54.210  15.330  1.00  0.00     0.037 A 
HETATM   16  C   UNL     1     -39.084 -54.719  14.020  1.00  0.00     0.108 A 
HETATM   17  N   UNL     1     -40.116 -54.280  13.297  1.00  0.00    -0.310 N 
ATOM     18  HN  UNL     1     -40.343 -54.500  12.327  1.00  0.00     0.186 HD
ENDBRANCH  11  13
ENDBRANCH   2  11
TORSDOF 6
ENDMDL
MODEL 9
REMARK VINA RESULT:      -4.8      2.641      3.041
REMARK  6 active torsions:
REMARK  status: ('A' for Active; 'I' for Inactive)
REMARK    1  A    between atoms: C_2  and  N_3 
REMARK    2  A    between atoms: C_2  and  C_9 
REMARK    3  A    between atoms: N_3  and  C_4 
REMARK    4  A    between atoms: C_4  and  C_5 
REMARK    5  A    between atoms: C_5  and  O_8 
REMARK    6  A    between atoms: C_9  and  N_11 
ROOT
HETATM    1  C   UNL     1     -40.358 -47.859  13.091  1.00  0.00     0.045 C 
HETATM    2  C   UNL     1     -40.455 -48.560  11.727  1.00  0.00     0.240 C 
ENDROOT
BRANCH   2   3
HETATM    3  N   UNL     1     -40.334 -47.486  10.706  1.00  0.00     0.092 N 
HETATM    4  H   UNL     1     -41.240 -47.356  10.256  1.00  0.00     0.316 HD
BRANCH   3   5
HETATM    5  C   UNL     1     -39.843 -46.208  11.249  1.00  0.00     0.306 C 
BRANCH   5   6
HETATM    6  C   UNL     1     -40.174 -45.006  10.322  1.00  0.00     0.077 C 
HETATM    7  C   UNL     1     -40.524 -43.739  11.107  1.00  0.00     0.047 C 
HETATM    8  C   UNL     1     -38.986 -44.728   9.397  1.00  0.00     0.047 C 
BRANCH   6   9
HETATM    9  O   UNL     1     -41.300 -45.344   9.507  1.00  0.00    -0.389 OA
HETATM   10  H   UNL     1     -41.841 -45.952  10.049  1.00  0.00     0.210 HD
ENDBRANCH   6   9
ENDBRANCH   5   6
ENDBRANCH   3   5
ENDBRANCH   2   3
BRANCH   2  11
HETATM   11  C   UNL     1     -39.431 -49.731  11.579  1.00  0.00     0.136 C 
HETATM   12  C   UNL     1     -38.049 -49.430  12.174  1.00  0.00     0.036 C 
BRANCH  11  13
HETATM   13  N   UNL     1     -39.975 -51.006  12.052  1.00  0.00    -0.297 N 
HETATM   14  C   UNL     1     -39.617 -51.664  13.196  1.00  0.00     0.112 A 
HETATM   15  C   UNL     1     -40.412 -52.784  13.263  1.00  0.00     0.037 A 
HETATM   16  C   UNL     1     -41.221 -52.710  12.116  1.00  0.00     0.108 A 
HETATM   17  N   UNL     1     -40.962 -51.629  11.378  1.00  0.00    -0.310 N 
ATOM     18  HN  UNL     1     -41.408 -51.342  10.507  1.00  0.00     0.186 HD
ENDBRANCH  11  13
ENDBRANCH   2  11
TORSDOF 6
ENDMDL
