MODEL 1
REMARK VINA RESULT:      -5.9      0.000      0.000
REMARK  8 active torsions:
REMARK  status: ('A' for Active; 'I' for Inactive)
REMARK    1  A    between atoms: C_2  and  C_3 
REMARK    2  A    between atoms: C_3  and  N_4 
REMARK    3  A    between atoms: C_5  and  N_6 
REMARK    4  A    between atoms: C_7  and  N_8 
REMARK    5  A    between atoms: N_8  and  C_9 
REMARK       I    between atoms: N_8  and  C_13 
REMARK    6  A    between atoms: C_9  and  C_10 
REMARK    7  A    between atoms: C_10  and  O_11 
REMARK    8  A    between atoms: C_13  and  C_15 
ROOT
HETATM    1  N   UNL     1     -41.523 -49.823  12.468  1.00  0.00    -0.288 N 
HETATM    2  C   UNL     1     -41.495 -48.894  11.420  1.00  0.00     0.117 C 
HETATM    3  C   UNL     1     -42.159 -47.717  11.545  1.00  0.00     0.144 C 
HETATM    4  C   UNL     1     -42.861 -47.453  12.837  1.00  0.00     0.279 C 
HETATM    5  O   UNL     1     -43.167 -46.316  13.192  1.00  0.00    -0.265 OA
HETATM    6  N   UNL     1     -43.117 -48.547  13.605  1.00  0.00    -0.273 N 
HETATM    7  C   UNL     1     -42.309 -49.643  13.600  1.00  0.00     0.330 C 
HETATM    8  O   UNL     1     -42.292 -50.383  14.589  1.00  0.00    -0.246 OA
HETATM    9  H   UNL     1     -43.584 -48.381  14.482  1.00  0.00     0.173 HD
ENDROOT
BRANCH   3  10
HETATM   10  N   UNL     1     -42.113 -46.723  10.557  1.00  0.00    -0.308 N 
HETATM   11  C   UNL     1     -43.210 -46.495   9.686  1.00  0.00     0.228 C 
HETATM   12  O   UNL     1     -43.291 -45.429   9.050  1.00  0.00    -0.273 OA
BRANCH  10  13
HETATM   13  C   UNL     1     -41.315 -45.505  10.775  1.00  0.00     0.158 C 
BRANCH  13  14
HETATM   14  C   UNL     1     -39.855 -45.485  10.328  1.00  0.00     0.187 C 
BRANCH  14  15
HETATM   15  O   UNL     1     -39.590 -44.360   9.486  1.00  0.00    -0.394 OA
HETATM   16  C   UNL     1     -38.437 -44.596   8.682  1.00  0.00     0.201 C 
ENDBRANCH  14  15
ENDBRANCH  13  14
ENDBRANCH  10  13
BRANCH  11  17
HETATM   17  C   UNL     1     -44.286 -47.595   9.492  1.00  0.00     0.078 C 
HETATM   18  C   UNL     1     -44.520 -48.056   8.012  1.00  0.00     0.014 C 
HETATM   19  C   UNL     1     -46.016 -48.167   8.346  1.00  0.00     0.002 C 
HETATM   20  C   UNL     1     -45.772 -47.137   9.467  1.00  0.00     0.014 C 
ENDBRANCH  11  17
ENDBRANCH   3  10
BRANCH   2  21
HETATM   21  N   UNL     1     -40.776 -49.151  10.259  1.00  0.00    -0.286 NA
HETATM   22  H   UNL     1     -40.062 -49.856  10.406  1.00  0.00     0.125 HD
HETATM   23  H   UNL     1     -40.322 -48.293   9.930  1.00  0.00     0.125 HD
ENDBRANCH   2  21
BRANCH   1  24
HETATM   24  C   UNL     1     -40.710 -51.045  12.422  1.00  0.00     0.135 C 
BRANCH  24  25
HETATM   25  C   UNL     1     -41.512 -52.266  11.951  1.00  0.00     0.016 C 
HETATM   26  C   UNL     1     -41.149 -53.513  12.746  1.00  0.00     0.006 C 
ENDBRANCH  24  25
ENDBRANCH   1  24
TORSDOF 8
ENDMDL
MODEL 2
REMARK VINA RESULT:      -5.4      1.928      2.533
REMARK  8 active torsions:
REMARK  status: ('A' for Active; 'I' for Inactive)
REMARK    1  A    between atoms: C_2  and  C_3 
REMARK    2  A    between atoms: C_3  and  N_4 
REMARK    3  A    between atoms: C_5  and  N_6 
REMARK    4  A    between atoms: C_7  and  N_8 
REMARK    5  A    between atoms: N_8  and  C_9 
REMARK       I    between atoms: N_8  and  C_13 
REMARK    6  A    between atoms: C_9  and  C_10 
REMARK    7  A    between atoms: C_10  and  O_11 
REMARK    8  A    between atoms: C_13  and  C_15 
ROOT
HETATM    1  N   UNL     1     -42.021 -51.329  12.380  1.00  0.00    -0.288 N 
HETATM    2  C   UNL     1     -41.417 -50.246  11.730  1.00  0.00     0.117 C 
HETATM    3  C   UNL     1     -41.806 -48.979  12.026  1.00  0.00     0.144 C 
HETATM    4  C   UNL     1     -42.847 -48.806  13.082  1.00  0.00     0.279 C 
HETATM    5  O   UNL     1     -43.003 -47.739  13.676  1.00  0.00    -0.265 OA
HETATM    6  N   UNL     1     -43.594 -49.908  13.364  1.00  0.00    -0.273 N 
HETATM    7  C   UNL     1     -43.099 -51.171  13.242  1.00  0.00     0.330 C 
HETATM    8  O   UNL     1     -43.600 -52.080  13.912  1.00  0.00    -0.246 OA
HETATM    9  H   UNL     1     -44.295 -49.805  14.080  1.00  0.00     0.173 HD
ENDROOT
BRANCH   3  10
HETATM   10  N   UNL     1     -41.193 -47.855  11.454  1.00  0.00    -0.308 N 
HETATM   11  C   UNL     1     -41.841 -47.091  10.449  1.00  0.00     0.228 C 
HETATM   12  O   UNL     1     -41.446 -45.940  10.189  1.00  0.00    -0.273 OA
BRANCH  10  13
HETATM   13  C   UNL     1     -40.254 -47.046  12.248  1.00  0.00     0.158 C 
BRANCH  13  14
HETATM   14  C   UNL     1     -39.290 -47.749  13.201  1.00  0.00     0.187 C 
BRANCH  14  15
HETATM   15  O   UNL     1     -38.434 -48.652  12.493  1.00  0.00    -0.394 OA
HETATM   16  C   UNL     1     -37.938 -49.661  13.368  1.00  0.00     0.201 C 
ENDBRANCH  14  15
ENDBRANCH  13  14
ENDBRANCH  10  13
BRANCH  11  17
HETATM   17  C   UNL     1     -43.013 -47.707   9.643  1.00  0.00     0.078 C 
HETATM   18  C   UNL     1     -43.432 -46.921   8.353  1.00  0.00     0.014 C 
HETATM   19  C   UNL     1     -44.890 -47.279   8.680  1.00  0.00     0.002 C 
HETATM   20  C   UNL     1     -44.454 -47.419  10.152  1.00  0.00     0.014 C 
ENDBRANCH  11  17
ENDBRANCH   3  10
BRANCH   2  21
HETATM   21  N   UNL     1     -40.406 -50.448  10.798  1.00  0.00    -0.286 NA
HETATM   22  H   UNL     1     -40.746 -50.356   9.848  1.00  0.00     0.125 HD
HETATM   23  H   UNL     1     -40.007 -51.386  10.910  1.00  0.00     0.125 HD
ENDBRANCH   2  21
BRANCH   1  24
HETATM   24  C   UNL     1     -41.535 -52.701  12.184  1.00  0.00     0.135 C 
BRANCH  24  25
HETATM   25  C   UNL     1     -40.415 -53.072  13.165  1.00  0.00     0.016 C 
HETATM   26  C   UNL     1     -40.821 -54.234  14.062  1.00  0.00     0.006 C 
ENDBRANCH  24  25
ENDBRANCH   1  24
TORSDOF 8
ENDMDL
MODEL 3
REMARK VINA RESULT:      -5.3      3.219      6.308
REMARK  8 active torsions:
REMARK  status: ('A' for Active; 'I' for Inactive)
REMARK    1  A    between atoms: C_2  and  C_3 
REMARK    2  A    between atoms: C_3  and  N_4 
REMARK    3  A    between atoms: C_5  and  N_6 
REMARK    4  A    between atoms: C_7  and  N_8 
REMARK    5  A    between atoms: N_8  and  C_9 
REMARK       I    between atoms: N_8  and  C_13 
REMARK    6  A    between atoms: C_9  and  C_10 
REMARK    7  A    between atoms: C_10  and  O_11 
REMARK    8  A    between atoms: C_13  and  C_15 
ROOT
HETATM    1  N   UNL     1     -44.241 -51.917  12.993  1.00  0.00    -0.288 N 
HETATM    2  C   UNL     1     -43.214 -50.967  13.065  1.00  0.00     0.117 C 
HETATM    3  C   UNL     1     -41.938 -51.332  12.781  1.00  0.00     0.144 C 
HETATM    4  C   UNL     1     -41.701 -52.744  12.356  1.00  0.00     0.279 C 
HETATM    5  O   UNL     1     -40.691 -53.079  11.739  1.00  0.00    -0.265 OA
HETATM    6  N   UNL     1     -42.684 -53.630  12.674  1.00  0.00    -0.273 N 
HETATM    7  C   UNL     1     -43.993 -53.263  12.756  1.00  0.00     0.330 C 
HETATM    8  O   UNL     1     -44.869 -54.118  12.588  1.00  0.00    -0.246 OA
HETATM    9  H   UNL     1     -42.539 -54.585  12.386  1.00  0.00     0.173 HD
ENDROOT
BRANCH   3  10
HETATM   10  N   UNL     1     -40.880 -50.410  12.772  1.00  0.00    -0.308 N 
HETATM   11  C   UNL     1     -39.825 -50.490  13.717  1.00  0.00     0.228 C 
HETATM   12  O   UNL     1     -38.753 -49.892  13.507  1.00  0.00    -0.273 OA
BRANCH  10  13
HETATM   13  C   UNL     1     -40.447 -49.799  11.505  1.00  0.00     0.158 C 
BRANCH  13  14
HETATM   14  C   UNL     1     -40.938 -48.396  11.153  1.00  0.00     0.187 C 
BRANCH  14  15
HETATM   15  O   UNL     1     -42.349 -48.389  10.916  1.00  0.00    -0.394 OA
HETATM   16  C   UNL     1     -42.648 -47.724   9.692  1.00  0.00     0.201 C 
ENDBRANCH  14  15
ENDBRANCH  13  14
ENDBRANCH  10  13
BRANCH  11  17
HETATM   17  C   UNL     1     -40.021 -51.284  15.034  1.00  0.00     0.078 C 
HETATM   18  C   UNL     1     -39.130 -50.825  16.239  1.00  0.00     0.014 C 
HETATM   19  C   UNL     1     -39.000 -52.305  16.630  1.00  0.00     0.002 C 
HETATM   20  C   UNL     1     -39.286 -52.649  15.155  1.00  0.00     0.014 C 
ENDBRANCH  11  17
ENDBRANCH   3  10
BRANCH   2  21
HETATM   21  N   UNL     1     -43.487 -49.647  13.402  1.00  0.00    -0.286 NA
HETATM   22  H   UNL     1     -42.830 -49.006  12.972  1.00  0.00     0.125 HD
HETATM   23  H   UNL     1     -43.439 -49.527  14.419  1.00  0.00     0.125 HD
ENDBRANCH   2  21
BRANCH   1  24
HETATM   24  C   UNL     1     -45.647 -51.530  13.163  1.00  0.00     0.135 C 
BRANCH  24  25
HETATM   25  C   UNL     1     -46.059 -51.446  14.639  1.00  0.00     0.016 C 
HETATM   26  C   UNL     1     -47.010 -52.572  15.019  1.00  0.00     0.006 C 
ENDBRANCH  24  25
ENDBRANCH   1  24
TORSDOF 8
ENDMDL
MODEL 4
REMARK VINA RESULT:      -5.3      3.201      5.575
REMARK  8 active torsions:
REMARK  status: ('A' for Active; 'I' for Inactive)
REMARK    1  A    between atoms: C_2  and  C_3 
REMARK    2  A    between atoms: C_3  and  N_4 
REMARK    3  A    between atoms: C_5  and  N_6 
REMARK    4  A    between atoms: C_7  and  N_8 
REMARK    5  A    between atoms: N_8  and  C_9 
REMARK       I    between atoms: N_8  and  C_13 
REMARK    6  A    between atoms: C_9  and  C_10 
REMARK    7  A    between atoms: C_10  and  O_11 
REMARK    8  A    between atoms: C_13  and  C_15 
ROOT
HETATM    1  N   UNL     1     -44.087 -52.604  13.733  1.00  0.00    -0.288 N 
HETATM    2  C   UNL     1     -43.096 -51.649  13.987  1.00  0.00     0.117 C 
HETATM    3  C   UNL     1     -41.887 -51.754  13.379  1.00  0.00     0.144 C 
HETATM    4  C   UNL     1     -41.692 -52.881  12.418  1.00  0.00     0.279 C 
HETATM    5  O   UNL     1     -40.809 -52.863  11.562  1.00  0.00    -0.265 OA
HETATM    6  N   UNL     1     -42.568 -53.916  12.536  1.00  0.00    -0.273 N 
HETATM    7  C   UNL     1     -43.848 -53.738  12.967  1.00  0.00     0.330 C 
HETATM    8  O   UNL     1     -44.713 -54.556  12.635  1.00  0.00    -0.246 OA
HETATM    9  H   UNL     1     -42.452 -54.679  11.888  1.00  0.00     0.173 HD
ENDROOT
BRANCH   3  10
HETATM   10  N   UNL     1     -40.879 -50.792  13.544  1.00  0.00    -0.308 N 
HETATM   11  C   UNL     1     -40.985 -49.504  12.957  1.00  0.00     0.228 C 
HETATM   12  O   UNL     1     -40.270 -48.571  13.366  1.00  0.00    -0.273 OA
BRANCH  10  13
HETATM   13  C   UNL     1     -40.069 -50.778  14.773  1.00  0.00     0.158 C 
BRANCH  13  14
HETATM   14  C   UNL     1     -38.722 -51.496  14.781  1.00  0.00     0.187 C 
BRANCH  14  15
HETATM   15  O   UNL     1     -38.346 -51.900  13.461  1.00  0.00    -0.394 OA
HETATM   16  C   UNL     1     -37.382 -51.001  12.919  1.00  0.00     0.201 C 
ENDBRANCH  14  15
ENDBRANCH  13  14
ENDBRANCH  10  13
BRANCH  11  17
HETATM   17  C   UNL     1     -41.961 -49.268  11.775  1.00  0.00     0.078 C 
HETATM   18  C   UNL     1     -41.455 -48.280  10.669  1.00  0.00     0.014 C 
HETATM   19  C   UNL     1     -42.897 -47.765  10.553  1.00  0.00     0.002 C 
HETATM   20  C   UNL     1     -43.115 -48.251  11.999  1.00  0.00     0.014 C 
ENDBRANCH  11  17
ENDBRANCH   3  10
BRANCH   2  21
HETATM   21  N   UNL     1     -43.339 -50.578  14.839  1.00  0.00    -0.286 NA
HETATM   22  H   UNL     1     -44.331 -50.425  14.977  1.00  0.00     0.125 HD
HETATM   23  H   UNL     1     -42.929 -49.721  14.452  1.00  0.00     0.125 HD
ENDBRANCH   2  21
BRANCH   1  24
HETATM   24  C   UNL     1     -45.446 -52.450  14.268  1.00  0.00     0.135 C 
BRANCH  24  25
HETATM   25  C   UNL     1     -46.230 -51.332  13.567  1.00  0.00     0.016 C 
HETATM   26  C   UNL     1     -46.769 -51.790  12.219  1.00  0.00     0.006 C 
ENDBRANCH  24  25
ENDBRANCH   1  24
TORSDOF 8
ENDMDL
MODEL 5
REMARK VINA RESULT:      -5.3      4.385      7.916
REMARK  8 active torsions:
REMARK  status: ('A' for Active; 'I' for Inactive)
REMARK    1  A    between atoms: C_2  and  C_3 
REMARK    2  A    between atoms: C_3  and  N_4 
REMARK    3  A    between atoms: C_5  and  N_6 
REMARK    4  A    between atoms: C_7  and  N_8 
REMARK    5  A    between atoms: N_8  and  C_9 
REMARK       I    between atoms: N_8  and  C_13 
REMARK    6  A    between atoms: C_9  and  C_10 
REMARK    7  A    between atoms: C_10  and  O_11 
REMARK    8  A    between atoms: C_13  and  C_15 
ROOT
HETATM    1  N   UNL     1     -40.429 -50.833  12.812  1.00  0.00    -0.288 N 
HETATM    2  C   UNL     1     -40.927 -52.140  12.874  1.00  0.00     0.117 C 
HETATM    3  C   UNL     1     -41.808 -52.480  13.849  1.00  0.00     0.144 C 
HETATM    4  C   UNL     1     -42.240 -51.407  14.794  1.00  0.00     0.279 C 
HETATM    5  O   UNL     1     -43.273 -51.498  15.456  1.00  0.00    -0.265 OA
HETATM    6  N   UNL     1     -41.432 -50.313  14.857  1.00  0.00    -0.273 N 
HETATM    7  C   UNL     1     -40.708 -49.883  13.787  1.00  0.00     0.330 C 
HETATM    8  O   UNL     1     -40.374 -48.696  13.725  1.00  0.00    -0.246 OA
HETATM    9  H   UNL     1     -41.718 -49.580  15.486  1.00  0.00     0.173 HD
ENDROOT
BRANCH   3  10
HETATM   10  N   UNL     1     -42.389 -53.754  13.922  1.00  0.00    -0.308 N 
HETATM   11  C   UNL     1     -42.007 -54.684  14.924  1.00  0.00     0.228 C 
HETATM   12  O   UNL     1     -42.737 -55.659  15.181  1.00  0.00    -0.273 OA
BRANCH  10  13
HETATM   13  C   UNL     1     -43.777 -53.957  13.477  1.00  0.00     0.158 C 
BRANCH  13  14
HETATM   14  C   UNL     1     -44.297 -53.159  12.283  1.00  0.00     0.187 C 
BRANCH  14  15
HETATM   15  O   UNL     1     -45.728 -53.133  12.265  1.00  0.00    -0.394 OA
HETATM   16  C   UNL     1     -46.214 -51.935  12.866  1.00  0.00     0.201 C 
ENDBRANCH  14  15
ENDBRANCH  13  14
ENDBRANCH  10  13
BRANCH  11  17
HETATM   17  C   UNL     1     -40.658 -54.510  15.669  1.00  0.00     0.078 C 
HETATM   18  C   UNL     1     -39.383 -54.933  14.862  1.00  0.00     0.014 C 
HETATM   19  C   UNL     1     -38.803 -55.477  16.176  1.00  0.00     0.002 C 
HETATM   20  C   UNL     1     -40.255 -55.625  16.675  1.00  0.00     0.014 C 
ENDBRANCH  11  17
ENDBRANCH   3  10
BRANCH   2  21
HETATM   21  N   UNL     1     -40.548 -53.093  11.936  1.00  0.00    -0.286 NA
HETATM   22  H   UNL     1     -39.979 -52.690  11.200  1.00  0.00     0.125 HD
HETATM   23  H   UNL     1     -41.379 -53.516  11.510  1.00  0.00     0.125 HD
ENDBRANCH   2  21
BRANCH   1  24
HETATM   24  C   UNL     1     -39.580 -50.395  11.696  1.00  0.00     0.135 C 
BRANCH  24  25
HETATM   25  C   UNL     1     -38.085 -50.457  12.036  1.00  0.00     0.016 C 
HETATM   26  C   UNL     1     -37.227 -49.990  10.869  1.00  0.00     0.006 C 
ENDBRANCH  24  25
ENDBRANCH   1  24
TORSDOF 8
ENDMDL
MODEL 6
REMARK VINA RESULT:      -5.3      4.941      7.940
REMARK  8 active torsions:
REMARK  status: ('A' for Active; 'I' for Inactive)
REMARK    1  A    between atoms: C_2  and  C_3 
REMARK    2  A    between atoms: C_3  and  N_4 
REMARK    3  A    between atoms: C_5  and  N_6 
REMARK    4  A    between atoms: C_7  and  N_8 
REMARK    5  A    between atoms: N_8  and  C_9 
REMARK       I    between atoms: N_8  and  C_13 
REMARK    6  A    between atoms: C_9  and  C_10 
REMARK    7  A    between atoms: C_10  and  O_11 
REMARK    8  A    between atoms: C_13  and  C_15 
ROOT
HETATM    1  N   UNL     1     -40.983 -51.472  13.647  1.00  0.00    -0.288 N 
HETATM    2  C   UNL     1     -41.609 -52.277  14.607  1.00  0.00     0.117 C 
HETATM    3  C   UNL     1     -42.686 -53.027  14.259  1.00  0.00     0.144 C 
HETATM    4  C   UNL     1     -43.125 -52.985  12.832  1.00  0.00     0.279 C 
HETATM    5  O   UNL     1     -43.823 -53.869  12.338  1.00  0.00    -0.265 OA
HETATM    6  N   UNL     1     -42.684 -51.920  12.108  1.00  0.00    -0.273 N 
HETATM    7  C   UNL     1     -41.492 -51.312  12.364  1.00  0.00     0.330 C 
HETATM    8  O   UNL     1     -40.926 -50.694  11.457  1.00  0.00    -0.246 OA
HETATM    9  H   UNL     1     -42.968 -51.884  11.142  1.00  0.00     0.173 HD
ENDROOT
BRANCH   3  10
HETATM   10  N   UNL     1     -43.312 -53.901  15.160  1.00  0.00    -0.308 N 
HETATM   11  C   UNL     1     -44.650 -53.690  15.584  1.00  0.00     0.228 C 
HETATM   12  O   UNL     1     -45.293 -54.618  16.108  1.00  0.00    -0.273 OA
BRANCH  10  13
HETATM   13  C   UNL     1     -42.940 -55.325  15.184  1.00  0.00     0.158 C 
BRANCH  13  14
HETATM   14  C   UNL     1     -42.004 -55.828  16.280  1.00  0.00     0.187 C 
BRANCH  14  15
HETATM   15  O   UNL     1     -40.659 -55.402  16.044  1.00  0.00    -0.394 OA
HETATM   16  C   UNL     1     -39.796 -55.871  17.077  1.00  0.00     0.201 C 
ENDBRANCH  14  15
ENDBRANCH  13  14
ENDBRANCH  10  13
BRANCH  11  17
HETATM   17  C   UNL     1     -45.298 -52.288  15.436  1.00  0.00     0.078 C 
HETATM   18  C   UNL     1     -46.406 -51.943  16.488  1.00  0.00     0.014 C 
HETATM   19  C   UNL     1     -47.167 -51.225  15.364  1.00  0.00     0.002 C 
HETATM   20  C   UNL     1     -46.419 -52.134  14.369  1.00  0.00     0.014 C 
ENDBRANCH  11  17
ENDBRANCH   3  10
BRANCH   2  21
HETATM   21  N   UNL     1     -41.129 -52.337  15.910  1.00  0.00    -0.286 NA
HETATM   22  H   UNL     1     -40.560 -53.162  16.063  1.00  0.00     0.125 HD
HETATM   23  H   UNL     1     -41.912 -52.356  16.572  1.00  0.00     0.125 HD
ENDBRANCH   2  21
BRANCH   1  24
HETATM   24  C   UNL     1     -39.740 -50.753  13.952  1.00  0.00     0.135 C 
BRANCH  24  25
HETATM   25  C   UNL     1     -38.490 -51.607  13.700  1.00  0.00     0.016 C 
HETATM   26  C   UNL     1     -37.507 -50.900  12.777  1.00  0.00     0.006 C 
ENDBRANCH  24  25
ENDBRANCH   1  24
TORSDOF 8
ENDMDL
MODEL 7
REMARK VINA RESULT:      -5.1      4.623      7.540
REMARK  8 active torsions:
REMARK  status: ('A' for Active; 'I' for Inactive)
REMARK    1  A    between atoms: C_2  and  C_3 
REMARK    2  A    between atoms: C_3  and  N_4 
REMARK    3  A    between atoms: C_5  and  N_6 
REMARK    4  A    between atoms: C_7  and  N_8 
REMARK    5  A    between atoms: N_8  and  C_9 
REMARK       I    between atoms: N_8  and  C_13 
REMARK    6  A    between atoms: C_9  and  C_10 
REMARK    7  A    between atoms: C_10  and  O_11 
REMARK    8  A    between atoms: C_13  and  C_15 
ROOT
HETATM    1  N   UNL     1     -44.131 -53.006  14.188  1.00  0.00    -0.288 N 
HETATM    2  C   UNL     1     -43.030 -52.322  14.717  1.00  0.00     0.117 C 
HETATM    3  C   UNL     1     -41.869 -52.269  14.015  1.00  0.00     0.144 C 
HETATM    4  C   UNL     1     -41.844 -52.917  12.670  1.00  0.00     0.279 C 
HETATM    5  O   UNL     1     -41.005 -52.624  11.819  1.00  0.00    -0.265 OA
HETATM    6  N   UNL     1     -42.823 -53.834  12.437  1.00  0.00    -0.273 N 
HETATM    7  C   UNL     1     -44.054 -53.743  13.013  1.00  0.00     0.330 C 
HETATM    8  O   UNL     1     -45.018 -54.280  12.457  1.00  0.00    -0.246 OA
HETATM    9  H   UNL     1     -42.821 -54.273  11.530  1.00  0.00     0.173 HD
ENDROOT
BRANCH   3  10
HETATM   10  N   UNL     1     -40.755 -51.544  14.464  1.00  0.00    -0.308 N 
HETATM   11  C   UNL     1     -39.606 -52.200  14.977  1.00  0.00     0.228 C 
HETATM   12  O   UNL     1     -38.525 -51.589  15.064  1.00  0.00    -0.273 OA
BRANCH  10  13
HETATM   13  C   UNL     1     -40.427 -50.245  13.856  1.00  0.00     0.158 C 
BRANCH  13  14
HETATM   14  C   UNL     1     -40.756 -48.964  14.619  1.00  0.00     0.187 C 
BRANCH  14  15
HETATM   15  O   UNL     1     -42.141 -48.920  14.978  1.00  0.00    -0.394 OA
HETATM   16  C   UNL     1     -42.942 -48.606  13.842  1.00  0.00     0.201 C 
ENDBRANCH  14  15
ENDBRANCH  13  14
ENDBRANCH  10  13
BRANCH  11  17
HETATM   17  C   UNL     1     -39.707 -53.666  15.473  1.00  0.00     0.078 C 
HETATM   18  C   UNL     1     -38.647 -54.090  16.546  1.00  0.00     0.014 C 
HETATM   19  C   UNL     1     -38.587 -55.463  15.860  1.00  0.00     0.002 C 
HETATM   20  C   UNL     1     -39.072 -54.764  14.574  1.00  0.00     0.014 C 
ENDBRANCH  11  17
ENDBRANCH   3  10
BRANCH   2  21
HETATM   21  N   UNL     1     -43.114 -51.677  15.945  1.00  0.00    -0.286 NA
HETATM   22  H   UNL     1     -42.211 -51.620  16.402  1.00  0.00     0.125 HD
HETATM   23  H   UNL     1     -43.760 -52.179  16.562  1.00  0.00     0.125 HD
ENDBRANCH   2  21
BRANCH   1  24
HETATM   24  C   UNL     1     -45.439 -52.972  14.855  1.00  0.00     0.135 C 
BRANCH  24  25
HETATM   25  C   UNL     1     -46.252 -51.723  14.490  1.00  0.00     0.016 C 
HETATM   26  C   UNL     1     -47.214 -51.338  15.605  1.00  0.00     0.006 C 
ENDBRANCH  24  25
ENDBRANCH   1  24
TORSDOF 8
ENDMDL
MODEL 8
REMARK VINA RESULT:      -5.1      2.942      6.012
REMARK  8 active torsions:
REMARK  status: ('A' for Active; 'I' for Inactive)
REMARK    1  A    between atoms: C_2  and  C_3 
REMARK    2  A    between atoms: C_3  and  N_4 
REMARK    3  A    between atoms: C_5  and  N_6 
REMARK    4  A    between atoms: C_7  and  N_8 
REMARK    5  A    between atoms: N_8  and  C_9 
REMARK       I    between atoms: N_8  and  C_13 
REMARK    6  A    between atoms: C_9  and  C_10 
REMARK    7  A    between atoms: C_10  and  O_11 
REMARK    8  A    between atoms: C_13  and  C_15 
ROOT
HETATM    1  N   UNL     1     -44.283 -51.960  13.175  1.00  0.00    -0.288 N 
HETATM    2  C   UNL     1     -42.977 -51.830  12.688  1.00  0.00     0.117 C 
HETATM    3  C   UNL     1     -42.135 -50.924  13.248  1.00  0.00     0.144 C 
HETATM    4  C   UNL     1     -42.646 -50.129  14.405  1.00  0.00     0.279 C 
HETATM    5  O   UNL     1     -41.889 -49.571  15.198  1.00  0.00    -0.265 OA
HETATM    6  N   UNL     1     -44.000 -50.083  14.540  1.00  0.00    -0.273 N 
HETATM    7  C   UNL     1     -44.804 -51.109  14.142  1.00  0.00     0.330 C 
HETATM    8  O   UNL     1     -45.912 -51.243  14.671  1.00  0.00    -0.246 OA
HETATM    9  H   UNL     1     -44.357 -49.557  15.321  1.00  0.00     0.173 HD
ENDROOT
BRANCH   3  10
HETATM   10  N   UNL     1     -40.798 -50.795  12.846  1.00  0.00    -0.308 N 
HETATM   11  C   UNL     1     -39.824 -51.766  13.199  1.00  0.00     0.228 C 
HETATM   12  O   UNL     1     -38.745 -51.820  12.583  1.00  0.00    -0.273 OA
BRANCH  10  13
HETATM   13  C   UNL     1     -40.471 -50.116  11.582  1.00  0.00     0.158 C 
BRANCH  13  14
HETATM   14  C   UNL     1     -40.713 -48.613  11.464  1.00  0.00     0.187 C 
BRANCH  14  15
HETATM   15  O   UNL     1     -41.675 -48.325  10.444  1.00  0.00    -0.394 OA
HETATM   16  C   UNL     1     -42.941 -48.020  11.022  1.00  0.00     0.201 C 
ENDBRANCH  14  15
ENDBRANCH  13  14
ENDBRANCH  10  13
BRANCH  11  17
HETATM   17  C   UNL     1     -40.087 -52.731  14.385  1.00  0.00     0.078 C 
HETATM   18  C   UNL     1     -38.811 -53.216  15.155  1.00  0.00     0.014 C 
HETATM   19  C   UNL     1     -39.489 -54.588  15.294  1.00  0.00     0.002 C 
HETATM   20  C   UNL     1     -40.313 -54.231  14.041  1.00  0.00     0.014 C 
ENDBRANCH  11  17
ENDBRANCH   3  10
BRANCH   2  21
HETATM   21  N   UNL     1     -42.519 -52.634  11.651  1.00  0.00    -0.286 NA
HETATM   22  H   UNL     1     -41.953 -53.403  11.992  1.00  0.00     0.125 HD
HETATM   23  H   UNL     1     -41.955 -52.079  10.999  1.00  0.00     0.125 HD
ENDBRANCH   2  21
BRANCH   1  24
HETATM   24  C   UNL     1     -45.176 -53.018  12.685  1.00  0.00     0.135 C 
BRANCH  24  25
HETATM   25  C   UNL     1     -44.934 -54.362  13.386  1.00  0.00     0.016 C 
HETATM   26  C   UNL     1     -46.065 -54.703  14.345  1.00  0.00     0.006 C 
ENDBRANCH  24  25
ENDBRANCH   1  24
TORSDOF 8
ENDMDL
MODEL 9
REMARK VINA RESULT:      -5.0      5.104      7.688
REMARK  8 active torsions:
REMARK  status: ('A' for Active; 'I' for Inactive)
REMARK    1  A    between atoms: C_2  and  C_3 
REMARK    2  A    between atoms: C_3  and  N_4 
REMARK    3  A    between atoms: C_5  and  N_6 
REMARK    4  A    between atoms: C_7  and  N_8 
REMARK    5  A    between atoms: N_8  and  C_9 
REMARK       I    between atoms: N_8  and  C_13 
REMARK    6  A    between atoms: C_9  and  C_10 
REMARK    7  A    between atoms: C_10  and  O_11 
REMARK    8  A    between atoms: C_13  and  C_15 
ROOT
HETATM    1  N   UNL     1     -43.133 -51.978  13.524  1.00  0.00    -0.288 N 
HETATM    2  C   UNL     1     -41.979 -51.725  14.276  1.00  0.00     0.117 C 
HETATM    3  C   UNL     1     -40.935 -52.592  14.223  1.00  0.00     0.144 C 
HETATM    4  C   UNL     1     -41.062 -53.770  13.314  1.00  0.00     0.279 C 
HETATM    5  O   UNL     1     -40.080 -54.394  12.914  1.00  0.00    -0.265 OA
HETATM    6  N   UNL     1     -42.329 -54.093  12.936  1.00  0.00    -0.273 N 
HETATM    7  C   UNL     1     -43.309 -53.155  12.808  1.00  0.00     0.330 C 
HETATM    8  O   UNL     1     -44.263 -53.381  12.055  1.00  0.00    -0.246 OA
HETATM    9  H   UNL     1     -42.427 -54.881  12.317  1.00  0.00     0.173 HD
ENDROOT
BRANCH   3  10
HETATM   10  N   UNL     1     -39.731 -52.357  14.902  1.00  0.00    -0.308 N 
HETATM   11  C   UNL     1     -38.793 -51.401  14.431  1.00  0.00     0.228 C 
HETATM   12  O   UNL     1     -37.906 -50.971  15.190  1.00  0.00    -0.273 OA
BRANCH  10  13
HETATM   13  C   UNL     1     -39.663 -52.529  16.362  1.00  0.00     0.158 C 
BRANCH  13  14
HETATM   14  C   UNL     1     -39.261 -53.889  16.930  1.00  0.00     0.187 C 
BRANCH  14  15
HETATM   15  O   UNL     1     -38.542 -54.659  15.962  1.00  0.00    -0.394 OA
HETATM   16  C   UNL     1     -38.002 -55.835  16.558  1.00  0.00     0.201 C 
ENDBRANCH  14  15
ENDBRANCH  13  14
ENDBRANCH  10  13
BRANCH  11  17
HETATM   17  C   UNL     1     -38.844 -50.926  12.955  1.00  0.00     0.078 C 
HETATM   18  C   UNL     1     -37.456 -50.792  12.241  1.00  0.00     0.014 C 
HETATM   19  C   UNL     1     -38.008 -49.546  11.532  1.00  0.00     0.002 C 
HETATM   20  C   UNL     1     -38.995 -49.399  12.707  1.00  0.00     0.014 C 
ENDBRANCH  11  17
ENDBRANCH   3  10
BRANCH   2  21
HETATM   21  N   UNL     1     -41.876 -50.582  15.061  1.00  0.00    -0.286 NA
HETATM   22  H   UNL     1     -41.824 -50.808  16.048  1.00  0.00     0.125 HD
HETATM   23  H   UNL     1     -42.689 -49.977  14.909  1.00  0.00     0.125 HD
ENDBRANCH   2  21
BRANCH   1  24
HETATM   24  C   UNL     1     -44.224 -50.998  13.453  1.00  0.00     0.135 C 
BRANCH  24  25
HETATM   25  C   UNL     1     -45.277 -51.212  14.548  1.00  0.00     0.016 C 
HETATM   26  C   UNL     1     -46.660 -51.447  13.956  1.00  0.00     0.006 C 
ENDBRANCH  24  25
ENDBRANCH   1  24
TORSDOF 8
ENDMDL
