MODEL 1
REMARK VINA RESULT:      -6.7      0.000      0.000
REMARK  8 active torsions:
REMARK  status: ('A' for Active; 'I' for Inactive)
REMARK    1  A    between atoms: N_2  and  C_8 
REMARK    2  A    between atoms: C_6  and  N_9 
REMARK    3  A    between atoms: N_9  and  C_19 
REMARK    4  A    between atoms: C_14  and  C_27 
REMARK    5  A    between atoms: C_14  and  C_28 
REMARK       I    between atoms: C_18  and  N_20 
REMARK    6  A    between atoms: N_20  and  C_24 
REMARK    7  A    between atoms: C_27  and  O_30 
REMARK    8  A    between atoms: C_28  and  O_31 
ROOT
HETATM    1  C   UNL     1     -42.477 -50.241  12.330  1.00  0.00     0.122 A 
HETATM    2  N   UNL     1     -41.642 -48.360  11.585  1.00  0.00    -0.322 N 
HETATM    3  C   UNL     1     -41.274 -49.626  11.975  1.00  0.00     0.140 A 
HETATM    4  N   UNL     1     -43.537 -49.368  12.177  1.00  0.00    -0.346 N 
ATOM      5  HN  UNL     1     -44.523 -49.550  12.366  1.00  0.00     0.167 HD
HETATM    6  C   UNL     1     -42.433 -51.575  12.816  1.00  0.00     0.135 A 
HETATM    7  C   UNL     1     -43.002 -48.257  11.738  1.00  0.00     0.185 A 
HETATM    8  N   UNL     1     -40.051 -50.181  12.018  1.00  0.00    -0.336 N 
ATOM      9  HN  UNL     1     -39.193 -49.717  11.722  1.00  0.00     0.168 HD
HETATM   10  N   UNL     1     -41.197 -52.141  12.910  1.00  0.00    -0.337 N 
ATOM     11  HN  UNL     1     -41.091 -53.085  13.282  1.00  0.00     0.168 HD
HETATM   12  C   UNL     1     -40.114 -51.439  12.506  1.00  0.00     0.183 A 
ENDROOT
BRANCH   6  13
HETATM   13  N   UNL     1     -43.574 -52.277  13.236  1.00  0.00    -0.365 N 
HETATM   14  C   UNL     1     -43.970 -53.410  12.409  1.00  0.00     0.151 C 
BRANCH  13  15
HETATM   15  C   UNL     1     -43.934 -52.208  14.662  1.00  0.00     0.085 C 
HETATM   16  C   UNL     1     -44.405 -53.546  15.246  1.00  0.00     0.027 C 
HETATM   17  C   UNL     1     -45.915 -53.786  15.223  1.00  0.00     0.027 C 
HETATM   18  C   UNL     1     -46.706 -52.609  15.792  1.00  0.00     0.084 C 
HETATM   19  C   UNL     1     -46.378 -51.336  15.014  1.00  0.00     0.027 C 
HETATM   20  C   UNL     1     -44.881 -51.019  14.956  1.00  0.00     0.027 C 
BRANCH  18  21
HETATM   21  N   UNL     1     -46.472 -52.450  17.223  1.00  0.00    -0.357 N 
HETATM   22  C   UNL     1     -47.448 -51.945  18.057  1.00  0.00     0.213 C 
HETATM   23  O   UNL     1     -48.526 -51.512  17.664  1.00  0.00    -0.274 OA
HETATM   24  C   UNL     1     -47.091 -51.966  19.521  1.00  0.00     0.117 C 
HETATM   25  H   UNL     1     -45.697 -52.944  17.645  1.00  0.00     0.162 HD
ENDBRANCH  18  21
ENDBRANCH  13  15
ENDBRANCH   6  13
BRANCH   2  26
HETATM   26  C   UNL     1     -40.898 -47.249  11.060  1.00  0.00     0.094 C 
HETATM   27  C   UNL     1     -40.473 -46.177  12.109  1.00  0.00     0.039 C 
HETATM   28  C   UNL     1     -40.517 -45.137  10.932  1.00  0.00     0.006 C 
HETATM   29  C   UNL     1     -41.655 -46.081  10.369  1.00  0.00     0.039 C 
BRANCH  28  30
HETATM   30  C   UNL     1     -40.955 -43.734  11.357  1.00  0.00     0.175 C 
BRANCH  30  31
HETATM   31  O   UNL     1     -40.525 -42.772  10.400  1.00  0.00    -0.400 OA
HETATM   32  H   UNL     1     -39.763 -42.296  10.793  1.00  0.00     0.209 HD
ENDBRANCH  30  31
ENDBRANCH  28  30
BRANCH  28  33
HETATM   33  C   UNL     1     -39.192 -45.073  10.147  1.00  0.00     0.175 C 
BRANCH  33  34
HETATM   34  O   UNL     1     -39.442 -44.674   8.803  1.00  0.00    -0.400 OA
HETATM   35  H   UNL     1     -38.699 -44.109   8.524  1.00  0.00     0.209 HD
ENDBRANCH  33  34
ENDBRANCH  28  33
ENDBRANCH   2  26
TORSDOF 8
ENDMDL
MODEL 2
REMARK VINA RESULT:      -6.4      4.548      5.446
REMARK  8 active torsions:
REMARK  status: ('A' for Active; 'I' for Inactive)
REMARK    1  A    between atoms: N_2  and  C_8 
REMARK    2  A    between atoms: C_6  and  N_9 
REMARK    3  A    between atoms: N_9  and  C_19 
REMARK    4  A    between atoms: C_14  and  C_27 
REMARK    5  A    between atoms: C_14  and  C_28 
REMARK       I    between atoms: C_18  and  N_20 
REMARK    6  A    between atoms: N_20  and  C_24 
REMARK    7  A    between atoms: C_27  and  O_30 
REMARK    8  A    between atoms: C_28  and  O_31 
ROOT
HETATM    1  C   UNL     1     -39.600 -49.599  13.348  1.00  0.00     0.122 A 
HETATM    2  N   UNL     1     -40.831 -48.231  12.163  1.00  0.00    -0.322 N 
HETATM    3  C   UNL     1     -39.677 -48.975  12.100  1.00  0.00     0.140 A 
HETATM    4  N   UNL     1     -40.665 -49.229  14.146  1.00  0.00    -0.346 N 
ATOM      5  HN  UNL     1     -40.858 -49.529  15.102  1.00  0.00     0.167 HD
HETATM    6  C   UNL     1     -38.481 -50.430  13.618  1.00  0.00     0.135 A 
HETATM    7  C   UNL     1     -41.374 -48.410  13.410  1.00  0.00     0.185 A 
HETATM    8  N   UNL     1     -38.798 -49.100  11.091  1.00  0.00    -0.336 N 
ATOM      9  HN  UNL     1     -38.897 -48.656  10.179  1.00  0.00     0.168 HD
HETATM   10  N   UNL     1     -37.555 -50.535  12.623  1.00  0.00    -0.337 N 
ATOM     11  HN  UNL     1     -36.711 -51.090  12.762  1.00  0.00     0.168 HD
HETATM   12  C   UNL     1     -37.768 -49.895  11.450  1.00  0.00     0.183 A 
ENDROOT
BRANCH   6  13
HETATM   13  N   UNL     1     -38.283 -51.076  14.848  1.00  0.00    -0.365 N 
HETATM   14  C   UNL     1     -37.386 -50.412  15.784  1.00  0.00     0.151 C 
BRANCH  13  15
HETATM   15  C   UNL     1     -39.335 -51.993  15.317  1.00  0.00     0.085 C 
HETATM   16  C   UNL     1     -39.051 -52.608  16.694  1.00  0.00     0.027 C 
HETATM   17  C   UNL     1     -38.344 -53.964  16.682  1.00  0.00     0.027 C 
HETATM   18  C   UNL     1     -39.010 -54.966  15.740  1.00  0.00     0.084 C 
HETATM   19  C   UNL     1     -39.053 -54.399  14.322  1.00  0.00     0.027 C 
HETATM   20  C   UNL     1     -39.721 -53.025  14.229  1.00  0.00     0.027 C 
BRANCH  18  21
HETATM   21  N   UNL     1     -40.335 -55.348  16.216  1.00  0.00    -0.357 N 
HETATM   22  C   UNL     1     -40.555 -56.567  16.822  1.00  0.00     0.213 C 
HETATM   23  O   UNL     1     -39.704 -57.444  16.923  1.00  0.00    -0.274 OA
HETATM   24  C   UNL     1     -41.948 -56.750  17.368  1.00  0.00     0.117 C 
HETATM   25  H   UNL     1     -41.034 -54.625  16.336  1.00  0.00     0.162 HD
ENDBRANCH  18  21
ENDBRANCH  13  15
ENDBRANCH   6  13
BRANCH   2  26
HETATM   26  C   UNL     1     -41.508 -47.404  11.203  1.00  0.00     0.094 C 
HETATM   27  C   UNL     1     -42.953 -46.972  11.598  1.00  0.00     0.039 C 
HETATM   28  C   UNL     1     -43.258 -46.905  10.058  1.00  0.00     0.006 C 
HETATM   29  C   UNL     1     -42.185 -48.064   9.969  1.00  0.00     0.039 C 
BRANCH  28  30
HETATM   30  C   UNL     1     -44.693 -47.286   9.691  1.00  0.00     0.175 C 
BRANCH  30  31
HETATM   31  O   UNL     1     -44.966 -46.936   8.338  1.00  0.00    -0.400 OA
HETATM   32  H   UNL     1     -45.679 -47.531   8.025  1.00  0.00     0.209 HD
ENDBRANCH  30  31
ENDBRANCH  28  30
BRANCH  28  33
HETATM   33  C   UNL     1     -42.887 -45.542   9.439  1.00  0.00     0.175 C 
BRANCH  33  34
HETATM   34  O   UNL     1     -44.014 -44.673   9.468  1.00  0.00    -0.400 OA
HETATM   35  H   UNL     1     -43.831 -43.981  10.130  1.00  0.00     0.209 HD
ENDBRANCH  33  34
ENDBRANCH  28  33
ENDBRANCH   2  26
TORSDOF 8
ENDMDL
MODEL 3
REMARK VINA RESULT:      -6.4      1.690      2.082
REMARK  8 active torsions:
REMARK  status: ('A' for Active; 'I' for Inactive)
REMARK    1  A    between atoms: N_2  and  C_8 
REMARK    2  A    between atoms: C_6  and  N_9 
REMARK    3  A    between atoms: N_9  and  C_19 
REMARK    4  A    between atoms: C_14  and  C_27 
REMARK    5  A    between atoms: C_14  and  C_28 
REMARK       I    between atoms: C_18  and  N_20 
REMARK    6  A    between atoms: N_20  and  C_24 
REMARK    7  A    between atoms: C_27  and  O_30 
REMARK    8  A    between atoms: C_28  and  O_31 
ROOT
HETATM    1  C   UNL     1     -40.953 -50.484  12.178  1.00  0.00     0.122 A 
HETATM    2  N   UNL     1     -40.681 -48.435  11.458  1.00  0.00    -0.322 N 
HETATM    3  C   UNL     1     -39.989 -49.487  12.010  1.00  0.00     0.140 A 
HETATM    4  N   UNL     1     -42.193 -50.041  11.758  1.00  0.00    -0.346 N 
ATOM      5  HN  UNL     1     -43.073 -50.558  11.770  1.00  0.00     0.167 HD
HETATM    6  C   UNL     1     -40.556 -51.713  12.768  1.00  0.00     0.135 A 
HETATM    7  C   UNL     1     -41.994 -48.816  11.341  1.00  0.00     0.185 A 
HETATM    8  N   UNL     1     -38.687 -49.576  12.329  1.00  0.00    -0.336 N 
ATOM      9  HN  UNL     1     -37.999 -48.841  12.165  1.00  0.00     0.168 HD
HETATM   10  N   UNL     1     -39.248 -51.807  13.140  1.00  0.00    -0.337 N 
ATOM     11  HN  UNL     1     -38.903 -52.650  13.599  1.00  0.00     0.168 HD
HETATM   12  C   UNL     1     -38.413 -50.771  12.894  1.00  0.00     0.183 A 
ENDROOT
BRANCH   6  13
HETATM   13  N   UNL     1     -41.447 -52.769  13.018  1.00  0.00    -0.365 N 
HETATM   14  C   UNL     1     -40.896 -54.113  12.903  1.00  0.00     0.151 C 
BRANCH  13  15
HETATM   15  C   UNL     1     -42.615 -52.491  13.870  1.00  0.00     0.085 C 
HETATM   16  C   UNL     1     -42.468 -53.007  15.307  1.00  0.00     0.027 C 
HETATM   17  C   UNL     1     -43.030 -54.404  15.572  1.00  0.00     0.027 C 
HETATM   18  C   UNL     1     -44.456 -54.573  15.052  1.00  0.00     0.084 C 
HETATM   19  C   UNL     1     -44.504 -54.277  13.554  1.00  0.00     0.027 C 
HETATM   20  C   UNL     1     -43.938 -52.905  13.180  1.00  0.00     0.027 C 
BRANCH  18  21
HETATM   21  N   UNL     1     -45.399 -53.748  15.801  1.00  0.00    -0.357 N 
HETATM   22  C   UNL     1     -45.653 -53.983  17.137  1.00  0.00     0.213 C 
HETATM   23  O   UNL     1     -45.195 -54.933  17.762  1.00  0.00    -0.274 OA
HETATM   24  C   UNL     1     -46.551 -52.964  17.790  1.00  0.00     0.117 C 
HETATM   25  H   UNL     1     -45.671 -52.852  15.417  1.00  0.00     0.162 HD
ENDBRANCH  18  21
ENDBRANCH  13  15
ENDBRANCH   6  13
BRANCH   2  26
HETATM   26  C   UNL     1     -40.272 -47.137  10.997  1.00  0.00     0.094 C 
HETATM   27  C   UNL     1     -40.305 -46.009  12.072  1.00  0.00     0.039 C 
HETATM   28  C   UNL     1     -40.557 -45.009  10.886  1.00  0.00     0.006 C 
HETATM   29  C   UNL     1     -41.285 -46.248  10.223  1.00  0.00     0.039 C 
BRANCH  28  30
HETATM   30  C   UNL     1     -41.448 -43.821  11.252  1.00  0.00     0.175 C 
BRANCH  30  31
HETATM   31  O   UNL     1     -41.030 -42.655  10.549  1.00  0.00    -0.400 OA
HETATM   32  H   UNL     1     -40.219 -42.893  10.054  1.00  0.00     0.209 HD
ENDBRANCH  30  31
ENDBRANCH  28  30
BRANCH  28  33
HETATM   33  C   UNL     1     -39.248 -44.520  10.234  1.00  0.00     0.175 C 
BRANCH  33  34
HETATM   34  O   UNL     1     -39.417 -44.418   8.824  1.00  0.00    -0.400 OA
HETATM   35  H   UNL     1     -38.683 -44.905   8.406  1.00  0.00     0.209 HD
ENDBRANCH  33  34
ENDBRANCH  28  33
ENDBRANCH   2  26
TORSDOF 8
ENDMDL
MODEL 4
REMARK VINA RESULT:      -6.2      3.684      4.589
REMARK  8 active torsions:
REMARK  status: ('A' for Active; 'I' for Inactive)
REMARK    1  A    between atoms: N_2  and  C_8 
REMARK    2  A    between atoms: C_6  and  N_9 
REMARK    3  A    between atoms: N_9  and  C_19 
REMARK    4  A    between atoms: C_14  and  C_27 
REMARK    5  A    between atoms: C_14  and  C_28 
REMARK       I    between atoms: C_18  and  N_20 
REMARK    6  A    between atoms: N_20  and  C_24 
REMARK    7  A    between atoms: C_27  and  O_30 
REMARK    8  A    between atoms: C_28  and  O_31 
ROOT
HETATM    1  C   UNL     1     -39.543 -49.644  13.421  1.00  0.00     0.122 A 
HETATM    2  N   UNL     1     -40.953 -48.596  12.117  1.00  0.00    -0.322 N 
HETATM    3  C   UNL     1     -39.789 -49.326  12.084  1.00  0.00     0.140 A 
HETATM    4  N   UNL     1     -40.518 -49.106  14.239  1.00  0.00    -0.346 N 
ATOM      5  HN  UNL     1     -40.585 -49.179  15.255  1.00  0.00     0.167 HD
HETATM    6  C   UNL     1     -38.371 -50.383  13.734  1.00  0.00     0.135 A 
HETATM    7  C   UNL     1     -41.337 -48.485  13.430  1.00  0.00     0.185 A 
HETATM    8  N   UNL     1     -39.033 -49.675  11.029  1.00  0.00    -0.336 N 
ATOM      9  HN  UNL     1     -39.255 -49.455  10.059  1.00  0.00     0.168 HD
HETATM   10  N   UNL     1     -37.567 -50.709  12.683  1.00  0.00    -0.337 N 
ATOM     11  HN  UNL     1     -36.693 -51.211  12.839  1.00  0.00     0.168 HD
HETATM   12  C   UNL     1     -37.939 -50.359  11.430  1.00  0.00     0.183 A 
ENDROOT
BRANCH   6  13
HETATM   13  N   UNL     1     -38.005 -50.726  15.045  1.00  0.00    -0.365 N 
HETATM   14  C   UNL     1     -37.598 -49.623  15.906  1.00  0.00     0.151 C 
BRANCH  13  15
HETATM   15  C   UNL     1     -38.555 -51.971  15.605  1.00  0.00     0.085 C 
HETATM   16  C   UNL     1     -38.993 -52.987  14.542  1.00  0.00     0.027 C 
HETATM   17  C   UNL     1     -40.463 -52.921  14.126  1.00  0.00     0.027 C 
HETATM   18  C   UNL     1     -41.413 -52.908  15.323  1.00  0.00     0.084 C 
HETATM   19  C   UNL     1     -41.085 -51.728  16.236  1.00  0.00     0.027 C 
HETATM   20  C   UNL     1     -39.624 -51.688  16.689  1.00  0.00     0.027 C 
BRANCH  18  21
HETATM   21  N   UNL     1     -41.384 -54.178  16.041  1.00  0.00    -0.357 N 
HETATM   22  C   UNL     1     -42.279 -55.186  15.751  1.00  0.00     0.213 C 
HETATM   23  O   UNL     1     -43.206 -55.069  14.956  1.00  0.00    -0.274 OA
HETATM   24  C   UNL     1     -42.031 -56.474  16.493  1.00  0.00     0.117 C 
HETATM   25  H   UNL     1     -40.554 -54.418  16.568  1.00  0.00     0.162 HD
ENDBRANCH  18  21
ENDBRANCH  13  15
ENDBRANCH   6  13
BRANCH   2  26
HETATM   26  C   UNL     1     -41.768 -48.017  11.085  1.00  0.00     0.094 C 
HETATM   27  C   UNL     1     -41.217 -46.699  10.462  1.00  0.00     0.039 C 
HETATM   28  C   UNL     1     -42.713 -46.316  10.171  1.00  0.00     0.006 C 
HETATM   29  C   UNL     1     -43.003 -47.160  11.478  1.00  0.00     0.039 C 
BRANCH  28  30
HETATM   30  C   UNL     1     -43.000 -44.816  10.261  1.00  0.00     0.175 C 
BRANCH  30  31
HETATM   31  O   UNL     1     -44.096 -44.473   9.418  1.00  0.00    -0.400 OA
HETATM   32  H   UNL     1     -44.195 -45.197   8.766  1.00  0.00     0.209 HD
ENDBRANCH  30  31
ENDBRANCH  28  30
BRANCH  28  33
HETATM   33  C   UNL     1     -43.220 -46.883   8.830  1.00  0.00     0.175 C 
BRANCH  33  34
HETATM   34  O   UNL     1     -42.719 -46.101   7.752  1.00  0.00    -0.400 OA
HETATM   35  H   UNL     1     -43.486 -45.731   7.278  1.00  0.00     0.209 HD
ENDBRANCH  33  34
ENDBRANCH  28  33
ENDBRANCH   2  26
TORSDOF 8
ENDMDL
MODEL 5
REMARK VINA RESULT:      -6.2      3.182      4.112
REMARK  8 active torsions:
REMARK  status: ('A' for Active; 'I' for Inactive)
REMARK    1  A    between atoms: N_2  and  C_8 
REMARK    2  A    between atoms: C_6  and  N_9 
REMARK    3  A    between atoms: N_9  and  C_19 
REMARK    4  A    between atoms: C_14  and  C_27 
REMARK    5  A    between atoms: C_14  and  C_28 
REMARK       I    between atoms: C_18  and  N_20 
REMARK    6  A    between atoms: N_20  and  C_24 
REMARK    7  A    between atoms: C_27  and  O_30 
REMARK    8  A    between atoms: C_28  and  O_31 
ROOT
HETATM    1  C   UNL     1     -39.534 -49.131  13.797  1.00  0.00     0.122 A 
HETATM    2  N   UNL     1     -39.862 -47.107  13.032  1.00  0.00    -0.322 N 
HETATM    3  C   UNL     1     -39.420 -48.349  12.645  1.00  0.00     0.140 A 
HETATM    4  N   UNL     1     -40.013 -48.378  14.853  1.00  0.00    -0.346 N 
ATOM      5  HN  UNL     1     -40.190 -48.691  15.808  1.00  0.00     0.167 HD
HETATM    6  C   UNL     1     -39.117 -50.487  13.736  1.00  0.00     0.135 A 
HETATM    7  C   UNL     1     -40.192 -47.178  14.362  1.00  0.00     0.185 A 
HETATM    8  N   UNL     1     -38.972 -48.759  11.446  1.00  0.00    -0.336 N 
ATOM      9  HN  UNL     1     -38.930 -48.172  10.613  1.00  0.00     0.168 HD
HETATM   10  N   UNL     1     -38.618 -50.910  12.540  1.00  0.00    -0.337 N 
ATOM     11  HN  UNL     1     -38.271 -51.863  12.436  1.00  0.00     0.168 HD
HETATM   12  C   UNL     1     -38.588 -50.052  11.494  1.00  0.00     0.183 A 
ENDROOT
BRANCH   6  13
HETATM   13  N   UNL     1     -39.152 -51.352  14.841  1.00  0.00    -0.365 N 
HETATM   14  C   UNL     1     -38.329 -50.970  15.981  1.00  0.00     0.151 C 
BRANCH  13  15
HETATM   15  C   UNL     1     -40.344 -52.200  15.008  1.00  0.00     0.085 C 
HETATM   16  C   UNL     1     -40.199 -53.598  14.391  1.00  0.00     0.027 C 
HETATM   17  C   UNL     1     -40.708 -53.746  12.956  1.00  0.00     0.027 C 
HETATM   18  C   UNL     1     -42.119 -53.188  12.772  1.00  0.00     0.084 C 
HETATM   19  C   UNL     1     -42.154 -51.716  13.179  1.00  0.00     0.027 C 
HETATM   20  C   UNL     1     -41.638 -51.456  14.596  1.00  0.00     0.027 C 
BRANCH  18  21
HETATM   21  N   UNL     1     -43.106 -53.979  13.501  1.00  0.00    -0.357 N 
HETATM   22  C   UNL     1     -44.408 -54.085  13.057  1.00  0.00     0.213 C 
HETATM   23  O   UNL     1     -44.855 -53.466  12.098  1.00  0.00    -0.274 OA
HETATM   24  C   UNL     1     -45.262 -55.040  13.851  1.00  0.00     0.117 C 
HETATM   25  H   UNL     1     -42.780 -54.654  14.180  1.00  0.00     0.162 HD
ENDBRANCH  18  21
ENDBRANCH  13  15
ENDBRANCH   6  13
BRANCH   2  26
HETATM   26  C   UNL     1     -40.048 -45.875  12.316  1.00  0.00     0.094 C 
HETATM   27  C   UNL     1     -40.919 -44.807  13.046  1.00  0.00     0.039 C 
HETATM   28  C   UNL     1     -41.313 -44.282  11.618  1.00  0.00     0.006 C 
HETATM   29  C   UNL     1     -41.125 -45.796  11.198  1.00  0.00     0.039 C 
BRANCH  28  30
HETATM   30  C   UNL     1     -42.737 -43.730  11.529  1.00  0.00     0.175 C 
BRANCH  30  31
HETATM   31  O   UNL     1     -43.061 -43.419  10.178  1.00  0.00    -0.400 OA
HETATM   32  H   UNL     1     -43.787 -44.020   9.911  1.00  0.00     0.209 HD
ENDBRANCH  30  31
ENDBRANCH  28  30
BRANCH  28  33
HETATM   33  C   UNL     1     -40.302 -43.259  11.062  1.00  0.00     0.175 C 
BRANCH  33  34
HETATM   34  O   UNL     1     -40.895 -41.965  11.019  1.00  0.00    -0.400 OA
HETATM   35  H   UNL     1     -40.553 -41.515  10.225  1.00  0.00     0.209 HD
ENDBRANCH  33  34
ENDBRANCH  28  33
ENDBRANCH   2  26
TORSDOF 8
ENDMDL
MODEL 6
REMARK VINA RESULT:      -6.2      4.388      8.785
REMARK  8 active torsions:
REMARK  status: ('A' for Active; 'I' for Inactive)
REMARK    1  A    between atoms: N_2  and  C_8 
REMARK    2  A    between atoms: C_6  and  N_9 
REMARK    3  A    between atoms: N_9  and  C_19 
REMARK    4  A    between atoms: C_14  and  C_27 
REMARK    5  A    between atoms: C_14  and  C_28 
REMARK       I    between atoms: C_18  and  N_20 
REMARK    6  A    between atoms: N_20  and  C_24 
REMARK    7  A    between atoms: C_27  and  O_30 
REMARK    8  A    between atoms: C_28  and  O_31 
ROOT
HETATM    1  C   UNL     1     -39.956 -47.780  11.877  1.00  0.00     0.122 A 
HETATM    2  N   UNL     1     -39.834 -49.852  12.567  1.00  0.00    -0.322 N 
HETATM    3  C   UNL     1     -40.515 -49.046  11.688  1.00  0.00     0.140 A 
HETATM    4  N   UNL     1     -38.981 -47.817  12.855  1.00  0.00    -0.346 N 
ATOM      5  HN  UNL     1     -38.415 -47.040  13.197  1.00  0.00     0.167 HD
HETATM    6  C   UNL     1     -40.476 -46.694  11.123  1.00  0.00     0.135 A 
HETATM    7  C   UNL     1     -38.939 -49.066  13.247  1.00  0.00     0.185 A 
HETATM    8  N   UNL     1     -41.498 -49.362  10.827  1.00  0.00    -0.336 N 
ATOM      9  HN  UNL     1     -41.865 -50.304  10.689  1.00  0.00     0.168 HD
HETATM   10  N   UNL     1     -41.503 -46.986  10.277  1.00  0.00    -0.337 N 
ATOM     11  HN  UNL     1     -41.945 -46.247   9.729  1.00  0.00     0.168 HD
HETATM   12  C   UNL     1     -41.932 -48.265  10.172  1.00  0.00     0.183 A 
ENDROOT
BRANCH   6  13
HETATM   13  N   UNL     1     -40.016 -45.374  11.259  1.00  0.00    -0.365 N 
HETATM   14  C   UNL     1     -39.539 -44.733  10.041  1.00  0.00     0.151 C 
BRANCH  13  15
HETATM   15  C   UNL     1     -40.531 -44.583  12.389  1.00  0.00     0.085 C 
HETATM   16  C   UNL     1     -42.063 -44.558  12.478  1.00  0.00     0.027 C 
HETATM   17  C   UNL     1     -42.749 -43.383  11.779  1.00  0.00     0.027 C 
HETATM   18  C   UNL     1     -42.136 -42.035  12.157  1.00  0.00     0.084 C 
HETATM   19  C   UNL     1     -40.645 -42.029  11.825  1.00  0.00     0.027 C 
HETATM   20  C   UNL     1     -39.869 -43.186  12.458  1.00  0.00     0.027 C 
BRANCH  18  21
HETATM   21  N   UNL     1     -42.385 -41.709  13.557  1.00  0.00    -0.357 N 
HETATM   22  C   UNL     1     -43.630 -41.301  13.988  1.00  0.00     0.213 C 
HETATM   23  O   UNL     1     -44.578 -41.094  13.239  1.00  0.00    -0.274 OA
HETATM   24  C   UNL     1     -43.748 -41.128  15.481  1.00  0.00     0.117 C 
HETATM   25  H   UNL     1     -41.721 -42.025  14.253  1.00  0.00     0.162 HD
ENDBRANCH  18  21
ENDBRANCH  13  15
ENDBRANCH   6  13
BRANCH   2  26
HETATM   26  C   UNL     1     -39.887 -51.264  12.833  1.00  0.00     0.094 C 
HETATM   27  C   UNL     1     -41.066 -51.727  13.741  1.00  0.00     0.039 C 
HETATM   28  C   UNL     1     -40.136 -52.911  14.193  1.00  0.00     0.006 C 
HETATM   29  C   UNL     1     -38.974 -51.868  13.936  1.00  0.00     0.039 C 
BRANCH  28  30
HETATM   30  C   UNL     1     -40.342 -53.345  15.645  1.00  0.00     0.175 C 
BRANCH  30  31
HETATM   31  O   UNL     1     -40.931 -54.640  15.693  1.00  0.00    -0.400 OA
HETATM   32  H   UNL     1     -41.790 -54.549  16.157  1.00  0.00     0.209 HD
ENDBRANCH  30  31
ENDBRANCH  28  30
BRANCH  28  33
HETATM   33  C   UNL     1     -40.222 -54.126  13.248  1.00  0.00     0.175 C 
BRANCH  33  34
HETATM   34  O   UNL     1     -39.040 -54.911  13.359  1.00  0.00    -0.400 OA
HETATM   35  H   UNL     1     -38.481 -54.502  14.045  1.00  0.00     0.209 HD
ENDBRANCH  33  34
ENDBRANCH  28  33
ENDBRANCH   2  26
TORSDOF 8
ENDMDL
MODEL 7
REMARK VINA RESULT:      -6.2      2.831      9.079
REMARK  8 active torsions:
REMARK  status: ('A' for Active; 'I' for Inactive)
REMARK    1  A    between atoms: N_2  and  C_8 
REMARK    2  A    between atoms: C_6  and  N_9 
REMARK    3  A    between atoms: N_9  and  C_19 
REMARK    4  A    between atoms: C_14  and  C_27 
REMARK    5  A    between atoms: C_14  and  C_28 
REMARK       I    between atoms: C_18  and  N_20 
REMARK    6  A    between atoms: N_20  and  C_24 
REMARK    7  A    between atoms: C_27  and  O_30 
REMARK    8  A    between atoms: C_28  and  O_31 
ROOT
HETATM    1  C   UNL     1     -42.131 -49.065  12.015  1.00  0.00     0.122 A 
HETATM    2  N   UNL     1     -42.685 -50.965  12.948  1.00  0.00    -0.322 N 
HETATM    3  C   UNL     1     -41.630 -50.327  12.342  1.00  0.00     0.140 A 
HETATM    4  N   UNL     1     -43.455 -48.951  12.396  1.00  0.00    -0.346 N 
ATOM      5  HN  UNL     1     -44.067 -48.144  12.277  1.00  0.00     0.167 HD
HETATM    6  C   UNL     1     -41.279 -48.156  11.333  1.00  0.00     0.135 A 
HETATM    7  C   UNL     1     -43.752 -50.102  12.944  1.00  0.00     0.185 A 
HETATM    8  N   UNL     1     -40.387 -50.777  12.099  1.00  0.00    -0.336 N 
ATOM      9  HN  UNL     1     -40.039 -51.694  12.378  1.00  0.00     0.168 HD
HETATM   10  N   UNL     1     -40.028 -48.610  11.038  1.00  0.00    -0.337 N 
ATOM     11  HN  UNL     1     -39.375 -48.021  10.522  1.00  0.00     0.168 HD
HETATM   12  C   UNL     1     -39.662 -49.850  11.438  1.00  0.00     0.183 A 
ENDROOT
BRANCH   6  13
HETATM   13  N   UNL     1     -41.689 -46.877  10.924  1.00  0.00    -0.365 N 
HETATM   14  C   UNL     1     -42.471 -46.817   9.696  1.00  0.00     0.151 C 
BRANCH  13  15
HETATM   15  C   UNL     1     -41.803 -45.833  11.955  1.00  0.00     0.085 C 
HETATM   16  C   UNL     1     -42.212 -44.461  11.403  1.00  0.00     0.027 C 
HETATM   17  C   UNL     1     -41.061 -43.517  11.051  1.00  0.00     0.027 C 
HETATM   18  C   UNL     1     -40.038 -43.392  12.179  1.00  0.00     0.084 C 
HETATM   19  C   UNL     1     -39.480 -44.770  12.532  1.00  0.00     0.027 C 
HETATM   20  C   UNL     1     -40.559 -45.800  12.876  1.00  0.00     0.027 C 
BRANCH  18  21
HETATM   21  N   UNL     1     -40.605 -42.718  13.343  1.00  0.00    -0.357 N 
HETATM   22  C   UNL     1     -40.058 -41.550  13.832  1.00  0.00     0.213 C 
HETATM   23  O   UNL     1     -39.025 -41.047  13.402  1.00  0.00    -0.274 OA
HETATM   24  C   UNL     1     -40.838 -40.917  14.956  1.00  0.00     0.117 C 
HETATM   25  H   UNL     1     -41.543 -42.961  13.634  1.00  0.00     0.162 HD
ENDBRANCH  18  21
ENDBRANCH  13  15
ENDBRANCH   6  13
BRANCH   2  26
HETATM   26  C   UNL     1     -42.817 -52.258  13.560  1.00  0.00     0.094 C 
HETATM   27  C   UNL     1     -43.775 -53.246  12.828  1.00  0.00     0.039 C 
HETATM   28  C   UNL     1     -44.030 -53.902  14.233  1.00  0.00     0.006 C 
HETATM   29  C   UNL     1     -43.775 -52.435  14.771  1.00  0.00     0.039 C 
BRANCH  28  30
HETATM   30  C   UNL     1     -45.446 -54.450  14.417  1.00  0.00     0.175 C 
BRANCH  30  31
HETATM   31  O   UNL     1     -45.530 -55.778  13.911  1.00  0.00    -0.400 OA
HETATM   32  H   UNL     1     -44.616 -56.128  13.867  1.00  0.00     0.209 HD
ENDBRANCH  30  31
ENDBRANCH  28  30
BRANCH  28  33
HETATM   33  C   UNL     1     -42.984 -54.980  14.583  1.00  0.00     0.175 C 
BRANCH  33  34
HETATM   34  O   UNL     1     -43.405 -55.710  15.730  1.00  0.00    -0.400 OA
HETATM   35  H   UNL     1     -43.768 -56.559  15.418  1.00  0.00     0.209 HD
ENDBRANCH  33  34
ENDBRANCH  28  33
ENDBRANCH   2  26
TORSDOF 8
ENDMDL
MODEL 8
REMARK VINA RESULT:      -6.2      3.103      4.397
REMARK  8 active torsions:
REMARK  status: ('A' for Active; 'I' for Inactive)
REMARK    1  A    between atoms: N_2  and  C_8 
REMARK    2  A    between atoms: C_6  and  N_9 
REMARK    3  A    between atoms: N_9  and  C_19 
REMARK    4  A    between atoms: C_14  and  C_27 
REMARK    5  A    between atoms: C_14  and  C_28 
REMARK       I    between atoms: C_18  and  N_20 
REMARK    6  A    between atoms: N_20  and  C_24 
REMARK    7  A    between atoms: C_27  and  O_30 
REMARK    8  A    between atoms: C_28  and  O_31 
ROOT
HETATM    1  C   UNL     1     -39.633 -48.363  12.867  1.00  0.00     0.122 A 
HETATM    2  N   UNL     1     -39.859 -46.235  12.411  1.00  0.00    -0.322 N 
HETATM    3  C   UNL     1     -39.518 -47.091  13.431  1.00  0.00     0.140 A 
HETATM    4  N   UNL     1     -40.049 -48.279  11.552  1.00  0.00    -0.346 N 
ATOM      5  HN  UNL     1     -40.219 -49.049  10.904  1.00  0.00     0.167 HD
HETATM    6  C   UNL     1     -39.373 -49.492  13.689  1.00  0.00     0.135 A 
HETATM    7  C   UNL     1     -40.179 -46.998  11.317  1.00  0.00     0.185 A 
HETATM    8  N   UNL     1     -39.151 -46.809  14.693  1.00  0.00    -0.336 N 
ATOM      9  HN  UNL     1     -39.046 -45.867  15.068  1.00  0.00     0.168 HD
HETATM   10  N   UNL     1     -39.043 -49.228  14.985  1.00  0.00    -0.337 N 
ATOM     11  HN  UNL     1     -38.875 -49.993  15.639  1.00  0.00     0.168 HD
HETATM   12  C   UNL     1     -38.942 -47.943  15.395  1.00  0.00     0.183 A 
ENDROOT
BRANCH   6  13
HETATM   13  N   UNL     1     -39.494 -50.815  13.238  1.00  0.00    -0.365 N 
HETATM   14  C   UNL     1     -38.338 -51.675  13.456  1.00  0.00     0.151 C 
BRANCH  13  15
HETATM   15  C   UNL     1     -40.850 -51.375  13.114  1.00  0.00     0.085 C 
HETATM   16  C   UNL     1     -41.545 -51.616  14.461  1.00  0.00     0.027 C 
HETATM   17  C   UNL     1     -41.384 -53.018  15.049  1.00  0.00     0.027 C 
HETATM   18  C   UNL     1     -41.705 -54.120  14.040  1.00  0.00     0.084 C 
HETATM   19  C   UNL     1     -40.813 -53.975  12.808  1.00  0.00     0.027 C 
HETATM   20  C   UNL     1     -40.882 -52.592  12.157  1.00  0.00     0.027 C 
BRANCH  18  21
HETATM   21  N   UNL     1     -43.122 -54.126  13.689  1.00  0.00    -0.357 N 
HETATM   22  C   UNL     1     -44.016 -54.956  14.333  1.00  0.00     0.213 C 
HETATM   23  O   UNL     1     -43.691 -55.800  15.161  1.00  0.00    -0.274 OA
HETATM   24  C   UNL     1     -45.456 -54.747  13.940  1.00  0.00     0.117 C 
HETATM   25  H   UNL     1     -43.494 -53.348  13.160  1.00  0.00     0.162 HD
ENDBRANCH  18  21
ENDBRANCH  13  15
ENDBRANCH   6  13
BRANCH   2  26
HETATM   26  C   UNL     1     -39.894 -44.802  12.315  1.00  0.00     0.094 C 
HETATM   27  C   UNL     1     -41.244 -44.140  12.726  1.00  0.00     0.039 C 
HETATM   28  C   UNL     1     -40.879 -42.983  11.728  1.00  0.00     0.006 C 
HETATM   29  C   UNL     1     -40.140 -44.135  10.933  1.00  0.00     0.039 C 
BRANCH  28  30
HETATM   30  C   UNL     1     -42.089 -42.355  11.033  1.00  0.00     0.175 C 
BRANCH  30  31
HETATM   31  O   UNL     1     -41.673 -41.288  10.187  1.00  0.00    -0.400 OA
HETATM   32  H   UNL     1     -42.245 -40.519  10.391  1.00  0.00     0.209 HD
ENDBRANCH  30  31
ENDBRANCH  28  30
BRANCH  28  33
HETATM   33  C   UNL     1     -40.004 -41.892  12.378  1.00  0.00     0.175 C 
BRANCH  33  34
HETATM   34  O   UNL     1     -40.817 -40.796  12.784  1.00  0.00    -0.400 OA
HETATM   35  H   UNL     1     -41.063 -40.946  13.716  1.00  0.00     0.209 HD
ENDBRANCH  33  34
ENDBRANCH  28  33
ENDBRANCH   2  26
TORSDOF 8
ENDMDL
MODEL 9
REMARK VINA RESULT:      -6.2      3.726      4.560
REMARK  8 active torsions:
REMARK  status: ('A' for Active; 'I' for Inactive)
REMARK    1  A    between atoms: N_2  and  C_8 
REMARK    2  A    between atoms: C_6  and  N_9 
REMARK    3  A    between atoms: N_9  and  C_19 
REMARK    4  A    between atoms: C_14  and  C_27 
REMARK    5  A    between atoms: C_14  and  C_28 
REMARK       I    between atoms: C_18  and  N_20 
REMARK    6  A    between atoms: N_20  and  C_24 
REMARK    7  A    between atoms: C_27  and  O_30 
REMARK    8  A    between atoms: C_28  and  O_31 
ROOT
HETATM    1  C   UNL     1     -42.450 -51.412  13.453  1.00  0.00     0.122 A 
HETATM    2  N   UNL     1     -41.885 -49.468  12.623  1.00  0.00    -0.322 N 
HETATM    3  C   UNL     1     -41.721 -50.817  12.420  1.00  0.00     0.140 A 
HETATM    4  N   UNL     1     -43.021 -50.451  14.264  1.00  0.00    -0.346 N 
ATOM      5  HN  UNL     1     -43.600 -50.601  15.091  1.00  0.00     0.167 HD
HETATM    6  C   UNL     1     -42.455 -52.829  13.545  1.00  0.00     0.135 A 
HETATM    7  C   UNL     1     -42.659 -49.306  13.743  1.00  0.00     0.185 A 
HETATM    8  N   UNL     1     -41.028 -51.457  11.463  1.00  0.00    -0.336 N 
ATOM      9  HN  UNL     1     -40.530 -50.995  10.702  1.00  0.00     0.168 HD
HETATM   10  N   UNL     1     -41.721 -53.495  12.609  1.00  0.00    -0.337 N 
ATOM     11  HN  UNL     1     -41.654 -54.513  12.636  1.00  0.00     0.168 HD
HETATM   12  C   UNL     1     -41.081 -52.793  11.645  1.00  0.00     0.183 A 
ENDROOT
BRANCH   6  13
HETATM   13  N   UNL     1     -43.122 -53.531  14.561  1.00  0.00    -0.365 N 
HETATM   14  C   UNL     1     -44.124 -54.494  14.124  1.00  0.00     0.151 C 
BRANCH  13  15
HETATM   15  C   UNL     1     -42.437 -53.674  15.857  1.00  0.00     0.085 C 
HETATM   16  C   UNL     1     -40.910 -53.557  15.764  1.00  0.00     0.027 C 
HETATM   17  C   UNL     1     -40.151 -54.875  15.599  1.00  0.00     0.027 C 
HETATM   18  C   UNL     1     -40.579 -55.931  16.617  1.00  0.00     0.084 C 
HETATM   19  C   UNL     1     -42.081 -56.186  16.504  1.00  0.00     0.027 C 
HETATM   20  C   UNL     1     -42.931 -54.920  16.631  1.00  0.00     0.027 C 
BRANCH  18  21
HETATM   21  N   UNL     1     -40.189 -55.555  17.972  1.00  0.00    -0.357 N 
HETATM   22  C   UNL     1     -39.172 -56.211  18.634  1.00  0.00     0.213 C 
HETATM   23  O   UNL     1     -38.591 -57.195  18.189  1.00  0.00    -0.274 OA
HETATM   24  C   UNL     1     -38.812 -55.616  19.971  1.00  0.00     0.117 C 
HETATM   25  H   UNL     1     -40.485 -54.656  18.329  1.00  0.00     0.162 HD
ENDBRANCH  18  21
ENDBRANCH  13  15
ENDBRANCH   6  13
BRANCH   2  26
HETATM   26  C   UNL     1     -41.442 -48.314  11.890  1.00  0.00     0.094 C 
HETATM   27  C   UNL     1     -42.311 -47.033  12.078  1.00  0.00     0.039 C 
HETATM   28  C   UNL     1     -41.851 -46.617  10.634  1.00  0.00     0.006 C 
HETATM   29  C   UNL     1     -41.806 -48.179  10.385  1.00  0.00     0.039 C 
BRANCH  28  30
HETATM   30  C   UNL     1     -42.906 -45.839   9.845  1.00  0.00     0.175 C 
BRANCH  30  31
HETATM   31  O   UNL     1     -42.711 -46.024   8.446  1.00  0.00    -0.400 OA
HETATM   32  H   UNL     1     -41.902 -45.528   8.200  1.00  0.00     0.209 HD
ENDBRANCH  30  31
ENDBRANCH  28  30
BRANCH  28  33
HETATM   33  C   UNL     1     -40.509 -45.858  10.634  1.00  0.00     0.175 C 
BRANCH  33  34
HETATM   34  O   UNL     1     -40.431 -45.010   9.493  1.00  0.00    -0.400 OA
HETATM   35  H   UNL     1     -41.129 -45.291   8.873  1.00  0.00     0.209 HD
ENDBRANCH  33  34
ENDBRANCH  28  33
ENDBRANCH   2  26
TORSDOF 8
ENDMDL
