MODEL 1
REMARK VINA RESULT:      -5.3      0.000      0.000
REMARK  4 active torsions:
REMARK  status: ('A' for Active; 'I' for Inactive)
REMARK       I    between atoms: N_2  and  C_3 
REMARK    1  A    between atoms: C_3  and  C_5 
REMARK    2  A    between atoms: C_5  and  N_7 
REMARK       I    between atoms: N_7  and  C_8 
REMARK    3  A    between atoms: C_8  and  C_10 
REMARK    4  A    between atoms: C_10  and  N_11 
ROOT
HETATM    1  N   UNL     1     -41.379 -48.674  10.444  1.00  0.00    -0.347 N 
HETATM    2  C   UNL     1     -42.565 -47.990  10.335  1.00  0.00     0.238 C 
HETATM    3  O   UNL     1     -43.220 -47.655  11.321  1.00  0.00    -0.272 OA
HETATM    4  H   UNL     1     -40.878 -49.011   9.624  1.00  0.00     0.163 HD
ENDROOT
BRANCH   2   5
HETATM    5  C   UNL     1     -43.021 -47.690   8.927  1.00  0.00     0.252 C 
BRANCH   5   6
HETATM    6  N   UNL     1     -44.400 -47.251   8.898  1.00  0.00    -0.278 N 
HETATM    7  C   UNL     1     -44.881 -45.983   8.787  1.00  0.00     0.201 A 
HETATM    8  N   UNL     1     -46.191 -45.999   8.876  1.00  0.00    -0.346 N 
HETATM    9  C   UNL     1     -46.470 -47.324   9.052  1.00  0.00     0.198 A 
ATOM     10  HN  UNL     1     -46.841 -45.215   8.826  1.00  0.00     0.167 HD
HETATM   11  N   UNL     1     -45.406 -48.131   9.082  1.00  0.00    -0.293 N 
ATOM     12  HN  UNL     1     -45.365 -49.142   9.210  1.00  0.00     0.188 HD
ENDBRANCH   5   6
ENDBRANCH   2   5
BRANCH   1  13
HETATM   13  C   UNL     1     -40.803 -49.014  11.742  1.00  0.00     0.172 C 
HETATM   14  C   UNL     1     -39.280 -49.036  11.665  1.00  0.00     0.042 C 
BRANCH  13  15
HETATM   15  C   UNL     1     -41.352 -50.382  12.193  1.00  0.00     0.239 C 
HETATM   16  N   UNL     1     -40.827 -51.462  11.516  1.00  0.00    -0.364 N 
HETATM   17  C   UNL     1     -41.208 -52.812  11.843  1.00  0.00     0.149 C 
HETATM   18  H   UNL     1     -40.090 -51.319  10.836  1.00  0.00     0.161 HD
HETATM   19  O   UNL     1     -42.189 -50.489  13.089  1.00  0.00    -0.271 OA
ENDBRANCH  13  15
ENDBRANCH   1  13
TORSDOF 4
ENDMDL
MODEL 2
REMARK VINA RESULT:      -5.2      2.136      6.104
REMARK  4 active torsions:
REMARK  status: ('A' for Active; 'I' for Inactive)
REMARK       I    between atoms: N_2  and  C_3 
REMARK    1  A    between atoms: C_3  and  C_5 
REMARK    2  A    between atoms: C_5  and  N_7 
REMARK       I    between atoms: N_7  and  C_8 
REMARK    3  A    between atoms: C_8  and  C_10 
REMARK    4  A    between atoms: C_10  and  N_11 
ROOT
HETATM    1  N   UNL     1     -41.858 -48.201   9.720  1.00  0.00    -0.347 N 
HETATM    2  C   UNL     1     -41.689 -48.833  10.928  1.00  0.00     0.238 C 
HETATM    3  O   UNL     1     -42.587 -48.888  11.767  1.00  0.00    -0.272 OA
HETATM    4  H   UNL     1     -41.091 -48.095   9.059  1.00  0.00     0.163 HD
ENDROOT
BRANCH   2   5
HETATM    5  C   UNL     1     -40.327 -49.439  11.166  1.00  0.00     0.252 C 
BRANCH   5   6
HETATM    6  N   UNL     1     -40.425 -50.715  11.841  1.00  0.00    -0.278 N 
HETATM    7  C   UNL     1     -39.752 -51.141  12.945  1.00  0.00     0.201 A 
HETATM    8  N   UNL     1     -40.067 -52.390  13.198  1.00  0.00    -0.346 N 
HETATM    9  C   UNL     1     -40.946 -52.694  12.198  1.00  0.00     0.198 A 
ATOM     10  HN  UNL     1     -39.737 -52.988  13.956  1.00  0.00     0.167 HD
HETATM   11  N   UNL     1     -41.191 -51.705  11.335  1.00  0.00    -0.293 N 
ATOM     12  HN  UNL     1     -41.795 -51.698  10.513  1.00  0.00     0.188 HD
ENDBRANCH   5   6
ENDBRANCH   2   5
BRANCH   1  13
HETATM   13  C   UNL     1     -43.128 -47.588   9.343  1.00  0.00     0.172 C 
HETATM   14  C   UNL     1     -43.433 -47.846   7.870  1.00  0.00     0.042 C 
BRANCH  13  15
HETATM   15  C   UNL     1     -43.065 -46.077   9.637  1.00  0.00     0.239 C 
HETATM   16  N   UNL     1     -42.498 -45.752  10.852  1.00  0.00    -0.364 N 
HETATM   17  C   UNL     1     -42.332 -44.382  11.261  1.00  0.00     0.149 C 
HETATM   18  H   UNL     1     -42.106 -46.482  11.434  1.00  0.00     0.161 HD
HETATM   19  O   UNL     1     -43.486 -45.236   8.843  1.00  0.00    -0.271 OA
ENDBRANCH  13  15
ENDBRANCH   1  13
TORSDOF 4
ENDMDL
MODEL 3
REMARK VINA RESULT:      -5.2      2.109      6.405
REMARK  4 active torsions:
REMARK  status: ('A' for Active; 'I' for Inactive)
REMARK       I    between atoms: N_2  and  C_3 
REMARK    1  A    between atoms: C_3  and  C_5 
REMARK    2  A    between atoms: C_5  and  N_7 
REMARK       I    between atoms: N_7  and  C_8 
REMARK    3  A    between atoms: C_8  and  C_10 
REMARK    4  A    between atoms: C_10  and  N_11 
ROOT
HETATM    1  N   UNL     1     -42.193 -48.665  10.490  1.00  0.00    -0.347 N 
HETATM    2  C   UNL     1     -41.001 -48.798  11.161  1.00  0.00     0.238 C 
HETATM    3  O   UNL     1     -40.202 -47.868  11.265  1.00  0.00    -0.272 OA
HETATM    4  H   UNL     1     -42.816 -49.456  10.346  1.00  0.00     0.163 HD
ENDROOT
BRANCH   2   5
HETATM    5  C   UNL     1     -40.727 -50.162  11.747  1.00  0.00     0.252 C 
BRANCH   5   6
HETATM    6  N   UNL     1     -39.307 -50.415  11.862  1.00  0.00    -0.278 N 
HETATM    7  C   UNL     1     -38.626 -50.945  12.914  1.00  0.00     0.201 A 
HETATM    8  N   UNL     1     -37.339 -50.941  12.653  1.00  0.00    -0.346 N 
HETATM    9  C   UNL     1     -37.281 -50.381  11.409  1.00  0.00     0.198 A 
ATOM     10  HN  UNL     1     -36.571 -51.274  13.236  1.00  0.00     0.167 HD
HETATM   11  N   UNL     1     -38.458 -50.033  10.885  1.00  0.00    -0.293 N 
ATOM     12  HN  UNL     1     -38.663 -49.595   9.987  1.00  0.00     0.188 HD
ENDBRANCH   5   6
ENDBRANCH   2   5
BRANCH   1  13
HETATM   13  C   UNL     1     -42.601 -47.398   9.891  1.00  0.00     0.172 C 
HETATM   14  C   UNL     1     -43.067 -46.421  10.966  1.00  0.00     0.042 C 
BRANCH  13  15
HETATM   15  C   UNL     1     -43.720 -47.664   8.865  1.00  0.00     0.239 C 
HETATM   16  N   UNL     1     -44.965 -47.878   9.417  1.00  0.00    -0.364 N 
HETATM   17  C   UNL     1     -46.124 -48.105   8.593  1.00  0.00     0.149 C 
HETATM   18  H   UNL     1     -45.094 -47.785  10.418  1.00  0.00     0.161 HD
HETATM   19  O   UNL     1     -43.508 -47.679   7.653  1.00  0.00    -0.271 OA
ENDBRANCH  13  15
ENDBRANCH   1  13
TORSDOF 4
ENDMDL
MODEL 4
REMARK VINA RESULT:      -4.9      1.764      5.869
REMARK  4 active torsions:
REMARK  status: ('A' for Active; 'I' for Inactive)
REMARK       I    between atoms: N_2  and  C_3 
REMARK    1  A    between atoms: C_3  and  C_5 
REMARK    2  A    between atoms: C_5  and  N_7 
REMARK       I    between atoms: N_7  and  C_8 
REMARK    3  A    between atoms: C_8  and  C_10 
REMARK    4  A    between atoms: C_10  and  N_11 
ROOT
HETATM    1  N   UNL     1     -42.873 -48.327  10.898  1.00  0.00    -0.347 N 
HETATM    2  C   UNL     1     -41.802 -48.997  11.439  1.00  0.00     0.238 C 
HETATM    3  O   UNL     1     -40.679 -48.945  10.939  1.00  0.00    -0.272 OA
HETATM    4  H   UNL     1     -43.813 -48.431  11.273  1.00  0.00     0.163 HD
ENDROOT
BRANCH   2   5
HETATM    5  C   UNL     1     -42.096 -49.813  12.674  1.00  0.00     0.252 C 
BRANCH   5   6
HETATM    6  N   UNL     1     -41.908 -51.228  12.434  1.00  0.00    -0.278 N 
HETATM    7  C   UNL     1     -42.777 -52.248  12.669  1.00  0.00     0.201 A 
HETATM    8  N   UNL     1     -42.200 -53.393  12.385  1.00  0.00    -0.346 N 
HETATM    9  C   UNL     1     -40.952 -53.015  11.981  1.00  0.00     0.198 A 
ATOM     10  HN  UNL     1     -42.589 -54.334  12.452  1.00  0.00     0.167 HD
HETATM   11  N   UNL     1     -40.720 -51.700  12.001  1.00  0.00    -0.293 N 
ATOM     12  HN  UNL     1     -39.872 -51.189  11.756  1.00  0.00     0.188 HD
ENDBRANCH   5   6
ENDBRANCH   2   5
BRANCH   1  13
HETATM   13  C   UNL     1     -42.734 -47.481   9.717  1.00  0.00     0.172 C 
HETATM   14  C   UNL     1     -42.722 -46.007  10.110  1.00  0.00     0.042 C 
BRANCH  13  15
HETATM   15  C   UNL     1     -43.889 -47.783   8.743  1.00  0.00     0.239 C 
HETATM   16  N   UNL     1     -45.125 -47.916   9.342  1.00  0.00    -0.364 N 
HETATM   17  C   UNL     1     -46.313 -48.163   8.568  1.00  0.00     0.149 C 
HETATM   18  H   UNL     1     -45.221 -47.748  10.336  1.00  0.00     0.161 HD
HETATM   19  O   UNL     1     -43.714 -47.891   7.530  1.00  0.00    -0.271 OA
ENDBRANCH  13  15
ENDBRANCH   1  13
TORSDOF 4
ENDMDL
MODEL 5
REMARK VINA RESULT:      -4.9      3.772      5.156
REMARK  4 active torsions:
REMARK  status: ('A' for Active; 'I' for Inactive)
REMARK       I    between atoms: N_2  and  C_3 
REMARK    1  A    between atoms: C_3  and  C_5 
REMARK    2  A    between atoms: C_5  and  N_7 
REMARK       I    between atoms: N_7  and  C_8 
REMARK    3  A    between atoms: C_8  and  C_10 
REMARK    4  A    between atoms: C_10  and  N_11 
ROOT
HETATM    1  N   UNL     1     -41.710 -51.185  11.760  1.00  0.00    -0.347 N 
HETATM    2  C   UNL     1     -42.468 -51.709  12.780  1.00  0.00     0.238 C 
HETATM    3  O   UNL     1     -42.427 -51.257  13.923  1.00  0.00    -0.272 OA
HETATM    4  H   UNL     1     -41.694 -51.608  10.835  1.00  0.00     0.163 HD
ENDROOT
BRANCH   2   5
HETATM    5  C   UNL     1     -43.341 -52.884  12.410  1.00  0.00     0.252 C 
BRANCH   5   6
HETATM    6  N   UNL     1     -44.707 -52.689  12.846  1.00  0.00    -0.278 N 
HETATM    7  C   UNL     1     -45.573 -53.609  13.350  1.00  0.00     0.201 A 
HETATM    8  N   UNL     1     -46.743 -53.049  13.553  1.00  0.00    -0.346 N 
HETATM    9  C   UNL     1     -46.542 -51.762  13.142  1.00  0.00     0.198 A 
ATOM     10  HN  UNL     1     -47.594 -53.471  13.926  1.00  0.00     0.167 HD
HETATM   11  N   UNL     1     -45.314 -51.493  12.691  1.00  0.00    -0.293 N 
ATOM     12  HN  UNL     1     -44.936 -50.619  12.327  1.00  0.00     0.188 HD
ENDBRANCH   5   6
ENDBRANCH   2   5
BRANCH   1  13
HETATM   13  C   UNL     1     -40.836 -50.034  11.965  1.00  0.00     0.172 C 
HETATM   14  C   UNL     1     -41.122 -48.952  10.928  1.00  0.00     0.042 C 
BRANCH  13  15
HETATM   15  C   UNL     1     -39.368 -50.497  11.890  1.00  0.00     0.239 C 
HETATM   16  N   UNL     1     -38.578 -49.758  11.034  1.00  0.00    -0.364 N 
HETATM   17  C   UNL     1     -37.174 -50.039  10.877  1.00  0.00     0.149 C 
HETATM   18  H   UNL     1     -38.963 -48.943  10.572  1.00  0.00     0.161 HD
HETATM   19  O   UNL     1     -38.946 -51.447  12.547  1.00  0.00    -0.271 OA
ENDBRANCH  13  15
ENDBRANCH   1  13
TORSDOF 4
ENDMDL
MODEL 6
REMARK VINA RESULT:      -4.9      2.358      5.998
REMARK  4 active torsions:
REMARK  status: ('A' for Active; 'I' for Inactive)
REMARK       I    between atoms: N_2  and  C_3 
REMARK    1  A    between atoms: C_3  and  C_5 
REMARK    2  A    between atoms: C_5  and  N_7 
REMARK       I    between atoms: N_7  and  C_8 
REMARK    3  A    between atoms: C_8  and  C_10 
REMARK    4  A    between atoms: C_10  and  N_11 
ROOT
HETATM    1  N   UNL     1     -42.078 -48.568  10.356  1.00  0.00    -0.347 N 
HETATM    2  C   UNL     1     -42.108 -49.118  11.615  1.00  0.00     0.238 C 
HETATM    3  O   UNL     1     -42.802 -48.649  12.517  1.00  0.00    -0.272 OA
HETATM    4  H   UNL     1     -41.448 -48.916   9.636  1.00  0.00     0.163 HD
ENDROOT
BRANCH   2   5
HETATM    5  C   UNL     1     -41.224 -50.324  11.825  1.00  0.00     0.252 C 
BRANCH   5   6
HETATM    6  N   UNL     1     -39.838 -49.943  11.991  1.00  0.00    -0.278 N 
HETATM    7  C   UNL     1     -39.261 -49.285  13.033  1.00  0.00     0.201 A 
HETATM    8  N   UNL     1     -37.995 -49.063  12.767  1.00  0.00    -0.346 N 
HETATM    9  C   UNL     1     -37.843 -49.606  11.524  1.00  0.00     0.198 A 
ATOM     10  HN  UNL     1     -37.295 -48.598  13.347  1.00  0.00     0.167 HD
HETATM   11  N   UNL     1     -38.944 -50.150  11.001  1.00  0.00    -0.293 N 
ATOM     12  HN  UNL     1     -39.076 -50.600  10.095  1.00  0.00     0.188 HD
ENDBRANCH   5   6
ENDBRANCH   2   5
BRANCH   1  13
HETATM   13  C   UNL     1     -42.897 -47.413  10.002  1.00  0.00     0.172 C 
HETATM   14  C   UNL     1     -43.455 -47.564   8.590  1.00  0.00     0.042 C 
BRANCH  13  15
HETATM   15  C   UNL     1     -42.045 -46.135  10.124  1.00  0.00     0.239 C 
HETATM   16  N   UNL     1     -40.690 -46.359  10.250  1.00  0.00    -0.364 N 
HETATM   17  C   UNL     1     -39.753 -45.269  10.338  1.00  0.00     0.149 C 
HETATM   18  H   UNL     1     -40.329 -47.303  10.188  1.00  0.00     0.161 HD
HETATM   19  O   UNL     1     -42.544 -45.010  10.106  1.00  0.00    -0.271 OA
ENDBRANCH  13  15
ENDBRANCH   1  13
TORSDOF 4
ENDMDL
MODEL 7
REMARK VINA RESULT:      -4.7      2.127      2.713
REMARK  4 active torsions:
REMARK  status: ('A' for Active; 'I' for Inactive)
REMARK       I    between atoms: N_2  and  C_3 
REMARK    1  A    between atoms: C_3  and  C_5 
REMARK    2  A    between atoms: C_5  and  N_7 
REMARK       I    between atoms: N_7  and  C_8 
REMARK    3  A    between atoms: C_8  and  C_10 
REMARK    4  A    between atoms: C_10  and  N_11 
ROOT
HETATM    1  N   UNL     1     -39.430 -48.382  11.216  1.00  0.00    -0.347 N 
HETATM    2  C   UNL     1     -39.927 -47.208  11.728  1.00  0.00     0.238 C 
HETATM    3  O   UNL     1     -39.781 -46.897  12.910  1.00  0.00    -0.272 OA
HETATM    4  H   UNL     1     -39.615 -48.667  10.257  1.00  0.00     0.163 HD
ENDROOT
BRANCH   2   5
HETATM    5  C   UNL     1     -40.676 -46.332  10.753  1.00  0.00     0.252 C 
BRANCH   5   6
HETATM    6  N   UNL     1     -41.976 -46.882  10.436  1.00  0.00    -0.278 N 
HETATM    7  C   UNL     1     -42.855 -47.508  11.266  1.00  0.00     0.201 A 
HETATM    8  N   UNL     1     -43.890 -47.928  10.576  1.00  0.00    -0.346 N 
HETATM    9  C   UNL     1     -43.589 -47.536   9.303  1.00  0.00     0.198 A 
ATOM     10  HN  UNL     1     -44.716 -48.426  10.909  1.00  0.00     0.167 HD
HETATM   11  N   UNL     1     -42.424 -46.900   9.162  1.00  0.00    -0.293 N 
ATOM     12  HN  UNL     1     -41.988 -46.528   8.319  1.00  0.00     0.188 HD
ENDBRANCH   5   6
ENDBRANCH   2   5
BRANCH   1  13
HETATM   13  C   UNL     1     -38.666 -49.316  12.036  1.00  0.00     0.172 C 
HETATM   14  C   UNL     1     -37.517 -49.920  11.234  1.00  0.00     0.042 C 
BRANCH  13  15
HETATM   15  C   UNL     1     -39.610 -50.416  12.559  1.00  0.00     0.239 C 
HETATM   16  N   UNL     1     -40.256 -51.134  11.574  1.00  0.00    -0.364 N 
HETATM   17  C   UNL     1     -41.145 -52.220  11.895  1.00  0.00     0.149 C 
HETATM   18  H   UNL     1     -40.037 -50.960  10.600  1.00  0.00     0.161 HD
HETATM   19  O   UNL     1     -39.766 -50.630  13.761  1.00  0.00    -0.271 OA
ENDBRANCH  13  15
ENDBRANCH   1  13
TORSDOF 4
ENDMDL
MODEL 8
REMARK VINA RESULT:      -4.7      5.240      7.879
REMARK  4 active torsions:
REMARK  status: ('A' for Active; 'I' for Inactive)
REMARK       I    between atoms: N_2  and  C_3 
REMARK    1  A    between atoms: C_3  and  C_5 
REMARK    2  A    between atoms: C_5  and  N_7 
REMARK       I    between atoms: N_7  and  C_8 
REMARK    3  A    between atoms: C_8  and  C_10 
REMARK    4  A    between atoms: C_10  and  N_11 
ROOT
HETATM    1  N   UNL     1     -44.853 -52.217  12.580  1.00  0.00    -0.347 N 
HETATM    2  C   UNL     1     -43.921 -53.216  12.437  1.00  0.00     0.238 C 
HETATM    3  O   UNL     1     -44.240 -54.403  12.376  1.00  0.00    -0.272 OA
HETATM    4  H   UNL     1     -44.579 -51.244  12.702  1.00  0.00     0.163 HD
ENDROOT
BRANCH   2   5
HETATM    5  C   UNL     1     -42.482 -52.766  12.375  1.00  0.00     0.252 C 
BRANCH   5   6
HETATM    6  N   UNL     1     -41.672 -53.439  13.368  1.00  0.00    -0.278 N 
HETATM    7  C   UNL     1     -40.357 -53.782  13.296  1.00  0.00     0.201 A 
HETATM    8  N   UNL     1     -40.015 -54.447  14.375  1.00  0.00    -0.346 N 
HETATM    9  C   UNL     1     -41.178 -54.493  15.088  1.00  0.00     0.198 A 
ATOM     10  HN  UNL     1     -39.103 -54.834  14.621  1.00  0.00     0.167 HD
HETATM   11  N   UNL     1     -42.225 -53.898  14.511  1.00  0.00    -0.293 N 
ATOM     12  HN  UNL     1     -43.186 -53.814  14.843  1.00  0.00     0.188 HD
ENDBRANCH   5   6
ENDBRANCH   2   5
BRANCH   1  13
HETATM   13  C   UNL     1     -46.284 -52.500  12.632  1.00  0.00     0.172 C 
HETATM   14  C   UNL     1     -47.073 -51.415  11.907  1.00  0.00     0.042 C 
BRANCH  13  15
HETATM   15  C   UNL     1     -46.722 -52.611  14.106  1.00  0.00     0.239 C 
HETATM   16  N   UNL     1     -46.894 -51.400  14.745  1.00  0.00    -0.364 N 
HETATM   17  C   UNL     1     -47.337 -51.329  16.113  1.00  0.00     0.149 C 
HETATM   18  H   UNL     1     -46.797 -50.538  14.222  1.00  0.00     0.161 HD
HETATM   19  O   UNL     1     -46.904 -53.696  14.656  1.00  0.00    -0.271 OA
ENDBRANCH  13  15
ENDBRANCH   1  13
TORSDOF 4
ENDMDL
MODEL 9
REMARK VINA RESULT:      -4.6      3.122      5.242
REMARK  4 active torsions:
REMARK  status: ('A' for Active; 'I' for Inactive)
REMARK       I    between atoms: N_2  and  C_3 
REMARK    1  A    between atoms: C_3  and  C_5 
REMARK    2  A    between atoms: C_5  and  N_7 
REMARK       I    between atoms: N_7  and  C_8 
REMARK    3  A    between atoms: C_8  and  C_10 
REMARK    4  A    between atoms: C_10  and  N_11 
ROOT
HETATM    1  N   UNL     1     -42.239 -52.680  12.858  1.00  0.00    -0.347 N 
HETATM    2  C   UNL     1     -41.731 -51.405  12.933  1.00  0.00     0.238 C 
HETATM    3  O   UNL     1     -42.173 -50.570  13.720  1.00  0.00    -0.272 OA
HETATM    4  H   UNL     1     -41.918 -53.343  12.157  1.00  0.00     0.163 HD
ENDROOT
BRANCH   2   5
HETATM    5  C   UNL     1     -40.606 -51.092  11.976  1.00  0.00     0.252 C 
BRANCH   5   6
HETATM    6  N   UNL     1     -40.682 -49.729  11.496  1.00  0.00    -0.278 N 
HETATM    7  C   UNL     1     -39.738 -48.751  11.576  1.00  0.00     0.201 A 
HETATM    8  N   UNL     1     -40.222 -47.631  11.090  1.00  0.00    -0.346 N 
HETATM    9  C   UNL     1     -41.492 -47.978  10.727  1.00  0.00     0.198 A 
ATOM     10  HN  UNL     1     -39.763 -46.724  11.006  1.00  0.00     0.167 HD
HETATM   11  N   UNL     1     -41.825 -49.249  10.963  1.00  0.00    -0.293 N 
ATOM     12  HN  UNL     1     -42.708 -49.729  10.789  1.00  0.00     0.188 HD
ENDBRANCH   5   6
ENDBRANCH   2   5
BRANCH   1  13
HETATM   13  C   UNL     1     -43.313 -53.132  13.737  1.00  0.00     0.172 C 
HETATM   14  C   UNL     1     -42.936 -54.446  14.414  1.00  0.00     0.042 C 
BRANCH  13  15
HETATM   15  C   UNL     1     -44.606 -53.287  12.913  1.00  0.00     0.239 C 
HETATM   16  N   UNL     1     -45.315 -52.118  12.732  1.00  0.00    -0.364 N 
HETATM   17  C   UNL     1     -46.526 -52.085  11.955  1.00  0.00     0.149 C 
HETATM   18  H   UNL     1     -44.935 -51.242  13.072  1.00  0.00     0.161 HD
HETATM   19  O   UNL     1     -44.967 -54.371  12.456  1.00  0.00    -0.271 OA
ENDBRANCH  13  15
ENDBRANCH   1  13
TORSDOF 4
ENDMDL
