MODEL 1
REMARK VINA RESULT:      -6.1      0.000      0.000
REMARK  5 active torsions:
REMARK  status: ('A' for Active; 'I' for Inactive)
REMARK    1  A    between atoms: C_2  and  C_3 
REMARK       I    between atoms: C_2  and  N_11 
REMARK    2  A    between atoms: C_3  and  N_4 
REMARK    3  A    between atoms: N_11  and  C_12 
REMARK    4  A    between atoms: C_12  and  C_13 
REMARK    5  A    between atoms: C_13  and  N_14 
ROOT
HETATM    1  O   UNL     1     -42.994 -55.429  15.568  1.00  0.00    -0.272 OA
HETATM    2  C   UNL     1     -43.420 -54.891  14.547  1.00  0.00     0.235 C 
HETATM    3  N   UNL     1     -42.605 -54.198  13.669  1.00  0.00    -0.358 N 
HETATM    4  H   UNL     1     -43.001 -53.850  12.803  1.00  0.00     0.162 HD
ENDROOT
BRANCH   3   5
HETATM    5  C   UNL     1     -41.160 -54.159  13.834  1.00  0.00     0.152 C 
BRANCH   5   6
HETATM    6  C   UNL     1     -40.647 -52.769  14.272  1.00  0.00     0.292 C 
BRANCH   6   7
HETATM    7  N   UNL     1     -39.898 -51.977  13.268  1.00  0.00     0.090 N 
HETATM    8  C   UNL     1     -38.648 -51.443  13.819  1.00  0.00     0.272 C 
HETATM    9  C   UNL     1     -37.640 -51.040  12.740  1.00  0.00     0.030 C 
HETATM   10  C   UNL     1     -37.768 -49.601  12.250  1.00  0.00     0.002 C 
HETATM   11  C   UNL     1     -39.189 -49.086  12.065  1.00  0.00     0.002 C 
HETATM   12  C   UNL     1     -40.157 -50.127  11.517  1.00  0.00     0.030 C 
HETATM   13  C   UNL     1     -40.777 -50.996  12.617  1.00  0.00     0.272 C 
ENDBRANCH   6   7
ENDBRANCH   5   6
ENDBRANCH   3   5
BRANCH   2  14
HETATM   14  C   UNL     1     -44.895 -54.960  14.140  1.00  0.00     0.234 C 
BRANCH  14  15
HETATM   15  N   UNL     1     -45.594 -53.695  14.342  1.00  0.00    -0.316 N 
HETATM   16  C   UNL     1     -46.060 -53.356  15.602  1.00  0.00     0.095 A 
HETATM   17  C   UNL     1     -46.734 -52.215  15.809  1.00  0.00     0.017 A 
HETATM   18  C   UNL     1     -46.977 -51.316  14.710  1.00  0.00     0.007 A 
HETATM   19  C   UNL     1     -46.516 -51.599  13.485  1.00  0.00     0.074 A 
HETATM   20  C   UNL     1     -45.760 -52.858  13.242  1.00  0.00     0.247 A 
HETATM   21  O   UNL     1     -45.344 -53.108  12.112  1.00  0.00    -0.268 OA
ENDBRANCH  14  15
ENDBRANCH   2  14
TORSDOF 5
ENDMDL
MODEL 2
REMARK VINA RESULT:      -5.8      2.300      6.975
REMARK  5 active torsions:
REMARK  status: ('A' for Active; 'I' for Inactive)
REMARK    1  A    between atoms: C_2  and  C_3 
REMARK       I    between atoms: C_2  and  N_11 
REMARK    2  A    between atoms: C_3  and  N_4 
REMARK    3  A    between atoms: N_11  and  C_12 
REMARK    4  A    between atoms: C_12  and  C_13 
REMARK    5  A    between atoms: C_13  and  N_14 
ROOT
HETATM    1  O   UNL     1     -39.410 -53.943  13.271  1.00  0.00    -0.272 OA
HETATM    2  C   UNL     1     -39.784 -53.066  14.048  1.00  0.00     0.235 C 
HETATM    3  N   UNL     1     -41.066 -53.019  14.566  1.00  0.00    -0.358 N 
HETATM    4  H   UNL     1     -41.288 -52.321  15.266  1.00  0.00     0.162 HD
ENDROOT
BRANCH   3   5
HETATM    5  C   UNL     1     -42.031 -54.080  14.317  1.00  0.00     0.152 C 
BRANCH   5   6
HETATM    6  C   UNL     1     -42.919 -53.801  13.084  1.00  0.00     0.292 C 
BRANCH   6   7
HETATM    7  N   UNL     1     -44.328 -53.414  13.338  1.00  0.00     0.090 N 
HETATM    8  C   UNL     1     -44.482 -51.958  13.436  1.00  0.00     0.272 C 
HETATM    9  C   UNL     1     -45.925 -51.493  13.225  1.00  0.00     0.030 C 
HETATM   10  C   UNL     1     -46.770 -51.436  14.494  1.00  0.00     0.002 C 
HETATM   11  C   UNL     1     -46.572 -52.581  15.477  1.00  0.00     0.002 C 
HETATM   12  C   UNL     1     -46.354 -53.935  14.812  1.00  0.00     0.030 C 
HETATM   13  C   UNL     1     -44.886 -54.190  14.455  1.00  0.00     0.272 C 
ENDBRANCH   6   7
ENDBRANCH   5   6
ENDBRANCH   3   5
BRANCH   2  14
HETATM   14  C   UNL     1     -38.851 -51.951  14.534  1.00  0.00     0.234 C 
BRANCH  14  15
HETATM   15  N   UNL     1     -38.785 -50.829  13.603  1.00  0.00    -0.316 N 
HETATM   16  C   UNL     1     -39.685 -49.782  13.716  1.00  0.00     0.095 A 
HETATM   17  C   UNL     1     -39.667 -48.755  12.854  1.00  0.00     0.017 A 
HETATM   18  C   UNL     1     -38.693 -48.727  11.792  1.00  0.00     0.007 A 
HETATM   19  C   UNL     1     -37.790 -49.708  11.671  1.00  0.00     0.074 A 
HETATM   20  C   UNL     1     -37.794 -50.850  12.625  1.00  0.00     0.247 A 
HETATM   21  O   UNL     1     -36.961 -51.746  12.502  1.00  0.00    -0.268 OA
ENDBRANCH  14  15
ENDBRANCH   2  14
TORSDOF 5
ENDMDL
MODEL 3
REMARK VINA RESULT:      -5.8      1.138      2.041
REMARK  5 active torsions:
REMARK  status: ('A' for Active; 'I' for Inactive)
REMARK    1  A    between atoms: C_2  and  C_3 
REMARK       I    between atoms: C_2  and  N_11 
REMARK    2  A    between atoms: C_3  and  N_4 
REMARK    3  A    between atoms: N_11  and  C_12 
REMARK    4  A    between atoms: C_12  and  C_13 
REMARK    5  A    between atoms: C_13  and  N_14 
ROOT
HETATM    1  O   UNL     1     -42.865 -55.279  15.154  1.00  0.00    -0.272 OA
HETATM    2  C   UNL     1     -43.359 -54.704  14.186  1.00  0.00     0.235 C 
HETATM    3  N   UNL     1     -42.616 -53.925  13.316  1.00  0.00    -0.358 N 
HETATM    4  H   UNL     1     -43.065 -53.547  12.490  1.00  0.00     0.162 HD
ENDROOT
BRANCH   3   5
HETATM    5  C   UNL     1     -41.168 -53.830  13.422  1.00  0.00     0.152 C 
BRANCH   5   6
HETATM    6  C   UNL     1     -40.713 -52.734  14.412  1.00  0.00     0.292 C 
BRANCH   6   7
HETATM    7  N   UNL     1     -39.931 -51.603  13.857  1.00  0.00     0.090 N 
HETATM    8  C   UNL     1     -40.304 -51.315  12.468  1.00  0.00     0.272 C 
HETATM    9  C   UNL     1     -39.894 -49.911  12.016  1.00  0.00     0.030 C 
HETATM   10  C   UNL     1     -38.494 -49.815  11.417  1.00  0.00     0.002 C 
HETATM   11  C   UNL     1     -37.417 -50.637  12.110  1.00  0.00     0.002 C 
HETATM   12  C   UNL     1     -37.554 -50.682  13.627  1.00  0.00     0.030 C 
HETATM   13  C   UNL     1     -38.495 -51.794  14.104  1.00  0.00     0.272 C 
ENDBRANCH   6   7
ENDBRANCH   5   6
ENDBRANCH   3   5
BRANCH   2  14
HETATM   14  C   UNL     1     -44.848 -54.817  13.839  1.00  0.00     0.234 C 
BRANCH  14  15
HETATM   15  N   UNL     1     -45.610 -53.641  14.245  1.00  0.00    -0.316 N 
HETATM   16  C   UNL     1     -45.841 -52.619  13.339  1.00  0.00     0.095 A 
HETATM   17  C   UNL     1     -46.510 -51.513  13.696  1.00  0.00     0.017 A 
HETATM   18  C   UNL     1     -47.007 -51.377  15.042  1.00  0.00     0.007 A 
HETATM   19  C   UNL     1     -46.825 -52.358  15.935  1.00  0.00     0.074 A 
HETATM   20  C   UNL     1     -46.091 -53.594  15.551  1.00  0.00     0.247 A 
HETATM   21  O   UNL     1     -45.929 -54.487  16.382  1.00  0.00    -0.268 OA
ENDBRANCH  14  15
ENDBRANCH   2  14
TORSDOF 5
ENDMDL
MODEL 4
REMARK VINA RESULT:      -5.6      2.680      3.863
REMARK  5 active torsions:
REMARK  status: ('A' for Active; 'I' for Inactive)
REMARK    1  A    between atoms: C_2  and  C_3 
REMARK       I    between atoms: C_2  and  N_11 
REMARK    2  A    between atoms: C_3  and  N_4 
REMARK    3  A    between atoms: N_11  and  C_12 
REMARK    4  A    between atoms: C_12  and  C_13 
REMARK    5  A    between atoms: C_13  and  N_14 
ROOT
HETATM    1  O   UNL     1     -42.239 -52.121  14.101  1.00  0.00    -0.272 OA
HETATM    2  C   UNL     1     -42.597 -52.256  12.932  1.00  0.00     0.235 C 
HETATM    3  N   UNL     1     -41.929 -51.671  11.870  1.00  0.00    -0.358 N 
HETATM    4  H   UNL     1     -42.223 -51.889  10.925  1.00  0.00     0.162 HD
ENDROOT
BRANCH   3   5
HETATM    5  C   UNL     1     -40.680 -50.948  12.057  1.00  0.00     0.152 C 
BRANCH   5   6
HETATM    6  C   UNL     1     -40.478 -49.828  11.012  1.00  0.00     0.292 C 
BRANCH   6   7
HETATM    7  N   UNL     1     -41.054 -48.498  11.325  1.00  0.00     0.090 N 
HETATM    8  C   UNL     1     -42.069 -48.101  10.343  1.00  0.00     0.272 C 
HETATM    9  C   UNL     1     -43.004 -47.003  10.859  1.00  0.00     0.030 C 
HETATM   10  C   UNL     1     -42.524 -45.579  10.595  1.00  0.00     0.002 C 
HETATM   11  C   UNL     1     -41.034 -45.333  10.786  1.00  0.00     0.002 C 
HETATM   12  C   UNL     1     -40.427 -46.098  11.956  1.00  0.00     0.030 C 
HETATM   13  C   UNL     1     -39.989 -47.516  11.573  1.00  0.00     0.272 C 
ENDBRANCH   6   7
ENDBRANCH   5   6
ENDBRANCH   3   5
BRANCH   2  14
HETATM   14  C   UNL     1     -43.808 -53.109  12.540  1.00  0.00     0.234 C 
BRANCH  14  15
HETATM   15  N   UNL     1     -44.955 -52.893  13.417  1.00  0.00    -0.316 N 
HETATM   16  C   UNL     1     -45.621 -51.678  13.397  1.00  0.00     0.095 A 
HETATM   17  C   UNL     1     -46.656 -51.441  14.216  1.00  0.00     0.017 A 
HETATM   18  C   UNL     1     -47.097 -52.464  15.131  1.00  0.00     0.007 A 
HETATM   19  C   UNL     1     -46.493 -53.659  15.156  1.00  0.00     0.074 A 
HETATM   20  C   UNL     1     -45.347 -53.939  14.248  1.00  0.00     0.247 A 
HETATM   21  O   UNL     1     -44.800 -55.039  14.283  1.00  0.00    -0.268 OA
ENDBRANCH  14  15
ENDBRANCH   2  14
TORSDOF 5
ENDMDL
MODEL 5
REMARK VINA RESULT:      -5.5      3.544      6.984
REMARK  5 active torsions:
REMARK  status: ('A' for Active; 'I' for Inactive)
REMARK    1  A    between atoms: C_2  and  C_3 
REMARK       I    between atoms: C_2  and  N_11 
REMARK    2  A    between atoms: C_3  and  N_4 
REMARK    3  A    between atoms: N_11  and  C_12 
REMARK    4  A    between atoms: C_12  and  C_13 
REMARK    5  A    between atoms: C_13  and  N_14 
ROOT
HETATM    1  O   UNL     1     -41.587 -49.700  12.965  1.00  0.00    -0.272 OA
HETATM    2  C   UNL     1     -41.171 -50.178  11.911  1.00  0.00     0.235 C 
HETATM    3  N   UNL     1     -41.130 -51.541  11.671  1.00  0.00    -0.358 N 
HETATM    4  H   UNL     1     -40.855 -51.869  10.752  1.00  0.00     0.162 HD
ENDROOT
BRANCH   3   5
HETATM    5  C   UNL     1     -41.689 -52.501  12.610  1.00  0.00     0.152 C 
BRANCH   5   6
HETATM    6  C   UNL     1     -43.187 -52.781  12.355  1.00  0.00     0.292 C 
BRANCH   6   7
HETATM    7  N   UNL     1     -44.167 -51.963  13.110  1.00  0.00     0.090 N 
HETATM    8  C   UNL     1     -43.848 -51.918  14.541  1.00  0.00     0.272 C 
HETATM    9  C   UNL     1     -44.515 -50.747  15.267  1.00  0.00     0.030 C 
HETATM   10  C   UNL     1     -45.905 -51.045  15.821  1.00  0.00     0.002 C 
HETATM   11  C   UNL     1     -46.810 -51.883  14.929  1.00  0.00     0.002 C 
HETATM   12  C   UNL     1     -46.674 -51.571  13.444  1.00  0.00     0.030 C 
HETATM   13  C   UNL     1     -45.542 -52.359  12.775  1.00  0.00     0.272 C 
ENDBRANCH   6   7
ENDBRANCH   5   6
ENDBRANCH   3   5
BRANCH   2  14
HETATM   14  C   UNL     1     -40.680 -49.304  10.753  1.00  0.00     0.234 C 
BRANCH  14  15
HETATM   15  N   UNL     1     -41.368 -48.019  10.687  1.00  0.00    -0.316 N 
HETATM   16  C   UNL     1     -42.637 -47.941  10.137  1.00  0.00     0.095 A 
HETATM   17  C   UNL     1     -43.278 -46.767  10.035  1.00  0.00     0.017 A 
HETATM   18  C   UNL     1     -42.647 -45.561  10.508  1.00  0.00     0.007 A 
HETATM   19  C   UNL     1     -41.433 -45.605  11.071  1.00  0.00     0.074 A 
HETATM   20  C   UNL     1     -40.713 -46.901  11.198  1.00  0.00     0.247 A 
HETATM   21  O   UNL     1     -39.597 -46.928  11.714  1.00  0.00    -0.268 OA
ENDBRANCH  14  15
ENDBRANCH   2  14
TORSDOF 5
ENDMDL
MODEL 6
REMARK VINA RESULT:      -5.4      3.139      4.843
REMARK  5 active torsions:
REMARK  status: ('A' for Active; 'I' for Inactive)
REMARK    1  A    between atoms: C_2  and  C_3 
REMARK       I    between atoms: C_2  and  N_11 
REMARK    2  A    between atoms: C_3  and  N_4 
REMARK    3  A    between atoms: N_11  and  C_12 
REMARK    4  A    between atoms: C_12  and  C_13 
REMARK    5  A    between atoms: C_13  and  N_14 
ROOT
HETATM    1  O   UNL     1     -41.020 -50.820  13.654  1.00  0.00    -0.272 OA
HETATM    2  C   UNL     1     -41.605 -51.163  12.627  1.00  0.00     0.235 C 
HETATM    3  N   UNL     1     -42.244 -50.264  11.792  1.00  0.00    -0.358 N 
HETATM    4  H   UNL     1     -42.635 -50.599  10.918  1.00  0.00     0.162 HD
ENDROOT
BRANCH   3   5
HETATM    5  C   UNL     1     -42.166 -48.828  12.010  1.00  0.00     0.152 C 
BRANCH   5   6
HETATM    6  C   UNL     1     -41.318 -48.106  10.939  1.00  0.00     0.292 C 
BRANCH   6   7
HETATM    7  N   UNL     1     -40.386 -47.053  11.410  1.00  0.00     0.090 N 
HETATM    8  C   UNL     1     -40.450 -46.884  12.866  1.00  0.00     0.272 C 
HETATM    9  C   UNL     1     -39.218 -46.181  13.441  1.00  0.00     0.030 C 
HETATM   10  C   UNL     1     -39.314 -44.659  13.491  1.00  0.00     0.002 C 
HETATM   11  C   UNL     1     -39.961 -43.994  12.285  1.00  0.00     0.002 C 
HETATM   12  C   UNL     1     -39.616 -44.655  10.956  1.00  0.00     0.030 C 
HETATM   13  C   UNL     1     -40.546 -45.826  10.618  1.00  0.00     0.272 C 
ENDBRANCH   6   7
ENDBRANCH   5   6
ENDBRANCH   3   5
BRANCH   2  14
HETATM   14  C   UNL     1     -41.659 -52.623  12.166  1.00  0.00     0.234 C 
BRANCH  14  15
HETATM   15  N   UNL     1     -42.664 -53.402  12.882  1.00  0.00    -0.316 N 
HETATM   16  C   UNL     1     -43.995 -53.327  12.506  1.00  0.00     0.095 A 
HETATM   17  C   UNL     1     -44.942 -54.007  13.169  1.00  0.00     0.017 A 
HETATM   18  C   UNL     1     -44.579 -54.838  14.289  1.00  0.00     0.007 A 
HETATM   19  C   UNL     1     -43.299 -54.955  14.661  1.00  0.00     0.074 A 
HETATM   20  C   UNL     1     -42.236 -54.213  13.931  1.00  0.00     0.247 A 
HETATM   21  O   UNL     1     -41.063 -54.327  14.284  1.00  0.00    -0.268 OA
ENDBRANCH  14  15
ENDBRANCH   2  14
TORSDOF 5
ENDMDL
MODEL 7
REMARK VINA RESULT:      -5.3      1.770      2.523
REMARK  5 active torsions:
REMARK  status: ('A' for Active; 'I' for Inactive)
REMARK    1  A    between atoms: C_2  and  C_3 
REMARK       I    between atoms: C_2  and  N_11 
REMARK    2  A    between atoms: C_3  and  N_4 
REMARK    3  A    between atoms: N_11  and  C_12 
REMARK    4  A    between atoms: C_12  and  C_13 
REMARK    5  A    between atoms: C_13  and  N_14 
ROOT
HETATM    1  O   UNL     1     -41.694 -54.281  15.830  1.00  0.00    -0.272 OA
HETATM    2  C   UNL     1     -42.493 -54.282  14.895  1.00  0.00     0.235 C 
HETATM    3  N   UNL     1     -42.116 -54.039  13.586  1.00  0.00    -0.358 N 
HETATM    4  H   UNL     1     -42.806 -54.137  12.850  1.00  0.00     0.162 HD
ENDROOT
BRANCH   3   5
HETATM    5  C   UNL     1     -40.720 -53.881  13.208  1.00  0.00     0.152 C 
BRANCH   5   6
HETATM    6  C   UNL     1     -40.313 -52.401  13.032  1.00  0.00     0.292 C 
BRANCH   6   7
HETATM    7  N   UNL     1     -41.244 -51.376  13.563  1.00  0.00     0.090 N 
HETATM    8  C   UNL     1     -41.937 -50.662  12.485  1.00  0.00     0.272 C 
HETATM    9  C   UNL     1     -43.211 -49.956  12.955  1.00  0.00     0.030 C 
HETATM   10  C   UNL     1     -43.006 -48.530  13.456  1.00  0.00     0.002 C 
HETATM   11  C   UNL     1     -41.760 -48.294  14.298  1.00  0.00     0.002 C 
HETATM   12  C   UNL     1     -41.421 -49.447  15.236  1.00  0.00     0.030 C 
HETATM   13  C   UNL     1     -40.573 -50.530  14.559  1.00  0.00     0.272 C 
ENDBRANCH   6   7
ENDBRANCH   5   6
ENDBRANCH   3   5
BRANCH   2  14
HETATM   14  C   UNL     1     -43.984 -54.578  15.092  1.00  0.00     0.234 C 
BRANCH  14  15
HETATM   15  N   UNL     1     -44.835 -53.460  14.696  1.00  0.00    -0.316 N 
HETATM   16  C   UNL     1     -45.063 -52.417  15.579  1.00  0.00     0.095 A 
HETATM   17  C   UNL     1     -45.868 -51.396  15.253  1.00  0.00     0.017 A 
HETATM   18  C   UNL     1     -46.506 -51.368  13.961  1.00  0.00     0.007 A 
HETATM   19  C   UNL     1     -46.285 -52.346  13.073  1.00  0.00     0.074 A 
HETATM   20  C   UNL     1     -45.388 -53.483  13.418  1.00  0.00     0.247 A 
HETATM   21  O   UNL     1     -45.196 -54.376  12.595  1.00  0.00    -0.268 OA
ENDBRANCH  14  15
ENDBRANCH   2  14
TORSDOF 5
ENDMDL
MODEL 8
REMARK VINA RESULT:      -5.2      1.816      6.679
REMARK  5 active torsions:
REMARK  status: ('A' for Active; 'I' for Inactive)
REMARK    1  A    between atoms: C_2  and  C_3 
REMARK       I    between atoms: C_2  and  N_11 
REMARK    2  A    between atoms: C_3  and  N_4 
REMARK    3  A    between atoms: N_11  and  C_12 
REMARK    4  A    between atoms: C_12  and  C_13 
REMARK    5  A    between atoms: C_13  and  N_14 
ROOT
HETATM    1  O   UNL     1     -39.552 -54.150  13.359  1.00  0.00    -0.272 OA
HETATM    2  C   UNL     1     -40.067 -53.346  14.134  1.00  0.00     0.235 C 
HETATM    3  N   UNL     1     -41.358 -53.484  14.611  1.00  0.00    -0.358 N 
HETATM    4  H   UNL     1     -41.695 -52.835  15.313  1.00  0.00     0.162 HD
ENDROOT
BRANCH   3   5
HETATM    5  C   UNL     1     -42.160 -54.663  14.318  1.00  0.00     0.152 C 
BRANCH   5   6
HETATM    6  C   UNL     1     -43.566 -54.602  14.954  1.00  0.00     0.292 C 
BRANCH   6   7
HETATM    7  N   UNL     1     -44.283 -53.305  14.887  1.00  0.00     0.090 N 
HETATM    8  C   UNL     1     -45.485 -53.305  15.728  1.00  0.00     0.272 C 
HETATM    9  C   UNL     1     -45.981 -51.896  16.064  1.00  0.00     0.030 C 
HETATM   10  C   UNL     1     -46.966 -51.308  15.058  1.00  0.00     0.002 C 
HETATM   11  C   UNL     1     -46.659 -51.578  13.592  1.00  0.00     0.002 C 
HETATM   12  C   UNL     1     -45.173 -51.545  13.256  1.00  0.00     0.030 C 
HETATM   13  C   UNL     1     -44.483 -52.894  13.491  1.00  0.00     0.272 C 
ENDBRANCH   6   7
ENDBRANCH   5   6
ENDBRANCH   3   5
BRANCH   2  14
HETATM   14  C   UNL     1     -39.312 -52.122  14.665  1.00  0.00     0.234 C 
BRANCH  14  15
HETATM   15  N   UNL     1     -39.051 -51.129  13.627  1.00  0.00    -0.316 N 
HETATM   16  C   UNL     1     -37.807 -51.073  13.021  1.00  0.00     0.095 A 
HETATM   17  C   UNL     1     -37.530 -50.149  12.088  1.00  0.00     0.017 A 
HETATM   18  C   UNL     1     -38.540 -49.199  11.698  1.00  0.00     0.007 A 
HETATM   19  C   UNL     1     -39.763 -49.243  12.243  1.00  0.00     0.074 A 
HETATM   20  C   UNL     1     -40.086 -50.267  13.274  1.00  0.00     0.247 A 
HETATM   21  O   UNL     1     -41.211 -50.295  13.770  1.00  0.00    -0.268 OA
ENDBRANCH  14  15
ENDBRANCH   2  14
TORSDOF 5
ENDMDL
MODEL 9
REMARK VINA RESULT:      -5.2      1.359      2.007
REMARK  5 active torsions:
REMARK  status: ('A' for Active; 'I' for Inactive)
REMARK    1  A    between atoms: C_2  and  C_3 
REMARK       I    between atoms: C_2  and  N_11 
REMARK    2  A    between atoms: C_3  and  N_4 
REMARK    3  A    between atoms: N_11  and  C_12 
REMARK    4  A    between atoms: C_12  and  C_13 
REMARK    5  A    between atoms: C_13  and  N_14 
ROOT
HETATM    1  O   UNL     1     -42.006 -53.560  16.268  1.00  0.00    -0.272 OA
HETATM    2  C   UNL     1     -42.554 -53.841  15.203  1.00  0.00     0.235 C 
HETATM    3  N   UNL     1     -41.904 -53.767  13.983  1.00  0.00    -0.358 N 
HETATM    4  H   UNL     1     -42.384 -54.092  13.152  1.00  0.00     0.162 HD
ENDROOT
BRANCH   3   5
HETATM    5  C   UNL     1     -40.485 -53.463  13.889  1.00  0.00     0.152 C 
BRANCH   5   6
HETATM    6  C   UNL     1     -40.192 -52.258  12.967  1.00  0.00     0.292 C 
BRANCH   6   7
HETATM    7  N   UNL     1     -39.755 -50.999  13.618  1.00  0.00     0.090 N 
HETATM    8  C   UNL     1     -40.195 -49.819  12.866  1.00  0.00     0.272 C 
HETATM    9  C   UNL     1     -40.191 -48.538  13.706  1.00  0.00     0.030 C 
HETATM   10  C   UNL     1     -38.874 -47.770  13.694  1.00  0.00     0.002 C 
HETATM   11  C   UNL     1     -37.610 -48.615  13.757  1.00  0.00     0.002 C 
HETATM   12  C   UNL     1     -37.728 -49.836  14.661  1.00  0.00     0.030 C 
HETATM   13  C   UNL     1     -38.323 -51.051  13.941  1.00  0.00     0.272 C 
ENDBRANCH   6   7
ENDBRANCH   5   6
ENDBRANCH   3   5
BRANCH   2  14
HETATM   14  C   UNL     1     -44.006 -54.323  15.132  1.00  0.00     0.234 C 
BRANCH  14  15
HETATM   15  N   UNL     1     -44.895 -53.342  14.518  1.00  0.00    -0.316 N 
HETATM   16  C   UNL     1     -45.448 -52.331  15.287  1.00  0.00     0.095 A 
HETATM   17  C   UNL     1     -46.293 -51.437  14.755  1.00  0.00     0.017 A 
HETATM   18  C   UNL     1     -46.634 -51.515  13.357  1.00  0.00     0.007 A 
HETATM   19  C   UNL     1     -46.096 -52.462  12.578  1.00  0.00     0.074 A 
HETATM   20  C   UNL     1     -45.150 -53.457  13.154  1.00  0.00     0.247 A 
HETATM   21  O   UNL     1     -44.665 -54.323  12.428  1.00  0.00    -0.268 OA
ENDBRANCH  14  15
ENDBRANCH   2  14
TORSDOF 5
ENDMDL
