MODEL 1
REMARK VINA RESULT:      -6.6      0.000      0.000
REMARK  4 active torsions:
REMARK  status: ('A' for Active; 'I' for Inactive)
REMARK    1  A    between atoms: N_9  and  C_10 
REMARK    2  A    between atoms: C_10  and  C_11 
REMARK    3  A    between atoms: C_11  and  O_12 
REMARK    4  A    between atoms: C_11  and  C_13 
ROOT
HETATM    1  C   UNL     1     -42.908 -45.992  10.657  1.00  0.00     0.163 C 
HETATM    2  N   UNL     1     -41.825 -46.901  10.983  1.00  0.00    -0.288 N 
HETATM    3  C   UNL     1     -40.500 -46.534  10.780  1.00  0.00     0.330 A 
HETATM    4  O   UNL     1     -40.146 -45.442  10.333  1.00  0.00    -0.246 OA
HETATM    5  N   UNL     1     -39.533 -47.470  11.096  1.00  0.00    -0.273 N 
HETATM    6  C   UNL     1     -39.731 -48.762  11.541  1.00  0.00     0.280 A 
HETATM    7  O   UNL     1     -38.807 -49.552  11.698  1.00  0.00    -0.265 OA
HETATM    8  C   UNL     1     -41.100 -49.045  11.787  1.00  0.00     0.149 A 
HETATM    9  N   UNL     1     -41.747 -50.128  12.316  1.00  0.00    -0.333 N 
HETATM   10  C   UNL     1     -43.090 -49.836  12.290  1.00  0.00     0.185 A 
HETATM   11  N   UNL     1     -43.326 -48.641  11.789  1.00  0.00    -0.336 N 
ATOM     12  HN  UNL     1     -44.229 -48.188  11.648  1.00  0.00     0.168 HD
HETATM   13  C   UNL     1     -42.094 -48.149  11.501  1.00  0.00     0.145 A 
HETATM   14  H   UNL     1     -38.581 -47.196  10.911  1.00  0.00     0.173 HD
ENDROOT
BRANCH   9  15
HETATM   15  C   UNL     1     -41.174 -51.351  12.858  1.00  0.00     0.167 C 
BRANCH  15  16
HETATM   16  C   UNL     1     -41.689 -52.600  12.122  1.00  0.00     0.169 C 
BRANCH  16  17
HETATM   17  O   UNL     1     -40.566 -53.387  11.705  1.00  0.00    -0.389 OA
HETATM   18  H   UNL     1     -40.876 -54.291  11.525  1.00  0.00     0.210 HD
ENDBRANCH  16  17
BRANCH  16  19
HETATM   19  C   UNL     1     -42.621 -53.502  12.913  1.00  0.00    -0.028 A 
HETATM   20  C   UNL     1     -42.104 -54.193  14.023  1.00  0.00     0.010 A 
HETATM   21  C   UNL     1     -42.920 -55.016  14.804  1.00  0.00     0.001 A 
HETATM   22  C   UNL     1     -44.268 -55.150  14.501  1.00  0.00     0.000 A 
HETATM   23  C   UNL     1     -44.802 -54.448  13.423  1.00  0.00     0.001 A 
HETATM   24  C   UNL     1     -43.991 -53.625  12.636  1.00  0.00     0.010 A 
ENDBRANCH  16  19
ENDBRANCH  15  16
ENDBRANCH   9  15
TORSDOF 4
ENDMDL
MODEL 2
REMARK VINA RESULT:      -6.5      2.176      6.247
REMARK  4 active torsions:
REMARK  status: ('A' for Active; 'I' for Inactive)
REMARK    1  A    between atoms: N_9  and  C_10 
REMARK    2  A    between atoms: C_10  and  C_11 
REMARK    3  A    between atoms: C_11  and  O_12 
REMARK    4  A    between atoms: C_11  and  C_13 
ROOT
HETATM    1  C   UNL     1     -45.771 -51.653  13.759  1.00  0.00     0.163 C 
HETATM    2  N   UNL     1     -44.453 -51.922  13.214  1.00  0.00    -0.288 N 
HETATM    3  C   UNL     1     -44.175 -53.128  12.581  1.00  0.00     0.330 A 
HETATM    4  O   UNL     1     -44.995 -54.033  12.429  1.00  0.00    -0.246 OA
HETATM    5  N   UNL     1     -42.887 -53.309  12.112  1.00  0.00    -0.273 N 
HETATM    6  C   UNL     1     -41.817 -52.447  12.248  1.00  0.00     0.280 A 
HETATM    7  O   UNL     1     -40.684 -52.743  11.883  1.00  0.00    -0.265 OA
HETATM    8  C   UNL     1     -42.189 -51.213  12.842  1.00  0.00     0.149 A 
HETATM    9  N   UNL     1     -41.508 -50.050  13.079  1.00  0.00    -0.333 N 
HETATM   10  C   UNL     1     -42.388 -49.198  13.704  1.00  0.00     0.185 A 
HETATM   11  N   UNL     1     -43.574 -49.747  13.867  1.00  0.00    -0.336 N 
ATOM     12  HN  UNL     1     -44.397 -49.338  14.309  1.00  0.00     0.168 HD
HETATM   13  C   UNL     1     -43.452 -50.981  13.313  1.00  0.00     0.145 A 
HETATM   14  H   UNL     1     -42.697 -54.202  11.687  1.00  0.00     0.173 HD
ENDROOT
BRANCH   9  15
HETATM   15  C   UNL     1     -40.140 -49.711  12.717  1.00  0.00     0.167 C 
BRANCH  15  16
HETATM   16  C   UNL     1     -40.053 -49.110  11.304  1.00  0.00     0.169 C 
BRANCH  16  17
HETATM   17  O   UNL     1     -40.366 -50.132  10.347  1.00  0.00    -0.389 OA
HETATM   18  H   UNL     1     -39.618 -50.213   9.731  1.00  0.00     0.210 HD
ENDBRANCH  16  17
BRANCH  16  19
HETATM   19  C   UNL     1     -40.959 -47.922  11.028  1.00  0.00    -0.028 A 
HETATM   20  C   UNL     1     -40.605 -46.670  11.562  1.00  0.00     0.010 A 
HETATM   21  C   UNL     1     -41.384 -45.536  11.319  1.00  0.00     0.001 A 
HETATM   22  C   UNL     1     -42.520 -45.628  10.525  1.00  0.00     0.000 A 
HETATM   23  C   UNL     1     -42.866 -46.854   9.963  1.00  0.00     0.001 A 
HETATM   24  C   UNL     1     -42.092 -47.993  10.205  1.00  0.00     0.010 A 
ENDBRANCH  16  19
ENDBRANCH  15  16
ENDBRANCH   9  15
TORSDOF 4
ENDMDL
MODEL 3
REMARK VINA RESULT:      -6.5      4.147      6.772
REMARK  4 active torsions:
REMARK  status: ('A' for Active; 'I' for Inactive)
REMARK    1  A    between atoms: N_9  and  C_10 
REMARK    2  A    between atoms: C_10  and  C_11 
REMARK    3  A    between atoms: C_11  and  O_12 
REMARK    4  A    between atoms: C_11  and  C_13 
ROOT
HETATM    1  C   UNL     1     -40.382 -56.683  17.038  1.00  0.00     0.163 C 
HETATM    2  N   UNL     1     -40.122 -55.748  15.960  1.00  0.00    -0.288 N 
HETATM    3  C   UNL     1     -38.824 -55.488  15.538  1.00  0.00     0.330 A 
HETATM    4  O   UNL     1     -37.822 -56.018  16.020  1.00  0.00    -0.246 OA
HETATM    5  N   UNL     1     -38.666 -54.566  14.521  1.00  0.00    -0.273 N 
HETATM    6  C   UNL     1     -39.652 -53.821  13.904  1.00  0.00     0.280 A 
HETATM    7  O   UNL     1     -39.399 -52.951  13.078  1.00  0.00    -0.265 OA
HETATM    8  C   UNL     1     -40.954 -54.185  14.337  1.00  0.00     0.149 A 
HETATM    9  N   UNL     1     -42.207 -53.802  13.945  1.00  0.00    -0.333 N 
HETATM   10  C   UNL     1     -43.096 -54.482  14.744  1.00  0.00     0.185 A 
HETATM   11  N   UNL     1     -42.483 -55.269  15.604  1.00  0.00    -0.336 N 
ATOM     12  HN  UNL     1     -42.905 -55.870  16.312  1.00  0.00     0.168 HD
HETATM   13  C   UNL     1     -41.164 -55.099  15.334  1.00  0.00     0.145 A 
HETATM   14  H   UNL     1     -37.715 -54.367  14.252  1.00  0.00     0.173 HD
ENDROOT
BRANCH   9  15
HETATM   15  C   UNL     1     -42.583 -52.897  12.868  1.00  0.00     0.167 C 
BRANCH  15  16
HETATM   16  C   UNL     1     -42.975 -51.508  13.400  1.00  0.00     0.169 C 
BRANCH  16  17
HETATM   17  O   UNL     1     -42.910 -50.565  12.322  1.00  0.00    -0.389 OA
HETATM   18  H   UNL     1     -43.664 -49.955  12.403  1.00  0.00     0.210 HD
ENDBRANCH  16  17
BRANCH  16  19
HETATM   19  C   UNL     1     -44.353 -51.399  14.030  1.00  0.00    -0.028 A 
HETATM   20  C   UNL     1     -45.480 -51.638  13.224  1.00  0.00     0.010 A 
HETATM   21  C   UNL     1     -46.772 -51.579  13.754  1.00  0.00     0.001 A 
HETATM   22  C   UNL     1     -46.959 -51.298  15.101  1.00  0.00     0.000 A 
HETATM   23  C   UNL     1     -45.852 -51.090  15.920  1.00  0.00     0.001 A 
HETATM   24  C   UNL     1     -44.558 -51.145  15.394  1.00  0.00     0.010 A 
ENDBRANCH  16  19
ENDBRANCH  15  16
ENDBRANCH   9  15
TORSDOF 4
ENDMDL
MODEL 4
REMARK VINA RESULT:      -6.3      3.846      4.549
REMARK  4 active torsions:
REMARK  status: ('A' for Active; 'I' for Inactive)
REMARK    1  A    between atoms: N_9  and  C_10 
REMARK    2  A    between atoms: C_10  and  C_11 
REMARK    3  A    between atoms: C_11  and  O_12 
REMARK    4  A    between atoms: C_11  and  C_13 
ROOT
HETATM    1  C   UNL     1     -37.476 -49.415  17.406  1.00  0.00     0.163 C 
HETATM    2  N   UNL     1     -37.682 -49.915  16.060  1.00  0.00    -0.288 N 
HETATM    3  C   UNL     1     -37.191 -49.224  14.958  1.00  0.00     0.330 A 
HETATM    4  O   UNL     1     -36.555 -48.173  15.031  1.00  0.00    -0.246 OA
HETATM    5  N   UNL     1     -37.453 -49.761  13.712  1.00  0.00    -0.273 N 
HETATM    6  C   UNL     1     -38.202 -50.885  13.423  1.00  0.00     0.280 A 
HETATM    7  O   UNL     1     -38.462 -51.225  12.275  1.00  0.00    -0.265 OA
HETATM    8  C   UNL     1     -38.614 -51.574  14.594  1.00  0.00     0.149 A 
HETATM    9  N   UNL     1     -39.270 -52.758  14.796  1.00  0.00    -0.333 N 
HETATM   10  C   UNL     1     -39.410 -52.904  16.156  1.00  0.00     0.185 A 
HETATM   11  N   UNL     1     -38.880 -51.896  16.818  1.00  0.00    -0.336 N 
ATOM     12  HN  UNL     1     -38.857 -51.753  17.827  1.00  0.00     0.168 HD
HETATM   13  C   UNL     1     -38.371 -51.090  15.850  1.00  0.00     0.145 A 
HETATM   14  H   UNL     1     -37.117 -49.228  12.926  1.00  0.00     0.173 HD
ENDROOT
BRANCH   9  15
HETATM   15  C   UNL     1     -39.710 -53.731  13.807  1.00  0.00     0.167 C 
BRANCH  15  16
HETATM   16  C   UNL     1     -40.894 -53.207  12.977  1.00  0.00     0.169 C 
BRANCH  16  17
HETATM   17  O   UNL     1     -40.636 -53.463  11.590  1.00  0.00    -0.389 OA
HETATM   18  H   UNL     1     -40.485 -54.417  11.478  1.00  0.00     0.210 HD
ENDBRANCH  16  17
BRANCH  16  19
HETATM   19  C   UNL     1     -42.254 -53.794  13.312  1.00  0.00    -0.028 A 
HETATM   20  C   UNL     1     -42.373 -54.604  14.456  1.00  0.00     0.010 A 
HETATM   21  C   UNL     1     -43.604 -55.149  14.829  1.00  0.00     0.001 A 
HETATM   22  C   UNL     1     -44.741 -54.882  14.078  1.00  0.00     0.000 A 
HETATM   23  C   UNL     1     -44.647 -54.057  12.961  1.00  0.00     0.001 A 
HETATM   24  C   UNL     1     -43.417 -53.510  12.580  1.00  0.00     0.010 A 
ENDBRANCH  16  19
ENDBRANCH  15  16
ENDBRANCH   9  15
TORSDOF 4
ENDMDL
MODEL 5
REMARK VINA RESULT:      -6.2      3.460      6.610
REMARK  4 active torsions:
REMARK  status: ('A' for Active; 'I' for Inactive)
REMARK    1  A    between atoms: N_9  and  C_10 
REMARK    2  A    between atoms: C_10  and  C_11 
REMARK    3  A    between atoms: C_11  and  O_12 
REMARK    4  A    between atoms: C_11  and  C_13 
ROOT
HETATM    1  C   UNL     1     -45.410 -54.871  14.253  1.00  0.00     0.163 C 
HETATM    2  N   UNL     1     -44.287 -54.175  13.653  1.00  0.00    -0.288 N 
HETATM    3  C   UNL     1     -44.459 -53.377  12.529  1.00  0.00     0.330 A 
HETATM    4  O   UNL     1     -45.542 -53.193  11.972  1.00  0.00    -0.246 OA
HETATM    5  N   UNL     1     -43.331 -52.770  12.010  1.00  0.00    -0.273 N 
HETATM    6  C   UNL     1     -42.028 -52.909  12.447  1.00  0.00     0.280 A 
HETATM    7  O   UNL     1     -41.079 -52.407  11.855  1.00  0.00    -0.265 OA
HETATM    8  C   UNL     1     -41.937 -53.682  13.634  1.00  0.00     0.149 A 
HETATM    9  N   UNL     1     -40.895 -53.994  14.464  1.00  0.00    -0.333 N 
HETATM   10  C   UNL     1     -41.407 -54.799  15.454  1.00  0.00     0.185 A 
HETATM   11  N   UNL     1     -42.699 -55.004  15.303  1.00  0.00    -0.336 N 
ATOM     12  HN  UNL     1     -43.315 -55.568  15.889  1.00  0.00     0.168 HD
HETATM   13  C   UNL     1     -43.024 -54.295  14.192  1.00  0.00     0.145 A 
HETATM   14  H   UNL     1     -43.472 -52.223  11.175  1.00  0.00     0.173 HD
ENDROOT
BRANCH   9  15
HETATM   15  C   UNL     1     -39.511 -53.550  14.388  1.00  0.00     0.167 C 
BRANCH  15  16
HETATM   16  C   UNL     1     -39.333 -52.131  14.956  1.00  0.00     0.169 C 
BRANCH  16  17
HETATM   17  O   UNL     1     -38.356 -52.172  16.004  1.00  0.00    -0.389 OA
HETATM   18  H   UNL     1     -37.472 -52.182  15.598  1.00  0.00     0.210 HD
ENDBRANCH  16  17
BRANCH  16  19
HETATM   19  C   UNL     1     -38.906 -51.064  13.964  1.00  0.00    -0.028 A 
HETATM   20  C   UNL     1     -37.848 -51.352  13.082  1.00  0.00     0.010 A 
HETATM   21  C   UNL     1     -37.429 -50.419  12.130  1.00  0.00     0.001 A 
HETATM   22  C   UNL     1     -38.069 -49.191  12.028  1.00  0.00     0.000 A 
HETATM   23  C   UNL     1     -39.139 -48.903  12.873  1.00  0.00     0.001 A 
HETATM   24  C   UNL     1     -39.561 -49.831  13.830  1.00  0.00     0.010 A 
ENDBRANCH  16  19
ENDBRANCH  15  16
ENDBRANCH   9  15
TORSDOF 4
ENDMDL
MODEL 6
REMARK VINA RESULT:      -6.1      1.788      2.244
REMARK  4 active torsions:
REMARK  status: ('A' for Active; 'I' for Inactive)
REMARK    1  A    between atoms: N_9  and  C_10 
REMARK    2  A    between atoms: C_10  and  C_11 
REMARK    3  A    between atoms: C_11  and  O_12 
REMARK    4  A    between atoms: C_11  and  C_13 
ROOT
HETATM    1  C   UNL     1     -41.482 -45.871  10.986  1.00  0.00     0.163 C 
HETATM    2  N   UNL     1     -41.744 -46.865  12.011  1.00  0.00    -0.288 N 
HETATM    3  C   UNL     1     -42.519 -46.556  13.123  1.00  0.00     0.330 A 
HETATM    4  O   UNL     1     -43.036 -45.457  13.320  1.00  0.00    -0.246 OA
HETATM    5  N   UNL     1     -42.698 -47.556  14.060  1.00  0.00    -0.273 N 
HETATM    6  C   UNL     1     -42.147 -48.822  14.052  1.00  0.00     0.280 A 
HETATM    7  O   UNL     1     -42.285 -49.606  14.985  1.00  0.00    -0.265 OA
HETATM    8  C   UNL     1     -41.425 -49.089  12.859  1.00  0.00     0.149 A 
HETATM    9  N   UNL     1     -40.808 -50.210  12.374  1.00  0.00    -0.333 N 
HETATM   10  C   UNL     1     -40.252 -49.862  11.167  1.00  0.00     0.185 A 
HETATM   11  N   UNL     1     -40.484 -48.603  10.860  1.00  0.00    -0.336 N 
ATOM     12  HN  UNL     1     -40.176 -48.093  10.032  1.00  0.00     0.168 HD
HETATM   13  C   UNL     1     -41.227 -48.137  11.897  1.00  0.00     0.145 A 
HETATM   14  H   UNL     1     -43.235 -47.302  14.874  1.00  0.00     0.173 HD
ENDROOT
BRANCH   9  15
HETATM   15  C   UNL     1     -40.763 -51.543  12.957  1.00  0.00     0.167 C 
BRANCH  15  16
HETATM   16  C   UNL     1     -41.550 -52.562  12.114  1.00  0.00     0.169 C 
BRANCH  16  17
HETATM   17  O   UNL     1     -40.621 -53.448  11.475  1.00  0.00    -0.389 OA
HETATM   18  H   UNL     1     -39.728 -53.241  11.799  1.00  0.00     0.210 HD
ENDBRANCH  16  17
BRANCH  16  19
HETATM   19  C   UNL     1     -42.560 -53.411  12.866  1.00  0.00    -0.028 A 
HETATM   20  C   UNL     1     -42.125 -54.130  13.995  1.00  0.00     0.010 A 
HETATM   21  C   UNL     1     -43.015 -54.906  14.742  1.00  0.00     0.001 A 
HETATM   22  C   UNL     1     -44.356 -54.964  14.387  1.00  0.00     0.000 A 
HETATM   23  C   UNL     1     -44.809 -54.234  13.292  1.00  0.00     0.001 A 
HETATM   24  C   UNL     1     -43.923 -53.458  12.538  1.00  0.00     0.010 A 
ENDBRANCH  16  19
ENDBRANCH  15  16
ENDBRANCH   9  15
TORSDOF 4
ENDMDL
MODEL 7
REMARK VINA RESULT:      -6.0      2.590      3.708
REMARK  4 active torsions:
REMARK  status: ('A' for Active; 'I' for Inactive)
REMARK    1  A    between atoms: N_9  and  C_10 
REMARK    2  A    between atoms: C_10  and  C_11 
REMARK    3  A    between atoms: C_11  and  O_12 
REMARK    4  A    between atoms: C_11  and  C_13 
ROOT
HETATM    1  C   UNL     1     -40.802 -47.716  11.747  1.00  0.00     0.163 C 
HETATM    2  N   UNL     1     -40.745 -49.156  11.924  1.00  0.00    -0.288 N 
HETATM    3  C   UNL     1     -39.553 -49.849  11.753  1.00  0.00     0.330 A 
HETATM    4  O   UNL     1     -38.482 -49.319  11.456  1.00  0.00    -0.246 OA
HETATM    5  N   UNL     1     -39.595 -51.221  11.918  1.00  0.00    -0.273 N 
HETATM    6  C   UNL     1     -40.704 -52.000  12.181  1.00  0.00     0.280 A 
HETATM    7  O   UNL     1     -40.655 -53.225  12.210  1.00  0.00    -0.265 OA
HETATM    8  C   UNL     1     -41.869 -51.222  12.408  1.00  0.00     0.149 A 
HETATM    9  N   UNL     1     -43.143 -51.541  12.790  1.00  0.00    -0.333 N 
HETATM   10  C   UNL     1     -43.851 -50.364  12.828  1.00  0.00     0.185 A 
HETATM   11  N   UNL     1     -43.104 -49.328  12.503  1.00  0.00    -0.336 N 
ATOM     12  HN  UNL     1     -43.384 -48.349  12.443  1.00  0.00     0.168 HD
HETATM   13  C   UNL     1     -41.878 -49.861  12.267  1.00  0.00     0.145 A 
HETATM   14  H   UNL     1     -38.728 -51.708  11.757  1.00  0.00     0.173 HD
ENDROOT
BRANCH   9  15
HETATM   15  C   UNL     1     -43.682 -52.846  13.146  1.00  0.00     0.167 C 
BRANCH  15  16
HETATM   16  C   UNL     1     -45.217 -52.820  13.257  1.00  0.00     0.169 C 
BRANCH  16  17
HETATM   17  O   UNL     1     -45.734 -54.080  12.811  1.00  0.00    -0.389 OA
HETATM   18  H   UNL     1     -45.110 -54.456  12.166  1.00  0.00     0.210 HD
ENDBRANCH  16  17
BRANCH  16  19
HETATM   19  C   UNL     1     -45.780 -52.550  14.642  1.00  0.00    -0.028 A 
HETATM   20  C   UNL     1     -46.813 -51.604  14.774  1.00  0.00     0.010 A 
HETATM   21  C   UNL     1     -47.389 -51.335  16.018  1.00  0.00     0.001 A 
HETATM   22  C   UNL     1     -46.957 -52.016  17.148  1.00  0.00     0.000 A 
HETATM   23  C   UNL     1     -45.958 -52.979  17.029  1.00  0.00     0.001 A 
HETATM   24  C   UNL     1     -45.375 -53.251  15.788  1.00  0.00     0.010 A 
ENDBRANCH  16  19
ENDBRANCH  15  16
ENDBRANCH   9  15
TORSDOF 4
ENDMDL
MODEL 8
REMARK VINA RESULT:      -5.9      2.195      3.497
REMARK  4 active torsions:
REMARK  status: ('A' for Active; 'I' for Inactive)
REMARK    1  A    between atoms: N_9  and  C_10 
REMARK    2  A    between atoms: C_10  and  C_11 
REMARK    3  A    between atoms: C_11  and  O_12 
REMARK    4  A    between atoms: C_11  and  C_13 
ROOT
HETATM    1  C   UNL     1     -40.518 -43.408  11.432  1.00  0.00     0.163 C 
HETATM    2  N   UNL     1     -41.383 -44.523  11.092  1.00  0.00    -0.288 N 
HETATM    3  C   UNL     1     -42.633 -44.310  10.525  1.00  0.00     0.330 A 
HETATM    4  O   UNL     1     -43.092 -43.197  10.264  1.00  0.00    -0.246 OA
HETATM    5  N   UNL     1     -43.400 -45.428  10.254  1.00  0.00    -0.273 N 
HETATM    6  C   UNL     1     -43.091 -46.744  10.535  1.00  0.00     0.280 A 
HETATM    7  O   UNL     1     -43.884 -47.660  10.347  1.00  0.00    -0.265 OA
HETATM    8  C   UNL     1     -41.776 -46.892  11.051  1.00  0.00     0.149 A 
HETATM    9  N   UNL     1     -41.019 -47.985  11.370  1.00  0.00    -0.333 N 
HETATM   10  C   UNL     1     -39.821 -47.509  11.847  1.00  0.00     0.185 A 
HETATM   11  N   UNL     1     -39.775 -46.193  11.839  1.00  0.00    -0.336 N 
ATOM     12  HN  UNL     1     -39.011 -45.591  12.149  1.00  0.00     0.168 HD
HETATM   13  C   UNL     1     -40.975 -45.818  11.327  1.00  0.00     0.145 A 
HETATM   14  H   UNL     1     -44.316 -45.250   9.874  1.00  0.00     0.173 HD
ENDROOT
BRANCH   9  15
HETATM   15  C   UNL     1     -41.348 -49.394  11.211  1.00  0.00     0.167 C 
BRANCH  15  16
HETATM   16  C   UNL     1     -42.108 -49.945  12.430  1.00  0.00     0.169 C 
BRANCH  16  17
HETATM   17  O   UNL     1     -43.510 -49.704  12.248  1.00  0.00    -0.389 OA
HETATM   18  H   UNL     1     -43.681 -49.599  11.296  1.00  0.00     0.210 HD
ENDBRANCH  16  17
BRANCH  16  19
HETATM   19  C   UNL     1     -41.924 -51.425  12.717  1.00  0.00    -0.028 A 
HETATM   20  C   UNL     1     -43.070 -52.225  12.878  1.00  0.00     0.010 A 
HETATM   21  C   UNL     1     -42.963 -53.598  13.116  1.00  0.00     0.001 A 
HETATM   22  C   UNL     1     -41.713 -54.199  13.181  1.00  0.00     0.000 A 
HETATM   23  C   UNL     1     -40.570 -53.426  12.993  1.00  0.00     0.001 A 
HETATM   24  C   UNL     1     -40.670 -52.052  12.757  1.00  0.00     0.010 A 
ENDBRANCH  16  19
ENDBRANCH  15  16
ENDBRANCH   9  15
TORSDOF 4
ENDMDL
MODEL 9
REMARK VINA RESULT:      -5.9      3.604      6.478
REMARK  4 active torsions:
REMARK  status: ('A' for Active; 'I' for Inactive)
REMARK    1  A    between atoms: N_9  and  C_10 
REMARK    2  A    between atoms: C_10  and  C_11 
REMARK    3  A    between atoms: C_11  and  O_12 
REMARK    4  A    between atoms: C_11  and  C_13 
ROOT
HETATM    1  C   UNL     1     -46.682 -51.262  16.161  1.00  0.00     0.163 C 
HETATM    2  N   UNL     1     -46.076 -51.989  15.062  1.00  0.00    -0.288 N 
HETATM    3  C   UNL     1     -46.690 -53.114  14.525  1.00  0.00     0.330 A 
HETATM    4  O   UNL     1     -47.766 -53.566  14.917  1.00  0.00    -0.246 OA
HETATM    5  N   UNL     1     -46.031 -53.758  13.495  1.00  0.00    -0.273 N 
HETATM    6  C   UNL     1     -44.794 -53.447  12.967  1.00  0.00     0.280 A 
HETATM    7  O   UNL     1     -44.247 -54.143  12.119  1.00  0.00    -0.265 OA
HETATM    8  C   UNL     1     -44.258 -52.253  13.515  1.00  0.00     0.149 A 
HETATM    9  N   UNL     1     -43.136 -51.520  13.235  1.00  0.00    -0.333 N 
HETATM   10  C   UNL     1     -43.127 -50.462  14.112  1.00  0.00     0.185 A 
HETATM   11  N   UNL     1     -44.171 -50.479  14.916  1.00  0.00    -0.336 N 
ATOM     12  HN  UNL     1     -44.397 -49.819  15.661  1.00  0.00     0.168 HD
HETATM   13  C   UNL     1     -44.875 -51.573  14.529  1.00  0.00     0.145 A 
HETATM   14  H   UNL     1     -46.477 -54.590  13.142  1.00  0.00     0.173 HD
ENDROOT
BRANCH   9  15
HETATM   15  C   UNL     1     -42.144 -51.744  12.194  1.00  0.00     0.167 C 
BRANCH  15  16
HETATM   16  C   UNL     1     -40.948 -52.562  12.711  1.00  0.00     0.169 C 
BRANCH  16  17
HETATM   17  O   UNL     1     -40.491 -53.426  11.662  1.00  0.00    -0.389 OA
HETATM   18  H   UNL     1     -40.058 -52.881  10.982  1.00  0.00     0.210 HD
ENDBRANCH  16  17
BRANCH  16  19
HETATM   19  C   UNL     1     -39.755 -51.760  13.204  1.00  0.00    -0.028 A 
HETATM   20  C   UNL     1     -39.169 -50.825  12.332  1.00  0.00     0.010 A 
HETATM   21  C   UNL     1     -38.087 -50.039  12.740  1.00  0.00     0.001 A 
HETATM   22  C   UNL     1     -37.584 -50.161  14.028  1.00  0.00     0.000 A 
HETATM   23  C   UNL     1     -38.173 -51.060  14.913  1.00  0.00     0.001 A 
HETATM   24  C   UNL     1     -39.254 -51.851  14.511  1.00  0.00     0.010 A 
ENDBRANCH  16  19
ENDBRANCH  15  16
ENDBRANCH   9  15
TORSDOF 4
ENDMDL
