MODEL 1
REMARK VINA RESULT:      -5.7      0.000      0.000
REMARK  5 active torsions:
REMARK  status: ('A' for Active; 'I' for Inactive)
REMARK    1  A    between atoms: C_5  and  C_6 
REMARK    2  A    between atoms: C_6  and  N_7 
REMARK    3  A    between atoms: N_7  and  C_8 
REMARK    4  A    between atoms: C_8  and  C_9 
REMARK    5  A    between atoms: C_9  and  C_10 
ROOT
HETATM    1  N   UNL     1     -43.404 -54.588  15.281  1.00  0.00     0.084 N 
HETATM    2  H   UNL     1     -43.574 -55.153  14.449  1.00  0.00     0.315 HD
ENDROOT
BRANCH   1   3
HETATM    3  C   UNL     1     -44.576 -53.754  15.543  1.00  0.00     0.274 C 
BRANCH   3   4
HETATM    4  C   UNL     1     -45.719 -54.018  14.545  1.00  0.00     0.014 C 
HETATM    5  C   UNL     1     -45.178 -53.916  13.106  1.00  0.00     0.007 C 
HETATM    6  C   UNL     1     -44.847 -52.478  12.693  1.00  0.00     0.005 C 
HETATM    7  C   UNL     1     -46.018 -51.509  12.909  1.00  0.00    -0.019 C 
HETATM    8  C   UNL     1     -47.110 -51.726  11.858  1.00  0.00     0.010 C 
HETATM    9  C   UNL     1     -46.581 -51.621  14.332  1.00  0.00     0.005 C 
HETATM   10  C   UNL     1     -46.910 -53.060  14.731  1.00  0.00     0.007 C 
ENDBRANCH   3   4
ENDBRANCH   1   3
BRANCH   1  11
HETATM   11  C   UNL     1     -42.194 -53.782  15.076  1.00  0.00     0.274 C 
BRANCH  11  12
HETATM   12  C   UNL     1     -41.385 -54.194  13.834  1.00  0.00     0.072 C 
BRANCH  12  13
HETATM   13  C   UNL     1     -40.895 -53.022  13.064  1.00  0.00    -0.016 A 
HETATM   14  C   UNL     1     -41.418 -52.521  11.854  1.00  0.00     0.116 A 
HETATM   15  N   UNL     1     -40.767 -51.442  11.424  1.00  0.00    -0.309 N 
HETATM   16  N   UNL     1     -39.832 -51.233  12.371  1.00  0.00    -0.301 N 
ATOM     17  HN  UNL     1     -40.936 -50.900  10.577  1.00  0.00     0.186 HD
HETATM   18  C   UNL     1     -38.956 -50.092  12.250  1.00  0.00     0.177 C 
HETATM   19  C   UNL     1     -39.851 -52.170  13.374  1.00  0.00     0.032 A 
HETATM   20  C   UNL     1     -38.929 -52.174  14.536  1.00  0.00     0.070 C 
ENDBRANCH  12  13
ENDBRANCH  11  12
ENDBRANCH   1  11
TORSDOF 5
ENDMDL
MODEL 2
REMARK VINA RESULT:      -5.5      2.105      2.913
REMARK  5 active torsions:
REMARK  status: ('A' for Active; 'I' for Inactive)
REMARK    1  A    between atoms: C_5  and  C_6 
REMARK    2  A    between atoms: C_6  and  N_7 
REMARK    3  A    between atoms: N_7  and  C_8 
REMARK    4  A    between atoms: C_8  and  C_9 
REMARK    5  A    between atoms: C_9  and  C_10 
ROOT
HETATM    1  N   UNL     1     -42.182 -53.771  12.588  1.00  0.00     0.084 N 
HETATM    2  H   UNL     1     -41.961 -54.059  11.635  1.00  0.00     0.315 HD
ENDROOT
BRANCH   1   3
HETATM    3  C   UNL     1     -43.372 -52.921  12.571  1.00  0.00     0.274 C 
BRANCH   3   4
HETATM    4  C   UNL     1     -44.536 -53.525  13.378  1.00  0.00     0.014 C 
HETATM    5  C   UNL     1     -45.872 -52.972  12.847  1.00  0.00     0.007 C 
HETATM    6  C   UNL     1     -46.093 -51.498  13.205  1.00  0.00     0.005 C 
HETATM    7  C   UNL     1     -45.941 -51.219  14.707  1.00  0.00    -0.019 C 
HETATM    8  C   UNL     1     -47.145 -51.752  15.489  1.00  0.00     0.010 C 
HETATM    9  C   UNL     1     -44.625 -51.789  15.253  1.00  0.00     0.005 C 
HETATM   10  C   UNL     1     -44.418 -53.261  14.890  1.00  0.00     0.007 C 
ENDBRANCH   3   4
ENDBRANCH   1   3
BRANCH   1  11
HETATM   11  C   UNL     1     -41.022 -53.077  13.162  1.00  0.00     0.274 C 
BRANCH  11  12
HETATM   12  C   UNL     1     -41.322 -51.628  13.585  1.00  0.00     0.072 C 
BRANCH  12  13
HETATM   13  C   UNL     1     -41.182 -50.670  12.459  1.00  0.00    -0.016 A 
HETATM   14  C   UNL     1     -40.190 -50.678  11.456  1.00  0.00     0.116 A 
HETATM   15  N   UNL     1     -40.349 -49.694  10.573  1.00  0.00    -0.309 N 
HETATM   16  N   UNL     1     -41.459 -49.060  10.997  1.00  0.00    -0.301 N 
ATOM     17  HN  UNL     1     -39.767 -49.472   9.766  1.00  0.00     0.186 HD
HETATM   18  C   UNL     1     -41.963 -47.943  10.232  1.00  0.00     0.177 C 
HETATM   19  C   UNL     1     -41.991 -49.595  12.143  1.00  0.00     0.032 A 
HETATM   20  C   UNL     1     -43.209 -49.086  12.820  1.00  0.00     0.070 C 
ENDBRANCH  12  13
ENDBRANCH  11  12
ENDBRANCH   1  11
TORSDOF 5
ENDMDL
MODEL 3
REMARK VINA RESULT:      -5.3      1.399      2.033
REMARK  5 active torsions:
REMARK  status: ('A' for Active; 'I' for Inactive)
REMARK    1  A    between atoms: C_5  and  C_6 
REMARK    2  A    between atoms: C_6  and  N_7 
REMARK    3  A    between atoms: N_7  and  C_8 
REMARK    4  A    between atoms: C_8  and  C_9 
REMARK    5  A    between atoms: C_9  and  C_10 
ROOT
HETATM    1  N   UNL     1     -42.691 -52.102  15.962  1.00  0.00     0.084 N 
HETATM    2  H   UNL     1     -42.352 -51.858  16.892  1.00  0.00     0.315 HD
ENDROOT
BRANCH   1   3
HETATM    3  C   UNL     1     -44.152 -52.178  15.987  1.00  0.00     0.274 C 
BRANCH   3   4
HETATM    4  C   UNL     1     -44.809 -51.114  15.087  1.00  0.00     0.014 C 
HETATM    5  C   UNL     1     -46.332 -51.347  15.043  1.00  0.00     0.007 C 
HETATM    6  C   UNL     1     -46.721 -52.593  14.240  1.00  0.00     0.005 C 
HETATM    7  C   UNL     1     -46.123 -52.604  12.826  1.00  0.00    -0.019 C 
HETATM    8  C   UNL     1     -46.842 -51.600  11.918  1.00  0.00     0.010 C 
HETATM    9  C   UNL     1     -44.611 -52.346  12.856  1.00  0.00     0.005 C 
HETATM   10  C   UNL     1     -44.235 -51.100  13.659  1.00  0.00     0.007 C 
ENDBRANCH   3   4
ENDBRANCH   1   3
BRANCH   1  11
HETATM   11  C   UNL     1     -42.085 -53.372  15.545  1.00  0.00     0.274 C 
BRANCH  11  12
HETATM   12  C   UNL     1     -40.692 -53.208  14.912  1.00  0.00     0.072 C 
BRANCH  12  13
HETATM   13  C   UNL     1     -40.750 -52.548  13.582  1.00  0.00    -0.016 A 
HETATM   14  C   UNL     1     -41.116 -53.140  12.356  1.00  0.00     0.116 A 
HETATM   15  N   UNL     1     -41.087 -52.276  11.343  1.00  0.00    -0.309 N 
HETATM   16  N   UNL     1     -40.719 -51.117  11.922  1.00  0.00    -0.301 N 
ATOM     17  HN  UNL     1     -41.294 -52.451  10.360  1.00  0.00     0.186 HD
HETATM   18  C   UNL     1     -40.629 -49.926  11.109  1.00  0.00     0.177 C 
HETATM   19  C   UNL     1     -40.483 -51.229  13.269  1.00  0.00     0.032 A 
HETATM   20  C   UNL     1     -40.065 -50.106  14.144  1.00  0.00     0.070 C 
ENDBRANCH  12  13
ENDBRANCH  11  12
ENDBRANCH   1  11
TORSDOF 5
ENDMDL
MODEL 4
REMARK VINA RESULT:      -5.1      2.158      3.812
REMARK  5 active torsions:
REMARK  status: ('A' for Active; 'I' for Inactive)
REMARK    1  A    between atoms: C_5  and  C_6 
REMARK    2  A    between atoms: C_6  and  N_7 
REMARK    3  A    between atoms: N_7  and  C_8 
REMARK    4  A    between atoms: C_8  and  C_9 
REMARK    5  A    between atoms: C_9  and  C_10 
ROOT
HETATM    1  N   UNL     1     -42.955 -51.813  12.324  1.00  0.00     0.084 N 
HETATM    2  H   UNL     1     -42.754 -50.839  12.551  1.00  0.00     0.315 HD
ENDROOT
BRANCH   1   3
HETATM    3  C   UNL     1     -44.008 -52.307  13.212  1.00  0.00     0.274 C 
BRANCH   3   4
HETATM    4  C   UNL     1     -44.963 -51.188  13.667  1.00  0.00     0.014 C 
HETATM    5  C   UNL     1     -44.674 -50.830  15.137  1.00  0.00     0.007 C 
HETATM    6  C   UNL     1     -45.124 -51.921  16.116  1.00  0.00     0.005 C 
HETATM    7  C   UNL     1     -46.593 -52.325  15.928  1.00  0.00    -0.019 C 
HETATM    8  C   UNL     1     -47.533 -51.239  16.460  1.00  0.00     0.010 C 
HETATM    9  C   UNL     1     -46.899 -52.658  14.461  1.00  0.00     0.005 C 
HETATM   10  C   UNL     1     -46.447 -51.561  13.495  1.00  0.00     0.007 C 
ENDBRANCH   3   4
ENDBRANCH   1   3
BRANCH   1  11
HETATM   11  C   UNL     1     -41.722 -52.601  12.447  1.00  0.00     0.274 C 
BRANCH  11  12
HETATM   12  C   UNL     1     -40.875 -52.227  13.675  1.00  0.00     0.072 C 
BRANCH  12  13
HETATM   13  C   UNL     1     -40.276 -53.417  14.332  1.00  0.00    -0.016 A 
HETATM   14  C   UNL     1     -38.995 -53.959  14.101  1.00  0.00     0.116 A 
HETATM   15  N   UNL     1     -38.745 -55.021  14.865  1.00  0.00    -0.309 N 
HETATM   16  N   UNL     1     -39.862 -55.154  15.604  1.00  0.00    -0.301 N 
ATOM     17  HN  UNL     1     -37.905 -55.599  14.884  1.00  0.00     0.186 HD
HETATM   18  C   UNL     1     -39.924 -56.201  16.597  1.00  0.00     0.177 C 
HETATM   19  C   UNL     1     -40.827 -54.224  15.309  1.00  0.00     0.032 A 
HETATM   20  C   UNL     1     -42.151 -54.148  15.975  1.00  0.00     0.070 C 
ENDBRANCH  12  13
ENDBRANCH  11  12
ENDBRANCH   1  11
TORSDOF 5
ENDMDL
MODEL 5
REMARK VINA RESULT:      -5.1      1.867      3.104
REMARK  5 active torsions:
REMARK  status: ('A' for Active; 'I' for Inactive)
REMARK    1  A    between atoms: C_5  and  C_6 
REMARK    2  A    between atoms: C_6  and  N_7 
REMARK    3  A    between atoms: N_7  and  C_8 
REMARK    4  A    between atoms: C_8  and  C_9 
REMARK    5  A    between atoms: C_9  and  C_10 
ROOT
HETATM    1  N   UNL     1     -42.771 -52.677  11.738  1.00  0.00     0.084 N 
HETATM    2  H   UNL     1     -43.105 -51.781  11.384  1.00  0.00     0.315 HD
ENDROOT
BRANCH   1   3
HETATM    3  C   UNL     1     -43.742 -53.209  12.693  1.00  0.00     0.274 C 
BRANCH   3   4
HETATM    4  C   UNL     1     -43.919 -52.295  13.920  1.00  0.00     0.014 C 
HETATM    5  C   UNL     1     -44.494 -53.112  15.092  1.00  0.00     0.007 C 
HETATM    6  C   UNL     1     -45.964 -53.498  14.886  1.00  0.00     0.005 C 
HETATM    7  C   UNL     1     -46.859 -52.293  14.566  1.00  0.00    -0.019 C 
HETATM    8  C   UNL     1     -47.095 -51.437  15.814  1.00  0.00     0.010 C 
HETATM    9  C   UNL     1     -46.281 -51.456  13.416  1.00  0.00     0.005 C 
HETATM   10  C   UNL     1     -44.816 -51.077  13.635  1.00  0.00     0.007 C 
ENDBRANCH   3   4
ENDBRANCH   1   3
BRANCH   1  11
HETATM   11  C   UNL     1     -41.449 -52.491  12.348  1.00  0.00     0.274 C 
BRANCH  11  12
HETATM   12  C   UNL     1     -40.673 -51.292  11.776  1.00  0.00     0.072 C 
BRANCH  12  13
HETATM   13  C   UNL     1     -40.029 -50.477  12.839  1.00  0.00    -0.016 A 
HETATM   14  C   UNL     1     -40.509 -50.252  14.145  1.00  0.00     0.116 A 
HETATM   15  N   UNL     1     -39.689 -49.490  14.866  1.00  0.00    -0.309 N 
HETATM   16  N   UNL     1     -38.666 -49.238  14.028  1.00  0.00    -0.301 N 
ATOM     17  HN  UNL     1     -39.808 -49.171  15.827  1.00  0.00     0.186 HD
HETATM   18  C   UNL     1     -37.546 -48.460  14.504  1.00  0.00     0.177 C 
HETATM   19  C   UNL     1     -38.829 -49.793  12.784  1.00  0.00     0.032 A 
HETATM   20  C   UNL     1     -37.852 -49.667  11.674  1.00  0.00     0.070 C 
ENDBRANCH  12  13
ENDBRANCH  11  12
ENDBRANCH   1  11
TORSDOF 5
ENDMDL
MODEL 6
REMARK VINA RESULT:      -5.0      2.934      5.341
REMARK  5 active torsions:
REMARK  status: ('A' for Active; 'I' for Inactive)
REMARK    1  A    between atoms: C_5  and  C_6 
REMARK    2  A    between atoms: C_6  and  N_7 
REMARK    3  A    between atoms: N_7  and  C_8 
REMARK    4  A    between atoms: C_8  and  C_9 
REMARK    5  A    between atoms: C_9  and  C_10 
ROOT
HETATM    1  N   UNL     1     -41.235 -52.113  11.378  1.00  0.00     0.084 N 
HETATM    2  H   UNL     1     -41.716 -52.077  10.480  1.00  0.00     0.315 HD
ENDROOT
BRANCH   1   3
HETATM    3  C   UNL     1     -42.168 -52.573  12.406  1.00  0.00     0.274 C 
BRANCH   3   4
HETATM    4  C   UNL     1     -41.834 -53.989  12.910  1.00  0.00     0.014 C 
HETATM    5  C   UNL     1     -42.748 -54.342  14.098  1.00  0.00     0.007 C 
HETATM    6  C   UNL     1     -42.398 -53.563  15.372  1.00  0.00     0.005 C 
HETATM    7  C   UNL     1     -40.918 -53.688  15.761  1.00  0.00    -0.019 C 
HETATM    8  C   UNL     1     -40.618 -55.074  16.338  1.00  0.00     0.010 C 
HETATM    9  C   UNL     1     -39.998 -53.364  14.576  1.00  0.00     0.005 C 
HETATM   10  C   UNL     1     -40.357 -54.149  13.313  1.00  0.00     0.007 C 
ENDBRANCH   3   4
ENDBRANCH   1   3
BRANCH   1  11
HETATM   11  C   UNL     1     -40.691 -50.785  11.687  1.00  0.00     0.274 C 
BRANCH  11  12
HETATM   12  C   UNL     1     -41.775 -49.727  11.962  1.00  0.00     0.072 C 
BRANCH  12  13
HETATM   13  C   UNL     1     -41.498 -48.442  11.271  1.00  0.00    -0.016 A 
HETATM   14  C   UNL     1     -42.203 -47.897  10.178  1.00  0.00     0.116 A 
HETATM   15  N   UNL     1     -41.719 -46.716   9.797  1.00  0.00    -0.309 N 
HETATM   16  N   UNL     1     -40.711 -46.489  10.660  1.00  0.00    -0.301 N 
ATOM     17  HN  UNL     1     -42.038 -46.122   9.032  1.00  0.00     0.186 HD
HETATM   18  C   UNL     1     -39.976 -45.249  10.567  1.00  0.00     0.177 C 
HETATM   19  C   UNL     1     -40.520 -47.509  11.558  1.00  0.00     0.032 A 
HETATM   20  C   UNL     1     -39.477 -47.513  12.614  1.00  0.00     0.070 C 
ENDBRANCH  12  13
ENDBRANCH  11  12
ENDBRANCH   1  11
TORSDOF 5
ENDMDL
MODEL 7
REMARK VINA RESULT:      -4.9      2.028      2.767
REMARK  5 active torsions:
REMARK  status: ('A' for Active; 'I' for Inactive)
REMARK    1  A    between atoms: C_5  and  C_6 
REMARK    2  A    between atoms: C_6  and  N_7 
REMARK    3  A    between atoms: N_7  and  C_8 
REMARK    4  A    between atoms: C_8  and  C_9 
REMARK    5  A    between atoms: C_9  and  C_10 
ROOT
HETATM    1  N   UNL     1     -41.427 -53.504  13.808  1.00  0.00     0.084 N 
HETATM    2  H   UNL     1     -40.792 -54.274  13.598  1.00  0.00     0.315 HD
ENDROOT
BRANCH   1   3
HETATM    3  C   UNL     1     -42.701 -53.731  13.127  1.00  0.00     0.274 C 
BRANCH   3   4
HETATM    4  C   UNL     1     -43.884 -53.819  14.110  1.00  0.00     0.014 C 
HETATM    5  C   UNL     1     -45.203 -53.916  13.321  1.00  0.00     0.007 C 
HETATM    6  C   UNL     1     -45.583 -52.601  12.630  1.00  0.00     0.005 C 
HETATM    7  C   UNL     1     -45.605 -51.405  13.593  1.00  0.00    -0.019 C 
HETATM    8  C   UNL     1     -46.831 -51.461  14.509  1.00  0.00     0.010 C 
HETATM    9  C   UNL     1     -44.305 -51.315  14.404  1.00  0.00     0.005 C 
HETATM   10  C   UNL     1     -43.939 -52.632  15.089  1.00  0.00     0.007 C 
ENDBRANCH   3   4
ENDBRANCH   1   3
BRANCH   1  11
HETATM   11  C   UNL     1     -40.804 -52.240  13.396  1.00  0.00     0.274 C 
BRANCH  11  12
HETATM   12  C   UNL     1     -41.271 -51.747  12.015  1.00  0.00     0.072 C 
BRANCH  12  13
HETATM   13  C   UNL     1     -41.225 -50.267  11.897  1.00  0.00    -0.016 A 
HETATM   14  C   UNL     1     -42.316 -49.376  11.960  1.00  0.00     0.116 A 
HETATM   15  N   UNL     1     -41.943 -48.104  11.839  1.00  0.00    -0.309 N 
HETATM   16  N   UNL     1     -40.604 -48.172  11.717  1.00  0.00    -0.301 N 
ATOM     17  HN  UNL     1     -42.533 -47.272  11.839  1.00  0.00     0.186 HD
HETATM   18  C   UNL     1     -39.847 -46.947  11.610  1.00  0.00     0.177 C 
HETATM   19  C   UNL     1     -40.120 -49.456  11.725  1.00  0.00     0.032 A 
HETATM   20  C   UNL     1     -38.684 -49.812  11.605  1.00  0.00     0.070 C 
ENDBRANCH  12  13
ENDBRANCH  11  12
ENDBRANCH   1  11
TORSDOF 5
ENDMDL
MODEL 8
REMARK VINA RESULT:      -4.8      2.356      6.598
REMARK  5 active torsions:
REMARK  status: ('A' for Active; 'I' for Inactive)
REMARK    1  A    between atoms: C_5  and  C_6 
REMARK    2  A    between atoms: C_6  and  N_7 
REMARK    3  A    between atoms: N_7  and  C_8 
REMARK    4  A    between atoms: C_8  and  C_9 
REMARK    5  A    between atoms: C_9  and  C_10 
ROOT
HETATM    1  N   UNL     1     -45.037 -51.762  12.550  1.00  0.00     0.084 N 
HETATM    2  H   UNL     1     -45.144 -51.591  11.550  1.00  0.00     0.315 HD
ENDROOT
BRANCH   1   3
HETATM    3  C   UNL     1     -43.961 -52.730  12.759  1.00  0.00     0.274 C 
BRANCH   3   4
HETATM    4  C   UNL     1     -42.824 -52.164  13.630  1.00  0.00     0.014 C 
HETATM    5  C   UNL     1     -41.604 -51.848  12.743  1.00  0.00     0.007 C 
HETATM    6  C   UNL     1     -40.893 -53.108  12.237  1.00  0.00     0.005 C 
HETATM    7  C   UNL     1     -40.514 -54.076  13.367  1.00  0.00    -0.019 C 
HETATM    8  C   UNL     1     -39.328 -53.540  14.174  1.00  0.00     0.010 C 
HETATM    9  C   UNL     1     -41.716 -54.376  14.273  1.00  0.00     0.005 C 
HETATM   10  C   UNL     1     -42.416 -53.111  14.773  1.00  0.00     0.007 C 
ENDBRANCH   3   4
ENDBRANCH   1   3
BRANCH   1  11
HETATM   11  C   UNL     1     -46.314 -52.235  13.098  1.00  0.00     0.274 C 
BRANCH  11  12
HETATM   12  C   UNL     1     -46.796 -51.427  14.315  1.00  0.00     0.072 C 
BRANCH  12  13
HETATM   13  C   UNL     1     -46.637 -52.174  15.588  1.00  0.00    -0.016 A 
HETATM   14  C   UNL     1     -45.921 -53.373  15.786  1.00  0.00     0.116 A 
HETATM   15  N   UNL     1     -45.952 -53.783  17.053  1.00  0.00    -0.309 N 
HETATM   16  N   UNL     1     -46.675 -52.835  17.679  1.00  0.00    -0.301 N 
ATOM     17  HN  UNL     1     -45.528 -54.619  17.454  1.00  0.00     0.186 HD
HETATM   18  C   UNL     1     -46.876 -52.936  19.105  1.00  0.00     0.177 C 
HETATM   19  C   UNL     1     -47.131 -51.851  16.838  1.00  0.00     0.032 A 
HETATM   20  C   UNL     1     -47.950 -50.692  17.270  1.00  0.00     0.070 C 
ENDBRANCH  12  13
ENDBRANCH  11  12
ENDBRANCH   1  11
TORSDOF 5
ENDMDL
MODEL 9
REMARK VINA RESULT:      -4.8      2.540      3.951
REMARK  5 active torsions:
REMARK  status: ('A' for Active; 'I' for Inactive)
REMARK    1  A    between atoms: C_5  and  C_6 
REMARK    2  A    between atoms: C_6  and  N_7 
REMARK    3  A    between atoms: N_7  and  C_8 
REMARK    4  A    between atoms: C_8  and  C_9 
REMARK    5  A    between atoms: C_9  and  C_10 
ROOT
HETATM    1  N   UNL     1     -43.114 -50.759  12.403  1.00  0.00     0.084 N 
HETATM    2  H   UNL     1     -43.233 -49.999  11.734  1.00  0.00     0.315 HD
ENDROOT
BRANCH   1   3
HETATM    3  C   UNL     1     -44.083 -50.601  13.488  1.00  0.00     0.274 C 
BRANCH   3   4
HETATM    4  C   UNL     1     -45.388 -51.376  13.226  1.00  0.00     0.014 C 
HETATM    5  C   UNL     1     -46.184 -51.502  14.539  1.00  0.00     0.007 C 
HETATM    6  C   UNL     1     -45.541 -52.474  15.535  1.00  0.00     0.005 C 
HETATM    7  C   UNL     1     -45.262 -53.856  14.928  1.00  0.00    -0.019 C 
HETATM    8  C   UNL     1     -46.561 -54.649  14.750  1.00  0.00     0.010 C 
HETATM    9  C   UNL     1     -44.493 -53.741  13.605  1.00  0.00     0.005 C 
HETATM   10  C   UNL     1     -45.145 -52.770  12.619  1.00  0.00     0.007 C 
ENDBRANCH   3   4
ENDBRANCH   1   3
BRANCH   1  11
HETATM   11  C   UNL     1     -41.732 -50.754  12.899  1.00  0.00     0.274 C 
BRANCH  11  12
HETATM   12  C   UNL     1     -40.690 -50.457  11.806  1.00  0.00     0.072 C 
BRANCH  12  13
HETATM   13  C   UNL     1     -40.688 -49.028  11.400  1.00  0.00    -0.016 A 
HETATM   14  C   UNL     1     -41.493 -48.425  10.412  1.00  0.00     0.116 A 
HETATM   15  N   UNL     1     -41.267 -47.118  10.297  1.00  0.00    -0.309 N 
HETATM   16  N   UNL     1     -40.325 -46.873  11.228  1.00  0.00    -0.301 N 
ATOM     17  HN  UNL     1     -41.704 -46.457   9.655  1.00  0.00     0.186 HD
HETATM   18  C   UNL     1     -39.864 -45.517  11.417  1.00  0.00     0.177 C 
HETATM   19  C   UNL     1     -39.925 -47.995  11.909  1.00  0.00     0.032 A 
HETATM   20  C   UNL     1     -38.901 -48.004  12.983  1.00  0.00     0.070 C 
ENDBRANCH  12  13
ENDBRANCH  11  12
ENDBRANCH   1  11
TORSDOF 5
ENDMDL
