MODEL 1
REMARK VINA RESULT:      -7.3      0.000      0.000
REMARK  7 active torsions:
REMARK  status: ('A' for Active; 'I' for Inactive)
REMARK    1  A    between atoms: N_1  and  C_5 
REMARK    2  A    between atoms: N_3  and  C_17 
REMARK    3  A    between atoms: N_4  and  C_18 
REMARK    4  A    between atoms: C_17  and  C_19 
REMARK    5  A    between atoms: C_18  and  C_20 
REMARK    6  A    between atoms: C_19  and  C_26 
REMARK    7  A    between atoms: C_26  and  O_27 
ROOT
HETATM    1  C   UNL     1     -41.237 -50.242  11.804  1.00  0.00     0.122 A 
HETATM    2  N   UNL     1     -41.303 -52.270  12.689  1.00  0.00    -0.326 N 
HETATM    3  C   UNL     1     -40.583 -49.107  11.248  1.00  0.00     0.137 A 
HETATM    4  C   UNL     1     -40.438 -51.275  12.290  1.00  0.00     0.140 A 
HETATM    5  N   UNL     1     -42.568 -50.565  11.975  1.00  0.00    -0.346 N 
ATOM      6  HN  UNL     1     -43.379 -50.002  11.719  1.00  0.00     0.167 HD
HETATM    7  C   UNL     1     -42.569 -51.757  12.541  1.00  0.00     0.185 A 
HETATM    8  N   UNL     1     -39.096 -51.329  12.294  1.00  0.00    -0.336 N 
ATOM      9  HN  UNL     1     -38.550 -52.116  12.645  1.00  0.00     0.168 HD
HETATM   10  N   UNL     1     -39.217 -49.135  11.264  1.00  0.00    -0.337 N 
ATOM     11  HN  UNL     1     -38.687 -48.347  10.892  1.00  0.00     0.168 HD
HETATM   12  C   UNL     1     -38.570 -50.204  11.772  1.00  0.00     0.183 A 
ENDROOT
BRANCH   2  13
HETATM   13  C   UNL     1     -40.942 -53.647  13.090  1.00  0.00     0.143 C 
BRANCH  13  14
HETATM   14  C   UNL     1     -40.580 -53.795  14.621  1.00  0.00     0.001 C 
HETATM   15  C   UNL     1     -41.530 -54.838  15.254  1.00  0.00     0.039 C 
HETATM   16  C   UNL     1     -42.917 -54.221  15.478  1.00  0.00     0.168 C 
HETATM   17  O   UNL     1     -42.817 -53.259  16.516  1.00  0.00    -0.391 OA
HETATM   18  C   UNL     1     -42.049 -52.130  16.128  1.00  0.00     0.168 C 
HETATM   19  C   UNL     1     -40.691 -52.507  15.519  1.00  0.00     0.039 C 
BRANCH  14  20
HETATM   20  C   UNL     1     -39.074 -54.176  14.705  1.00  0.00     0.175 C 
BRANCH  20  21
HETATM   21  O   UNL     1     -38.543 -54.319  13.383  1.00  0.00    -0.400 OA
HETATM   22  H   UNL     1     -37.740 -53.764  13.310  1.00  0.00     0.209 HD
ENDBRANCH  20  21
ENDBRANCH  14  20
ENDBRANCH  13  14
ENDBRANCH   2  13
BRANCH   3  23
HETATM   23  N   UNL     1     -41.194 -48.006  10.689  1.00  0.00    -0.340 N 
HETATM   24  C   UNL     1     -42.306 -48.069   9.767  1.00  0.00     0.254 A 
HETATM   25  N   UNL     1     -42.957 -46.797   9.930  1.00  0.00    -0.334 N 
HETATM   26  C   UNL     1     -42.337 -45.982  10.863  1.00  0.00     0.239 A 
HETATM   27  C   UNL     1     -41.138 -46.719  11.380  1.00  0.00     0.229 A 
HETATM   28  O   UNL     1     -42.719 -44.868  11.209  1.00  0.00    -0.271 OA
BRANCH  25  29
HETATM   29  C   UNL     1     -44.164 -46.441   9.224  1.00  0.00     0.132 C 
BRANCH  29  30
HETATM   30  C   UNL     1     -45.280 -47.402   9.509  1.00  0.00     0.004 A 
HETATM   31  C   UNL     1     -45.959 -48.159   8.394  1.00  0.00     0.007 A 
HETATM   32  C   UNL     1     -46.699 -47.063   9.106  1.00  0.00     0.007 A 
ENDBRANCH  29  30
ENDBRANCH  25  29
ENDBRANCH   3  23
TORSDOF 7
ENDMDL
MODEL 2
REMARK VINA RESULT:      -7.2      1.213      1.571
REMARK  7 active torsions:
REMARK  status: ('A' for Active; 'I' for Inactive)
REMARK    1  A    between atoms: N_1  and  C_5 
REMARK    2  A    between atoms: N_3  and  C_17 
REMARK    3  A    between atoms: N_4  and  C_18 
REMARK    4  A    between atoms: C_17  and  C_19 
REMARK    5  A    between atoms: C_18  and  C_20 
REMARK    6  A    between atoms: C_19  and  C_26 
REMARK    7  A    between atoms: C_26  and  O_27 
ROOT
HETATM    1  C   UNL     1     -41.414 -49.457  12.456  1.00  0.00     0.122 A 
HETATM    2  N   UNL     1     -41.528 -51.018  14.021  1.00  0.00    -0.326 N 
HETATM    3  C   UNL     1     -40.765 -48.716  11.429  1.00  0.00     0.137 A 
HETATM    4  C   UNL     1     -40.656 -50.392  13.157  1.00  0.00     0.140 A 
HETATM    5  N   UNL     1     -42.708 -49.453  12.938  1.00  0.00    -0.346 N 
ATOM      6  HN  UNL     1     -43.484 -48.871  12.622  1.00  0.00     0.167 HD
HETATM    7  C   UNL     1     -42.728 -50.362  13.894  1.00  0.00     0.185 A 
HETATM    8  N   UNL     1     -39.359 -50.687  12.973  1.00  0.00    -0.336 N 
ATOM      9  HN  UNL     1     -38.846 -51.395  13.499  1.00  0.00     0.168 HD
HETATM   10  N   UNL     1     -39.438 -48.987  11.243  1.00  0.00    -0.337 N 
ATOM     11  HN  UNL     1     -38.910 -48.482  10.531  1.00  0.00     0.168 HD
HETATM   12  C   UNL     1     -38.827 -49.921  12.000  1.00  0.00     0.183 A 
ENDROOT
BRANCH   2  13
HETATM   13  C   UNL     1     -41.252 -52.220  14.838  1.00  0.00     0.143 C 
BRANCH  13  14
HETATM   14  C   UNL     1     -41.469 -53.583  14.068  1.00  0.00     0.001 C 
HETATM   15  C   UNL     1     -42.828 -53.522  13.333  1.00  0.00     0.039 C 
HETATM   16  C   UNL     1     -43.978 -53.718  14.330  1.00  0.00     0.168 C 
HETATM   17  O   UNL     1     -43.956 -55.064  14.779  1.00  0.00    -0.391 OA
HETATM   18  C   UNL     1     -42.817 -55.343  15.579  1.00  0.00     0.168 C 
HETATM   19  C   UNL     1     -41.499 -54.902  14.925  1.00  0.00     0.039 C 
BRANCH  14  20
HETATM   20  C   UNL     1     -40.247 -53.781  13.126  1.00  0.00     0.175 C 
BRANCH  20  21
HETATM   21  O   UNL     1     -40.617 -53.442  11.786  1.00  0.00    -0.400 OA
HETATM   22  H   UNL     1     -40.480 -52.480  11.660  1.00  0.00     0.209 HD
ENDBRANCH  20  21
ENDBRANCH  14  20
ENDBRANCH  13  14
ENDBRANCH   2  13
BRANCH   3  23
HETATM   23  N   UNL     1     -41.347 -47.776  10.607  1.00  0.00    -0.340 N 
HETATM   24  C   UNL     1     -42.524 -48.013   9.801  1.00  0.00     0.254 A 
HETATM   25  N   UNL     1     -43.085 -46.702   9.622  1.00  0.00    -0.334 N 
HETATM   26  C   UNL     1     -42.353 -45.705  10.247  1.00  0.00     0.239 A 
HETATM   27  C   UNL     1     -41.167 -46.354  10.893  1.00  0.00     0.229 A 
HETATM   28  O   UNL     1     -42.644 -44.512  10.274  1.00  0.00    -0.271 OA
BRANCH  25  29
HETATM   29  C   UNL     1     -44.317 -46.470   8.906  1.00  0.00     0.132 C 
BRANCH  29  30
HETATM   30  C   UNL     1     -45.426 -47.344   9.409  1.00  0.00     0.004 A 
HETATM   31  C   UNL     1     -46.192 -48.246   8.472  1.00  0.00     0.007 A 
HETATM   32  C   UNL     1     -46.864 -47.033   9.049  1.00  0.00     0.007 A 
ENDBRANCH  29  30
ENDBRANCH  25  29
ENDBRANCH   3  23
TORSDOF 7
ENDMDL
MODEL 3
REMARK VINA RESULT:      -6.8      2.550      7.342
REMARK  7 active torsions:
REMARK  status: ('A' for Active; 'I' for Inactive)
REMARK    1  A    between atoms: N_1  and  C_5 
REMARK    2  A    between atoms: N_3  and  C_17 
REMARK    3  A    between atoms: N_4  and  C_18 
REMARK    4  A    between atoms: C_17  and  C_19 
REMARK    5  A    between atoms: C_18  and  C_20 
REMARK    6  A    between atoms: C_19  and  C_26 
REMARK    7  A    between atoms: C_26  and  O_27 
ROOT
HETATM    1  C   UNL     1     -41.925 -48.891  11.674  1.00  0.00     0.122 A 
HETATM    2  N   UNL     1     -41.994 -46.914  10.682  1.00  0.00    -0.326 N 
HETATM    3  C   UNL     1     -41.270 -49.989  12.299  1.00  0.00     0.137 A 
HETATM    4  C   UNL     1     -41.127 -47.879  11.146  1.00  0.00     0.140 A 
HETATM    5  N   UNL     1     -43.256 -48.590  11.467  1.00  0.00    -0.346 N 
ATOM      6  HN  UNL     1     -44.065 -49.146  11.742  1.00  0.00     0.167 HD
HETATM    7  C   UNL     1     -43.258 -47.429  10.839  1.00  0.00     0.185 A 
HETATM    8  N   UNL     1     -39.786 -47.813  11.157  1.00  0.00    -0.336 N 
ATOM      9  HN  UNL     1     -39.241 -47.040  10.773  1.00  0.00     0.168 HD
HETATM   10  N   UNL     1     -39.903 -49.950  12.301  1.00  0.00    -0.337 N 
ATOM     11  HN  UNL     1     -39.372 -50.713  12.721  1.00  0.00     0.168 HD
HETATM   12  C   UNL     1     -39.257 -48.903  11.746  1.00  0.00     0.183 A 
ENDROOT
BRANCH   2  13
HETATM   13  C   UNL     1     -41.639 -45.557  10.213  1.00  0.00     0.143 C 
BRANCH  13  14
HETATM   14  C   UNL     1     -41.781 -44.437  11.320  1.00  0.00     0.001 C 
HETATM   15  C   UNL     1     -40.449 -43.658  11.406  1.00  0.00     0.039 C 
HETATM   16  C   UNL     1     -39.398 -44.488  12.155  1.00  0.00     0.168 C 
HETATM   17  O   UNL     1     -39.775 -44.561  13.521  1.00  0.00    -0.391 OA
HETATM   18  C   UNL     1     -40.954 -45.331  13.711  1.00  0.00     0.168 C 
HETATM   19  C   UNL     1     -42.104 -44.907  12.787  1.00  0.00     0.039 C 
BRANCH  14  20
HETATM   20  C   UNL     1     -43.006 -43.560  10.934  1.00  0.00     0.175 C 
BRANCH  20  21
HETATM   21  O   UNL     1     -43.616 -44.085   9.750  1.00  0.00    -0.400 OA
HETATM   22  H   UNL     1     -42.982 -43.995   9.009  1.00  0.00     0.209 HD
ENDBRANCH  20  21
ENDBRANCH  14  20
ENDBRANCH  13  14
ENDBRANCH   2  13
BRANCH   3  23
HETATM   23  N   UNL     1     -41.879 -51.065  12.907  1.00  0.00    -0.340 N 
HETATM   24  C   UNL     1     -42.717 -50.972  14.081  1.00  0.00     0.254 A 
HETATM   25  N   UNL     1     -43.563 -52.131  13.990  1.00  0.00    -0.334 N 
HETATM   26  C   UNL     1     -43.308 -52.906  12.870  1.00  0.00     0.239 A 
HETATM   27  C   UNL     1     -42.175 -52.264  12.126  1.00  0.00     0.229 A 
HETATM   28  O   UNL     1     -43.917 -53.922  12.548  1.00  0.00    -0.271 OA
BRANCH  25  29
HETATM   29  C   UNL     1     -44.604 -52.417  14.949  1.00  0.00     0.132 C 
BRANCH  29  30
HETATM   30  C   UNL     1     -45.647 -51.340  14.974  1.00  0.00     0.004 A 
HETATM   31  C   UNL     1     -47.023 -51.603  15.535  1.00  0.00     0.007 A 
HETATM   32  C   UNL     1     -46.847 -51.420  14.055  1.00  0.00     0.007 A 
ENDBRANCH  29  30
ENDBRANCH  25  29
ENDBRANCH   3  23
TORSDOF 7
ENDMDL
MODEL 4
REMARK VINA RESULT:      -6.4      1.525      2.801
REMARK  7 active torsions:
REMARK  status: ('A' for Active; 'I' for Inactive)
REMARK    1  A    between atoms: N_1  and  C_5 
REMARK    2  A    between atoms: N_3  and  C_17 
REMARK    3  A    between atoms: N_4  and  C_18 
REMARK    4  A    between atoms: C_17  and  C_19 
REMARK    5  A    between atoms: C_18  and  C_20 
REMARK    6  A    between atoms: C_19  and  C_26 
REMARK    7  A    between atoms: C_26  and  O_27 
ROOT
HETATM    1  C   UNL     1     -41.819 -50.071  12.103  1.00  0.00     0.122 A 
HETATM    2  N   UNL     1     -41.648 -52.168  12.788  1.00  0.00    -0.326 N 
HETATM    3  C   UNL     1     -41.328 -48.870  11.519  1.00  0.00     0.137 A 
HETATM    4  C   UNL     1     -40.914 -51.112  12.296  1.00  0.00     0.140 A 
HETATM    5  N   UNL     1     -43.069 -50.455  12.544  1.00  0.00    -0.346 N 
ATOM      6  HN  UNL     1     -43.926 -49.901  12.533  1.00  0.00     0.167 HD
HETATM    7  C   UNL     1     -42.921 -51.691  12.983  1.00  0.00     0.185 A 
HETATM    8  N   UNL     1     -39.606 -51.118  11.987  1.00  0.00    -0.336 N 
ATOM      9  HN  UNL     1     -38.982 -51.912  12.130  1.00  0.00     0.168 HD
HETATM   10  N   UNL     1     -39.995 -48.850  11.219  1.00  0.00    -0.337 N 
ATOM     11  HN  UNL     1     -39.577 -48.014  10.810  1.00  0.00     0.168 HD
HETATM   12  C   UNL     1     -39.232 -49.934  11.464  1.00  0.00     0.183 A 
ENDROOT
BRANCH   2  13
HETATM   13  C   UNL     1     -41.183 -53.561  12.968  1.00  0.00     0.143 C 
BRANCH  13  14
HETATM   14  C   UNL     1     -40.462 -53.824  14.350  1.00  0.00     0.001 C 
HETATM   15  C   UNL     1     -41.292 -54.855  15.149  1.00  0.00     0.039 C 
HETATM   16  C   UNL     1     -42.537 -54.184  15.744  1.00  0.00     0.168 C 
HETATM   17  O   UNL     1     -42.121 -53.297  16.769  1.00  0.00    -0.391 OA
HETATM   18  C   UNL     1     -41.400 -52.186  16.256  1.00  0.00     0.168 C 
HETATM   19  C   UNL     1     -40.263 -52.592  15.308  1.00  0.00     0.039 C 
BRANCH  14  20
HETATM   20  C   UNL     1     -39.011 -54.286  14.033  1.00  0.00     0.175 C 
BRANCH  20  21
HETATM   21  O   UNL     1     -38.722 -55.485  14.760  1.00  0.00    -0.400 OA
HETATM   22  H   UNL     1     -38.921 -56.252  14.184  1.00  0.00     0.209 HD
ENDBRANCH  20  21
ENDBRANCH  14  20
ENDBRANCH  13  14
ENDBRANCH   2  13
BRANCH   3  23
HETATM   23  N   UNL     1     -42.068 -47.747  11.219  1.00  0.00    -0.340 N 
HETATM   24  C   UNL     1     -41.968 -46.490  11.926  1.00  0.00     0.254 A 
HETATM   25  N   UNL     1     -42.410 -45.519  10.963  1.00  0.00    -0.334 N 
HETATM   26  C   UNL     1     -42.764 -46.079   9.746  1.00  0.00     0.239 A 
HETATM   27  C   UNL     1     -42.587 -47.563   9.865  1.00  0.00     0.229 A 
HETATM   28  O   UNL     1     -43.136 -45.461   8.753  1.00  0.00    -0.271 OA
BRANCH  25  29
HETATM   29  C   UNL     1     -42.428 -44.101  11.233  1.00  0.00     0.132 C 
BRANCH  29  30
HETATM   30  C   UNL     1     -41.071 -43.486  11.066  1.00  0.00     0.004 A 
HETATM   31  C   UNL     1     -40.097 -43.424  12.217  1.00  0.00     0.007 A 
HETATM   32  C   UNL     1     -40.748 -42.162  11.727  1.00  0.00     0.007 A 
ENDBRANCH  29  30
ENDBRANCH  25  29
ENDBRANCH   3  23
TORSDOF 7
ENDMDL
MODEL 5
REMARK VINA RESULT:      -6.3      3.100      6.733
REMARK  7 active torsions:
REMARK  status: ('A' for Active; 'I' for Inactive)
REMARK    1  A    between atoms: N_1  and  C_5 
REMARK    2  A    between atoms: N_3  and  C_17 
REMARK    3  A    between atoms: N_4  and  C_18 
REMARK    4  A    between atoms: C_17  and  C_19 
REMARK    5  A    between atoms: C_18  and  C_20 
REMARK    6  A    between atoms: C_19  and  C_26 
REMARK    7  A    between atoms: C_26  and  O_27 
ROOT
HETATM    1  C   UNL     1     -42.623 -51.838  12.952  1.00  0.00     0.122 A 
HETATM    2  N   UNL     1     -41.396 -50.424  11.772  1.00  0.00    -0.326 N 
HETATM    3  C   UNL     1     -42.893 -53.087  13.578  1.00  0.00     0.137 A 
HETATM    4  C   UNL     1     -41.461 -51.734  12.191  1.00  0.00     0.140 A 
HETATM    5  N   UNL     1     -43.298 -50.634  12.934  1.00  0.00    -0.346 N 
ATOM      6  HN  UNL     1     -44.180 -50.413  13.398  1.00  0.00     0.167 HD
HETATM    7  C   UNL     1     -42.562 -49.830  12.190  1.00  0.00     0.185 A 
HETATM    8  N   UNL     1     -40.544 -52.692  11.975  1.00  0.00    -0.336 N 
ATOM      9  HN  UNL     1     -39.695 -52.567  11.423  1.00  0.00     0.168 HD
HETATM   10  N   UNL     1     -41.982 -54.080  13.351  1.00  0.00    -0.337 N 
ATOM     11  HN  UNL     1     -42.123 -55.004  13.761  1.00  0.00     0.168 HD
HETATM   12  C   UNL     1     -40.897 -53.840  12.586  1.00  0.00     0.183 A 
ENDROOT
BRANCH   2  13
HETATM   13  C   UNL     1     -40.252 -49.765  11.104  1.00  0.00     0.143 C 
BRANCH  13  14
HETATM   14  C   UNL     1     -39.295 -48.984  12.090  1.00  0.00     0.001 C 
HETATM   15  C   UNL     1     -37.831 -49.329  11.731  1.00  0.00     0.039 C 
HETATM   16  C   UNL     1     -37.478 -50.731  12.243  1.00  0.00     0.168 C 
HETATM   17  O   UNL     1     -37.421 -50.690  13.660  1.00  0.00    -0.391 OA
HETATM   18  C   UNL     1     -38.699 -50.475  14.241  1.00  0.00     0.168 C 
HETATM   19  C   UNL     1     -39.444 -49.280  13.629  1.00  0.00     0.039 C 
BRANCH  14  20
HETATM   20  C   UNL     1     -39.639 -47.472  11.968  1.00  0.00     0.175 C 
BRANCH  20  21
HETATM   21  O   UNL     1     -40.116 -47.196  10.647  1.00  0.00    -0.400 OA
HETATM   22  H   UNL     1     -40.413 -48.037  10.243  1.00  0.00     0.209 HD
ENDBRANCH  20  21
ENDBRANCH  14  20
ENDBRANCH  13  14
ENDBRANCH   2  13
BRANCH   3  23
HETATM   23  N   UNL     1     -43.965 -53.377  14.393  1.00  0.00    -0.340 N 
HETATM   24  C   UNL     1     -44.145 -52.844  15.725  1.00  0.00     0.254 A 
HETATM   25  N   UNL     1     -45.568 -52.903  15.927  1.00  0.00    -0.334 N 
HETATM   26  C   UNL     1     -46.252 -53.422  14.839  1.00  0.00     0.239 A 
HETATM   27  C   UNL     1     -45.236 -53.785  13.799  1.00  0.00     0.229 A 
HETATM   28  O   UNL     1     -47.471 -53.541  14.749  1.00  0.00    -0.271 OA
BRANCH  25  29
HETATM   29  C   UNL     1     -46.208 -52.419  17.127  1.00  0.00     0.132 C 
BRANCH  29  30
HETATM   30  C   UNL     1     -46.812 -51.062  16.926  1.00  0.00     0.004 A 
HETATM   31  C   UNL     1     -47.273 -50.233  18.100  1.00  0.00     0.007 A 
HETATM   32  C   UNL     1     -48.289 -50.840  17.175  1.00  0.00     0.007 A 
ENDBRANCH  29  30
ENDBRANCH  25  29
ENDBRANCH   3  23
TORSDOF 7
ENDMDL
MODEL 6
REMARK VINA RESULT:      -6.2      2.892      3.923
REMARK  7 active torsions:
REMARK  status: ('A' for Active; 'I' for Inactive)
REMARK    1  A    between atoms: N_1  and  C_5 
REMARK    2  A    between atoms: N_3  and  C_17 
REMARK    3  A    between atoms: N_4  and  C_18 
REMARK    4  A    between atoms: C_17  and  C_19 
REMARK    5  A    between atoms: C_18  and  C_20 
REMARK    6  A    between atoms: C_19  and  C_26 
REMARK    7  A    between atoms: C_26  and  O_27 
ROOT
HETATM    1  C   UNL     1     -40.790 -48.931  12.728  1.00  0.00     0.122 A 
HETATM    2  N   UNL     1     -41.930 -50.827  12.675  1.00  0.00    -0.326 N 
HETATM    3  C   UNL     1     -39.665 -48.103  12.453  1.00  0.00     0.137 A 
HETATM    4  C   UNL     1     -40.699 -50.278  12.388  1.00  0.00     0.140 A 
HETATM    5  N   UNL     1     -42.026 -48.675  13.287  1.00  0.00    -0.346 N 
ATOM      6  HN  UNL     1     -42.375 -47.782  13.634  1.00  0.00     0.167 HD
HETATM    7  C   UNL     1     -42.661 -49.833  13.278  1.00  0.00     0.185 A 
HETATM    8  N   UNL     1     -39.656 -50.903  11.818  1.00  0.00    -0.336 N 
ATOM      9  HN  UNL     1     -39.639 -51.892  11.569  1.00  0.00     0.168 HD
HETATM   10  N   UNL     1     -38.585 -48.727  11.894  1.00  0.00    -0.337 N 
ATOM     11  HN  UNL     1     -37.742 -48.193  11.684  1.00  0.00     0.168 HD
HETATM   12  C   UNL     1     -38.635 -50.047  11.620  1.00  0.00     0.183 A 
ENDROOT
BRANCH   2  13
HETATM   13  C   UNL     1     -42.402 -52.181  12.309  1.00  0.00     0.143 C 
BRANCH  13  14
HETATM   14  C   UNL     1     -42.056 -53.292  13.379  1.00  0.00     0.001 C 
HETATM   15  C   UNL     1     -43.292 -54.203  13.558  1.00  0.00     0.039 C 
HETATM   16  C   UNL     1     -44.355 -53.491  14.407  1.00  0.00     0.168 C 
HETATM   17  O   UNL     1     -43.874 -53.396  15.738  1.00  0.00    -0.391 OA
HETATM   18  C   UNL     1     -42.767 -52.513  15.846  1.00  0.00     0.168 C 
HETATM   19  C   UNL     1     -41.661 -52.808  14.823  1.00  0.00     0.039 C 
BRANCH  14  20
HETATM   20  C   UNL     1     -40.787 -54.037  12.877  1.00  0.00     0.175 C 
BRANCH  20  21
HETATM   21  O   UNL     1     -40.568 -53.731  11.496  1.00  0.00    -0.400 OA
HETATM   22  H   UNL     1     -40.712 -54.545  10.971  1.00  0.00     0.209 HD
ENDBRANCH  20  21
ENDBRANCH  14  20
ENDBRANCH  13  14
ENDBRANCH   2  13
BRANCH   3  23
HETATM   23  N   UNL     1     -39.573 -46.748  12.683  1.00  0.00    -0.340 N 
HETATM   24  C   UNL     1     -40.410 -45.754  12.049  1.00  0.00     0.254 A 
HETATM   25  N   UNL     1     -40.392 -44.652  12.974  1.00  0.00    -0.334 N 
HETATM   26  C   UNL     1     -39.622 -44.897  14.100  1.00  0.00     0.239 A 
HETATM   27  C   UNL     1     -39.026 -46.265  13.949  1.00  0.00     0.229 A 
HETATM   28  O   UNL     1     -39.477 -44.133  15.049  1.00  0.00    -0.271 OA
BRANCH  25  29
HETATM   29  C   UNL     1     -41.146 -43.441  12.760  1.00  0.00     0.132 C 
BRANCH  29  30
HETATM   30  C   UNL     1     -40.309 -42.368  12.131  1.00  0.00     0.004 A 
HETATM   31  C   UNL     1     -39.792 -41.207  12.945  1.00  0.00     0.007 A 
HETATM   32  C   UNL     1     -40.876 -40.978  11.930  1.00  0.00     0.007 A 
ENDBRANCH  29  30
ENDBRANCH  25  29
ENDBRANCH   3  23
TORSDOF 7
ENDMDL
MODEL 7
REMARK VINA RESULT:      -6.2      2.720      7.257
REMARK  7 active torsions:
REMARK  status: ('A' for Active; 'I' for Inactive)
REMARK    1  A    between atoms: N_1  and  C_5 
REMARK    2  A    between atoms: N_3  and  C_17 
REMARK    3  A    between atoms: N_4  and  C_18 
REMARK    4  A    between atoms: C_17  and  C_19 
REMARK    5  A    between atoms: C_18  and  C_20 
REMARK    6  A    between atoms: C_19  and  C_26 
REMARK    7  A    between atoms: C_26  and  O_27 
ROOT
HETATM    1  C   UNL     1     -41.911 -49.761  11.966  1.00  0.00     0.122 A 
HETATM    2  N   UNL     1     -41.650 -47.692  11.227  1.00  0.00    -0.326 N 
HETATM    3  C   UNL     1     -41.451 -51.052  12.352  1.00  0.00     0.137 A 
HETATM    4  C   UNL     1     -40.976 -48.875  11.436  1.00  0.00     0.140 A 
HETATM    5  N   UNL     1     -43.152 -49.159  12.006  1.00  0.00    -0.346 N 
ATOM      6  HN  UNL     1     -44.026 -49.566  12.340  1.00  0.00     0.167 HD
HETATM    7  C   UNL     1     -42.968 -47.945  11.521  1.00  0.00     0.185 A 
HETATM    8  N   UNL     1     -39.665 -49.096  11.244  1.00  0.00    -0.336 N 
ATOM      9  HN  UNL     1     -39.012 -48.408  10.869  1.00  0.00     0.168 HD
HETATM   10  N   UNL     1     -40.124 -51.303  12.143  1.00  0.00    -0.337 N 
ATOM     11  HN  UNL     1     -39.733 -52.213  12.386  1.00  0.00     0.168 HD
HETATM   12  C   UNL     1     -39.331 -50.347  11.616  1.00  0.00     0.183 A 
ENDROOT
BRANCH   2  13
HETATM   13  C   UNL     1     -41.055 -46.387  10.865  1.00  0.00     0.143 C 
BRANCH  13  14
HETATM   14  C   UNL     1     -40.904 -45.390  12.082  1.00  0.00     0.001 C 
HETATM   15  C   UNL     1     -42.294 -44.796  12.407  1.00  0.00     0.039 C 
HETATM   16  C   UNL     1     -42.667 -43.727  11.371  1.00  0.00     0.168 C 
HETATM   17  O   UNL     1     -41.824 -42.602  11.565  1.00  0.00    -0.391 OA
HETATM   18  C   UNL     1     -40.472 -42.883  11.230  1.00  0.00     0.168 C 
HETATM   19  C   UNL     1     -39.940 -44.160  11.895  1.00  0.00     0.039 C 
BRANCH  14  20
HETATM   20  C   UNL     1     -40.265 -46.187  13.255  1.00  0.00     0.175 C 
BRANCH  20  21
HETATM   21  O   UNL     1     -39.149 -45.458  13.775  1.00  0.00    -0.400 OA
HETATM   22  H   UNL     1     -39.211 -45.452  14.753  1.00  0.00     0.209 HD
ENDBRANCH  20  21
ENDBRANCH  14  20
ENDBRANCH  13  14
ENDBRANCH   2  13
BRANCH   3  23
HETATM   23  N   UNL     1     -42.208 -52.051  12.922  1.00  0.00    -0.340 N 
HETATM   24  C   UNL     1     -42.905 -51.929  14.183  1.00  0.00     0.254 A 
HETATM   25  N   UNL     1     -43.971 -52.888  14.079  1.00  0.00    -0.334 N 
HETATM   26  C   UNL     1     -43.975 -53.571  12.874  1.00  0.00     0.239 A 
HETATM   27  C   UNL     1     -42.807 -53.080  12.073  1.00  0.00     0.229 A 
HETATM   28  O   UNL     1     -44.802 -54.410  12.528  1.00  0.00    -0.271 OA
BRANCH  25  29
HETATM   29  C   UNL     1     -44.960 -53.073  15.114  1.00  0.00     0.132 C 
BRANCH  29  30
HETATM   30  C   UNL     1     -46.327 -52.663  14.656  1.00  0.00     0.004 A 
HETATM   31  C   UNL     1     -46.563 -51.316  14.018  1.00  0.00     0.007 A 
HETATM   32  C   UNL     1     -47.089 -51.586  15.400  1.00  0.00     0.007 A 
ENDBRANCH  29  30
ENDBRANCH  25  29
ENDBRANCH   3  23
TORSDOF 7
ENDMDL
MODEL 8
REMARK VINA RESULT:      -6.1      3.164      6.634
REMARK  7 active torsions:
REMARK  status: ('A' for Active; 'I' for Inactive)
REMARK    1  A    between atoms: N_1  and  C_5 
REMARK    2  A    between atoms: N_3  and  C_17 
REMARK    3  A    between atoms: N_4  and  C_18 
REMARK    4  A    between atoms: C_17  and  C_19 
REMARK    5  A    between atoms: C_18  and  C_20 
REMARK    6  A    between atoms: C_19  and  C_26 
REMARK    7  A    between atoms: C_26  and  O_27 
ROOT
HETATM    1  C   UNL     1     -41.297 -51.404  13.198  1.00  0.00     0.122 A 
HETATM    2  N   UNL     1     -40.315 -49.665  12.245  1.00  0.00    -0.326 N 
HETATM    3  C   UNL     1     -41.372 -52.490  14.115  1.00  0.00     0.137 A 
HETATM    4  C   UNL     1     -40.099 -50.698  13.130  1.00  0.00     0.140 A 
HETATM    5  N   UNL     1     -42.207 -50.862  12.312  1.00  0.00    -0.346 N 
ATOM      6  HN  UNL     1     -43.163 -51.173  12.142  1.00  0.00     0.167 HD
HETATM    7  C   UNL     1     -41.576 -49.858  11.734  1.00  0.00     0.185 A 
HETATM    8  N   UNL     1     -38.982 -50.923  13.842  1.00  0.00    -0.336 N 
ATOM      9  HN  UNL     1     -38.129 -50.368  13.772  1.00  0.00     0.168 HD
HETATM   10  N   UNL     1     -40.237 -52.748  14.832  1.00  0.00    -0.337 N 
ATOM     11  HN  UNL     1     -40.220 -53.522  15.497  1.00  0.00     0.168 HD
HETATM   12  C   UNL     1     -39.141 -51.981  14.660  1.00  0.00     0.183 A 
ENDROOT
BRANCH   2  13
HETATM   13  C   UNL     1     -39.414 -48.521  11.982  1.00  0.00     0.143 C 
BRANCH  13  14
HETATM   14  C   UNL     1     -39.890 -47.165  12.640  1.00  0.00     0.001 C 
HETATM   15  C   UNL     1     -38.871 -46.763  13.731  1.00  0.00     0.039 C 
HETATM   16  C   UNL     1     -39.071 -47.626  14.984  1.00  0.00     0.168 C 
HETATM   17  O   UNL     1     -40.300 -47.257  15.590  1.00  0.00    -0.391 OA
HETATM   18  C   UNL     1     -41.420 -47.621  14.797  1.00  0.00     0.168 C 
HETATM   19  C   UNL     1     -41.300 -47.155  13.339  1.00  0.00     0.039 C 
BRANCH  14  20
HETATM   20  C   UNL     1     -40.037 -46.123  11.494  1.00  0.00     0.175 C 
BRANCH  20  21
HETATM   21  O   UNL     1     -40.606 -46.756  10.343  1.00  0.00    -0.400 OA
HETATM   22  H   UNL     1     -39.931 -47.346   9.948  1.00  0.00     0.209 HD
ENDBRANCH  20  21
ENDBRANCH  14  20
ENDBRANCH  13  14
ENDBRANCH   2  13
BRANCH   3  23
HETATM   23  N   UNL     1     -42.473 -53.284  14.352  1.00  0.00    -0.340 N 
HETATM   24  C   UNL     1     -43.453 -53.032  15.384  1.00  0.00     0.254 A 
HETATM   25  N   UNL     1     -44.638 -53.686  14.897  1.00  0.00    -0.334 N 
HETATM   26  C   UNL     1     -44.455 -54.304  13.670  1.00  0.00     0.239 A 
HETATM   27  C   UNL     1     -43.024 -54.097  13.270  1.00  0.00     0.229 A 
HETATM   28  O   UNL     1     -45.319 -54.894  13.028  1.00  0.00    -0.271 OA
BRANCH  25  29
HETATM   29  C   UNL     1     -45.897 -53.649  15.601  1.00  0.00     0.132 C 
BRANCH  29  30
HETATM   30  C   UNL     1     -46.868 -52.707  14.955  1.00  0.00     0.004 A 
HETATM   31  C   UNL     1     -46.427 -51.352  14.461  1.00  0.00     0.007 A 
HETATM   32  C   UNL     1     -47.305 -51.450  15.676  1.00  0.00     0.007 A 
ENDBRANCH  29  30
ENDBRANCH  25  29
ENDBRANCH   3  23
TORSDOF 7
ENDMDL
MODEL 9
REMARK VINA RESULT:      -5.9      2.901      7.492
REMARK  7 active torsions:
REMARK  status: ('A' for Active; 'I' for Inactive)
REMARK    1  A    between atoms: N_1  and  C_5 
REMARK    2  A    between atoms: N_3  and  C_17 
REMARK    3  A    between atoms: N_4  and  C_18 
REMARK    4  A    between atoms: C_17  and  C_19 
REMARK    5  A    between atoms: C_18  and  C_20 
REMARK    6  A    between atoms: C_19  and  C_26 
REMARK    7  A    between atoms: C_26  and  O_27 
ROOT
HETATM    1  C   UNL     1     -42.473 -50.982  13.056  1.00  0.00     0.122 A 
HETATM    2  N   UNL     1     -41.678 -49.013  12.434  1.00  0.00    -0.326 N 
HETATM    3  C   UNL     1     -42.502 -52.405  13.077  1.00  0.00     0.137 A 
HETATM    4  C   UNL     1     -41.561 -50.366  12.203  1.00  0.00     0.140 A 
HETATM    5  N   UNL     1     -43.192 -50.022  13.739  1.00  0.00    -0.346 N 
ATOM      6  HN  UNL     1     -43.930 -50.174  14.427  1.00  0.00     0.167 HD
HETATM    7  C   UNL     1     -42.722 -48.864  13.314  1.00  0.00     0.185 A 
HETATM    8  N   UNL     1     -40.684 -50.967  11.381  1.00  0.00    -0.336 N 
ATOM      9  HN  UNL     1     -40.020 -50.475  10.785  1.00  0.00     0.168 HD
HETATM   10  N   UNL     1     -41.632 -53.033  12.230  1.00  0.00    -0.337 N 
ATOM     11  HN  UNL     1     -41.610 -54.052  12.187  1.00  0.00     0.168 HD
HETATM   12  C   UNL     1     -40.802 -52.307  11.453  1.00  0.00     0.183 A 
ENDROOT
BRANCH   2  13
HETATM   13  C   UNL     1     -40.788 -47.948  11.921  1.00  0.00     0.143 C 
BRANCH  13  14
HETATM   14  C   UNL     1     -41.522 -46.878  11.019  1.00  0.00     0.001 C 
HETATM   15  C   UNL     1     -40.465 -45.897  10.461  1.00  0.00     0.039 C 
HETATM   16  C   UNL     1     -40.030 -44.912  11.554  1.00  0.00     0.168 C 
HETATM   17  O   UNL     1     -41.114 -44.038  11.828  1.00  0.00    -0.391 OA
HETATM   18  C   UNL     1     -42.200 -44.711  12.449  1.00  0.00     0.168 C 
HETATM   19  C   UNL     1     -42.622 -45.986  11.705  1.00  0.00     0.039 C 
BRANCH  14  20
HETATM   20  C   UNL     1     -42.306 -47.656   9.924  1.00  0.00     0.175 C 
BRANCH  20  21
HETATM   21  O   UNL     1     -42.681 -46.757   8.875  1.00  0.00    -0.400 OA
HETATM   22  H   UNL     1     -42.365 -45.860   9.108  1.00  0.00     0.209 HD
ENDBRANCH  20  21
ENDBRANCH  14  20
ENDBRANCH  13  14
ENDBRANCH   2  13
BRANCH   3  23
HETATM   23  N   UNL     1     -43.304 -53.194  13.871  1.00  0.00    -0.340 N 
HETATM   24  C   UNL     1     -43.986 -52.730  15.058  1.00  0.00     0.254 A 
HETATM   25  N   UNL     1     -45.098 -53.632  15.188  1.00  0.00    -0.334 N 
HETATM   26  C   UNL     1     -45.142 -54.591  14.188  1.00  0.00     0.239 A 
HETATM   27  C   UNL     1     -43.956 -54.370  13.299  1.00  0.00     0.229 A 
HETATM   28  O   UNL     1     -46.010 -55.449  14.055  1.00  0.00    -0.271 OA
BRANCH  25  29
HETATM   29  C   UNL     1     -46.090 -53.507  16.229  1.00  0.00     0.132 C 
BRANCH  29  30
HETATM   30  C   UNL     1     -47.232 -52.633  15.807  1.00  0.00     0.004 A 
HETATM   31  C   UNL     1     -46.990 -51.334  15.077  1.00  0.00     0.007 A 
HETATM   32  C   UNL     1     -47.474 -51.308  16.500  1.00  0.00     0.007 A 
ENDBRANCH  29  30
ENDBRANCH  25  29
ENDBRANCH   3  23
TORSDOF 7
ENDMDL
