MODEL 1
REMARK VINA RESULT:      -5.8      0.000      0.000
REMARK  3 active torsions:
REMARK  status: ('A' for Active; 'I' for Inactive)
REMARK       I    between atoms: N_5  and  C_8 
REMARK       I    between atoms: C_8  and  N_10 
REMARK    1  A    between atoms: N_10  and  C_11 
REMARK    2  A    between atoms: N_15  and  C_16 
REMARK    3  A    between atoms: C_16  and  C_17 
REMARK       I    between atoms: C_17  and  N_19 
ROOT
HETATM    1  C   UNL     1     -41.791 -48.781  11.301  1.00  0.00     0.070 A 
HETATM    2  C   UNL     1     -42.276 -47.949  10.271  1.00  0.00     0.138 A 
HETATM    3  N   UNL     1     -41.554 -46.832  10.131  1.00  0.00    -0.307 N 
ATOM      4  HN  UNL     1     -41.692 -46.072   9.466  1.00  0.00     0.186 HD
HETATM    5  N   UNL     1     -40.600 -46.947  11.079  1.00  0.00    -0.293 N 
HETATM    6  C   UNL     1     -40.684 -48.120  11.780  1.00  0.00     0.141 A 
ENDROOT
BRANCH   1   7
HETATM    7  N   UNL     1     -42.247 -49.995  11.791  1.00  0.00    -0.306 N 
HETATM    8  C   UNL     1     -42.996 -50.113  12.934  1.00  0.00     0.323 C 
HETATM    9  N   UNL     1     -43.349 -51.400  13.312  1.00  0.00    -0.331 N 
HETATM   10  O   UNL     1     -43.349 -49.144  13.604  1.00  0.00    -0.247 OA
HETATM   11  C   UNL     1     -42.997 -52.675  12.675  1.00  0.00     0.157 C 
HETATM   12  C   UNL     1     -44.235 -51.553  14.470  1.00  0.00     0.157 C 
HETATM   13  C   UNL     1     -44.263 -53.498  12.346  1.00  0.00     0.291 C 
HETATM   14  N   UNL     1     -45.211 -53.670  13.468  1.00  0.00     0.087 N 
HETATM   15  C   UNL     1     -44.720 -54.629  14.456  1.00  0.00     0.310 C 
HETATM   16  C   UNL     1     -45.493 -52.356  14.088  1.00  0.00     0.291 C 
HETATM   17  H   UNL     1     -42.013 -50.801  11.241  1.00  0.00     0.171 HD
ENDBRANCH   1   7
BRANCH   5  18
HETATM   18  C   UNL     1     -39.614 -45.885  11.182  1.00  0.00     0.250 C 
BRANCH  18  19
HETATM   19  C   UNL     1     -39.762 -44.806  10.135  1.00  0.00     0.235 C 
HETATM   20  O   UNL     1     -40.579 -43.892  10.203  1.00  0.00    -0.272 OA
HETATM   21  N   UNL     1     -38.896 -44.864   9.079  1.00  0.00    -0.369 N 
HETATM   22  H   UNL     1     -38.316 -45.668   8.880  1.00  0.00     0.159 HD
HETATM   23  H   UNL     1     -39.008 -44.168   8.351  1.00  0.00     0.159 HD
ENDBRANCH  18  19
ENDBRANCH   5  18
TORSDOF 3
ENDMDL
MODEL 2
REMARK VINA RESULT:      -5.6      3.261      4.200
REMARK  3 active torsions:
REMARK  status: ('A' for Active; 'I' for Inactive)
REMARK       I    between atoms: N_5  and  C_8 
REMARK       I    between atoms: C_8  and  N_10 
REMARK    1  A    between atoms: N_10  and  C_11 
REMARK    2  A    between atoms: N_15  and  C_16 
REMARK    3  A    between atoms: C_16  and  C_17 
REMARK       I    between atoms: C_17  and  N_19 
ROOT
HETATM    1  C   UNL     1     -41.573 -49.551  11.909  1.00  0.00     0.070 A 
HETATM    2  C   UNL     1     -40.893 -49.072  10.769  1.00  0.00     0.138 A 
HETATM    3  N   UNL     1     -41.634 -48.224  10.049  1.00  0.00    -0.307 N 
ATOM      4  HN  UNL     1     -41.379 -47.741   9.188  1.00  0.00     0.186 HD
HETATM    5  N   UNL     1     -42.798 -48.158  10.729  1.00  0.00    -0.293 N 
HETATM    6  C   UNL     1     -42.791 -48.912  11.871  1.00  0.00     0.141 A 
ENDROOT
BRANCH   1   7
HETATM    7  N   UNL     1     -41.195 -50.449  12.893  1.00  0.00    -0.306 N 
HETATM    8  C   UNL     1     -41.198 -51.810  12.714  1.00  0.00     0.323 C 
HETATM    9  N   UNL     1     -40.822 -52.578  13.807  1.00  0.00    -0.331 N 
HETATM   10  O   UNL     1     -41.513 -52.342  11.652  1.00  0.00    -0.247 OA
HETATM   11  C   UNL     1     -40.454 -52.138  15.158  1.00  0.00     0.157 C 
HETATM   12  C   UNL     1     -40.717 -54.029  13.617  1.00  0.00     0.157 C 
HETATM   13  C   UNL     1     -39.066 -52.687  15.560  1.00  0.00     0.291 C 
HETATM   14  N   UNL     1     -38.887 -54.143  15.370  1.00  0.00     0.087 N 
HETATM   15  C   UNL     1     -39.600 -54.917  16.385  1.00  0.00     0.310 C 
HETATM   16  C   UNL     1     -39.312 -54.525  14.005  1.00  0.00     0.291 C 
HETATM   17  H   UNL     1     -40.889 -50.043  13.759  1.00  0.00     0.171 HD
ENDBRANCH   1   7
BRANCH   5  18
HETATM   18  C   UNL     1     -43.837 -47.284  10.212  1.00  0.00     0.250 C 
BRANCH  18  19
HETATM   19  C   UNL     1     -43.693 -46.959   8.744  1.00  0.00     0.235 C 
HETATM   20  O   UNL     1     -43.064 -45.996   8.314  1.00  0.00    -0.272 OA
HETATM   21  N   UNL     1     -44.284 -47.828   7.869  1.00  0.00    -0.369 N 
HETATM   22  H   UNL     1     -44.944 -48.539   8.155  1.00  0.00     0.159 HD
HETATM   23  H   UNL     1     -44.226 -47.601   6.883  1.00  0.00     0.159 HD
ENDBRANCH  18  19
ENDBRANCH   5  18
TORSDOF 3
ENDMDL
MODEL 3
REMARK VINA RESULT:      -5.4      1.357      1.761
REMARK  3 active torsions:
REMARK  status: ('A' for Active; 'I' for Inactive)
REMARK       I    between atoms: N_5  and  C_8 
REMARK       I    between atoms: C_8  and  N_10 
REMARK    1  A    between atoms: N_10  and  C_11 
REMARK    2  A    between atoms: N_15  and  C_16 
REMARK    3  A    between atoms: C_16  and  C_17 
REMARK       I    between atoms: C_17  and  N_19 
ROOT
HETATM    1  C   UNL     1     -41.986 -48.672  11.472  1.00  0.00     0.070 A 
HETATM    2  C   UNL     1     -42.314 -47.976  10.290  1.00  0.00     0.138 A 
HETATM    3  N   UNL     1     -41.539 -46.905  10.094  1.00  0.00    -0.307 N 
ATOM      4  HN  UNL     1     -41.568 -46.239   9.322  1.00  0.00     0.186 HD
HETATM    5  N   UNL     1     -40.706 -46.913  11.157  1.00  0.00    -0.293 N 
HETATM    6  C   UNL     1     -40.917 -47.978  11.990  1.00  0.00     0.141 A 
ENDROOT
BRANCH   1   7
HETATM    7  N   UNL     1     -42.543 -49.798  12.059  1.00  0.00    -0.306 N 
HETATM    8  C   UNL     1     -41.883 -50.996  12.168  1.00  0.00     0.323 C 
HETATM    9  N   UNL     1     -42.588 -52.038  12.753  1.00  0.00    -0.331 N 
HETATM   10  O   UNL     1     -40.729 -51.160  11.777  1.00  0.00    -0.247 OA
HETATM   11  C   UNL     1     -43.971 -52.053  13.242  1.00  0.00     0.157 C 
HETATM   12  C   UNL     1     -41.876 -53.301  12.977  1.00  0.00     0.157 C 
HETATM   13  C   UNL     1     -44.032 -52.511  14.717  1.00  0.00     0.291 C 
HETATM   14  N   UNL     1     -43.313 -53.769  15.016  1.00  0.00     0.087 N 
HETATM   15  C   UNL     1     -44.032 -54.940  14.516  1.00  0.00     0.310 C 
HETATM   16  C   UNL     1     -41.942 -53.702  14.463  1.00  0.00     0.291 C 
HETATM   17  H   UNL     1     -43.469 -49.683  12.428  1.00  0.00     0.171 HD
ENDBRANCH   1   7
BRANCH   5  18
HETATM   18  C   UNL     1     -39.699 -45.869  11.238  1.00  0.00     0.250 C 
BRANCH  18  19
HETATM   19  C   UNL     1     -39.833 -44.803  10.177  1.00  0.00     0.235 C 
HETATM   20  O   UNL     1     -40.685 -43.919  10.197  1.00  0.00    -0.272 OA
HETATM   21  N   UNL     1     -38.914 -44.835   9.165  1.00  0.00    -0.369 N 
HETATM   22  H   UNL     1     -38.295 -45.618   9.002  1.00  0.00     0.159 HD
HETATM   23  H   UNL     1     -39.015 -44.147   8.428  1.00  0.00     0.159 HD
ENDBRANCH  18  19
ENDBRANCH   5  18
TORSDOF 3
ENDMDL
MODEL 4
REMARK VINA RESULT:      -5.4      1.841      2.415
REMARK  3 active torsions:
REMARK  status: ('A' for Active; 'I' for Inactive)
REMARK       I    between atoms: N_5  and  C_8 
REMARK       I    between atoms: C_8  and  N_10 
REMARK    1  A    between atoms: N_10  and  C_11 
REMARK    2  A    between atoms: N_15  and  C_16 
REMARK    3  A    between atoms: C_16  and  C_17 
REMARK       I    between atoms: C_17  and  N_19 
ROOT
HETATM    1  C   UNL     1     -41.670 -49.064  11.378  1.00  0.00     0.070 A 
HETATM    2  C   UNL     1     -40.441 -48.402  11.179  1.00  0.00     0.138 A 
HETATM    3  N   UNL     1     -40.592 -47.196  10.623  1.00  0.00    -0.307 N 
ATOM      4  HN  UNL     1     -39.869 -46.520  10.378  1.00  0.00     0.186 HD
HETATM    5  N   UNL     1     -41.928 -47.083  10.462  1.00  0.00    -0.293 N 
HETATM    6  C   UNL     1     -42.615 -48.167  10.935  1.00  0.00     0.141 A 
ENDROOT
BRANCH   1   7
HETATM    7  N   UNL     1     -41.965 -50.318  11.890  1.00  0.00    -0.306 N 
HETATM    8  C   UNL     1     -42.183 -50.556  13.224  1.00  0.00     0.323 C 
HETATM    9  N   UNL     1     -42.436 -51.872  13.584  1.00  0.00    -0.331 N 
HETATM   10  O   UNL     1     -42.162 -49.667  14.072  1.00  0.00    -0.247 OA
HETATM   11  C   UNL     1     -42.464 -53.069  12.734  1.00  0.00     0.157 C 
HETATM   12  C   UNL     1     -42.774 -52.143  14.985  1.00  0.00     0.157 C 
HETATM   13  C   UNL     1     -43.807 -53.821  12.883  1.00  0.00     0.291 C 
HETATM   14  N   UNL     1     -44.218 -54.105  14.275  1.00  0.00     0.087 N 
HETATM   15  C   UNL     1     -43.429 -55.185  14.867  1.00  0.00     0.310 C 
HETATM   16  C   UNL     1     -44.129 -52.868  15.083  1.00  0.00     0.291 C 
HETATM   17  H   UNL     1     -42.033 -51.058  11.215  1.00  0.00     0.171 HD
ENDBRANCH   1   7
BRANCH   5  18
HETATM   18  C   UNL     1     -42.440 -45.850   9.888  1.00  0.00     0.250 C 
BRANCH  18  19
HETATM   19  C   UNL     1     -43.556 -46.054   8.891  1.00  0.00     0.235 C 
HETATM   20  O   UNL     1     -43.487 -46.819   7.933  1.00  0.00    -0.272 OA
HETATM   21  N   UNL     1     -44.707 -45.352   9.117  1.00  0.00    -0.369 N 
HETATM   22  H   UNL     1     -44.773 -44.594   9.783  1.00  0.00     0.159 HD
HETATM   23  H   UNL     1     -45.450 -45.451   8.435  1.00  0.00     0.159 HD
ENDBRANCH  18  19
ENDBRANCH   5  18
TORSDOF 3
ENDMDL
MODEL 5
REMARK VINA RESULT:      -5.4      2.999      3.411
REMARK  3 active torsions:
REMARK  status: ('A' for Active; 'I' for Inactive)
REMARK       I    between atoms: N_5  and  C_8 
REMARK       I    between atoms: C_8  and  N_10 
REMARK    1  A    between atoms: N_10  and  C_11 
REMARK    2  A    between atoms: N_15  and  C_16 
REMARK    3  A    between atoms: C_16  and  C_17 
REMARK       I    between atoms: C_17  and  N_19 
ROOT
HETATM    1  C   UNL     1     -41.397 -50.416  11.969  1.00  0.00     0.070 A 
HETATM    2  C   UNL     1     -41.396 -49.150  11.348  1.00  0.00     0.138 A 
HETATM    3  N   UNL     1     -40.165 -48.649  11.208  1.00  0.00    -0.307 N 
ATOM      4  HN  UNL     1     -39.891 -47.758  10.794  1.00  0.00     0.186 HD
HETATM    5  N   UNL     1     -39.369 -49.599  11.742  1.00  0.00    -0.293 N 
HETATM    6  C   UNL     1     -40.065 -50.693  12.178  1.00  0.00     0.141 A 
ENDROOT
BRANCH   1   7
HETATM    7  N   UNL     1     -42.434 -51.263  12.325  1.00  0.00    -0.306 N 
HETATM    8  C   UNL     1     -42.757 -51.555  13.627  1.00  0.00     0.323 C 
HETATM    9  N   UNL     1     -43.802 -52.445  13.820  1.00  0.00    -0.331 N 
HETATM   10  O   UNL     1     -42.165 -51.064  14.586  1.00  0.00    -0.247 OA
HETATM   11  C   UNL     1     -44.599 -53.161  12.816  1.00  0.00     0.157 C 
HETATM   12  C   UNL     1     -44.238 -52.698  15.197  1.00  0.00     0.157 C 
HETATM   13  C   UNL     1     -46.109 -52.897  13.016  1.00  0.00     0.291 C 
HETATM   14  N   UNL     1     -46.608 -53.111  14.392  1.00  0.00     0.087 N 
HETATM   15  C   UNL     1     -46.709 -54.533  14.720  1.00  0.00     0.310 C 
HETATM   16  C   UNL     1     -45.740 -52.397  15.354  1.00  0.00     0.291 C 
HETATM   17  H   UNL     1     -42.965 -51.644  11.564  1.00  0.00     0.171 HD
ENDBRANCH   1   7
BRANCH   5  18
HETATM   18  C   UNL     1     -37.934 -49.370  11.726  1.00  0.00     0.250 C 
BRANCH  18  19
HETATM   19  C   UNL     1     -37.148 -50.447  11.018  1.00  0.00     0.235 C 
HETATM   20  O   UNL     1     -36.744 -51.471  11.562  1.00  0.00    -0.272 OA
HETATM   21  N   UNL     1     -36.918 -50.252   9.684  1.00  0.00    -0.369 N 
HETATM   22  H   UNL     1     -37.078 -49.370   9.216  1.00  0.00     0.159 HD
HETATM   23  H   UNL     1     -36.360 -50.949   9.205  1.00  0.00     0.159 HD
ENDBRANCH  18  19
ENDBRANCH   5  18
TORSDOF 3
ENDMDL
MODEL 6
REMARK VINA RESULT:      -5.2      3.151      8.078
REMARK  3 active torsions:
REMARK  status: ('A' for Active; 'I' for Inactive)
REMARK       I    between atoms: N_5  and  C_8 
REMARK       I    between atoms: C_8  and  N_10 
REMARK    1  A    between atoms: N_10  and  C_11 
REMARK    2  A    between atoms: N_15  and  C_16 
REMARK    3  A    between atoms: C_16  and  C_17 
REMARK       I    between atoms: C_17  and  N_19 
ROOT
HETATM    1  C   UNL     1     -39.636 -48.567  12.197  1.00  0.00     0.070 A 
HETATM    2  C   UNL     1     -38.668 -49.455  11.684  1.00  0.00     0.138 A 
HETATM    3  N   UNL     1     -39.130 -50.704  11.566  1.00  0.00    -0.307 N 
ATOM      4  HN  UNL     1     -38.637 -51.528  11.223  1.00  0.00     0.186 HD
HETATM    5  N   UNL     1     -40.403 -50.618  12.007  1.00  0.00    -0.293 N 
HETATM    6  C   UNL     1     -40.758 -49.345  12.362  1.00  0.00     0.141 A 
ENDROOT
BRANCH   1   7
HETATM    7  N   UNL     1     -39.573 -47.216  12.498  1.00  0.00    -0.306 N 
HETATM    8  C   UNL     1     -39.955 -46.229  11.623  1.00  0.00     0.323 C 
HETATM    9  N   UNL     1     -39.802 -44.922  12.061  1.00  0.00    -0.331 N 
HETATM   10  O   UNL     1     -40.412 -46.468  10.508  1.00  0.00    -0.247 OA
HETATM   11  C   UNL     1     -39.245 -44.435  13.329  1.00  0.00     0.157 C 
HETATM   12  C   UNL     1     -40.296 -43.849  11.192  1.00  0.00     0.157 C 
HETATM   13  C   UNL     1     -40.244 -43.503  14.052  1.00  0.00     0.291 C 
HETATM   14  N   UNL     1     -40.798 -42.411  13.221  1.00  0.00     0.087 N 
HETATM   15  C   UNL     1     -39.819 -41.351  12.989  1.00  0.00     0.310 C 
HETATM   16  C   UNL     1     -41.306 -42.964  11.945  1.00  0.00     0.291 C 
HETATM   17  H   UNL     1     -39.245 -46.990  13.419  1.00  0.00     0.171 HD
ENDBRANCH   1   7
BRANCH   5  18
HETATM   18  C   UNL     1     -41.211 -51.825  11.989  1.00  0.00     0.250 C 
BRANCH  18  19
HETATM   19  C   UNL     1     -40.526 -53.032  12.584  1.00  0.00     0.235 C 
HETATM   20  O   UNL     1     -39.573 -52.968  13.356  1.00  0.00    -0.272 OA
HETATM   21  N   UNL     1     -41.044 -54.252  12.247  1.00  0.00    -0.369 N 
HETATM   22  H   UNL     1     -41.714 -54.383  11.501  1.00  0.00     0.159 HD
HETATM   23  H   UNL     1     -40.571 -55.071  12.611  1.00  0.00     0.159 HD
ENDBRANCH  18  19
ENDBRANCH   5  18
TORSDOF 3
ENDMDL
MODEL 7
REMARK VINA RESULT:      -5.1      4.421      6.243
REMARK  3 active torsions:
REMARK  status: ('A' for Active; 'I' for Inactive)
REMARK       I    between atoms: N_5  and  C_8 
REMARK       I    between atoms: C_8  and  N_10 
REMARK    1  A    between atoms: N_10  and  C_11 
REMARK    2  A    between atoms: N_15  and  C_16 
REMARK    3  A    between atoms: C_16  and  C_17 
REMARK       I    between atoms: C_17  and  N_19 
ROOT
HETATM    1  C   UNL     1     -40.087 -47.043  11.867  1.00  0.00     0.070 A 
HETATM    2  C   UNL     1     -40.137 -46.037  10.879  1.00  0.00     0.138 A 
HETATM    3  N   UNL     1     -41.189 -46.169  10.066  1.00  0.00    -0.307 N 
ATOM      4  HN  UNL     1     -41.454 -45.578   9.278  1.00  0.00     0.186 HD
HETATM    5  N   UNL     1     -41.820 -47.267  10.533  1.00  0.00    -0.293 N 
HETATM    6  C   UNL     1     -41.212 -47.802  11.635  1.00  0.00     0.141 A 
ENDROOT
BRANCH   1   7
HETATM    7  N   UNL     1     -39.171 -47.294  12.875  1.00  0.00    -0.306 N 
HETATM    8  C   UNL     1     -39.287 -46.786  14.145  1.00  0.00     0.323 C 
HETATM    9  N   UNL     1     -38.270 -47.104  15.033  1.00  0.00    -0.331 N 
HETATM   10  O   UNL     1     -40.234 -46.087  14.499  1.00  0.00    -0.247 OA
HETATM   11  C   UNL     1     -37.050 -47.883  14.794  1.00  0.00     0.157 C 
HETATM   12  C   UNL     1     -38.417 -46.662  16.424  1.00  0.00     0.157 C 
HETATM   13  C   UNL     1     -36.933 -49.052  15.800  1.00  0.00     0.291 C 
HETATM   14  N   UNL     1     -37.095 -48.676  17.221  1.00  0.00     0.087 N 
HETATM   15  C   UNL     1     -35.920 -47.979  17.739  1.00  0.00     0.310 C 
HETATM   16  C   UNL     1     -38.320 -47.861  17.385  1.00  0.00     0.291 C 
HETATM   17  H   UNL     1     -38.409 -47.900  12.629  1.00  0.00     0.171 HD
ENDBRANCH   1   7
BRANCH   5  18
HETATM   18  C   UNL     1     -43.044 -47.681   9.868  1.00  0.00     0.250 C 
BRANCH  18  19
HETATM   19  C   UNL     1     -43.269 -47.021   8.529  1.00  0.00     0.235 C 
HETATM   20  O   UNL     1     -43.504 -45.824   8.385  1.00  0.00    -0.272 OA
HETATM   21  N   UNL     1     -43.167 -47.828   7.430  1.00  0.00    -0.369 N 
HETATM   22  H   UNL     1     -43.137 -48.838   7.484  1.00  0.00     0.159 HD
HETATM   23  H   UNL     1     -43.352 -47.406   6.528  1.00  0.00     0.159 HD
ENDBRANCH  18  19
ENDBRANCH   5  18
TORSDOF 3
ENDMDL
MODEL 8
REMARK VINA RESULT:      -5.1      2.239      7.839
REMARK  3 active torsions:
REMARK  status: ('A' for Active; 'I' for Inactive)
REMARK       I    between atoms: N_5  and  C_8 
REMARK       I    between atoms: C_8  and  N_10 
REMARK    1  A    between atoms: N_10  and  C_11 
REMARK    2  A    between atoms: N_15  and  C_16 
REMARK    3  A    between atoms: C_16  and  C_17 
REMARK       I    between atoms: C_17  and  N_19 
ROOT
HETATM    1  C   UNL     1     -42.398 -51.918  12.514  1.00  0.00     0.070 A 
HETATM    2  C   UNL     1     -41.472 -52.921  12.156  1.00  0.00     0.138 A 
HETATM    3  N   UNL     1     -41.694 -54.074  12.793  1.00  0.00    -0.307 N 
ATOM      4  HN  UNL     1     -41.174 -54.948  12.713  1.00  0.00     0.186 HD
HETATM    5  N   UNL     1     -42.768 -53.812  13.567  1.00  0.00    -0.293 N 
HETATM    6  C   UNL     1     -43.245 -52.540  13.403  1.00  0.00     0.141 A 
ENDROOT
BRANCH   1   7
HETATM    7  N   UNL     1     -42.514 -50.594  12.122  1.00  0.00    -0.306 N 
HETATM    8  C   UNL     1     -41.657 -49.606  12.537  1.00  0.00     0.323 C 
HETATM    9  N   UNL     1     -41.925 -48.324  12.082  1.00  0.00    -0.331 N 
HETATM   10  O   UNL     1     -40.695 -49.823  13.271  1.00  0.00    -0.247 OA
HETATM   11  C   UNL     1     -43.034 -47.859  11.240  1.00  0.00     0.157 C 
HETATM   12  C   UNL     1     -40.970 -47.265  12.423  1.00  0.00     0.157 C 
HETATM   13  C   UNL     1     -42.508 -47.114   9.992  1.00  0.00     0.291 C 
HETATM   14  N   UNL     1     -41.521 -46.047  10.267  1.00  0.00     0.087 N 
HETATM   15  C   UNL     1     -42.149 -44.857  10.839  1.00  0.00     0.310 C 
HETATM   16  C   UNL     1     -40.454 -46.570  11.150  1.00  0.00     0.291 C 
HETATM   17  H   UNL     1     -43.264 -50.393  11.486  1.00  0.00     0.171 HD
ENDBRANCH   1   7
BRANCH   5  18
HETATM   18  C   UNL     1     -43.292 -54.890  14.389  1.00  0.00     0.250 C 
BRANCH  18  19
HETATM   19  C   UNL     1     -44.780 -54.810  14.632  1.00  0.00     0.235 C 
HETATM   20  O   UNL     1     -45.283 -54.435  15.688  1.00  0.00    -0.272 OA
HETATM   21  N   UNL     1     -45.585 -55.153  13.582  1.00  0.00    -0.369 N 
HETATM   22  H   UNL     1     -45.246 -55.619  12.751  1.00  0.00     0.159 HD
HETATM   23  H   UNL     1     -46.586 -55.139  13.743  1.00  0.00     0.159 HD
ENDBRANCH  18  19
ENDBRANCH   5  18
TORSDOF 3
ENDMDL
MODEL 9
REMARK VINA RESULT:      -5.0      4.645      9.222
REMARK  3 active torsions:
REMARK  status: ('A' for Active; 'I' for Inactive)
REMARK       I    between atoms: N_5  and  C_8 
REMARK       I    between atoms: C_8  and  N_10 
REMARK    1  A    between atoms: N_10  and  C_11 
REMARK    2  A    between atoms: N_15  and  C_16 
REMARK    3  A    between atoms: C_16  and  C_17 
REMARK       I    between atoms: C_17  and  N_19 
ROOT
HETATM    1  C   UNL     1     -40.877 -44.805  11.297  1.00  0.00     0.070 A 
HETATM    2  C   UNL     1     -40.046 -45.769  10.691  1.00  0.00     0.138 A 
HETATM    3  N   UNL     1     -40.725 -46.841  10.272  1.00  0.00    -0.307 N 
ATOM      4  HN  UNL     1     -40.364 -47.672   9.805  1.00  0.00     0.186 HD
HETATM    5  N   UNL     1     -42.002 -46.565  10.613  1.00  0.00    -0.293 N 
HETATM    6  C   UNL     1     -42.143 -45.336  11.199  1.00  0.00     0.141 A 
ENDROOT
BRANCH   1   7
HETATM    7  N   UNL     1     -40.589 -43.582  11.882  1.00  0.00    -0.306 N 
HETATM    8  C   UNL     1     -41.047 -42.384  11.392  1.00  0.00     0.323 C 
HETATM    9  N   UNL     1     -40.645 -41.244  12.072  1.00  0.00    -0.331 N 
HETATM   10  O   UNL     1     -41.775 -42.303  10.405  1.00  0.00    -0.247 OA
HETATM   11  C   UNL     1     -39.756 -41.131  13.234  1.00  0.00     0.157 C 
HETATM   12  C   UNL     1     -41.199 -39.958  11.635  1.00  0.00     0.157 C 
HETATM   13  C   UNL     1     -40.444 -40.363  14.386  1.00  0.00     0.291 C 
HETATM   14  N   UNL     1     -41.045 -39.066  14.005  1.00  0.00     0.087 N 
HETATM   15  C   UNL     1     -40.029 -38.036  13.788  1.00  0.00     0.310 C 
HETATM   16  C   UNL     1     -41.896 -39.243  12.807  1.00  0.00     0.291 C 
HETATM   17  H   UNL     1     -40.033 -43.619  12.717  1.00  0.00     0.171 HD
ENDBRANCH   1   7
BRANCH   5  18
HETATM   18  C   UNL     1     -43.022 -47.542  10.272  1.00  0.00     0.250 C 
BRANCH  18  19
HETATM   19  C   UNL     1     -43.624 -47.347   8.900  1.00  0.00     0.235 C 
HETATM   20  O   UNL     1     -44.555 -46.582   8.663  1.00  0.00    -0.272 OA
HETATM   21  N   UNL     1     -43.053 -48.056   7.881  1.00  0.00    -0.369 N 
HETATM   22  H   UNL     1     -42.399 -48.814   8.030  1.00  0.00     0.159 HD
HETATM   23  H   UNL     1     -43.470 -47.963   6.962  1.00  0.00     0.159 HD
ENDBRANCH  18  19
ENDBRANCH   5  18
TORSDOF 3
ENDMDL
