MODEL 1
REMARK VINA RESULT:      -5.0      0.000      0.000
REMARK  4 active torsions:
REMARK  status: ('A' for Active; 'I' for Inactive)
REMARK    1  A    between atoms: N_7  and  C_8 
REMARK    2  A    between atoms: C_8  and  C_9 
REMARK       I    between atoms: C_9  and  N_11 
REMARK    3  A    between atoms: N_11  and  C_12 
REMARK    4  A    between atoms: C_12  and  C_13 
ROOT
HETATM    1  C   UNL     1     -45.711 -54.059  17.231  1.00  0.00     0.164 C 
HETATM    2  N   UNL     1     -45.957 -53.306  16.018  1.00  0.00    -0.271 N 
HETATM    3  C   UNL     1     -46.776 -52.196  16.079  1.00  0.00     0.252 C 
HETATM    4  O   UNL     1     -47.413 -51.836  17.064  1.00  0.00    -0.268 OA
HETATM    5  C   UNL     1     -46.862 -51.389  14.850  1.00  0.00     0.092 C 
HETATM    6  C   UNL     1     -46.190 -51.774  13.767  1.00  0.00     0.102 C 
HETATM    7  N   UNL     1     -45.466 -52.946  13.739  1.00  0.00    -0.301 N 
HETATM    8  C   UNL     1     -45.356 -53.778  14.852  1.00  0.00     0.331 C 
HETATM    9  O   UNL     1     -44.761 -54.854  14.810  1.00  0.00    -0.246 OA
ENDROOT
BRANCH   7  10
HETATM   10  C   UNL     1     -44.696 -53.278  12.532  1.00  0.00     0.235 C 
BRANCH  10  11
HETATM   11  C   UNL     1     -43.198 -52.973  12.599  1.00  0.00     0.235 C 
HETATM   12  O   UNL     1     -42.788 -51.814  12.600  1.00  0.00    -0.272 OA
HETATM   13  N   UNL     1     -42.373 -54.063  12.746  1.00  0.00    -0.359 N 
HETATM   14  H   UNL     1     -42.791 -54.982  12.844  1.00  0.00     0.162 HD
BRANCH  13  15
HETATM   15  C   UNL     1     -40.937 -53.936  12.829  1.00  0.00     0.127 C 
BRANCH  15  16
HETATM   16  C   UNL     1     -40.494 -54.149  14.243  1.00  0.00     0.003 A 
HETATM   17  C   UNL     1     -39.423 -53.282  14.858  1.00  0.00     0.007 A 
HETATM   18  C   UNL     1     -39.123 -54.715  14.531  1.00  0.00     0.007 A 
ENDBRANCH  15  16
ENDBRANCH  13  15
ENDBRANCH  10  11
ENDBRANCH   7  10
TORSDOF 4
ENDMDL
MODEL 2
REMARK VINA RESULT:      -5.0      1.909      2.246
REMARK  4 active torsions:
REMARK  status: ('A' for Active; 'I' for Inactive)
REMARK    1  A    between atoms: N_7  and  C_8 
REMARK    2  A    between atoms: C_8  and  C_9 
REMARK       I    between atoms: C_9  and  N_11 
REMARK    3  A    between atoms: N_11  and  C_12 
REMARK    4  A    between atoms: C_12  and  C_13 
ROOT
HETATM    1  C   UNL     1     -46.095 -53.400  17.366  1.00  0.00     0.164 C 
HETATM    2  N   UNL     1     -46.127 -52.999  15.973  1.00  0.00    -0.271 N 
HETATM    3  C   UNL     1     -46.856 -51.881  15.619  1.00  0.00     0.252 C 
HETATM    4  O   UNL     1     -47.581 -51.238  16.371  1.00  0.00    -0.268 OA
HETATM    5  C   UNL     1     -46.723 -51.440  14.220  1.00  0.00     0.092 C 
HETATM    6  C   UNL     1     -45.953 -52.136  13.386  1.00  0.00     0.102 C 
HETATM    7  N   UNL     1     -45.326 -53.300  13.775  1.00  0.00    -0.301 N 
HETATM    8  C   UNL     1     -45.423 -53.798  15.073  1.00  0.00     0.331 C 
HETATM    9  O   UNL     1     -44.914 -54.868  15.405  1.00  0.00    -0.246 OA
ENDROOT
BRANCH   7  10
HETATM   10  C   UNL     1     -44.439 -53.983  12.823  1.00  0.00     0.235 C 
BRANCH  10  11
HETATM   11  C   UNL     1     -42.975 -53.539  12.849  1.00  0.00     0.235 C 
HETATM   12  O   UNL     1     -42.192 -53.989  13.683  1.00  0.00    -0.272 OA
HETATM   13  N   UNL     1     -42.591 -52.688  11.839  1.00  0.00    -0.359 N 
HETATM   14  H   UNL     1     -43.267 -52.442  11.124  1.00  0.00     0.162 HD
BRANCH  13  15
HETATM   15  C   UNL     1     -41.242 -52.185  11.727  1.00  0.00     0.127 C 
BRANCH  15  16
HETATM   16  C   UNL     1     -41.215 -50.731  12.081  1.00  0.00     0.003 A 
HETATM   17  C   UNL     1     -40.373 -49.757  11.295  1.00  0.00     0.007 A 
HETATM   18  C   UNL     1     -39.976 -50.123  12.695  1.00  0.00     0.007 A 
ENDBRANCH  15  16
ENDBRANCH  13  15
ENDBRANCH  10  11
ENDBRANCH   7  10
TORSDOF 4
ENDMDL
MODEL 3
REMARK VINA RESULT:      -4.9      3.222      4.804
REMARK  4 active torsions:
REMARK  status: ('A' for Active; 'I' for Inactive)
REMARK    1  A    between atoms: N_7  and  C_8 
REMARK    2  A    between atoms: C_8  and  C_9 
REMARK       I    between atoms: C_9  and  N_11 
REMARK    3  A    between atoms: N_11  and  C_12 
REMARK    4  A    between atoms: C_12  and  C_13 
ROOT
HETATM    1  C   UNL     1     -42.660 -55.361  15.866  1.00  0.00     0.164 C 
HETATM    2  N   UNL     1     -42.943 -54.695  14.610  1.00  0.00    -0.271 N 
HETATM    3  C   UNL     1     -44.251 -54.628  14.173  1.00  0.00     0.252 C 
HETATM    4  O   UNL     1     -45.208 -55.181  14.706  1.00  0.00    -0.268 OA
HETATM    5  C   UNL     1     -44.489 -53.808  12.973  1.00  0.00     0.092 C 
HETATM    6  C   UNL     1     -43.460 -53.214  12.372  1.00  0.00     0.102 C 
HETATM    7  N   UNL     1     -42.163 -53.397  12.801  1.00  0.00    -0.301 N 
HETATM    8  C   UNL     1     -41.852 -54.178  13.912  1.00  0.00     0.331 C 
HETATM    9  O   UNL     1     -40.691 -54.392  14.259  1.00  0.00    -0.246 OA
ENDROOT
BRANCH   7  10
HETATM   10  C   UNL     1     -41.082 -52.660  12.132  1.00  0.00     0.235 C 
BRANCH  10  11
HETATM   11  C   UNL     1     -41.072 -51.148  12.363  1.00  0.00     0.235 C 
HETATM   12  O   UNL     1     -40.730 -50.676  13.446  1.00  0.00    -0.272 OA
HETATM   13  N   UNL     1     -41.381 -50.374  11.270  1.00  0.00    -0.359 N 
HETATM   14  H   UNL     1     -41.550 -50.832  10.380  1.00  0.00     0.162 HD
BRANCH  13  15
HETATM   15  C   UNL     1     -41.409 -48.932  11.329  1.00  0.00     0.127 C 
BRANCH  15  16
HETATM   16  C   UNL     1     -42.784 -48.470  11.701  1.00  0.00     0.003 A 
HETATM   17  C   UNL     1     -43.454 -47.346  10.950  1.00  0.00     0.007 A 
HETATM   18  C   UNL     1     -42.980 -47.123  12.357  1.00  0.00     0.007 A 
ENDBRANCH  15  16
ENDBRANCH  13  15
ENDBRANCH  10  11
ENDBRANCH   7  10
TORSDOF 4
ENDMDL
MODEL 4
REMARK VINA RESULT:      -4.9      2.994      3.956
REMARK  4 active torsions:
REMARK  status: ('A' for Active; 'I' for Inactive)
REMARK    1  A    between atoms: N_7  and  C_8 
REMARK    2  A    between atoms: C_8  and  C_9 
REMARK       I    between atoms: C_9  and  N_11 
REMARK    3  A    between atoms: N_11  and  C_12 
REMARK    4  A    between atoms: C_12  and  C_13 
ROOT
HETATM    1  C   UNL     1     -42.616 -55.261  15.786  1.00  0.00     0.164 C 
HETATM    2  N   UNL     1     -43.084 -54.623  14.571  1.00  0.00    -0.271 N 
HETATM    3  C   UNL     1     -44.443 -54.518  14.356  1.00  0.00     0.252 C 
HETATM    4  O   UNL     1     -45.315 -55.017  15.061  1.00  0.00    -0.268 OA
HETATM    5  C   UNL     1     -44.852 -53.726  13.183  1.00  0.00     0.092 C 
HETATM    6  C   UNL     1     -43.919 -53.191  12.398  1.00  0.00     0.102 C 
HETATM    7  N   UNL     1     -42.575 -53.413  12.611  1.00  0.00    -0.301 N 
HETATM    8  C   UNL     1     -42.108 -54.171  13.683  1.00  0.00     0.331 C 
HETATM    9  O   UNL     1     -40.913 -54.420  13.839  1.00  0.00    -0.246 OA
ENDROOT
BRANCH   7  10
HETATM   10  C   UNL     1     -41.598 -52.739  11.745  1.00  0.00     0.235 C 
BRANCH  10  11
HETATM   11  C   UNL     1     -41.190 -51.330  12.179  1.00  0.00     0.235 C 
HETATM   12  O   UNL     1     -41.476 -50.905  13.297  1.00  0.00    -0.272 OA
HETATM   13  N   UNL     1     -40.423 -50.627  11.281  1.00  0.00    -0.359 N 
HETATM   14  H   UNL     1     -40.137 -51.083  10.421  1.00  0.00     0.162 HD
BRANCH  13  15
HETATM   15  C   UNL     1     -39.957 -49.287  11.549  1.00  0.00     0.127 C 
BRANCH  15  16
HETATM   16  C   UNL     1     -38.467 -49.290  11.689  1.00  0.00     0.003 A 
HETATM   17  C   UNL     1     -37.755 -50.427  12.381  1.00  0.00     0.007 A 
HETATM   18  C   UNL     1     -37.831 -49.082  13.044  1.00  0.00     0.007 A 
ENDBRANCH  15  16
ENDBRANCH  13  15
ENDBRANCH  10  11
ENDBRANCH   7  10
TORSDOF 4
ENDMDL
MODEL 5
REMARK VINA RESULT:      -4.7      1.963      5.620
REMARK  4 active torsions:
REMARK  status: ('A' for Active; 'I' for Inactive)
REMARK    1  A    between atoms: N_7  and  C_8 
REMARK    2  A    between atoms: C_8  and  C_9 
REMARK       I    between atoms: C_9  and  N_11 
REMARK    3  A    between atoms: N_11  and  C_12 
REMARK    4  A    between atoms: C_12  and  C_13 
ROOT
HETATM    1  C   UNL     1     -40.661 -55.308  15.998  1.00  0.00     0.164 C 
HETATM    2  N   UNL     1     -41.192 -54.499  14.919  1.00  0.00    -0.271 N 
HETATM    3  C   UNL     1     -40.360 -53.587  14.299  1.00  0.00     0.252 C 
HETATM    4  O   UNL     1     -39.216 -53.315  14.651  1.00  0.00    -0.268 OA
HETATM    5  C   UNL     1     -40.914 -52.909  13.115  1.00  0.00     0.092 C 
HETATM    6  C   UNL     1     -42.159 -53.180  12.729  1.00  0.00     0.102 C 
HETATM    7  N   UNL     1     -42.974 -54.029  13.446  1.00  0.00    -0.301 N 
HETATM    8  C   UNL     1     -42.534 -54.689  14.592  1.00  0.00     0.331 C 
HETATM    9  O   UNL     1     -43.279 -55.399  15.267  1.00  0.00    -0.246 OA
ENDROOT
BRANCH   7  10
HETATM   10  C   UNL     1     -44.315 -54.334  12.928  1.00  0.00     0.235 C 
BRANCH  10  11
HETATM   11  C   UNL     1     -45.354 -53.222  13.090  1.00  0.00     0.235 C 
HETATM   12  O   UNL     1     -45.963 -52.778  12.118  1.00  0.00    -0.272 OA
HETATM   13  N   UNL     1     -45.611 -52.829  14.382  1.00  0.00    -0.359 N 
HETATM   14  H   UNL     1     -45.146 -53.314  15.142  1.00  0.00     0.162 HD
BRANCH  13  15
HETATM   15  C   UNL     1     -46.568 -51.795  14.697  1.00  0.00     0.127 C 
BRANCH  15  16
HETATM   16  C   UNL     1     -47.013 -51.936  16.119  1.00  0.00     0.003 A 
HETATM   17  C   UNL     1     -48.020 -50.983  16.715  1.00  0.00     0.007 A 
HETATM   18  C   UNL     1     -46.586 -50.919  17.152  1.00  0.00     0.007 A 
ENDBRANCH  15  16
ENDBRANCH  13  15
ENDBRANCH  10  11
ENDBRANCH   7  10
TORSDOF 4
ENDMDL
MODEL 6
REMARK VINA RESULT:      -4.7      2.621      3.997
REMARK  4 active torsions:
REMARK  status: ('A' for Active; 'I' for Inactive)
REMARK    1  A    between atoms: N_7  and  C_8 
REMARK    2  A    between atoms: C_8  and  C_9 
REMARK       I    between atoms: C_9  and  N_11 
REMARK    3  A    between atoms: N_11  and  C_12 
REMARK    4  A    between atoms: C_12  and  C_13 
ROOT
HETATM    1  C   UNL     1     -45.843 -54.515  14.671  1.00  0.00     0.164 C 
HETATM    2  N   UNL     1     -44.584 -54.159  14.047  1.00  0.00    -0.271 N 
HETATM    3  C   UNL     1     -44.605 -53.469  12.851  1.00  0.00     0.252 C 
HETATM    4  O   UNL     1     -45.612 -53.214  12.197  1.00  0.00    -0.268 OA
HETATM    5  C   UNL     1     -43.301 -53.005  12.350  1.00  0.00     0.092 C 
HETATM    6  C   UNL     1     -42.197 -53.287  13.039  1.00  0.00     0.102 C 
HETATM    7  N   UNL     1     -42.230 -54.063  14.178  1.00  0.00    -0.301 N 
HETATM    8  C   UNL     1     -43.421 -54.563  14.702  1.00  0.00     0.331 C 
HETATM    9  O   UNL     1     -43.445 -55.306  15.683  1.00  0.00    -0.246 OA
ENDROOT
BRANCH   7  10
HETATM   10  C   UNL     1     -40.984 -54.283  14.925  1.00  0.00     0.235 C 
BRANCH  10  11
HETATM   11  C   UNL     1     -39.733 -53.636  14.327  1.00  0.00     0.235 C 
HETATM   12  O   UNL     1     -38.991 -54.267  13.577  1.00  0.00    -0.272 OA
HETATM   13  N   UNL     1     -39.556 -52.303  14.614  1.00  0.00    -0.359 N 
HETATM   14  H   UNL     1     -40.266 -51.820  15.154  1.00  0.00     0.162 HD
BRANCH  13  15
HETATM   15  C   UNL     1     -38.426 -51.552  14.118  1.00  0.00     0.127 C 
BRANCH  15  16
HETATM   16  C   UNL     1     -38.806 -50.846  12.854  1.00  0.00     0.003 A 
HETATM   17  C   UNL     1     -37.755 -50.421  11.858  1.00  0.00     0.007 A 
HETATM   18  C   UNL     1     -38.471 -49.383  12.673  1.00  0.00     0.007 A 
ENDBRANCH  15  16
ENDBRANCH  13  15
ENDBRANCH  10  11
ENDBRANCH   7  10
TORSDOF 4
ENDMDL
MODEL 7
REMARK VINA RESULT:      -4.6      2.134      5.846
REMARK  4 active torsions:
REMARK  status: ('A' for Active; 'I' for Inactive)
REMARK    1  A    between atoms: N_7  and  C_8 
REMARK    2  A    between atoms: C_8  and  C_9 
REMARK       I    between atoms: C_9  and  N_11 
REMARK    3  A    between atoms: N_11  and  C_12 
REMARK    4  A    between atoms: C_12  and  C_13 
ROOT
HETATM    1  C   UNL     1     -40.361 -52.405  16.686  1.00  0.00     0.164 C 
HETATM    2  N   UNL     1     -40.441 -52.937  15.339  1.00  0.00    -0.271 N 
HETATM    3  C   UNL     1     -39.617 -53.988  14.989  1.00  0.00     0.252 C 
HETATM    4  O   UNL     1     -38.728 -54.459  15.692  1.00  0.00    -0.268 OA
HETATM    5  C   UNL     1     -39.854 -54.580  13.662  1.00  0.00     0.092 C 
HETATM    6  C   UNL     1     -40.803 -54.070  12.879  1.00  0.00     0.102 C 
HETATM    7  N   UNL     1     -41.529 -52.958  13.247  1.00  0.00    -0.301 N 
HETATM    8  C   UNL     1     -41.347 -52.324  14.474  1.00  0.00     0.331 C 
HETATM    9  O   UNL     1     -41.950 -51.296  14.777  1.00  0.00    -0.246 OA
ENDROOT
BRANCH   7  10
HETATM   10  C   UNL     1     -42.605 -52.487  12.363  1.00  0.00     0.235 C 
BRANCH  10  11
HETATM   11  C   UNL     1     -44.003 -53.022  12.682  1.00  0.00     0.235 C 
HETATM   12  O   UNL     1     -44.354 -54.139  12.308  1.00  0.00    -0.272 OA
HETATM   13  N   UNL     1     -44.784 -52.214  13.475  1.00  0.00    -0.359 N 
HETATM   14  H   UNL     1     -44.388 -51.352  13.834  1.00  0.00     0.162 HD
BRANCH  13  15
HETATM   15  C   UNL     1     -46.124 -52.583  13.867  1.00  0.00     0.127 C 
BRANCH  15  16
HETATM   16  C   UNL     1     -46.730 -51.485  14.683  1.00  0.00     0.003 A 
HETATM   17  C   UNL     1     -46.061 -50.996  15.945  1.00  0.00     0.007 A 
HETATM   18  C   UNL     1     -47.332 -51.788  16.035  1.00  0.00     0.007 A 
ENDBRANCH  15  16
ENDBRANCH  13  15
ENDBRANCH  10  11
ENDBRANCH   7  10
TORSDOF 4
ENDMDL
MODEL 8
REMARK VINA RESULT:      -4.5      3.688      7.097
REMARK  4 active torsions:
REMARK  status: ('A' for Active; 'I' for Inactive)
REMARK    1  A    between atoms: N_7  and  C_8 
REMARK    2  A    between atoms: C_8  and  C_9 
REMARK       I    between atoms: C_9  and  N_11 
REMARK    3  A    between atoms: N_11  and  C_12 
REMARK    4  A    between atoms: C_12  and  C_13 
ROOT
HETATM    1  C   UNL     1     -39.121 -48.881  16.073  1.00  0.00     0.164 C 
HETATM    2  N   UNL     1     -38.859 -49.505  14.792  1.00  0.00    -0.271 N 
HETATM    3  C   UNL     1     -37.608 -50.039  14.555  1.00  0.00     0.252 C 
HETATM    4  O   UNL     1     -36.641 -49.942  15.305  1.00  0.00    -0.268 OA
HETATM    5  C   UNL     1     -37.453 -50.791  13.299  1.00  0.00     0.092 C 
HETATM    6  C   UNL     1     -38.487 -50.892  12.466  1.00  0.00     0.102 C 
HETATM    7  N   UNL     1     -39.685 -50.255  12.713  1.00  0.00    -0.301 N 
HETATM    8  C   UNL     1     -39.902 -49.503  13.866  1.00  0.00     0.331 C 
HETATM    9  O   UNL     1     -40.948 -48.884  14.058  1.00  0.00    -0.246 OA
ENDROOT
BRANCH   7  10
HETATM   10  C   UNL     1     -40.805 -50.462  11.785  1.00  0.00     0.235 C 
BRANCH  10  11
HETATM   11  C   UNL     1     -41.829 -51.516  12.211  1.00  0.00     0.235 C 
HETATM   12  O   UNL     1     -41.564 -52.716  12.155  1.00  0.00    -0.272 OA
HETATM   13  N   UNL     1     -43.005 -51.030  12.730  1.00  0.00    -0.359 N 
HETATM   14  H   UNL     1     -43.112 -50.027  12.843  1.00  0.00     0.162 HD
BRANCH  13  15
HETATM   15  C   UNL     1     -44.067 -51.900  13.180  1.00  0.00     0.127 C 
BRANCH  15  16
HETATM   16  C   UNL     1     -45.354 -51.137  13.234  1.00  0.00     0.003 A 
HETATM   17  C   UNL     1     -46.508 -51.624  14.076  1.00  0.00     0.007 A 
HETATM   18  C   UNL     1     -46.595 -51.696  12.579  1.00  0.00     0.007 A 
ENDBRANCH  15  16
ENDBRANCH  13  15
ENDBRANCH  10  11
ENDBRANCH   7  10
TORSDOF 4
ENDMDL
MODEL 9
REMARK VINA RESULT:      -4.4      3.218      7.179
REMARK  4 active torsions:
REMARK  status: ('A' for Active; 'I' for Inactive)
REMARK    1  A    between atoms: N_7  and  C_8 
REMARK    2  A    between atoms: C_8  and  C_9 
REMARK       I    between atoms: C_9  and  N_11 
REMARK    3  A    between atoms: N_11  and  C_12 
REMARK    4  A    between atoms: C_12  and  C_13 
ROOT
HETATM    1  C   UNL     1     -37.958 -49.686  11.064  1.00  0.00     0.164 C 
HETATM    2  N   UNL     1     -38.688 -50.380  12.106  1.00  0.00    -0.271 N 
HETATM    3  C   UNL     1     -38.012 -51.281  12.904  1.00  0.00     0.252 C 
HETATM    4  O   UNL     1     -36.849 -51.638  12.746  1.00  0.00    -0.268 OA
HETATM    5  C   UNL     1     -38.771 -51.835  14.038  1.00  0.00     0.092 C 
HETATM    6  C   UNL     1     -40.040 -51.472  14.216  1.00  0.00     0.102 C 
HETATM    7  N   UNL     1     -40.689 -50.641  13.328  1.00  0.00    -0.301 N 
HETATM    8  C   UNL     1     -40.049 -50.096  12.217  1.00  0.00     0.331 C 
HETATM    9  O   UNL     1     -40.644 -49.404  11.391  1.00  0.00    -0.246 OA
ENDROOT
BRANCH   7  10
HETATM   10  C   UNL     1     -42.069 -50.228  13.619  1.00  0.00     0.235 C 
BRANCH  10  11
HETATM   11  C   UNL     1     -43.150 -51.261  13.292  1.00  0.00     0.235 C 
HETATM   12  O   UNL     1     -42.885 -52.461  13.247  1.00  0.00    -0.272 OA
HETATM   13  N   UNL     1     -44.424 -50.766  13.144  1.00  0.00    -0.359 N 
HETATM   14  H   UNL     1     -44.584 -49.776  13.300  1.00  0.00     0.162 HD
BRANCH  13  15
HETATM   15  C   UNL     1     -45.550 -51.616  12.839  1.00  0.00     0.127 C 
BRANCH  15  16
HETATM   16  C   UNL     1     -46.609 -51.444  13.883  1.00  0.00     0.003 A 
HETATM   17  C   UNL     1     -46.246 -51.322  15.343  1.00  0.00     0.007 A 
HETATM   18  C   UNL     1     -46.917 -52.568  14.844  1.00  0.00     0.007 A 
ENDBRANCH  15  16
ENDBRANCH  13  15
ENDBRANCH  10  11
ENDBRANCH   7  10
TORSDOF 4
ENDMDL
