MODEL 1
REMARK VINA RESULT:      -6.1      0.000      0.000
REMARK  5 active torsions:
REMARK  status: ('A' for Active; 'I' for Inactive)
REMARK    1  A    between atoms: N_1  and  C_7 
REMARK    2  A    between atoms: N_2  and  C_10 
REMARK    3  A    between atoms: C_7  and  C_9 
REMARK    4  A    between atoms: C_8  and  C_9 
REMARK    5  A    between atoms: C_9  and  O_18 
ROOT
HETATM    1  N   UNL     1     -42.779 -53.075  13.217  1.00  0.00    -0.261 N 
HETATM    2  N   UNL     1     -40.664 -52.103  13.627  1.00  0.00    -0.279 N 
HETATM    3  C   UNL     1     -41.943 -51.967  13.098  1.00  0.00     0.333 C 
HETATM    4  C   UNL     1     -42.525 -54.127  14.094  1.00  0.00     0.291 C 
HETATM    5  C   UNL     1     -41.184 -54.127  14.722  1.00  0.00     0.200 C 
HETATM    6  C   UNL     1     -40.323 -53.154  14.452  1.00  0.00     0.146 C 
HETATM    7  O   UNL     1     -42.292 -50.939  12.520  1.00  0.00    -0.246 OA
HETATM    8  O   UNL     1     -43.329 -55.017  14.360  1.00  0.00    -0.264 OA
HETATM    9  F   UNL     1     -40.876 -55.161  15.528  1.00  0.00    -0.199 F 
ENDROOT
BRANCH   1  10
HETATM   10  C   UNL     1     -44.082 -53.098  12.552  1.00  0.00     0.178 C 
BRANCH  10  11
HETATM   11  C   UNL     1     -45.370 -52.906  13.373  1.00  0.00     0.244 C 
BRANCH  11  12
HETATM   12  C   UNL     1     -46.180 -51.671  12.946  1.00  0.00     0.414 C 
HETATM   13  F   UNL     1     -47.022 -51.231  13.906  1.00  0.00    -0.168 F 
HETATM   14  F   UNL     1     -45.334 -50.643  12.672  1.00  0.00    -0.168 F 
HETATM   15  F   UNL     1     -46.904 -51.894  11.829  1.00  0.00    -0.168 F 
ENDBRANCH  11  12
BRANCH  11  16
HETATM   16  O   UNL     1     -46.137 -54.137  13.243  1.00  0.00    -0.385 OA
HETATM   17  H   UNL     1     -46.125 -54.396  12.300  1.00  0.00     0.210 HD
ENDBRANCH  11  16
ENDBRANCH  10  11
ENDBRANCH   1  10
BRANCH   2  18
HETATM   18  C   UNL     1     -39.682 -51.109  13.225  1.00  0.00     0.232 C 
HETATM   19  O   UNL     1     -38.607 -51.715  12.486  1.00  0.00    -0.366 OA
HETATM   20  C   UNL     1     -37.434 -50.913  12.694  1.00  0.00     0.170 C 
HETATM   21  C   UNL     1     -37.818 -49.782  13.628  1.00  0.00     0.031 C 
HETATM   22  C   UNL     1     -39.014 -50.348  14.356  1.00  0.00     0.056 C 
ENDBRANCH   2  18
TORSDOF 5
ENDMDL
MODEL 2
REMARK VINA RESULT:      -6.0      3.591      5.095
REMARK  5 active torsions:
REMARK  status: ('A' for Active; 'I' for Inactive)
REMARK    1  A    between atoms: N_1  and  C_7 
REMARK    2  A    between atoms: N_2  and  C_10 
REMARK    3  A    between atoms: C_7  and  C_9 
REMARK    4  A    between atoms: C_8  and  C_9 
REMARK    5  A    between atoms: C_9  and  O_18 
ROOT
HETATM    1  N   UNL     1     -39.886 -50.960  12.944  1.00  0.00    -0.261 N 
HETATM    2  N   UNL     1     -40.392 -48.850  12.007  1.00  0.00    -0.279 N 
HETATM    3  C   UNL     1     -40.766 -49.884  12.860  1.00  0.00     0.333 C 
HETATM    4  C   UNL     1     -38.565 -50.897  12.505  1.00  0.00     0.291 C 
HETATM    5  C   UNL     1     -38.209 -49.696  11.715  1.00  0.00     0.200 C 
HETATM    6  C   UNL     1     -39.120 -48.758  11.484  1.00  0.00     0.146 C 
HETATM    7  O   UNL     1     -41.835 -49.859  13.466  1.00  0.00    -0.246 OA
HETATM    8  O   UNL     1     -37.717 -51.756  12.736  1.00  0.00    -0.264 OA
HETATM    9  F   UNL     1     -36.959 -49.627  11.220  1.00  0.00    -0.199 F 
ENDROOT
BRANCH   1  10
HETATM   10  C   UNL     1     -40.258 -52.169  13.680  1.00  0.00     0.178 C 
BRANCH  10  11
HETATM   11  C   UNL     1     -40.928 -53.344  12.944  1.00  0.00     0.244 C 
BRANCH  11  12
HETATM   12  C   UNL     1     -42.463 -53.307  13.021  1.00  0.00     0.414 C 
HETATM   13  F   UNL     1     -42.925 -52.680  14.123  1.00  0.00    -0.168 F 
HETATM   14  F   UNL     1     -42.957 -52.627  11.952  1.00  0.00    -0.168 F 
HETATM   15  F   UNL     1     -43.007 -54.543  12.986  1.00  0.00    -0.168 F 
ENDBRANCH  11  12
BRANCH  11  16
HETATM   16  O   UNL     1     -40.445 -53.308  11.571  1.00  0.00    -0.385 OA
HETATM   17  H   UNL     1     -39.629 -53.846  11.529  1.00  0.00     0.210 HD
ENDBRANCH  11  16
ENDBRANCH  10  11
ENDBRANCH   1  10
BRANCH   2  18
HETATM   18  C   UNL     1     -41.427 -47.894  11.647  1.00  0.00     0.232 C 
HETATM   19  O   UNL     1     -42.159 -48.337  10.492  1.00  0.00    -0.366 OA
HETATM   20  C   UNL     1     -42.647 -47.167   9.815  1.00  0.00     0.170 C 
HETATM   21  C   UNL     1     -42.159 -45.959  10.590  1.00  0.00     0.031 C 
HETATM   22  C   UNL     1     -40.942 -46.496  11.306  1.00  0.00     0.056 C 
ENDBRANCH   2  18
TORSDOF 5
ENDMDL
MODEL 3
REMARK VINA RESULT:      -5.9      3.123      5.760
REMARK  5 active torsions:
REMARK  status: ('A' for Active; 'I' for Inactive)
REMARK    1  A    between atoms: N_1  and  C_7 
REMARK    2  A    between atoms: N_2  and  C_10 
REMARK    3  A    between atoms: C_7  and  C_9 
REMARK    4  A    between atoms: C_8  and  C_9 
REMARK    5  A    between atoms: C_9  and  O_18 
ROOT
HETATM    1  N   UNL     1     -41.486 -51.343  12.955  1.00  0.00    -0.261 N 
HETATM    2  N   UNL     1     -43.132 -52.968  13.436  1.00  0.00    -0.279 N 
HETATM    3  C   UNL     1     -42.837 -51.660  13.068  1.00  0.00     0.333 C 
HETATM    4  C   UNL     1     -40.485 -52.308  12.862  1.00  0.00     0.291 C 
HETATM    5  C   UNL     1     -40.909 -53.699  13.138  1.00  0.00     0.200 C 
HETATM    6  C   UNL     1     -42.177 -53.963  13.430  1.00  0.00     0.146 C 
HETATM    7  O   UNL     1     -43.725 -50.826  12.897  1.00  0.00    -0.246 OA
HETATM    8  O   UNL     1     -39.315 -52.067  12.572  1.00  0.00    -0.264 OA
HETATM    9  F   UNL     1     -39.959 -54.653  13.121  1.00  0.00    -0.199 F 
ENDROOT
BRANCH   1  10
HETATM   10  C   UNL     1     -41.063 -49.960  12.735  1.00  0.00     0.178 C 
BRANCH  10  11
HETATM   11  C   UNL     1     -41.202 -49.323  11.340  1.00  0.00     0.244 C 
BRANCH  11  12
HETATM   12  C   UNL     1     -40.825 -47.832  11.317  1.00  0.00     0.414 C 
HETATM   13  F   UNL     1     -41.308 -47.180  10.238  1.00  0.00    -0.168 F 
HETATM   14  F   UNL     1     -41.345 -47.213  12.410  1.00  0.00    -0.168 F 
HETATM   15  F   UNL     1     -39.489 -47.642  11.355  1.00  0.00    -0.168 F 
ENDBRANCH  11  12
BRANCH  11  16
HETATM   16  O   UNL     1     -40.379 -50.112  10.435  1.00  0.00    -0.385 OA
HETATM   17  H   UNL     1     -40.967 -50.740   9.970  1.00  0.00     0.210 HD
ENDBRANCH  11  16
ENDBRANCH  10  11
ENDBRANCH   1  10
BRANCH   2  18
HETATM   18  C   UNL     1     -44.491 -53.230  13.883  1.00  0.00     0.232 C 
HETATM   19  O   UNL     1     -44.606 -53.069  15.308  1.00  0.00    -0.366 OA
HETATM   20  C   UNL     1     -45.666 -53.928  15.756  1.00  0.00     0.170 C 
HETATM   21  C   UNL     1     -46.198 -54.663  14.541  1.00  0.00     0.031 C 
HETATM   22  C   UNL     1     -45.024 -54.621  13.591  1.00  0.00     0.056 C 
ENDBRANCH   2  18
TORSDOF 5
ENDMDL
MODEL 4
REMARK VINA RESULT:      -5.9      3.251      5.883
REMARK  5 active torsions:
REMARK  status: ('A' for Active; 'I' for Inactive)
REMARK    1  A    between atoms: N_1  and  C_7 
REMARK    2  A    between atoms: N_2  and  C_10 
REMARK    3  A    between atoms: C_7  and  C_9 
REMARK    4  A    between atoms: C_8  and  C_9 
REMARK    5  A    between atoms: C_9  and  O_18 
ROOT
HETATM    1  N   UNL     1     -41.816 -50.954  13.026  1.00  0.00    -0.261 N 
HETATM    2  N   UNL     1     -43.804 -51.691  14.069  1.00  0.00    -0.279 N 
HETATM    3  C   UNL     1     -43.066 -50.633  13.547  1.00  0.00     0.333 C 
HETATM    4  C   UNL     1     -41.436 -52.257  12.709  1.00  0.00     0.291 C 
HETATM    5  C   UNL     1     -42.347 -53.322  13.185  1.00  0.00     0.200 C 
HETATM    6  C   UNL     1     -43.452 -53.006  13.849  1.00  0.00     0.146 C 
HETATM    7  O   UNL     1     -43.485 -49.478  13.588  1.00  0.00    -0.246 OA
HETATM    8  O   UNL     1     -40.424 -52.549  12.076  1.00  0.00    -0.264 OA
HETATM    9  F   UNL     1     -41.984 -54.598  12.954  1.00  0.00    -0.199 F 
ENDROOT
BRANCH   1  10
HETATM   10  C   UNL     1     -40.893 -49.899  12.604  1.00  0.00     0.178 C 
BRANCH  10  11
HETATM   11  C   UNL     1     -41.100 -49.189  11.254  1.00  0.00     0.244 C 
BRANCH  11  12
HETATM   12  C   UNL     1     -40.731 -47.696  11.294  1.00  0.00     0.414 C 
HETATM   13  F   UNL     1     -41.180 -47.069  12.401  1.00  0.00    -0.168 F 
HETATM   14  F   UNL     1     -39.378 -47.561  11.294  1.00  0.00    -0.168 F 
HETATM   15  F   UNL     1     -41.194 -47.025  10.218  1.00  0.00    -0.168 F 
ENDBRANCH  11  12
BRANCH  11  16
HETATM   16  O   UNL     1     -40.317 -49.922  10.270  1.00  0.00    -0.385 OA
HETATM   17  H   UNL     1     -40.083 -49.300   9.552  1.00  0.00     0.210 HD
ENDBRANCH  11  16
ENDBRANCH  10  11
ENDBRANCH   1  10
BRANCH   2  18
HETATM   18  C   UNL     1     -44.940 -51.344  14.908  1.00  0.00     0.232 C 
HETATM   19  O   UNL     1     -44.998 -52.186  16.072  1.00  0.00    -0.366 OA
HETATM   20  C   UNL     1     -46.375 -52.279  16.470  1.00  0.00     0.170 C 
HETATM   21  C   UNL     1     -47.189 -51.471  15.477  1.00  0.00     0.031 C 
HETATM   22  C   UNL     1     -46.304 -51.466  14.253  1.00  0.00     0.056 C 
ENDBRANCH   2  18
TORSDOF 5
ENDMDL
MODEL 5
REMARK VINA RESULT:      -5.7      7.065      8.095
REMARK  5 active torsions:
REMARK  status: ('A' for Active; 'I' for Inactive)
REMARK    1  A    between atoms: N_1  and  C_7 
REMARK    2  A    between atoms: N_2  and  C_10 
REMARK    3  A    between atoms: C_7  and  C_9 
REMARK    4  A    between atoms: C_8  and  C_9 
REMARK    5  A    between atoms: C_9  and  O_18 
ROOT
HETATM    1  N   UNL     1     -42.736 -46.108   9.595  1.00  0.00    -0.261 N 
HETATM    2  N   UNL     1     -42.383 -44.351  11.135  1.00  0.00    -0.279 N 
HETATM    3  C   UNL     1     -43.081 -44.832  10.031  1.00  0.00     0.333 C 
HETATM    4  C   UNL     1     -42.011 -47.008  10.374  1.00  0.00     0.291 C 
HETATM    5  C   UNL     1     -41.410 -46.448  11.605  1.00  0.00     0.200 C 
HETATM    6  C   UNL     1     -41.596 -45.170  11.915  1.00  0.00     0.146 C 
HETATM    7  O   UNL     1     -43.922 -44.144   9.455  1.00  0.00    -0.246 OA
HETATM    8  O   UNL     1     -41.856 -48.195  10.098  1.00  0.00    -0.264 OA
HETATM    9  F   UNL     1     -40.650 -47.269  12.354  1.00  0.00    -0.199 F 
ENDROOT
BRANCH   1  10
HETATM   10  C   UNL     1     -43.289 -46.642   8.349  1.00  0.00     0.178 C 
BRANCH  10  11
HETATM   11  C   UNL     1     -44.264 -47.833   8.386  1.00  0.00     0.244 C 
BRANCH  11  12
HETATM   12  C   UNL     1     -45.653 -47.459   8.928  1.00  0.00     0.414 C 
HETATM   13  F   UNL     1     -46.634 -48.268   8.476  1.00  0.00    -0.168 F 
HETATM   14  F   UNL     1     -45.658 -47.563  10.284  1.00  0.00    -0.168 F 
HETATM   15  F   UNL     1     -45.993 -46.186   8.630  1.00  0.00    -0.168 F 
ENDBRANCH  11  12
BRANCH  11  16
HETATM   16  O   UNL     1     -44.327 -48.365   7.033  1.00  0.00    -0.385 OA
HETATM   17  H   UNL     1     -44.206 -47.618   6.414  1.00  0.00     0.210 HD
ENDBRANCH  11  16
ENDBRANCH  10  11
ENDBRANCH   1  10
BRANCH   2  18
HETATM   18  C   UNL     1     -42.480 -42.924  11.397  1.00  0.00     0.232 C 
HETATM   19  O   UNL     1     -41.228 -42.265  11.136  1.00  0.00    -0.366 OA
HETATM   20  C   UNL     1     -41.162 -41.109  11.987  1.00  0.00     0.170 C 
HETATM   21  C   UNL     1     -42.429 -41.088  12.821  1.00  0.00     0.031 C 
HETATM   22  C   UNL     1     -42.849 -42.539  12.818  1.00  0.00     0.056 C 
ENDBRANCH   2  18
TORSDOF 5
ENDMDL
MODEL 6
REMARK VINA RESULT:      -5.6      3.103      6.146
REMARK  5 active torsions:
REMARK  status: ('A' for Active; 'I' for Inactive)
REMARK    1  A    between atoms: N_1  and  C_7 
REMARK    2  A    between atoms: N_2  and  C_10 
REMARK    3  A    between atoms: C_7  and  C_9 
REMARK    4  A    between atoms: C_8  and  C_9 
REMARK    5  A    between atoms: C_9  and  O_18 
ROOT
HETATM    1  N   UNL     1     -40.686 -51.654  13.772  1.00  0.00    -0.261 N 
HETATM    2  N   UNL     1     -42.980 -52.162  13.520  1.00  0.00    -0.279 N 
HETATM    3  C   UNL     1     -41.917 -51.318  13.214  1.00  0.00     0.333 C 
HETATM    4  C   UNL     1     -40.413 -52.912  14.306  1.00  0.00     0.291 C 
HETATM    5  C   UNL     1     -41.582 -53.804  14.475  1.00  0.00     0.200 C 
HETATM    6  C   UNL     1     -42.790 -53.395  14.107  1.00  0.00     0.146 C 
HETATM    7  O   UNL     1     -42.075 -50.311  12.527  1.00  0.00    -0.246 OA
HETATM    8  O   UNL     1     -39.291 -53.298  14.628  1.00  0.00    -0.264 OA
HETATM    9  F   UNL     1     -41.370 -55.005  15.047  1.00  0.00    -0.199 F 
ENDROOT
BRANCH   1  10
HETATM   10  C   UNL     1     -39.544 -50.748  13.651  1.00  0.00     0.178 C 
BRANCH  10  11
HETATM   11  C   UNL     1     -38.648 -50.799  12.400  1.00  0.00     0.244 C 
BRANCH  11  12
HETATM   12  C   UNL     1     -38.102 -49.421  11.992  1.00  0.00     0.414 C 
HETATM   13  F   UNL     1     -37.481 -48.777  13.002  1.00  0.00    -0.168 F 
HETATM   14  F   UNL     1     -37.181 -49.570  11.003  1.00  0.00    -0.168 F 
HETATM   15  F   UNL     1     -39.068 -48.609  11.512  1.00  0.00    -0.168 F 
ENDBRANCH  11  12
BRANCH  11  16
HETATM   16  O   UNL     1     -37.583 -51.750  12.685  1.00  0.00    -0.385 OA
HETATM   17  H   UNL     1     -36.759 -51.241  12.820  1.00  0.00     0.210 HD
ENDBRANCH  11  16
ENDBRANCH  10  11
ENDBRANCH   1  10
BRANCH   2  18
HETATM   18  C   UNL     1     -44.315 -51.659  13.238  1.00  0.00     0.232 C 
HETATM   19  O   UNL     1     -44.974 -51.239  14.445  1.00  0.00    -0.366 OA
HETATM   20  C   UNL     1     -46.388 -51.394  14.243  1.00  0.00     0.170 C 
HETATM   21  C   UNL     1     -46.587 -51.961  12.850  1.00  0.00     0.031 C 
HETATM   22  C   UNL     1     -45.266 -52.644  12.581  1.00  0.00     0.056 C 
ENDBRANCH   2  18
TORSDOF 5
ENDMDL
MODEL 7
REMARK VINA RESULT:      -5.5      6.427      8.394
REMARK  5 active torsions:
REMARK  status: ('A' for Active; 'I' for Inactive)
REMARK    1  A    between atoms: N_1  and  C_7 
REMARK    2  A    between atoms: N_2  and  C_10 
REMARK    3  A    between atoms: C_7  and  C_9 
REMARK    4  A    between atoms: C_8  and  C_9 
REMARK    5  A    between atoms: C_9  and  O_18 
ROOT
HETATM    1  N   UNL     1     -42.115 -45.404  11.116  1.00  0.00    -0.261 N 
HETATM    2  N   UNL     1     -41.387 -47.637  11.370  1.00  0.00    -0.279 N 
HETATM    3  C   UNL     1     -41.520 -46.369  11.925  1.00  0.00     0.333 C 
HETATM    4  C   UNL     1     -42.850 -45.718   9.975  1.00  0.00     0.291 C 
HETATM    5  C   UNL     1     -42.763 -47.126   9.524  1.00  0.00     0.200 C 
HETATM    6  C   UNL     1     -42.035 -47.999  10.209  1.00  0.00     0.146 C 
HETATM    7  O   UNL     1     -41.094 -46.112  13.050  1.00  0.00    -0.246 OA
HETATM    8  O   UNL     1     -43.541 -44.914   9.352  1.00  0.00    -0.264 OA
HETATM    9  F   UNL     1     -43.408 -47.456   8.390  1.00  0.00    -0.199 F 
ENDROOT
BRANCH   1  10
HETATM   10  C   UNL     1     -42.154 -44.003  11.536  1.00  0.00     0.178 C 
BRANCH  10  11
HETATM   11  C   UNL     1     -40.951 -43.082  11.264  1.00  0.00     0.244 C 
BRANCH  11  12
HETATM   12  C   UNL     1     -40.070 -42.857  12.504  1.00  0.00     0.414 C 
HETATM   13  F   UNL     1     -39.561 -41.609  12.574  1.00  0.00    -0.168 F 
HETATM   14  F   UNL     1     -40.812 -43.037  13.629  1.00  0.00    -0.168 F 
HETATM   15  F   UNL     1     -39.042 -43.730  12.567  1.00  0.00    -0.168 F 
ENDBRANCH  11  12
BRANCH  11  16
HETATM   16  O   UNL     1     -40.208 -43.678  10.163  1.00  0.00    -0.385 OA
HETATM   17  H   UNL     1     -39.365 -44.019  10.523  1.00  0.00     0.210 HD
ENDBRANCH  11  16
ENDBRANCH  10  11
ENDBRANCH   1  10
BRANCH   2  18
HETATM   18  C   UNL     1     -40.484 -48.554  12.048  1.00  0.00     0.232 C 
HETATM   19  O   UNL     1     -39.124 -48.343  11.630  1.00  0.00    -0.366 OA
HETATM   20  C   UNL     1     -38.430 -49.593  11.768  1.00  0.00     0.170 C 
HETATM   21  C   UNL     1     -39.432 -50.615  12.270  1.00  0.00     0.031 C 
HETATM   22  C   UNL     1     -40.751 -50.031  11.820  1.00  0.00     0.056 C 
ENDBRANCH   2  18
TORSDOF 5
ENDMDL
MODEL 8
REMARK VINA RESULT:      -5.5      2.041      2.442
REMARK  5 active torsions:
REMARK  status: ('A' for Active; 'I' for Inactive)
REMARK    1  A    between atoms: N_1  and  C_7 
REMARK    2  A    between atoms: N_2  and  C_10 
REMARK    3  A    between atoms: C_7  and  C_9 
REMARK    4  A    between atoms: C_8  and  C_9 
REMARK    5  A    between atoms: C_9  and  O_18 
ROOT
HETATM    1  N   UNL     1     -41.280 -53.723  14.174  1.00  0.00    -0.261 N 
HETATM    2  N   UNL     1     -39.843 -51.955  13.547  1.00  0.00    -0.279 N 
HETATM    3  C   UNL     1     -41.054 -52.615  13.362  1.00  0.00     0.333 C 
HETATM    4  C   UNL     1     -40.547 -53.979  15.331  1.00  0.00     0.291 C 
HETATM    5  C   UNL     1     -39.343 -53.140  15.524  1.00  0.00     0.200 C 
HETATM    6  C   UNL     1     -39.035 -52.203  14.636  1.00  0.00     0.146 C 
HETATM    7  O   UNL     1     -41.852 -52.259  12.497  1.00  0.00    -0.246 OA
HETATM    8  O   UNL     1     -40.843 -54.833  16.164  1.00  0.00    -0.264 OA
HETATM    9  F   UNL     1     -38.572 -53.398  16.598  1.00  0.00    -0.199 F 
ENDROOT
BRANCH   1  10
HETATM   10  C   UNL     1     -42.442 -54.583  13.950  1.00  0.00     0.178 C 
BRANCH  10  11
HETATM   11  C   UNL     1     -43.807 -54.209  14.555  1.00  0.00     0.244 C 
BRANCH  11  12
HETATM   12  C   UNL     1     -44.981 -54.449  13.591  1.00  0.00     0.414 C 
HETATM   13  F   UNL     1     -46.014 -53.604  13.793  1.00  0.00    -0.168 F 
HETATM   14  F   UNL     1     -44.567 -54.255  12.311  1.00  0.00    -0.168 F 
HETATM   15  F   UNL     1     -45.455 -55.711  13.665  1.00  0.00    -0.168 F 
ENDBRANCH  11  12
BRANCH  11  16
HETATM   16  O   UNL     1     -43.943 -54.973  15.787  1.00  0.00    -0.385 OA
HETATM   17  H   UNL     1     -44.045 -55.914  15.544  1.00  0.00     0.210 HD
ENDBRANCH  11  16
ENDBRANCH  10  11
ENDBRANCH   1  10
BRANCH   2  18
HETATM   18  C   UNL     1     -39.441 -51.023  12.505  1.00  0.00     0.232 C 
HETATM   19  O   UNL     1     -38.067 -51.226  12.134  1.00  0.00    -0.366 OA
HETATM   20  C   UNL     1     -37.555 -49.969  11.664  1.00  0.00     0.170 C 
HETATM   21  C   UNL     1     -38.674 -48.952  11.785  1.00  0.00     0.031 C 
HETATM   22  C   UNL     1     -39.550 -49.551  12.860  1.00  0.00     0.056 C 
ENDBRANCH   2  18
TORSDOF 5
ENDMDL
MODEL 9
REMARK VINA RESULT:      -5.3     21.110     23.099
REMARK  5 active torsions:
REMARK  status: ('A' for Active; 'I' for Inactive)
REMARK    1  A    between atoms: N_1  and  C_7 
REMARK    2  A    between atoms: N_2  and  C_10 
REMARK    3  A    between atoms: C_7  and  C_9 
REMARK    4  A    between atoms: C_8  and  C_9 
REMARK    5  A    between atoms: C_9  and  O_18 
ROOT
HETATM    1  N   UNL     1     -26.487 -43.212  -0.966  1.00  0.00    -0.261 N 
HETATM    2  N   UNL     1     -28.232 -44.406  -2.021  1.00  0.00    -0.279 N 
HETATM    3  C   UNL     1     -27.804 -43.227  -1.420  1.00  0.00     0.333 C 
HETATM    4  C   UNL     1     -25.534 -44.143  -1.372  1.00  0.00     0.291 C 
HETATM    5  C   UNL     1     -26.055 -45.306  -2.125  1.00  0.00     0.200 C 
HETATM    6  C   UNL     1     -27.352 -45.399  -2.392  1.00  0.00     0.146 C 
HETATM    7  O   UNL     1     -28.565 -42.273  -1.263  1.00  0.00    -0.246 OA
HETATM    8  O   UNL     1     -24.330 -44.047  -1.142  1.00  0.00    -0.264 OA
HETATM    9  F   UNL     1     -25.174 -46.261  -2.481  1.00  0.00    -0.199 F 
ENDROOT
BRANCH   1  10
HETATM   10  C   UNL     1     -25.986 -42.087  -0.175  1.00  0.00     0.178 C 
BRANCH  10  11
HETATM   11  C   UNL     1     -25.522 -42.311   1.275  1.00  0.00     0.244 C 
BRANCH  11  12
HETATM   12  C   UNL     1     -26.169 -41.336   2.274  1.00  0.00     0.414 C 
HETATM   13  F   UNL     1     -26.657 -41.949   3.372  1.00  0.00    -0.168 F 
HETATM   14  F   UNL     1     -25.239 -40.444   2.708  1.00  0.00    -0.168 F 
HETATM   15  F   UNL     1     -27.169 -40.622   1.716  1.00  0.00    -0.168 F 
ENDBRANCH  11  12
BRANCH  11  16
HETATM   16  O   UNL     1     -25.812 -43.701   1.598  1.00  0.00    -0.385 OA
HETATM   17  H   UNL     1     -26.607 -43.963   1.093  1.00  0.00     0.210 HD
ENDBRANCH  11  16
ENDBRANCH  10  11
ENDBRANCH   1  10
BRANCH   2  18
HETATM   18  C   UNL     1     -29.667 -44.567  -2.193  1.00  0.00     0.232 C 
HETATM   19  O   UNL     1     -30.119 -45.810  -1.629  1.00  0.00    -0.366 OA
HETATM   20  C   UNL     1     -31.286 -46.218  -2.359  1.00  0.00     0.170 C 
HETATM   21  C   UNL     1     -31.532 -45.179  -3.437  1.00  0.00     0.031 C 
HETATM   22  C   UNL     1     -30.162 -44.572  -3.628  1.00  0.00     0.056 C 
ENDBRANCH   2  18
TORSDOF 5
ENDMDL
