MODEL 1
REMARK VINA RESULT:      -6.1      0.000      0.000
REMARK  8 active torsions:
REMARK  status: ('A' for Active; 'I' for Inactive)
REMARK    1  A    between atoms: CG1_2  and  CB_3 
REMARK    2  A    between atoms: CB_3  and  CA_5 
REMARK    3  A    between atoms: CA_5  and  N_6 
REMARK    4  A    between atoms: CA_5  and  C_7 
REMARK       I    between atoms: N_6  and  C_12 
REMARK    5  A    between atoms: C_7  and  OXT_9 
REMARK    6  A    between atoms: C_12  and  C_14 
REMARK    7  A    between atoms: C_14  and  C_15 
REMARK    8  A    between atoms: N_18  and  C_21 
ROOT
ATOM      1  N   ILE A   1     -42.386 -48.507  10.560  1.00  0.00    -0.346 N 
ATOM      2  H   ILE A   1     -41.657 -48.717   9.885  1.00  0.00     0.163 HD
HETATM    3  C   UNK A   0     -42.332 -49.105  11.799  1.00  0.00     0.224 C 
HETATM    4  O   UNK A   0     -43.084 -48.748  12.708  1.00  0.00    -0.273 OA
ENDROOT
BRANCH   3   5
HETATM    5  C   UNK A   0     -41.242 -50.143  11.977  1.00  0.00     0.161 C 
BRANCH   5   6
HETATM    6  C   UNK A   0     -41.781 -51.474  12.359  1.00  0.00     0.036 A 
HETATM    7  C   UNK A   0     -41.055 -52.644  12.689  1.00  0.00     0.045 A 
HETATM    8  C   UNK A   0     -42.006 -53.618  12.874  1.00  0.00     0.112 A 
HETATM    9  N   UNK A   0     -43.213 -53.016  12.655  1.00  0.00    -0.299 N 
HETATM   10  N   UNK A   0     -43.102 -51.706  12.347  1.00  0.00    -0.302 N 
ATOM     11  HN  UNK A   0     -43.852 -51.043  12.150  1.00  0.00     0.186 HD
BRANCH   9  12
HETATM   12  C   UNK A   0     -44.522 -53.660  12.703  1.00  0.00     0.099 C 
HETATM   13  C   UNK A   0     -44.639 -54.598  13.903  1.00  0.00     0.034 C 
HETATM   14  C   UNK A   0     -45.654 -52.633  12.684  1.00  0.00     0.034 C 
ENDBRANCH   9  12
ENDBRANCH   5   6
ENDBRANCH   3   5
BRANCH   1  15
ATOM     15  CA  ILE A   1     -43.304 -47.399  10.298  1.00  0.00     0.186 C 
BRANCH  15  16
ATOM     16  CB  ILE A   1     -44.269 -47.697   9.124  1.00  0.00     0.014 C 
ATOM     17  CG2 ILE A   1     -43.503 -47.709   7.790  1.00  0.00     0.012 C 
BRANCH  16  18
ATOM     18  CG1 ILE A   1     -45.407 -46.650   9.090  1.00  0.00     0.002 C 
ATOM     19  CD1 ILE A   1     -46.805 -47.250   9.082  1.00  0.00     0.005 C 
ENDBRANCH  16  18
ENDBRANCH  15  16
BRANCH  15  20
ATOM     20  C   ILE A   1     -42.428 -46.159  10.040  1.00  0.00     0.163 C 
ATOM     21  O   ILE A   1     -42.854 -45.023   9.866  1.00  0.00    -0.648 OA
BRANCH  20  22
ATOM     22  OXT ILE A   1     -41.110 -46.461   9.922  1.00  0.00    -0.775 OA
ATOM     23  HXT ILE A   1     -40.884 -46.789   9.018  1.00  0.00     0.167 HD
ENDBRANCH  20  22
ENDBRANCH  15  20
ENDBRANCH   1  15
TORSDOF 8
ENDMDL
MODEL 2
REMARK VINA RESULT:      -5.9      3.179      6.692
REMARK  8 active torsions:
REMARK  status: ('A' for Active; 'I' for Inactive)
REMARK    1  A    between atoms: CG1_2  and  CB_3 
REMARK    2  A    between atoms: CB_3  and  CA_5 
REMARK    3  A    between atoms: CA_5  and  N_6 
REMARK    4  A    between atoms: CA_5  and  C_7 
REMARK       I    between atoms: N_6  and  C_12 
REMARK    5  A    between atoms: C_7  and  OXT_9 
REMARK    6  A    between atoms: C_12  and  C_14 
REMARK    7  A    between atoms: C_14  and  C_15 
REMARK    8  A    between atoms: N_18  and  C_21 
ROOT
ATOM      1  N   ILE A   1     -44.147 -52.713  13.737  1.00  0.00    -0.346 N 
ATOM      2  H   ILE A   1     -43.977 -52.480  14.710  1.00  0.00     0.163 HD
HETATM    3  C   UNK A   0     -43.099 -52.636  12.847  1.00  0.00     0.224 C 
HETATM    4  O   UNK A   0     -43.208 -53.079  11.702  1.00  0.00    -0.273 OA
ENDROOT
BRANCH   3   5
HETATM    5  C   UNK A   0     -41.810 -52.065  13.402  1.00  0.00     0.161 C 
BRANCH   5   6
HETATM    6  C   UNK A   0     -41.255 -50.981  12.550  1.00  0.00     0.036 A 
HETATM    7  C   UNK A   0     -39.895 -50.639  12.355  1.00  0.00     0.045 A 
HETATM    8  C   UNK A   0     -39.916 -49.519  11.559  1.00  0.00     0.112 A 
HETATM    9  N   UNK A   0     -41.234 -49.247  11.322  1.00  0.00    -0.299 N 
HETATM   10  N   UNK A   0     -42.070 -50.130  11.910  1.00  0.00    -0.302 N 
ATOM     11  HN  UNK A   0     -43.090 -50.146  11.875  1.00  0.00     0.186 HD
BRANCH   9  12
HETATM   12  C   UNK A   0     -41.760 -48.126  10.550  1.00  0.00     0.099 C 
HETATM   13  C   UNK A   0     -43.240 -47.889  10.847  1.00  0.00     0.034 C 
HETATM   14  C   UNK A   0     -40.936 -46.857  10.768  1.00  0.00     0.034 C 
ENDBRANCH   9  12
ENDBRANCH   5   6
ENDBRANCH   3   5
BRANCH   1  15
ATOM     15  CA  ILE A   1     -45.404 -53.363  13.366  1.00  0.00     0.186 C 
BRANCH  15  16
ATOM     16  CB  ILE A   1     -46.613 -52.400  13.450  1.00  0.00     0.014 C 
ATOM     17  CG2 ILE A   1     -46.850 -51.715  12.093  1.00  0.00     0.012 C 
BRANCH  16  18
ATOM     18  CG1 ILE A   1     -46.380 -51.347  14.559  1.00  0.00     0.002 C 
ATOM     19  CD1 ILE A   1     -47.251 -51.538  15.792  1.00  0.00     0.005 C 
ENDBRANCH  16  18
ENDBRANCH  15  16
BRANCH  15  20
ATOM     20  C   ILE A   1     -45.556 -54.580  14.298  1.00  0.00     0.163 C 
ATOM     21  O   ILE A   1     -44.625 -55.231  14.760  1.00  0.00    -0.648 OA
BRANCH  20  22
ATOM     22  OXT ILE A   1     -46.851 -54.936  14.492  1.00  0.00    -0.775 OA
ATOM     23  HXT ILE A   1     -46.972 -55.916  14.480  1.00  0.00     0.167 HD
ENDBRANCH  20  22
ENDBRANCH  15  20
ENDBRANCH   1  15
TORSDOF 8
ENDMDL
MODEL 3
REMARK VINA RESULT:      -5.9      3.343      4.635
REMARK  8 active torsions:
REMARK  status: ('A' for Active; 'I' for Inactive)
REMARK    1  A    between atoms: CG1_2  and  CB_3 
REMARK    2  A    between atoms: CB_3  and  CA_5 
REMARK    3  A    between atoms: CA_5  and  N_6 
REMARK    4  A    between atoms: CA_5  and  C_7 
REMARK       I    between atoms: N_6  and  C_12 
REMARK    5  A    between atoms: C_7  and  OXT_9 
REMARK    6  A    between atoms: C_12  and  C_14 
REMARK    7  A    between atoms: C_14  and  C_15 
REMARK    8  A    between atoms: N_18  and  C_21 
ROOT
ATOM      1  N   ILE A   1     -39.982 -51.343  11.881  1.00  0.00    -0.346 N 
ATOM      2  H   ILE A   1     -39.983 -51.689  10.926  1.00  0.00     0.163 HD
HETATM    3  C   UNK A   0     -40.654 -52.059  12.845  1.00  0.00     0.224 C 
HETATM    4  O   UNK A   0     -40.532 -51.782  14.040  1.00  0.00    -0.273 OA
ENDROOT
BRANCH   3   5
HETATM    5  C   UNK A   0     -41.459 -53.240  12.340  1.00  0.00     0.161 C 
BRANCH   5   6
HETATM    6  C   UNK A   0     -42.877 -53.194  12.783  1.00  0.00     0.036 A 
HETATM    7  C   UNK A   0     -43.665 -54.256  13.287  1.00  0.00     0.045 A 
HETATM    8  C   UNK A   0     -44.919 -53.723  13.463  1.00  0.00     0.112 A 
HETATM    9  N   UNK A   0     -44.833 -52.416  13.072  1.00  0.00    -0.299 N 
HETATM   10  N   UNK A   0     -43.594 -52.067  12.661  1.00  0.00    -0.302 N 
ATOM     11  HN  UNK A   0     -43.277 -51.155  12.333  1.00  0.00     0.186 HD
BRANCH   9  12
HETATM   12  C   UNK A   0     -45.924 -51.448  13.048  1.00  0.00     0.099 C 
HETATM   13  C   UNK A   0     -46.878 -51.709  11.884  1.00  0.00     0.034 C 
HETATM   14  C   UNK A   0     -46.669 -51.407  14.382  1.00  0.00     0.034 C 
ENDBRANCH   9  12
ENDBRANCH   5   6
ENDBRANCH   3   5
BRANCH   1  15
ATOM     15  CA  ILE A   1     -39.066 -50.262  12.247  1.00  0.00     0.186 C 
BRANCH  15  16
ATOM     16  CB  ILE A   1     -39.547 -48.882  11.735  1.00  0.00     0.014 C 
ATOM     17  CG2 ILE A   1     -39.547 -47.855  12.879  1.00  0.00     0.012 C 
BRANCH  16  18
ATOM     18  CG1 ILE A   1     -40.959 -49.007  11.114  1.00  0.00     0.002 C 
ATOM     19  CD1 ILE A   1     -42.075 -48.457  11.989  1.00  0.00     0.005 C 
ENDBRANCH  16  18
ENDBRANCH  15  16
BRANCH  15  20
ATOM     20  C   ILE A   1     -37.687 -50.650  11.684  1.00  0.00     0.163 C 
ATOM     21  O   ILE A   1     -36.890 -51.401  12.235  1.00  0.00    -0.648 OA
BRANCH  20  22
ATOM     22  OXT ILE A   1     -37.383 -49.992  10.536  1.00  0.00    -0.775 OA
ATOM     23  HXT ILE A   1     -36.428 -50.079  10.300  1.00  0.00     0.167 HD
ENDBRANCH  20  22
ENDBRANCH  15  20
ENDBRANCH   1  15
TORSDOF 8
ENDMDL
MODEL 4
REMARK VINA RESULT:      -5.8      1.835      2.592
REMARK  8 active torsions:
REMARK  status: ('A' for Active; 'I' for Inactive)
REMARK    1  A    between atoms: CG1_2  and  CB_3 
REMARK    2  A    between atoms: CB_3  and  CA_5 
REMARK    3  A    between atoms: CA_5  and  N_6 
REMARK    4  A    between atoms: CA_5  and  C_7 
REMARK       I    between atoms: N_6  and  C_12 
REMARK    5  A    between atoms: C_7  and  OXT_9 
REMARK    6  A    between atoms: C_12  and  C_14 
REMARK    7  A    between atoms: C_14  and  C_15 
REMARK    8  A    between atoms: N_18  and  C_21 
ROOT
ATOM      1  N   ILE A   1     -42.088 -48.358  10.141  1.00  0.00    -0.346 N 
ATOM      2  H   ILE A   1     -41.537 -48.320   9.289  1.00  0.00     0.163 HD
HETATM    3  C   UNK A   0     -41.569 -49.014  11.235  1.00  0.00     0.224 C 
HETATM    4  O   UNK A   0     -42.113 -48.933  12.338  1.00  0.00    -0.273 OA
ENDROOT
BRANCH   3   5
HETATM    5  C   UNK A   0     -40.261 -49.743  11.000  1.00  0.00     0.161 C 
BRANCH   5   6
HETATM    6  C   UNK A   0     -39.895 -50.633  12.133  1.00  0.00     0.036 A 
HETATM    7  C   UNK A   0     -38.761 -50.547  12.975  1.00  0.00     0.045 A 
HETATM    8  C   UNK A   0     -38.836 -51.647  13.795  1.00  0.00     0.112 A 
HETATM    9  N   UNK A   0     -39.966 -52.319  13.424  1.00  0.00    -0.299 N 
HETATM   10  N   UNK A   0     -40.634 -51.716  12.417  1.00  0.00    -0.302 N 
ATOM     11  HN  UNK A   0     -41.503 -52.015  11.974  1.00  0.00     0.186 HD
BRANCH   9  12
HETATM   12  C   UNK A   0     -40.451 -53.574  13.990  1.00  0.00     0.099 C 
HETATM   13  C   UNK A   0     -41.612 -54.142  13.176  1.00  0.00     0.034 C 
HETATM   14  C   UNK A   0     -39.323 -54.594  14.143  1.00  0.00     0.034 C 
ENDBRANCH   9  12
ENDBRANCH   5   6
ENDBRANCH   3   5
BRANCH   1  15
ATOM     15  CA  ILE A   1     -43.273 -47.510  10.264  1.00  0.00     0.186 C 
BRANCH  15  16
ATOM     16  CB  ILE A   1     -44.242 -47.673   9.067  1.00  0.00     0.014 C 
ATOM     17  CG2 ILE A   1     -43.456 -47.758   7.748  1.00  0.00     0.012 C 
BRANCH  16  18
ATOM     18  CG1 ILE A   1     -45.245 -46.496   9.029  1.00  0.00     0.002 C 
ATOM     19  CD1 ILE A   1     -46.706 -46.921   9.050  1.00  0.00     0.005 C 
ENDBRANCH  16  18
ENDBRANCH  15  16
BRANCH  15  20
ATOM     20  C   ILE A   1     -42.762 -46.066  10.414  1.00  0.00     0.163 C 
ATOM     21  O   ILE A   1     -42.028 -45.494   9.615  1.00  0.00    -0.648 OA
BRANCH  20  22
ATOM     22  OXT ILE A   1     -43.127 -45.497  11.591  1.00  0.00    -0.775 OA
ATOM     23  HXT ILE A   1     -42.466 -44.833  11.904  1.00  0.00     0.167 HD
ENDBRANCH  20  22
ENDBRANCH  15  20
ENDBRANCH   1  15
TORSDOF 8
ENDMDL
MODEL 5
REMARK VINA RESULT:      -5.7      3.504      5.201
REMARK  8 active torsions:
REMARK  status: ('A' for Active; 'I' for Inactive)
REMARK    1  A    between atoms: CG1_2  and  CB_3 
REMARK    2  A    between atoms: CB_3  and  CA_5 
REMARK    3  A    between atoms: CA_5  and  N_6 
REMARK    4  A    between atoms: CA_5  and  C_7 
REMARK       I    between atoms: N_6  and  C_12 
REMARK    5  A    between atoms: C_7  and  OXT_9 
REMARK    6  A    between atoms: C_12  and  C_14 
REMARK    7  A    between atoms: C_14  and  C_15 
REMARK    8  A    between atoms: N_18  and  C_21 
ROOT
ATOM      1  N   ILE A   1     -40.263 -51.591  13.346  1.00  0.00    -0.346 N 
ATOM      2  H   ILE A   1     -40.545 -51.004  14.125  1.00  0.00     0.163 HD
HETATM    3  C   UNK A   0     -40.709 -52.893  13.304  1.00  0.00     0.224 C 
HETATM    4  O   UNK A   0     -40.544 -53.586  12.298  1.00  0.00    -0.273 OA
ENDROOT
BRANCH   3   5
HETATM    5  C   UNK A   0     -41.477 -53.361  14.523  1.00  0.00     0.161 C 
BRANCH   5   6
HETATM    6  C   UNK A   0     -42.948 -53.338  14.312  1.00  0.00     0.036 A 
HETATM    7  C   UNK A   0     -43.815 -54.439  14.113  1.00  0.00     0.045 A 
HETATM    8  C   UNK A   0     -45.051 -53.886  13.878  1.00  0.00     0.112 A 
HETATM    9  N   UNK A   0     -44.879 -52.532  13.941  1.00  0.00    -0.299 N 
HETATM   10  N   UNK A   0     -43.606 -52.173  14.213  1.00  0.00    -0.302 N 
ATOM     11  HN  UNK A   0     -43.230 -51.231  14.320  1.00  0.00     0.186 HD
BRANCH   9  12
HETATM   12  C   UNK A   0     -45.907 -51.519  13.723  1.00  0.00     0.099 C 
HETATM   13  C   UNK A   0     -46.624 -51.728  12.391  1.00  0.00     0.034 C 
HETATM   14  C   UNK A   0     -46.895 -51.463  14.887  1.00  0.00     0.034 C 
ENDBRANCH   9  12
ENDBRANCH   5   6
ENDBRANCH   3   5
BRANCH   1  15
ATOM     15  CA  ILE A   1     -39.623 -50.976  12.183  1.00  0.00     0.186 C 
BRANCH  15  16
ATOM     16  CB  ILE A   1     -38.380 -50.137  12.569  1.00  0.00     0.014 C 
ATOM     17  CG2 ILE A   1     -37.143 -51.042  12.705  1.00  0.00     0.012 C 
BRANCH  16  18
ATOM     18  CG1 ILE A   1     -38.642 -49.370  13.886  1.00  0.00     0.002 C 
ATOM     19  CD1 ILE A   1     -38.736 -47.860  13.719  1.00  0.00     0.005 C 
ENDBRANCH  16  18
ENDBRANCH  15  16
BRANCH  15  20
ATOM     20  C   ILE A   1     -40.706 -50.134  11.485  1.00  0.00     0.163 C 
ATOM     21  O   ILE A   1     -41.748 -49.756  12.009  1.00  0.00    -0.648 OA
BRANCH  20  22
ATOM     22  OXT ILE A   1     -40.442 -49.922  10.170  1.00  0.00    -0.775 OA
ATOM     23  HXT ILE A   1     -41.211 -49.520   9.697  1.00  0.00     0.167 HD
ENDBRANCH  20  22
ENDBRANCH  15  20
ENDBRANCH   1  15
TORSDOF 8
ENDMDL
MODEL 6
REMARK VINA RESULT:      -5.6      4.663      6.720
REMARK  8 active torsions:
REMARK  status: ('A' for Active; 'I' for Inactive)
REMARK    1  A    between atoms: CG1_2  and  CB_3 
REMARK    2  A    between atoms: CB_3  and  CA_5 
REMARK    3  A    between atoms: CA_5  and  N_6 
REMARK    4  A    between atoms: CA_5  and  C_7 
REMARK       I    between atoms: N_6  and  C_12 
REMARK    5  A    between atoms: C_7  and  OXT_9 
REMARK    6  A    between atoms: C_12  and  C_14 
REMARK    7  A    between atoms: C_14  and  C_15 
REMARK    8  A    between atoms: N_18  and  C_21 
ROOT
ATOM      1  N   ILE A   1     -44.119 -52.738  14.081  1.00  0.00    -0.346 N 
ATOM      2  H   ILE A   1     -44.080 -52.662  15.093  1.00  0.00     0.163 HD
HETATM    3  C   UNK A   0     -42.973 -52.499  13.356  1.00  0.00     0.224 C 
HETATM    4  O   UNK A   0     -42.922 -52.753  12.151  1.00  0.00    -0.273 OA
ENDROOT
BRANCH   3   5
HETATM    5  C   UNK A   0     -41.786 -52.002  14.156  1.00  0.00     0.161 C 
BRANCH   5   6
HETATM    6  C   UNK A   0     -40.872 -53.102  14.562  1.00  0.00     0.036 A 
HETATM    7  C   UNK A   0     -39.848 -53.710  13.796  1.00  0.00     0.045 A 
HETATM    8  C   UNK A   0     -39.363 -54.725  14.584  1.00  0.00     0.112 A 
HETATM    9  N   UNK A   0     -40.089 -54.687  15.741  1.00  0.00    -0.299 N 
HETATM   10  N   UNK A   0     -41.010 -53.699  15.755  1.00  0.00    -0.302 N 
ATOM     11  HN  UNK A   0     -41.663 -53.462  16.502  1.00  0.00     0.186 HD
BRANCH   9  12
HETATM   12  C   UNK A   0     -39.958 -55.597  16.874  1.00  0.00     0.099 C 
HETATM   13  C   UNK A   0     -41.081 -56.632  16.892  1.00  0.00     0.034 C 
HETATM   14  C   UNK A   0     -38.583 -56.263  16.904  1.00  0.00     0.034 C 
ENDBRANCH   9  12
ENDBRANCH   5   6
ENDBRANCH   3   5
BRANCH   1  15
ATOM     15  CA  ILE A   1     -45.294 -53.342  13.455  1.00  0.00     0.186 C 
BRANCH  15  16
ATOM     16  CB  ILE A   1     -46.530 -52.410  13.497  1.00  0.00     0.014 C 
ATOM     17  CG2 ILE A   1     -46.749 -51.746  12.127  1.00  0.00     0.012 C 
BRANCH  16  18
ATOM     18  CG1 ILE A   1     -46.353 -51.340  14.599  1.00  0.00     0.002 C 
ATOM     19  CD1 ILE A   1     -47.253 -51.538  15.810  1.00  0.00     0.005 C 
ENDBRANCH  16  18
ENDBRANCH  15  16
BRANCH  15  20
ATOM     20  C   ILE A   1     -45.539 -54.676  14.184  1.00  0.00     0.163 C 
ATOM     21  O   ILE A   1     -44.669 -55.492  14.466  1.00  0.00    -0.648 OA
BRANCH  20  22
ATOM     22  OXT ILE A   1     -46.856 -54.919  14.408  1.00  0.00    -0.775 OA
ATOM     23  HXT ILE A   1     -47.321 -54.131  14.780  1.00  0.00     0.167 HD
ENDBRANCH  20  22
ENDBRANCH  15  20
ENDBRANCH   1  15
TORSDOF 8
ENDMDL
MODEL 7
REMARK VINA RESULT:      -5.5      4.342      7.057
REMARK  8 active torsions:
REMARK  status: ('A' for Active; 'I' for Inactive)
REMARK    1  A    between atoms: CG1_2  and  CB_3 
REMARK    2  A    between atoms: CB_3  and  CA_5 
REMARK    3  A    between atoms: CA_5  and  N_6 
REMARK    4  A    between atoms: CA_5  and  C_7 
REMARK       I    between atoms: N_6  and  C_12 
REMARK    5  A    between atoms: C_7  and  OXT_9 
REMARK    6  A    between atoms: C_12  and  C_14 
REMARK    7  A    between atoms: C_14  and  C_15 
REMARK    8  A    between atoms: N_18  and  C_21 
ROOT
ATOM      1  N   ILE A   1     -43.719 -53.573  14.295  1.00  0.00    -0.346 N 
ATOM      2  H   ILE A   1     -43.376 -54.072  15.110  1.00  0.00     0.163 HD
HETATM    3  C   UNK A   0     -42.903 -53.471  13.190  1.00  0.00     0.224 C 
HETATM    4  O   UNK A   0     -43.337 -53.038  12.121  1.00  0.00    -0.273 OA
ENDROOT
BRANCH   3   5
HETATM    5  C   UNK A   0     -41.497 -54.007  13.365  1.00  0.00     0.161 C 
BRANCH   5   6
HETATM    6  C   UNK A   0     -40.463 -52.947  13.228  1.00  0.00     0.036 A 
HETATM    7  C   UNK A   0     -39.402 -52.648  14.115  1.00  0.00     0.045 A 
HETATM    8  C   UNK A   0     -38.793 -51.535  13.586  1.00  0.00     0.112 A 
HETATM    9  N   UNK A   0     -39.488 -51.227  12.451  1.00  0.00    -0.299 N 
HETATM   10  N   UNK A   0     -40.507 -52.079  12.206  1.00  0.00    -0.302 N 
ATOM     11  HN  UNK A   0     -41.160 -52.066  11.423  1.00  0.00     0.186 HD
BRANCH   9  12
HETATM   12  C   UNK A   0     -39.233 -50.099  11.561  1.00  0.00     0.099 C 
HETATM   13  C   UNK A   0     -40.073 -48.882  11.946  1.00  0.00     0.034 C 
HETATM   14  C   UNK A   0     -37.746 -49.754  11.502  1.00  0.00     0.034 C 
ENDBRANCH   9  12
ENDBRANCH   5   6
ENDBRANCH   3   5
BRANCH   1  15
ATOM     15  CA  ILE A   1     -45.135 -53.214  14.220  1.00  0.00     0.186 C 
BRANCH  15  16
ATOM     16  CB  ILE A   1     -45.399 -51.756  14.669  1.00  0.00     0.014 C 
ATOM     17  CG2 ILE A   1     -44.546 -51.411  15.902  1.00  0.00     0.012 C 
BRANCH  16  18
ATOM     18  CG1 ILE A   1     -46.902 -51.555  14.972  1.00  0.00     0.002 C 
ATOM     19  CD1 ILE A   1     -47.202 -51.172  16.415  1.00  0.00     0.005 C 
ENDBRANCH  16  18
ENDBRANCH  15  16
BRANCH  15  20
ATOM     20  C   ILE A   1     -45.891 -54.241  15.085  1.00  0.00     0.163 C 
ATOM     21  O   ILE A   1     -45.602 -54.534  16.239  1.00  0.00    -0.648 OA
BRANCH  20  22
ATOM     22  OXT ILE A   1     -46.874 -54.881  14.403  1.00  0.00    -0.775 OA
ATOM     23  HXT ILE A   1     -47.774 -54.583  14.682  1.00  0.00     0.167 HD
ENDBRANCH  20  22
ENDBRANCH  15  20
ENDBRANCH   1  15
TORSDOF 8
ENDMDL
MODEL 8
REMARK VINA RESULT:      -5.5      4.724      7.208
REMARK  8 active torsions:
REMARK  status: ('A' for Active; 'I' for Inactive)
REMARK    1  A    between atoms: CG1_2  and  CB_3 
REMARK    2  A    between atoms: CB_3  and  CA_5 
REMARK    3  A    between atoms: CA_5  and  N_6 
REMARK    4  A    between atoms: CA_5  and  C_7 
REMARK       I    between atoms: N_6  and  C_12 
REMARK    5  A    between atoms: C_7  and  OXT_9 
REMARK    6  A    between atoms: C_12  and  C_14 
REMARK    7  A    between atoms: C_14  and  C_15 
REMARK    8  A    between atoms: N_18  and  C_21 
ROOT
ATOM      1  N   ILE A   1     -44.183 -53.132  14.262  1.00  0.00    -0.346 N 
ATOM      2  H   ILE A   1     -43.661 -53.007  15.125  1.00  0.00     0.163 HD
HETATM    3  C   UNK A   0     -43.529 -53.642  13.163  1.00  0.00     0.224 C 
HETATM    4  O   UNK A   0     -44.154 -53.980  12.156  1.00  0.00    -0.273 OA
ENDROOT
BRANCH   3   5
HETATM    5  C   UNK A   0     -42.035 -53.836  13.323  1.00  0.00     0.161 C 
BRANCH   5   6
HETATM    6  C   UNK A   0     -41.259 -52.629  12.934  1.00  0.00     0.036 A 
HETATM    7  C   UNK A   0     -41.697 -51.526  12.163  1.00  0.00     0.045 A 
HETATM    8  C   UNK A   0     -40.588 -50.729  12.011  1.00  0.00     0.112 A 
HETATM    9  N   UNK A   0     -39.573 -51.364  12.670  1.00  0.00    -0.299 N 
HETATM   10  N   UNK A   0     -39.960 -52.522  13.248  1.00  0.00    -0.302 N 
ATOM     11  HN  UNK A   0     -39.393 -53.167  13.798  1.00  0.00     0.186 HD
BRANCH   9  12
HETATM   12  C   UNK A   0     -38.188 -50.915  12.760  1.00  0.00     0.099 C 
HETATM   13  C   UNK A   0     -37.807 -50.033  11.572  1.00  0.00     0.034 C 
HETATM   14  C   UNK A   0     -37.910 -50.213  14.089  1.00  0.00     0.034 C 
ENDBRANCH   9  12
ENDBRANCH   5   6
ENDBRANCH   3   5
BRANCH   1  15
ATOM     15  CA  ILE A   1     -45.641 -53.019  14.286  1.00  0.00     0.186 C 
BRANCH  15  16
ATOM     16  CB  ILE A   1     -46.117 -51.642  14.810  1.00  0.00     0.014 C 
ATOM     17  CG2 ILE A   1     -45.031 -50.996  15.687  1.00  0.00     0.012 C 
BRANCH  16  18
ATOM     18  CG1 ILE A   1     -47.435 -51.801  15.604  1.00  0.00     0.002 C 
ATOM     19  CD1 ILE A   1     -47.442 -51.090  16.950  1.00  0.00     0.005 C 
ENDBRANCH  16  18
ENDBRANCH  15  16
BRANCH  15  20
ATOM     20  C   ILE A   1     -46.154 -54.186  15.149  1.00  0.00     0.163 C 
ATOM     21  O   ILE A   1     -45.753 -54.455  16.276  1.00  0.00    -0.648 OA
BRANCH  20  22
ATOM     22  OXT ILE A   1     -47.048 -54.971  14.495  1.00  0.00    -0.775 OA
ATOM     23  HXT ILE A   1     -46.611 -55.728  14.036  1.00  0.00     0.167 HD
ENDBRANCH  20  22
ENDBRANCH  15  20
ENDBRANCH   1  15
TORSDOF 8
ENDMDL
MODEL 9
REMARK VINA RESULT:      -5.4      2.286      6.873
REMARK  8 active torsions:
REMARK  status: ('A' for Active; 'I' for Inactive)
REMARK    1  A    between atoms: CG1_2  and  CB_3 
REMARK    2  A    between atoms: CB_3  and  CA_5 
REMARK    3  A    between atoms: CA_5  and  N_6 
REMARK    4  A    between atoms: CA_5  and  C_7 
REMARK       I    between atoms: N_6  and  C_12 
REMARK    5  A    between atoms: C_7  and  OXT_9 
REMARK    6  A    between atoms: C_12  and  C_14 
REMARK    7  A    between atoms: C_14  and  C_15 
REMARK    8  A    between atoms: N_18  and  C_21 
ROOT
ATOM      1  N   ILE A   1     -41.973 -51.640  12.027  1.00  0.00    -0.346 N 
ATOM      2  H   ILE A   1     -42.159 -51.819  11.045  1.00  0.00     0.163 HD
HETATM    3  C   UNK A   0     -41.288 -50.496  12.372  1.00  0.00     0.224 C 
HETATM    4  O   UNK A   0     -41.197 -50.144  13.550  1.00  0.00    -0.273 OA
ENDROOT
BRANCH   3   5
HETATM    5  C   UNK A   0     -40.753 -49.680  11.213  1.00  0.00     0.161 C 
BRANCH   5   6
HETATM    6  C   UNK A   0     -41.579 -48.476  10.935  1.00  0.00     0.036 A 
HETATM    7  C   UNK A   0     -41.664 -47.285  11.695  1.00  0.00     0.045 A 
HETATM    8  C   UNK A   0     -42.625 -46.527  11.071  1.00  0.00     0.112 A 
HETATM    9  N   UNK A   0     -43.059 -47.266  10.007  1.00  0.00    -0.299 N 
HETATM   10  N   UNK A   0     -42.430 -48.456   9.898  1.00  0.00    -0.302 N 
ATOM     11  HN  UNK A   0     -42.570 -49.176   9.188  1.00  0.00     0.186 HD
BRANCH   9  12
HETATM   12  C   UNK A   0     -44.105 -46.889   9.062  1.00  0.00     0.099 C 
HETATM   13  C   UNK A   0     -45.428 -47.579   9.388  1.00  0.00     0.034 C 
HETATM   14  C   UNK A   0     -44.270 -45.372   8.982  1.00  0.00     0.034 C 
ENDBRANCH   9  12
ENDBRANCH   5   6
ENDBRANCH   3   5
BRANCH   1  15
ATOM     15  CA  ILE A   1     -42.652 -52.446  13.042  1.00  0.00     0.186 C 
BRANCH  15  16
ATOM     16  CB  ILE A   1     -42.101 -53.891  13.112  1.00  0.00     0.014 C 
ATOM     17  CG2 ILE A   1     -42.529 -54.566  14.426  1.00  0.00     0.012 C 
BRANCH  16  18
ATOM     18  CG1 ILE A   1     -40.560 -53.881  12.981  1.00  0.00     0.002 C 
ATOM     19  CD1 ILE A   1     -39.824 -54.293  14.248  1.00  0.00     0.005 C 
ENDBRANCH  16  18
ENDBRANCH  15  16
BRANCH  15  20
ATOM     20  C   ILE A   1     -44.152 -52.405  12.698  1.00  0.00     0.163 C 
ATOM     21  O   ILE A   1     -44.980 -51.692  13.255  1.00  0.00    -0.648 OA
BRANCH  20  22
ATOM     22  OXT ILE A   1     -44.504 -53.324  11.764  1.00  0.00    -0.775 OA
ATOM     23  HXT ILE A   1     -44.478 -52.952  10.849  1.00  0.00     0.167 HD
ENDBRANCH  20  22
ENDBRANCH  15  20
ENDBRANCH   1  15
TORSDOF 8
ENDMDL
