MODEL 1
REMARK VINA RESULT:      -7.3      0.000      0.000
REMARK  8 active torsions:
REMARK  status: ('A' for Active; 'I' for Inactive)
REMARK    1  A    between atoms: C_2  and  N_3 
REMARK    2  A    between atoms: C_2  and  C_20 
REMARK    3  A    between atoms: N_3  and  C_4 
REMARK    4  A    between atoms: C_4  and  C_5 
REMARK    5  A    between atoms: C_5  and  O_6 
REMARK    6  A    between atoms: C_5  and  C_7 
REMARK    7  A    between atoms: C_7  and  N_8 
REMARK    8  A    between atoms: C_20  and  N_22 
ROOT
HETATM    1  C   UNL     1     -41.427 -52.150  11.830  1.00  0.00     0.164 C 
ENDROOT
BRANCH   1   2
HETATM    2  C   UNL     1     -40.505 -50.923  11.951  1.00  0.00     0.303 C 
BRANCH   2   3
HETATM    3  N   UNL     1     -40.423 -50.180  10.693  1.00  0.00     0.092 N 
HETATM    4  H   UNL     1     -39.499 -50.303  10.272  1.00  0.00     0.316 HD
BRANCH   3   5
HETATM    5  C   UNL     1     -40.800 -48.756  10.786  1.00  0.00     0.240 C 
HETATM    6  C   UNL     1     -39.846 -48.019  11.740  1.00  0.00     0.045 C 
BRANCH   5   7
HETATM    7  C   UNL     1     -42.307 -48.522  11.131  1.00  0.00     0.136 C 
HETATM    8  C   UNL     1     -42.522 -47.740  12.431  1.00  0.00     0.036 C 
BRANCH   7   9
HETATM    9  N   UNL     1     -43.026 -47.864  10.036  1.00  0.00    -0.297 N 
HETATM   10  C   UNL     1     -44.042 -46.952  10.138  1.00  0.00     0.112 A 
HETATM   11  C   UNL     1     -44.417 -46.653   8.851  1.00  0.00     0.037 A 
HETATM   12  C   UNL     1     -43.584 -47.441   8.041  1.00  0.00     0.108 A 
HETATM   13  N   UNL     1     -42.749 -48.202   8.755  1.00  0.00    -0.310 N 
ATOM     14  HN  UNL     1     -42.064 -48.877   8.416  1.00  0.00     0.186 HD
ENDBRANCH   7   9
ENDBRANCH   5   7
ENDBRANCH   3   5
ENDBRANCH   2   3
ENDBRANCH   1   2
BRANCH   1  15
HETATM   15  O   UNL     1     -40.685 -53.253  11.285  1.00  0.00    -0.392 OA
HETATM   16  H   UNL     1     -39.743 -53.119  11.472  1.00  0.00     0.210 HD
ENDBRANCH   1  15
BRANCH   1  17
HETATM   17  C   UNL     1     -41.956 -52.492  13.227  1.00  0.00     0.163 C 
BRANCH  17  18
HETATM   18  N   UNL     1     -43.392 -52.650  13.267  1.00  0.00    -0.339 N 
HETATM   19  C   UNL     1     -44.121 -53.427  12.411  1.00  0.00     0.184 A 
HETATM   20  N   UNL     1     -45.394 -53.439  12.731  1.00  0.00    -0.350 N 
HETATM   21  C   UNL     1     -45.489 -52.623  13.833  1.00  0.00     0.060 A 
ATOM     22  HN  UNL     1     -46.147 -53.943  12.264  1.00  0.00     0.166 HD
HETATM   23  C   UNL     1     -46.616 -52.270  14.586  1.00  0.00     0.039 A 
HETATM   24  C   UNL     1     -44.247 -52.115  14.195  1.00  0.00     0.062 A 
HETATM   25  C   UNL     1     -46.476 -51.412  15.697  1.00  0.00    -0.054 A 
HETATM   26  C   UNL     1     -47.712 -51.061  16.480  1.00  0.00     0.049 C 
HETATM   27  C   UNL     1     -45.205 -50.909  16.044  1.00  0.00    -0.054 A 
HETATM   28  C   UNL     1     -44.982 -49.987  17.216  1.00  0.00     0.049 C 
HETATM   29  C   UNL     1     -44.067 -51.260  15.287  1.00  0.00     0.039 A 
ENDBRANCH  17  18
ENDBRANCH   1  17
TORSDOF 8
ENDMDL
MODEL 2
REMARK VINA RESULT:      -6.9      1.428      1.950
REMARK  8 active torsions:
REMARK  status: ('A' for Active; 'I' for Inactive)
REMARK    1  A    between atoms: C_2  and  N_3 
REMARK    2  A    between atoms: C_2  and  C_20 
REMARK    3  A    between atoms: N_3  and  C_4 
REMARK    4  A    between atoms: C_4  and  C_5 
REMARK    5  A    between atoms: C_5  and  O_6 
REMARK    6  A    between atoms: C_5  and  C_7 
REMARK    7  A    between atoms: C_7  and  N_8 
REMARK    8  A    between atoms: C_20  and  N_22 
ROOT
HETATM    1  C   UNL     1     -41.468 -52.426  12.085  1.00  0.00     0.164 C 
ENDROOT
BRANCH   1   2
HETATM    2  C   UNL     1     -40.803 -51.038  12.110  1.00  0.00     0.303 C 
BRANCH   2   3
HETATM    3  N   UNL     1     -41.378 -50.143  11.104  1.00  0.00     0.092 N 
HETATM    4  H   UNL     1     -40.713 -49.997  10.343  1.00  0.00     0.316 HD
BRANCH   3   5
HETATM    5  C   UNL     1     -41.897 -48.866  11.633  1.00  0.00     0.240 C 
HETATM    6  C   UNL     1     -43.062 -49.131  12.600  1.00  0.00     0.045 C 
BRANCH   5   7
HETATM    7  C   UNL     1     -42.252 -47.821  10.526  1.00  0.00     0.136 C 
HETATM    8  C   UNL     1     -43.744 -47.478  10.462  1.00  0.00     0.036 C 
BRANCH   7   9
HETATM    9  N   UNL     1     -41.469 -46.588  10.663  1.00  0.00    -0.297 N 
HETATM   10  C   UNL     1     -41.944 -45.319  10.858  1.00  0.00     0.112 A 
HETATM   11  C   UNL     1     -40.843 -44.499  10.887  1.00  0.00     0.037 A 
HETATM   12  C   UNL     1     -39.750 -45.359  10.688  1.00  0.00     0.108 A 
HETATM   13  N   UNL     1     -40.124 -46.631  10.527  1.00  0.00    -0.310 N 
ATOM     14  HN  UNL     1     -39.534 -47.443  10.344  1.00  0.00     0.186 HD
ENDBRANCH   7   9
ENDBRANCH   5   7
ENDBRANCH   3   5
ENDBRANCH   2   3
ENDBRANCH   1   2
BRANCH   1  15
HETATM   15  O   UNL     1     -40.486 -53.420  11.753  1.00  0.00    -0.392 OA
HETATM   16  H   UNL     1     -40.819 -54.291  12.019  1.00  0.00     0.210 HD
ENDBRANCH   1  15
BRANCH   1  17
HETATM   17  C   UNL     1     -42.064 -52.697  13.471  1.00  0.00     0.163 C 
BRANCH  17  18
HETATM   18  N   UNL     1     -43.506 -52.799  13.458  1.00  0.00    -0.339 N 
HETATM   19  C   UNL     1     -44.234 -53.530  12.561  1.00  0.00     0.184 A 
HETATM   20  N   UNL     1     -45.517 -53.499  12.838  1.00  0.00    -0.350 N 
HETATM   21  C   UNL     1     -45.619 -52.702  13.952  1.00  0.00     0.060 A 
ATOM     22  HN  UNL     1     -46.272 -53.964  12.334  1.00  0.00     0.166 HD
HETATM   23  C   UNL     1     -46.757 -52.320  14.673  1.00  0.00     0.039 A 
HETATM   24  C   UNL     1     -44.372 -52.250  14.368  1.00  0.00     0.062 A 
HETATM   25  C   UNL     1     -46.624 -51.491  15.807  1.00  0.00    -0.054 A 
HETATM   26  C   UNL     1     -47.872 -51.108  16.554  1.00  0.00     0.049 C 
HETATM   27  C   UNL     1     -45.348 -51.044  16.207  1.00  0.00    -0.054 A 
HETATM   28  C   UNL     1     -45.131 -50.155  17.405  1.00  0.00     0.049 C 
HETATM   29  C   UNL     1     -44.198 -51.424  15.483  1.00  0.00     0.039 A 
ENDBRANCH  17  18
ENDBRANCH   1  17
TORSDOF 8
ENDMDL
MODEL 3
REMARK VINA RESULT:      -6.8      1.149      1.511
REMARK  8 active torsions:
REMARK  status: ('A' for Active; 'I' for Inactive)
REMARK    1  A    between atoms: C_2  and  N_3 
REMARK    2  A    between atoms: C_2  and  C_20 
REMARK    3  A    between atoms: N_3  and  C_4 
REMARK    4  A    between atoms: C_4  and  C_5 
REMARK    5  A    between atoms: C_5  and  O_6 
REMARK    6  A    between atoms: C_5  and  C_7 
REMARK    7  A    between atoms: C_7  and  N_8 
REMARK    8  A    between atoms: C_20  and  N_22 
ROOT
HETATM    1  C   UNL     1     -42.005 -52.114  12.368  1.00  0.00     0.164 C 
ENDROOT
BRANCH   1   2
HETATM    2  C   UNL     1     -40.841 -51.296  12.956  1.00  0.00     0.303 C 
BRANCH   2   3
HETATM    3  N   UNL     1     -39.740 -51.156  12.003  1.00  0.00     0.092 N 
HETATM    4  H   UNL     1     -38.886 -51.563  12.391  1.00  0.00     0.316 HD
BRANCH   3   5
HETATM    5  C   UNL     1     -39.519 -49.784  11.506  1.00  0.00     0.240 C 
HETATM    6  C   UNL     1     -38.015 -49.463  11.496  1.00  0.00     0.045 C 
BRANCH   5   7
HETATM    7  C   UNL     1     -40.368 -48.699  12.243  1.00  0.00     0.136 C 
HETATM    8  C   UNL     1     -39.552 -47.479  12.686  1.00  0.00     0.036 C 
BRANCH   7   9
HETATM    9  N   UNL     1     -41.515 -48.259  11.442  1.00  0.00    -0.297 N 
HETATM   10  C   UNL     1     -42.744 -47.865  11.896  1.00  0.00     0.112 A 
HETATM   11  C   UNL     1     -43.492 -47.584  10.779  1.00  0.00     0.037 A 
HETATM   12  C   UNL     1     -42.636 -47.849   9.698  1.00  0.00     0.108 A 
HETATM   13  N   UNL     1     -41.436 -48.285  10.091  1.00  0.00    -0.310 N 
ATOM     14  HN  UNL     1     -40.647 -48.570   9.511  1.00  0.00     0.186 HD
ENDBRANCH   7   9
ENDBRANCH   5   7
ENDBRANCH   3   5
ENDBRANCH   2   3
ENDBRANCH   1   2
BRANCH   1  15
HETATM   15  O   UNL     1     -41.586 -52.721  11.135  1.00  0.00    -0.392 OA
HETATM   16  H   UNL     1     -41.684 -53.683  11.210  1.00  0.00     0.210 HD
ENDBRANCH   1  15
BRANCH   1  17
HETATM   17  C   UNL     1     -42.403 -53.185  13.389  1.00  0.00     0.163 C 
BRANCH  17  18
HETATM   18  N   UNL     1     -43.832 -53.291  13.572  1.00  0.00    -0.339 N 
HETATM   19  C   UNL     1     -44.641 -54.194  12.940  1.00  0.00     0.184 A 
HETATM   20  N   UNL     1     -45.882 -54.109  13.356  1.00  0.00    -0.350 N 
HETATM   21  C   UNL     1     -45.875 -53.097  14.286  1.00  0.00     0.060 A 
ATOM     22  HN  UNL     1     -46.679 -54.671  13.055  1.00  0.00     0.166 HD
HETATM   23  C   UNL     1     -46.931 -52.576  15.044  1.00  0.00     0.039 A 
HETATM   24  C   UNL     1     -44.601 -52.566  14.446  1.00  0.00     0.062 A 
HETATM   25  C   UNL     1     -46.688 -51.528  15.957  1.00  0.00    -0.054 A 
HETATM   26  C   UNL     1     -47.851 -51.000  16.753  1.00  0.00     0.049 C 
HETATM   27  C   UNL     1     -45.387 -51.004  16.099  1.00  0.00    -0.054 A 
HETATM   28  C   UNL     1     -45.055 -49.884  17.052  1.00  0.00     0.049 C 
HETATM   29  C   UNL     1     -44.320 -51.525  15.336  1.00  0.00     0.039 A 
ENDBRANCH  17  18
ENDBRANCH   1  17
TORSDOF 8
ENDMDL
MODEL 4
REMARK VINA RESULT:      -6.7      2.267      2.661
REMARK  8 active torsions:
REMARK  status: ('A' for Active; 'I' for Inactive)
REMARK    1  A    between atoms: C_2  and  N_3 
REMARK    2  A    between atoms: C_2  and  C_20 
REMARK    3  A    between atoms: N_3  and  C_4 
REMARK    4  A    between atoms: C_4  and  C_5 
REMARK    5  A    between atoms: C_5  and  O_6 
REMARK    6  A    between atoms: C_5  and  C_7 
REMARK    7  A    between atoms: C_7  and  N_8 
REMARK    8  A    between atoms: C_20  and  N_22 
ROOT
HETATM    1  C   UNL     1     -39.707 -51.184  12.810  1.00  0.00     0.164 C 
ENDROOT
BRANCH   1   2
HETATM    2  C   UNL     1     -39.131 -50.170  11.806  1.00  0.00     0.303 C 
BRANCH   2   3
HETATM    3  N   UNL     1     -40.100 -49.825  10.765  1.00  0.00     0.092 N 
HETATM    4  H   UNL     1     -39.698 -49.995   9.841  1.00  0.00     0.316 HD
BRANCH   3   5
HETATM    5  C   UNL     1     -40.675 -48.470  10.875  1.00  0.00     0.240 C 
HETATM    6  C   UNL     1     -39.946 -47.675  11.970  1.00  0.00     0.045 C 
BRANCH   5   7
HETATM    7  C   UNL     1     -42.229 -48.454  11.045  1.00  0.00     0.136 C 
HETATM    8  C   UNL     1     -42.692 -47.883  12.390  1.00  0.00     0.036 C 
BRANCH   7   9
HETATM    9  N   UNL     1     -42.895 -47.739   9.951  1.00  0.00    -0.297 N 
HETATM   10  C   UNL     1     -43.679 -46.621  10.045  1.00  0.00     0.112 A 
HETATM   11  C   UNL     1     -44.104 -46.345   8.769  1.00  0.00     0.037 A 
HETATM   12  C   UNL     1     -43.538 -47.356   7.975  1.00  0.00     0.108 A 
HETATM   13  N   UNL     1     -42.819 -48.225   8.691  1.00  0.00    -0.310 N 
ATOM     14  HN  UNL     1     -42.328 -49.057   8.365  1.00  0.00     0.186 HD
ENDBRANCH   7   9
ENDBRANCH   5   7
ENDBRANCH   3   5
ENDBRANCH   2   3
ENDBRANCH   1   2
BRANCH   1  15
HETATM   15  O   UNL     1     -40.340 -50.479  13.890  1.00  0.00    -0.392 OA
HETATM   16  H   UNL     1     -41.302 -50.531  13.777  1.00  0.00     0.210 HD
ENDBRANCH   1  15
BRANCH   1  17
HETATM   17  C   UNL     1     -40.721 -52.066  12.073  1.00  0.00     0.163 C 
BRANCH  17  18
HETATM   18  N   UNL     1     -41.320 -53.071  12.921  1.00  0.00    -0.339 N 
HETATM   19  C   UNL     1     -40.629 -53.954  13.703  1.00  0.00     0.184 A 
HETATM   20  N   UNL     1     -41.434 -54.700  14.422  1.00  0.00    -0.350 N 
HETATM   21  C   UNL     1     -42.699 -54.288  14.078  1.00  0.00     0.060 A 
ATOM     22  HN  UNL     1     -41.177 -55.426  15.090  1.00  0.00     0.166 HD
HETATM   23  C   UNL     1     -43.941 -54.746  14.535  1.00  0.00     0.039 A 
HETATM   24  C   UNL     1     -42.660 -53.264  13.139  1.00  0.00     0.062 A 
HETATM   25  C   UNL     1     -45.128 -54.164  14.043  1.00  0.00    -0.054 A 
HETATM   26  C   UNL     1     -46.440 -54.685  14.563  1.00  0.00     0.049 C 
HETATM   27  C   UNL     1     -45.062 -53.127  13.090  1.00  0.00    -0.054 A 
HETATM   28  C   UNL     1     -46.288 -52.461  12.519  1.00  0.00     0.049 C 
HETATM   29  C   UNL     1     -43.813 -52.663  12.624  1.00  0.00     0.039 A 
ENDBRANCH  17  18
ENDBRANCH   1  17
TORSDOF 8
ENDMDL
MODEL 5
REMARK VINA RESULT:      -6.7      1.859      3.208
REMARK  8 active torsions:
REMARK  status: ('A' for Active; 'I' for Inactive)
REMARK    1  A    between atoms: C_2  and  N_3 
REMARK    2  A    between atoms: C_2  and  C_20 
REMARK    3  A    between atoms: N_3  and  C_4 
REMARK    4  A    between atoms: C_4  and  C_5 
REMARK    5  A    between atoms: C_5  and  O_6 
REMARK    6  A    between atoms: C_5  and  C_7 
REMARK    7  A    between atoms: C_7  and  N_8 
REMARK    8  A    between atoms: C_20  and  N_22 
ROOT
HETATM    1  C   UNL     1     -41.131 -49.656  11.425  1.00  0.00     0.164 C 
ENDROOT
BRANCH   1   2
HETATM    2  C   UNL     1     -41.917 -48.335  11.493  1.00  0.00     0.303 C 
BRANCH   2   3
HETATM    3  N   UNL     1     -42.909 -48.238  10.422  1.00  0.00     0.092 N 
HETATM    4  H   UNL     1     -43.001 -49.137   9.946  1.00  0.00     0.316 HD
BRANCH   3   5
HETATM    5  C   UNL     1     -42.689 -47.131   9.469  1.00  0.00     0.240 C 
HETATM    6  C   UNL     1     -42.778 -45.781  10.200  1.00  0.00     0.045 C 
BRANCH   5   7
HETATM    7  C   UNL     1     -43.599 -47.198   8.200  1.00  0.00     0.136 C 
HETATM    8  C   UNL     1     -43.238 -48.342   7.247  1.00  0.00     0.036 C 
BRANCH   7   9
HETATM    9  N   UNL     1     -45.022 -47.276   8.548  1.00  0.00    -0.297 N 
HETATM   10  C   UNL     1     -45.835 -48.375   8.481  1.00  0.00     0.112 A 
HETATM   11  C   UNL     1     -47.082 -47.952   8.869  1.00  0.00     0.037 A 
HETATM   12  C   UNL     1     -46.929 -46.582   9.138  1.00  0.00     0.108 A 
HETATM   13  N   UNL     1     -45.682 -46.156   8.921  1.00  0.00    -0.310 N 
ATOM     14  HN  UNL     1     -45.314 -45.209   9.015  1.00  0.00     0.186 HD
ENDBRANCH   7   9
ENDBRANCH   5   7
ENDBRANCH   3   5
ENDBRANCH   2   3
ENDBRANCH   1   2
BRANCH   1  15
HETATM   15  O   UNL     1     -39.771 -49.383  11.049  1.00  0.00    -0.392 OA
HETATM   16  H   UNL     1     -39.429 -50.134  10.540  1.00  0.00     0.210 HD
ENDBRANCH   1  15
BRANCH   1  17
HETATM   17  C   UNL     1     -41.187 -50.321  12.804  1.00  0.00     0.163 C 
BRANCH  17  18
HETATM   18  N   UNL     1     -41.702 -51.670  12.763  1.00  0.00    -0.339 N 
HETATM   19  C   UNL     1     -41.004 -52.765  12.336  1.00  0.00     0.184 A 
HETATM   20  N   UNL     1     -41.697 -53.870  12.480  1.00  0.00    -0.350 N 
HETATM   21  C   UNL     1     -42.899 -53.467  13.011  1.00  0.00     0.060 A 
ATOM     22  HN  UNL     1     -41.407 -54.820  12.249  1.00  0.00     0.166 HD
HETATM   23  C   UNL     1     -44.019 -54.229  13.361  1.00  0.00     0.039 A 
HETATM   24  C   UNL     1     -42.931 -52.090  13.203  1.00  0.00     0.062 A 
HETATM   25  C   UNL     1     -45.157 -53.597  13.905  1.00  0.00    -0.054 A 
HETATM   26  C   UNL     1     -46.338 -54.455  14.270  1.00  0.00     0.049 C 
HETATM   27  C   UNL     1     -45.166 -52.198  14.088  1.00  0.00    -0.054 A 
HETATM   28  C   UNL     1     -46.346 -51.455  14.660  1.00  0.00     0.049 C 
HETATM   29  C   UNL     1     -44.040 -51.425  13.734  1.00  0.00     0.039 A 
ENDBRANCH  17  18
ENDBRANCH   1  17
TORSDOF 8
ENDMDL
MODEL 6
REMARK VINA RESULT:      -6.3      1.660      2.166
REMARK  8 active torsions:
REMARK  status: ('A' for Active; 'I' for Inactive)
REMARK    1  A    between atoms: C_2  and  N_3 
REMARK    2  A    between atoms: C_2  and  C_20 
REMARK    3  A    between atoms: N_3  and  C_4 
REMARK    4  A    between atoms: C_4  and  C_5 
REMARK    5  A    between atoms: C_5  and  O_6 
REMARK    6  A    between atoms: C_5  and  C_7 
REMARK    7  A    between atoms: C_7  and  N_8 
REMARK    8  A    between atoms: C_20  and  N_22 
ROOT
HETATM    1  C   UNL     1     -39.240 -50.137  13.278  1.00  0.00     0.164 C 
ENDROOT
BRANCH   1   2
HETATM    2  C   UNL     1     -39.804 -49.748  11.900  1.00  0.00     0.303 C 
BRANCH   2   3
HETATM    3  N   UNL     1     -39.405 -48.394  11.513  1.00  0.00     0.092 N 
HETATM    4  H   UNL     1     -38.711 -48.032  12.170  1.00  0.00     0.316 HD
BRANCH   3   5
HETATM    5  C   UNL     1     -40.522 -47.449  11.315  1.00  0.00     0.240 C 
HETATM    6  C   UNL     1     -40.566 -46.436  12.470  1.00  0.00     0.045 C 
BRANCH   5   7
HETATM    7  C   UNL     1     -41.900 -48.142  11.061  1.00  0.00     0.136 C 
HETATM    8  C   UNL     1     -42.813 -48.160  12.291  1.00  0.00     0.036 C 
BRANCH   7   9
HETATM    9  N   UNL     1     -42.614 -47.547   9.927  1.00  0.00    -0.297 N 
HETATM   10  C   UNL     1     -43.212 -46.316   9.874  1.00  0.00     0.112 A 
HETATM   11  C   UNL     1     -43.779 -46.220   8.628  1.00  0.00     0.037 A 
HETATM   12  C   UNL     1     -43.483 -47.443   8.003  1.00  0.00     0.108 A 
HETATM   13  N   UNL     1     -42.794 -48.268   8.796  1.00  0.00    -0.310 N 
ATOM     14  HN  UNL     1     -42.477 -49.217   8.597  1.00  0.00     0.186 HD
ENDBRANCH   7   9
ENDBRANCH   5   7
ENDBRANCH   3   5
ENDBRANCH   2   3
ENDBRANCH   1   2
BRANCH   1  15
HETATM   15  O   UNL     1     -39.681 -49.186  14.261  1.00  0.00    -0.392 OA
HETATM   16  H   UNL     1     -40.529 -48.812  13.976  1.00  0.00     0.210 HD
ENDBRANCH   1  15
BRANCH   1  17
HETATM   17  C   UNL     1     -39.743 -51.543  13.623  1.00  0.00     0.163 C 
BRANCH  17  18
HETATM   18  N   UNL     1     -41.046 -51.831  13.068  1.00  0.00    -0.339 N 
HETATM   19  C   UNL     1     -41.270 -52.483  11.887  1.00  0.00     0.184 A 
HETATM   20  N   UNL     1     -42.551 -52.671  11.672  1.00  0.00    -0.350 N 
HETATM   21  C   UNL     1     -43.179 -52.103  12.754  1.00  0.00     0.060 A 
ATOM     22  HN  UNL     1     -42.985 -53.137  10.875  1.00  0.00     0.166 HD
HETATM   23  C   UNL     1     -44.545 -52.008  13.043  1.00  0.00     0.039 A 
HETATM   24  C   UNL     1     -42.259 -51.570  13.650  1.00  0.00     0.062 A 
HETATM   25  C   UNL     1     -44.969 -51.380  14.233  1.00  0.00    -0.054 A 
HETATM   26  C   UNL     1     -46.447 -51.302  14.506  1.00  0.00     0.049 C 
HETATM   27  C   UNL     1     -44.016 -50.845  15.126  1.00  0.00    -0.054 A 
HETATM   28  C   UNL     1     -44.396 -50.159  16.413  1.00  0.00     0.049 C 
HETATM   29  C   UNL     1     -42.638 -50.936  14.838  1.00  0.00     0.039 A 
ENDBRANCH  17  18
ENDBRANCH   1  17
TORSDOF 8
ENDMDL
MODEL 7
REMARK VINA RESULT:      -6.3      1.710      2.608
REMARK  8 active torsions:
REMARK  status: ('A' for Active; 'I' for Inactive)
REMARK    1  A    between atoms: C_2  and  N_3 
REMARK    2  A    between atoms: C_2  and  C_20 
REMARK    3  A    between atoms: N_3  and  C_4 
REMARK    4  A    between atoms: C_4  and  C_5 
REMARK    5  A    between atoms: C_5  and  O_6 
REMARK    6  A    between atoms: C_5  and  C_7 
REMARK    7  A    between atoms: C_7  and  N_8 
REMARK    8  A    between atoms: C_20  and  N_22 
ROOT
HETATM    1  C   UNL     1     -41.238 -52.793  12.452  1.00  0.00     0.164 C 
ENDROOT
BRANCH   1   2
HETATM    2  C   UNL     1     -40.298 -51.834  13.204  1.00  0.00     0.303 C 
BRANCH   2   3
HETATM    3  N   UNL     1     -39.153 -51.441  12.383  1.00  0.00     0.092 N 
HETATM    4  H   UNL     1     -38.285 -51.565  12.908  1.00  0.00     0.316 HD
BRANCH   3   5
HETATM    5  C   UNL     1     -39.248 -50.094  11.787  1.00  0.00     0.240 C 
HETATM    6  C   UNL     1     -37.841 -49.543  11.503  1.00  0.00     0.045 C 
BRANCH   5   7
HETATM    7  C   UNL     1     -40.137 -49.101  12.605  1.00  0.00     0.136 C 
HETATM    8  C   UNL     1     -39.342 -47.971  13.267  1.00  0.00     0.036 C 
BRANCH   7   9
HETATM    9  N   UNL     1     -41.217 -48.533  11.792  1.00  0.00    -0.297 N 
HETATM   10  C   UNL     1     -42.361 -47.927  12.236  1.00  0.00     0.112 A 
HETATM   11  C   UNL     1     -43.078 -47.595  11.114  1.00  0.00     0.037 A 
HETATM   12  C   UNL     1     -42.296 -48.050  10.040  1.00  0.00     0.108 A 
HETATM   13  N   UNL     1     -41.171 -48.646  10.444  1.00  0.00    -0.310 N 
ATOM     14  HN  UNL     1     -40.447 -49.082   9.873  1.00  0.00     0.186 HD
ENDBRANCH   7   9
ENDBRANCH   5   7
ENDBRANCH   3   5
ENDBRANCH   2   3
ENDBRANCH   1   2
BRANCH   1  15
HETATM   15  O   UNL     1     -40.608 -53.220  11.232  1.00  0.00    -0.392 OA
HETATM   16  H   UNL     1     -40.602 -54.190  11.206  1.00  0.00     0.210 HD
ENDBRANCH   1  15
BRANCH   1  17
HETATM   17  C   UNL     1     -41.526 -53.993  13.360  1.00  0.00     0.163 C 
BRANCH  17  18
HETATM   18  N   UNL     1     -42.312 -53.649  14.523  1.00  0.00    -0.339 N 
HETATM   19  C   UNL     1     -41.906 -53.803  15.819  1.00  0.00     0.184 A 
HETATM   20  N   UNL     1     -42.794 -53.336  16.665  1.00  0.00    -0.350 N 
HETATM   21  C   UNL     1     -43.822 -52.874  15.879  1.00  0.00     0.060 A 
ATOM     22  HN  UNL     1     -42.734 -53.320  17.683  1.00  0.00     0.166 HD
HETATM   23  C   UNL     1     -45.033 -52.279  16.254  1.00  0.00     0.039 A 
HETATM   24  C   UNL     1     -43.547 -53.054  14.528  1.00  0.00     0.062 A 
HETATM   25  C   UNL     1     -45.950 -51.869  15.263  1.00  0.00    -0.054 A 
HETATM   26  C   UNL     1     -47.237 -51.232  15.711  1.00  0.00     0.049 C 
HETATM   27  C   UNL     1     -45.648 -52.064  13.900  1.00  0.00    -0.054 A 
HETATM   28  C   UNL     1     -46.580 -51.653  12.789  1.00  0.00     0.049 C 
HETATM   29  C   UNL     1     -44.430 -52.665  13.516  1.00  0.00     0.039 A 
ENDBRANCH  17  18
ENDBRANCH   1  17
TORSDOF 8
ENDMDL
MODEL 8
REMARK VINA RESULT:      -6.1      2.589      4.070
REMARK  8 active torsions:
REMARK  status: ('A' for Active; 'I' for Inactive)
REMARK    1  A    between atoms: C_2  and  N_3 
REMARK    2  A    between atoms: C_2  and  C_20 
REMARK    3  A    between atoms: N_3  and  C_4 
REMARK    4  A    between atoms: C_4  and  C_5 
REMARK    5  A    between atoms: C_5  and  O_6 
REMARK    6  A    between atoms: C_5  and  C_7 
REMARK    7  A    between atoms: C_7  and  N_8 
REMARK    8  A    between atoms: C_20  and  N_22 
ROOT
HETATM    1  C   UNL     1     -40.952 -49.277  11.286  1.00  0.00     0.164 C 
ENDROOT
BRANCH   1   2
HETATM    2  C   UNL     1     -41.329 -47.888  10.741  1.00  0.00     0.303 C 
BRANCH   2   3
HETATM    3  N   UNL     1     -40.163 -47.011  10.638  1.00  0.00     0.092 N 
HETATM    4  H   UNL     1     -39.321 -47.508  10.935  1.00  0.00     0.316 HD
BRANCH   3   5
HETATM    5  C   UNL     1     -40.302 -45.709  11.321  1.00  0.00     0.240 C 
HETATM    6  C   UNL     1     -39.928 -44.568  10.361  1.00  0.00     0.045 C 
BRANCH   5   7
HETATM    7  C   UNL     1     -39.546 -45.627  12.687  1.00  0.00     0.136 C 
HETATM    8  C   UNL     1     -39.335 -44.193  13.185  1.00  0.00     0.036 C 
BRANCH   7   9
HETATM    9  N   UNL     1     -40.207 -46.418  13.729  1.00  0.00    -0.297 N 
HETATM   10  C   UNL     1     -41.430 -46.186  14.300  1.00  0.00     0.112 A 
HETATM   11  C   UNL     1     -41.602 -47.167  15.245  1.00  0.00     0.037 A 
HETATM   12  C   UNL     1     -40.429 -47.936  15.184  1.00  0.00     0.108 A 
HETATM   13  N   UNL     1     -39.561 -47.473  14.279  1.00  0.00    -0.310 N 
ATOM     14  HN  UNL     1     -38.632 -47.829  14.056  1.00  0.00     0.186 HD
ENDBRANCH   7   9
ENDBRANCH   5   7
ENDBRANCH   3   5
ENDBRANCH   2   3
ENDBRANCH   1   2
BRANCH   1  15
HETATM   15  O   UNL     1     -39.612 -49.240  11.804  1.00  0.00    -0.392 OA
HETATM   16  H   UNL     1     -39.484 -48.404  12.280  1.00  0.00     0.210 HD
ENDBRANCH   1  15
BRANCH   1  17
HETATM   17  C   UNL     1     -41.948 -49.647  12.390  1.00  0.00     0.163 C 
BRANCH  17  18
HETATM   18  N   UNL     1     -42.254 -51.058  12.429  1.00  0.00    -0.339 N 
HETATM   19  C   UNL     1     -41.435 -52.053  11.972  1.00  0.00     0.184 A 
HETATM   20  N   UNL     1     -41.940 -53.242  12.205  1.00  0.00    -0.350 N 
HETATM   21  C   UNL     1     -43.141 -53.002  12.825  1.00  0.00     0.060 A 
ATOM     22  HN  UNL     1     -41.529 -54.147  11.975  1.00  0.00     0.166 HD
HETATM   23  C   UNL     1     -44.102 -53.908  13.290  1.00  0.00     0.039 A 
HETATM   24  C   UNL     1     -43.366 -51.639  12.983  1.00  0.00     0.062 A 
HETATM   25  C   UNL     1     -45.275 -53.431  13.912  1.00  0.00    -0.054 A 
HETATM   26  C   UNL     1     -46.279 -54.440  14.399  1.00  0.00     0.049 C 
HETATM   27  C   UNL     1     -45.480 -52.043  14.058  1.00  0.00    -0.054 A 
HETATM   28  C   UNL     1     -46.709 -51.462  14.709  1.00  0.00     0.049 C 
HETATM   29  C   UNL     1     -44.516 -51.125  13.589  1.00  0.00     0.039 A 
ENDBRANCH  17  18
ENDBRANCH   1  17
TORSDOF 8
ENDMDL
MODEL 9
REMARK VINA RESULT:      -5.9      2.484      3.626
REMARK  8 active torsions:
REMARK  status: ('A' for Active; 'I' for Inactive)
REMARK    1  A    between atoms: C_2  and  N_3 
REMARK    2  A    between atoms: C_2  and  C_20 
REMARK    3  A    between atoms: N_3  and  C_4 
REMARK    4  A    between atoms: C_4  and  C_5 
REMARK    5  A    between atoms: C_5  and  O_6 
REMARK    6  A    between atoms: C_5  and  C_7 
REMARK    7  A    between atoms: C_7  and  N_8 
REMARK    8  A    between atoms: C_20  and  N_22 
ROOT
HETATM    1  C   UNL     1     -40.061 -50.882  12.508  1.00  0.00     0.164 C 
ENDROOT
BRANCH   1   2
HETATM    2  C   UNL     1     -39.691 -49.773  11.507  1.00  0.00     0.303 C 
BRANCH   2   3
HETATM    3  N   UNL     1     -40.770 -49.523  10.551  1.00  0.00     0.092 N 
HETATM    4  H   UNL     1     -40.390 -49.438   9.607  1.00  0.00     0.316 HD
BRANCH   3   5
HETATM    5  C   UNL     1     -41.653 -48.389  10.892  1.00  0.00     0.240 C 
HETATM    6  C   UNL     1     -42.407 -47.913   9.640  1.00  0.00     0.045 C 
BRANCH   5   7
HETATM    7  C   UNL     1     -40.927 -47.227  11.645  1.00  0.00     0.136 C 
HETATM    8  C   UNL     1     -40.714 -45.978  10.783  1.00  0.00     0.036 C 
BRANCH   7   9
HETATM    9  N   UNL     1     -41.620 -46.857  12.884  1.00  0.00    -0.297 N 
HETATM   10  C   UNL     1     -42.540 -45.859  13.056  1.00  0.00     0.112 A 
HETATM   11  C   UNL     1     -42.875 -45.873  14.388  1.00  0.00     0.037 A 
HETATM   12  C   UNL     1     -42.098 -46.903  14.942  1.00  0.00     0.108 A 
HETATM   13  N   UNL     1     -41.311 -47.493  14.038  1.00  0.00    -0.310 N 
ATOM     14  HN  UNL     1     -40.637 -48.245  14.182  1.00  0.00     0.186 HD
ENDBRANCH   7   9
ENDBRANCH   5   7
ENDBRANCH   3   5
ENDBRANCH   2   3
ENDBRANCH   1   2
BRANCH   1  15
HETATM   15  O   UNL     1     -40.790 -50.311  13.607  1.00  0.00    -0.392 OA
HETATM   16  H   UNL     1     -41.593 -50.833  13.756  1.00  0.00     0.210 HD
ENDBRANCH   1  15
BRANCH   1  17
HETATM   17  C   UNL     1     -40.916 -51.923  11.777  1.00  0.00     0.163 C 
BRANCH  17  18
HETATM   18  N   UNL     1     -41.441 -52.943  12.655  1.00  0.00    -0.339 N 
HETATM   19  C   UNL     1     -40.686 -53.841  13.358  1.00  0.00     0.184 A 
HETATM   20  N   UNL     1     -41.428 -54.599  14.131  1.00  0.00    -0.350 N 
HETATM   21  C   UNL     1     -42.717 -54.181  13.905  1.00  0.00     0.060 A 
ATOM     22  HN  UNL     1     -41.115 -55.338  14.761  1.00  0.00     0.166 HD
HETATM   23  C   UNL     1     -43.915 -54.648  14.458  1.00  0.00     0.039 A 
HETATM   24  C   UNL     1     -42.758 -53.140  12.985  1.00  0.00     0.062 A 
HETATM   25  C   UNL     1     -45.140 -54.057  14.081  1.00  0.00    -0.054 A 
HETATM   26  C   UNL     1     -46.403 -54.587  14.703  1.00  0.00     0.049 C 
HETATM   27  C   UNL     1     -45.155 -53.003  13.145  1.00  0.00    -0.054 A 
HETATM   28  C   UNL     1     -46.424 -52.327  12.694  1.00  0.00     0.049 C 
HETATM   29  C   UNL     1     -43.950 -52.530  12.582  1.00  0.00     0.039 A 
ENDBRANCH  17  18
ENDBRANCH   1  17
TORSDOF 8
ENDMDL
