MODEL 1
REMARK VINA RESULT:      -5.0      0.000      0.000
REMARK  6 active torsions:
REMARK  status: ('A' for Active; 'I' for Inactive)
REMARK    1  A    between atoms: C_2  and  N_3 
REMARK    2  A    between atoms: C_2  and  C_9 
REMARK    3  A    between atoms: N_3  and  C_4 
REMARK    4  A    between atoms: C_4  and  C_5 
REMARK    5  A    between atoms: C_5  and  C_6 
REMARK       I    between atoms: C_6  and  N_8 
REMARK    6  A    between atoms: C_9  and  N_11 
ROOT
HETATM    1  C   UNL     1     -42.115 -48.203  12.296  1.00  0.00     0.045 C 
HETATM    2  C   UNL     1     -41.683 -48.981  11.041  1.00  0.00     0.240 C 
ENDROOT
BRANCH   2   3
HETATM    3  N   UNL     1     -41.836 -48.122   9.838  1.00  0.00     0.090 N 
HETATM    4  H   UNL     1     -42.248 -48.673   9.085  1.00  0.00     0.316 HD
BRANCH   3   5
HETATM    5  C   UNL     1     -42.623 -46.905  10.056  1.00  0.00     0.279 C 
BRANCH   5   6
HETATM    6  C   UNL     1     -43.327 -46.460   8.777  1.00  0.00     0.132 C 
BRANCH   6   7
HETATM    7  C   UNL     1     -43.829 -47.673   8.025  1.00  0.00     0.216 C 
HETATM    8  O   UNL     1     -43.172 -48.313   7.211  1.00  0.00    -0.274 OA
HETATM    9  N   UNL     1     -45.114 -48.025   8.309  1.00  0.00    -0.370 N 
HETATM   10  H   UNL     1     -45.657 -47.588   9.039  1.00  0.00     0.159 HD
HETATM   11  H   UNL     1     -45.481 -48.851   7.853  1.00  0.00     0.159 HD
ENDBRANCH   6   7
ENDBRANCH   5   6
ENDBRANCH   3   5
ENDBRANCH   2   3
BRANCH   2  12
HETATM   12  C   UNL     1     -40.276 -49.641  11.203  1.00  0.00     0.136 C 
HETATM   13  C   UNL     1     -39.250 -48.743  11.904  1.00  0.00     0.036 C 
BRANCH  12  14
HETATM   14  N   UNL     1     -40.353 -50.931  11.893  1.00  0.00    -0.297 N 
HETATM   15  C   UNL     1     -39.810 -51.230  13.113  1.00  0.00     0.112 A 
HETATM   16  C   UNL     1     -40.168 -52.528  13.386  1.00  0.00     0.037 A 
HETATM   17  C   UNL     1     -40.946 -52.921  12.283  1.00  0.00     0.108 A 
HETATM   18  N   UNL     1     -41.087 -51.944  11.383  1.00  0.00    -0.310 N 
ATOM     19  HN  UNL     1     -41.623 -51.960  10.515  1.00  0.00     0.186 HD
ENDBRANCH  12  14
ENDBRANCH   2  12
TORSDOF 6
ENDMDL
MODEL 2
REMARK VINA RESULT:      -5.0      3.830      5.040
REMARK  6 active torsions:
REMARK  status: ('A' for Active; 'I' for Inactive)
REMARK    1  A    between atoms: C_2  and  N_3 
REMARK    2  A    between atoms: C_2  and  C_9 
REMARK    3  A    between atoms: N_3  and  C_4 
REMARK    4  A    between atoms: C_4  and  C_5 
REMARK    5  A    between atoms: C_5  and  C_6 
REMARK       I    between atoms: C_6  and  N_8 
REMARK    6  A    between atoms: C_9  and  N_11 
ROOT
HETATM    1  C   UNL     1     -41.491 -50.282  13.262  1.00  0.00     0.045 C 
HETATM    2  C   UNL     1     -41.183 -51.173  12.046  1.00  0.00     0.240 C 
ENDROOT
BRANCH   2   3
HETATM    3  N   UNL     1     -40.051 -50.599  11.274  1.00  0.00     0.090 N 
HETATM    4  H   UNL     1     -40.299 -50.578  10.285  1.00  0.00     0.316 HD
BRANCH   3   5
HETATM    5  C   UNL     1     -39.628 -49.267  11.714  1.00  0.00     0.279 C 
BRANCH   5   6
HETATM    6  C   UNL     1     -38.156 -49.254  12.116  1.00  0.00     0.132 C 
BRANCH   6   7
HETATM    7  C   UNL     1     -37.419 -50.354  11.382  1.00  0.00     0.216 C 
HETATM    8  O   UNL     1     -37.141 -51.449  11.859  1.00  0.00    -0.274 OA
HETATM    9  N   UNL     1     -37.058 -50.040  10.107  1.00  0.00    -0.370 N 
HETATM   10  H   UNL     1     -37.348 -49.192   9.643  1.00  0.00     0.159 HD
HETATM   11  H   UNL     1     -36.591 -50.759   9.567  1.00  0.00     0.159 HD
ENDBRANCH   6   7
ENDBRANCH   5   6
ENDBRANCH   3   5
ENDBRANCH   2   3
BRANCH   2  12
HETATM   12  C   UNL     1     -41.019 -52.678  12.436  1.00  0.00     0.136 C 
HETATM   13  C   UNL     1     -40.015 -52.915  13.570  1.00  0.00     0.036 C 
BRANCH  12  14
HETATM   14  N   UNL     1     -42.301 -53.298  12.777  1.00  0.00    -0.297 N 
HETATM   15  C   UNL     1     -42.576 -54.024  13.904  1.00  0.00     0.112 A 
HETATM   16  C   UNL     1     -43.904 -54.367  13.828  1.00  0.00     0.037 A 
HETATM   17  C   UNL     1     -44.352 -53.783  12.630  1.00  0.00     0.108 A 
HETATM   18  N   UNL     1     -43.390 -53.106  11.999  1.00  0.00    -0.310 N 
ATOM     19  HN  UNL     1     -43.459 -52.571  11.133  1.00  0.00     0.186 HD
ENDBRANCH  12  14
ENDBRANCH   2  12
TORSDOF 6
ENDMDL
MODEL 3
REMARK VINA RESULT:      -5.0      2.000      5.640
REMARK  6 active torsions:
REMARK  status: ('A' for Active; 'I' for Inactive)
REMARK    1  A    between atoms: C_2  and  N_3 
REMARK    2  A    between atoms: C_2  and  C_9 
REMARK    3  A    between atoms: N_3  and  C_4 
REMARK    4  A    between atoms: C_4  and  C_5 
REMARK    5  A    between atoms: C_5  and  C_6 
REMARK       I    between atoms: C_6  and  N_8 
REMARK    6  A    between atoms: C_9  and  N_11 
ROOT
HETATM    1  C   UNL     1     -40.207 -47.591  11.601  1.00  0.00     0.045 C 
HETATM    2  C   UNL     1     -41.172 -48.439  10.754  1.00  0.00     0.240 C 
ENDROOT
BRANCH   2   3
HETATM    3  N   UNL     1     -40.661 -49.831  10.650  1.00  0.00     0.090 N 
HETATM    4  H   UNL     1     -40.375 -50.010   9.687  1.00  0.00     0.316 HD
BRANCH   3   5
HETATM    5  C   UNL     1     -39.561 -50.145  11.566  1.00  0.00     0.279 C 
BRANCH   5   6
HETATM    6  C   UNL     1     -39.963 -51.222  12.571  1.00  0.00     0.132 C 
BRANCH   6   7
HETATM    7  C   UNL     1     -41.154 -51.991  12.041  1.00  0.00     0.216 C 
HETATM    8  O   UNL     1     -42.325 -51.655  12.185  1.00  0.00    -0.274 OA
HETATM    9  N   UNL     1     -40.838 -53.136  11.374  1.00  0.00    -0.370 N 
HETATM   10  H   UNL     1     -39.891 -53.401  11.150  1.00  0.00     0.159 HD
HETATM   11  H   UNL     1     -41.604 -53.666  10.975  1.00  0.00     0.159 HD
ENDBRANCH   6   7
ENDBRANCH   5   6
ENDBRANCH   3   5
ENDBRANCH   2   3
BRANCH   2  12
HETATM   12  C   UNL     1     -42.653 -48.316  11.236  1.00  0.00     0.136 C 
HETATM   13  C   UNL     1     -42.796 -47.767  12.660  1.00  0.00     0.036 C 
BRANCH  12  14
HETATM   14  N   UNL     1     -43.462 -47.512  10.316  1.00  0.00    -0.297 N 
HETATM   15  C   UNL     1     -43.068 -46.366   9.681  1.00  0.00     0.112 A 
HETATM   16  C   UNL     1     -44.122 -45.983   8.888  1.00  0.00     0.037 A 
HETATM   17  C   UNL     1     -45.099 -46.973   9.095  1.00  0.00     0.108 A 
HETATM   18  N   UNL     1     -44.694 -47.923   9.941  1.00  0.00    -0.310 N 
ATOM     19  HN  UNL     1     -45.196 -48.761  10.235  1.00  0.00     0.186 HD
ENDBRANCH  12  14
ENDBRANCH   2  12
TORSDOF 6
ENDMDL
MODEL 4
REMARK VINA RESULT:      -4.7      3.093      4.682
REMARK  6 active torsions:
REMARK  status: ('A' for Active; 'I' for Inactive)
REMARK    1  A    between atoms: C_2  and  N_3 
REMARK    2  A    between atoms: C_2  and  C_9 
REMARK    3  A    between atoms: N_3  and  C_4 
REMARK    4  A    between atoms: C_4  and  C_5 
REMARK    5  A    between atoms: C_5  and  C_6 
REMARK       I    between atoms: C_6  and  N_8 
REMARK    6  A    between atoms: C_9  and  N_11 
ROOT
HETATM    1  C   UNL     1     -42.814 -47.757  12.236  1.00  0.00     0.045 C 
HETATM    2  C   UNL     1     -41.694 -48.808  12.160  1.00  0.00     0.240 C 
ENDROOT
BRANCH   2   3
HETATM    3  N   UNL     1     -42.260 -50.119  11.747  1.00  0.00     0.090 N 
HETATM    4  H   UNL     1     -41.626 -50.560  11.080  1.00  0.00     0.316 HD
BRANCH   3   5
HETATM    5  C   UNL     1     -42.539 -51.036  12.855  1.00  0.00     0.279 C 
BRANCH   5   6
HETATM    6  C   UNL     1     -42.499 -52.491  12.397  1.00  0.00     0.132 C 
BRANCH   6   7
HETATM    7  C   UNL     1     -41.063 -52.967  12.344  1.00  0.00     0.216 C 
HETATM    8  O   UNL     1     -40.081 -52.234  12.375  1.00  0.00    -0.274 OA
HETATM    9  N   UNL     1     -40.917 -54.318  12.246  1.00  0.00    -0.370 N 
HETATM   10  H   UNL     1     -41.690 -54.964  12.313  1.00  0.00     0.159 HD
HETATM   11  H   UNL     1     -39.972 -54.683  12.240  1.00  0.00     0.159 HD
ENDBRANCH   6   7
ENDBRANCH   5   6
ENDBRANCH   3   5
ENDBRANCH   2   3
BRANCH   2  12
HETATM   12  C   UNL     1     -40.475 -48.321  11.311  1.00  0.00     0.136 C 
HETATM   13  C   UNL     1     -40.297 -46.798  11.304  1.00  0.00     0.036 C 
BRANCH  12  14
HETATM   14  N   UNL     1     -39.226 -48.959  11.732  1.00  0.00    -0.297 N 
HETATM   15  C   UNL     1     -38.653 -48.880  12.973  1.00  0.00     0.112 A 
HETATM   16  C   UNL     1     -37.527 -49.664  12.928  1.00  0.00     0.037 A 
HETATM   17  C   UNL     1     -37.515 -50.194  11.625  1.00  0.00     0.108 A 
HETATM   18  N   UNL     1     -38.562 -49.792  10.900  1.00  0.00    -0.310 N 
ATOM     19  HN  UNL     1     -38.803 -50.052   9.944  1.00  0.00     0.186 HD
ENDBRANCH  12  14
ENDBRANCH   2  12
TORSDOF 6
ENDMDL
MODEL 5
REMARK VINA RESULT:      -4.7      2.146      2.272
REMARK  6 active torsions:
REMARK  status: ('A' for Active; 'I' for Inactive)
REMARK    1  A    between atoms: C_2  and  N_3 
REMARK    2  A    between atoms: C_2  and  C_9 
REMARK    3  A    between atoms: N_3  and  C_4 
REMARK    4  A    between atoms: C_4  and  C_5 
REMARK    5  A    between atoms: C_5  and  C_6 
REMARK       I    between atoms: C_6  and  N_8 
REMARK    6  A    between atoms: C_9  and  N_11 
ROOT
HETATM    1  C   UNL     1     -42.549 -48.385  12.833  1.00  0.00     0.045 C 
HETATM    2  C   UNL     1     -41.821 -48.587  11.493  1.00  0.00     0.240 C 
ENDROOT
BRANCH   2   3
HETATM    3  N   UNL     1     -42.749 -48.304  10.368  1.00  0.00     0.090 N 
HETATM    4  H   UNL     1     -43.598 -48.858  10.488  1.00  0.00     0.316 HD
BRANCH   3   5
HETATM    5  C   UNL     1     -43.093 -46.889  10.204  1.00  0.00     0.279 C 
BRANCH   5   6
HETATM    6  C   UNL     1     -43.290 -46.530   8.734  1.00  0.00     0.132 C 
BRANCH   6   7
HETATM    7  C   UNL     1     -43.830 -47.730   7.985  1.00  0.00     0.216 C 
HETATM    8  O   UNL     1     -44.961 -48.185   8.114  1.00  0.00    -0.274 OA
HETATM    9  N   UNL     1     -42.943 -48.309   7.128  1.00  0.00    -0.370 N 
HETATM   10  H   UNL     1     -42.038 -47.915   6.920  1.00  0.00     0.159 HD
HETATM   11  H   UNL     1     -43.272 -49.097   6.582  1.00  0.00     0.159 HD
ENDBRANCH   6   7
ENDBRANCH   5   6
ENDBRANCH   3   5
ENDBRANCH   2   3
BRANCH   2  12
HETATM   12  C   UNL     1     -40.460 -47.822  11.432  1.00  0.00     0.136 C 
HETATM   13  C   UNL     1     -40.423 -46.558  12.300  1.00  0.00     0.036 C 
BRANCH  12  14
HETATM   14  N   UNL     1     -39.330 -48.687  11.777  1.00  0.00    -0.297 N 
HETATM   15  C   UNL     1     -38.637 -48.684  12.957  1.00  0.00     0.112 A 
HETATM   16  C   UNL     1     -37.701 -49.684  12.857  1.00  0.00     0.037 A 
HETATM   17  C   UNL     1     -37.920 -50.250  11.589  1.00  0.00     0.108 A 
HETATM   18  N   UNL     1     -38.930 -49.667  10.936  1.00  0.00    -0.310 N 
ATOM     19  HN  UNL     1     -39.309 -49.906  10.020  1.00  0.00     0.186 HD
ENDBRANCH  12  14
ENDBRANCH   2  12
TORSDOF 6
ENDMDL
MODEL 6
REMARK VINA RESULT:      -4.7      3.117      6.279
REMARK  6 active torsions:
REMARK  status: ('A' for Active; 'I' for Inactive)
REMARK    1  A    between atoms: C_2  and  N_3 
REMARK    2  A    between atoms: C_2  and  C_9 
REMARK    3  A    between atoms: N_3  and  C_4 
REMARK    4  A    between atoms: C_4  and  C_5 
REMARK    5  A    between atoms: C_5  and  C_6 
REMARK       I    between atoms: C_6  and  N_8 
REMARK    6  A    between atoms: C_9  and  N_11 
ROOT
HETATM    1  C   UNL     1     -42.658 -48.663  12.089  1.00  0.00     0.045 C 
HETATM    2  C   UNL     1     -41.564 -48.166  11.129  1.00  0.00     0.240 C 
ENDROOT
BRANCH   2   3
HETATM    3  N   UNL     1     -40.862 -49.326  10.520  1.00  0.00     0.090 N 
HETATM    4  H   UNL     1     -40.274 -48.995   9.755  1.00  0.00     0.316 HD
BRANCH   3   5
HETATM    5  C   UNL     1     -40.064 -50.116  11.461  1.00  0.00     0.279 C 
BRANCH   5   6
HETATM    6  C   UNL     1     -38.737 -49.433  11.776  1.00  0.00     0.132 C 
BRANCH   6   7
HETATM    7  C   UNL     1     -37.592 -50.325  11.347  1.00  0.00     0.216 C 
HETATM    8  O   UNL     1     -37.099 -51.212  12.036  1.00  0.00    -0.274 OA
HETATM    9  N   UNL     1     -37.112 -50.070  10.098  1.00  0.00    -0.370 N 
HETATM   10  H   UNL     1     -37.546 -49.418   9.462  1.00  0.00     0.159 HD
HETATM   11  H   UNL     1     -36.366 -50.665   9.757  1.00  0.00     0.159 HD
ENDBRANCH   6   7
ENDBRANCH   5   6
ENDBRANCH   3   5
ENDBRANCH   2   3
BRANCH   2  12
HETATM   12  C   UNL     1     -42.100 -47.111  10.107  1.00  0.00     0.136 C 
HETATM   13  C   UNL     1     -43.567 -47.323   9.715  1.00  0.00     0.036 C 
BRANCH  12  14
HETATM   14  N   UNL     1     -41.913 -45.740  10.587  1.00  0.00    -0.297 N 
HETATM   15  C   UNL     1     -40.717 -45.095  10.752  1.00  0.00     0.112 A 
HETATM   16  C   UNL     1     -41.020 -43.824  11.173  1.00  0.00     0.037 A 
HETATM   17  C   UNL     1     -42.425 -43.788  11.212  1.00  0.00     0.108 A 
HETATM   18  N   UNL     1     -42.977 -44.942  10.829  1.00  0.00    -0.310 N 
ATOM     19  HN  UNL     1     -43.968 -45.169  10.741  1.00  0.00     0.186 HD
ENDBRANCH  12  14
ENDBRANCH   2  12
TORSDOF 6
ENDMDL
MODEL 7
REMARK VINA RESULT:      -4.6      3.361      3.787
REMARK  6 active torsions:
REMARK  status: ('A' for Active; 'I' for Inactive)
REMARK    1  A    between atoms: C_2  and  N_3 
REMARK    2  A    between atoms: C_2  and  C_9 
REMARK    3  A    between atoms: N_3  and  C_4 
REMARK    4  A    between atoms: C_4  and  C_5 
REMARK    5  A    between atoms: C_5  and  C_6 
REMARK       I    between atoms: C_6  and  N_8 
REMARK    6  A    between atoms: C_9  and  N_11 
ROOT
HETATM    1  C   UNL     1     -42.371 -48.329  13.633  1.00  0.00     0.045 C 
HETATM    2  C   UNL     1     -43.019 -49.342  12.673  1.00  0.00     0.240 C 
ENDROOT
BRANCH   2   3
HETATM    3  N   UNL     1     -42.304 -49.332  11.371  1.00  0.00     0.090 N 
HETATM    4  H   UNL     1     -42.751 -49.998  10.740  1.00  0.00     0.316 HD
BRANCH   3   5
HETATM    5  C   UNL     1     -42.220 -48.015  10.733  1.00  0.00     0.279 C 
BRANCH   5   6
HETATM    6  C   UNL     1     -43.543 -47.629  10.077  1.00  0.00     0.132 C 
BRANCH   6   7
HETATM    7  C   UNL     1     -43.284 -47.113   8.678  1.00  0.00     0.216 C 
HETATM    8  O   UNL     1     -43.289 -45.930   8.355  1.00  0.00    -0.274 OA
HETATM    9  N   UNL     1     -43.045 -48.083   7.752  1.00  0.00    -0.370 N 
HETATM   10  H   UNL     1     -42.937 -49.059   7.988  1.00  0.00     0.159 HD
HETATM   11  H   UNL     1     -42.835 -47.782   6.808  1.00  0.00     0.159 HD
ENDBRANCH   6   7
ENDBRANCH   5   6
ENDBRANCH   3   5
ENDBRANCH   2   3
BRANCH   2  12
HETATM   12  C   UNL     1     -43.187 -50.754  13.321  1.00  0.00     0.136 C 
HETATM   13  C   UNL     1     -42.418 -50.925  14.636  1.00  0.00     0.036 C 
BRANCH  12  14
HETATM   14  N   UNL     1     -44.596 -51.097  13.528  1.00  0.00    -0.297 N 
HETATM   15  C   UNL     1     -45.270 -51.073  14.719  1.00  0.00     0.112 A 
HETATM   16  C   UNL     1     -46.567 -51.421  14.435  1.00  0.00     0.037 A 
HETATM   17  C   UNL     1     -46.586 -51.615  13.043  1.00  0.00     0.108 A 
HETATM   18  N   UNL     1     -45.396 -51.392  12.479  1.00  0.00    -0.310 N 
ATOM     19  HN  UNL     1     -45.149 -51.434  11.490  1.00  0.00     0.186 HD
ENDBRANCH  12  14
ENDBRANCH   2  12
TORSDOF 6
ENDMDL
MODEL 8
REMARK VINA RESULT:      -4.6      3.804      5.397
REMARK  6 active torsions:
REMARK  status: ('A' for Active; 'I' for Inactive)
REMARK    1  A    between atoms: C_2  and  N_3 
REMARK    2  A    between atoms: C_2  and  C_9 
REMARK    3  A    between atoms: N_3  and  C_4 
REMARK    4  A    between atoms: C_4  and  C_5 
REMARK    5  A    between atoms: C_5  and  C_6 
REMARK       I    between atoms: C_6  and  N_8 
REMARK    6  A    between atoms: C_9  and  N_11 
ROOT
HETATM    1  C   UNL     1     -42.930 -50.174  13.106  1.00  0.00     0.045 C 
HETATM    2  C   UNL     1     -41.870 -51.078  12.453  1.00  0.00     0.240 C 
ENDROOT
BRANCH   2   3
HETATM    3  N   UNL     1     -42.514 -52.310  11.928  1.00  0.00     0.090 N 
HETATM    4  H   UNL     1     -41.859 -53.089  12.009  1.00  0.00     0.316 HD
BRANCH   3   5
HETATM    5  C   UNL     1     -43.784 -52.655  12.571  1.00  0.00     0.279 C 
BRANCH   5   6
HETATM    6  C   UNL     1     -43.954 -54.166  12.697  1.00  0.00     0.132 C 
BRANCH   6   7
HETATM    7  C   UNL     1     -45.216 -54.473  13.473  1.00  0.00     0.216 C 
HETATM    8  O   UNL     1     -45.399 -55.486  14.140  1.00  0.00    -0.274 OA
HETATM    9  N   UNL     1     -46.186 -53.522  13.376  1.00  0.00    -0.370 N 
HETATM   10  H   UNL     1     -46.045 -52.633  12.919  1.00  0.00     0.159 HD
HETATM   11  H   UNL     1     -47.037 -53.671  13.906  1.00  0.00     0.159 HD
ENDBRANCH   6   7
ENDBRANCH   5   6
ENDBRANCH   3   5
ENDBRANCH   2   3
BRANCH   2  12
HETATM   12  C   UNL     1     -40.983 -50.309  11.422  1.00  0.00     0.136 C 
HETATM   13  C   UNL     1     -41.389 -48.843  11.231  1.00  0.00     0.036 C 
BRANCH  12  14
HETATM   14  N   UNL     1     -39.560 -50.383  11.762  1.00  0.00    -0.297 N 
HETATM   15  C   UNL     1     -39.023 -50.968  12.877  1.00  0.00     0.112 A 
HETATM   16  C   UNL     1     -37.660 -50.843  12.758  1.00  0.00     0.037 A 
HETATM   17  C   UNL     1     -37.469 -50.190  11.528  1.00  0.00     0.108 A 
HETATM   18  N   UNL     1     -38.620 -49.932  10.902  1.00  0.00    -0.310 N 
ATOM     19  HN  UNL     1     -38.757 -49.497   9.990  1.00  0.00     0.186 HD
ENDBRANCH  12  14
ENDBRANCH   2  12
TORSDOF 6
ENDMDL
MODEL 9
REMARK VINA RESULT:      -4.4      2.064      2.505
REMARK  6 active torsions:
REMARK  status: ('A' for Active; 'I' for Inactive)
REMARK    1  A    between atoms: C_2  and  N_3 
REMARK    2  A    between atoms: C_2  and  C_9 
REMARK    3  A    between atoms: N_3  and  C_4 
REMARK    4  A    between atoms: C_4  and  C_5 
REMARK    5  A    between atoms: C_5  and  C_6 
REMARK       I    between atoms: C_6  and  N_8 
REMARK    6  A    between atoms: C_9  and  N_11 
ROOT
HETATM    1  C   UNL     1     -42.414 -49.435  13.464  1.00  0.00     0.045 C 
HETATM    2  C   UNL     1     -42.379 -50.153  12.103  1.00  0.00     0.240 C 
ENDROOT
BRANCH   2   3
HETATM    3  N   UNL     1     -41.925 -49.211  11.047  1.00  0.00     0.090 N 
HETATM    4  H   UNL     1     -42.168 -49.593  10.133  1.00  0.00     0.316 HD
BRANCH   3   5
HETATM    5  C   UNL     1     -42.454 -47.850  11.178  1.00  0.00     0.279 C 
BRANCH   5   6
HETATM    6  C   UNL     1     -43.675 -47.639  10.288  1.00  0.00     0.132 C 
BRANCH   6   7
HETATM    7  C   UNL     1     -43.241 -47.055   8.960  1.00  0.00     0.216 C 
HETATM    8  O   UNL     1     -43.057 -45.862   8.746  1.00  0.00    -0.274 OA
HETATM    9  N   UNL     1     -43.068 -47.972   7.968  1.00  0.00    -0.370 N 
HETATM   10  H   UNL     1     -43.114 -48.969   8.122  1.00  0.00     0.159 HD
HETATM   11  H   UNL     1     -42.746 -47.630   7.071  1.00  0.00     0.159 HD
ENDBRANCH   6   7
ENDBRANCH   5   6
ENDBRANCH   3   5
ENDBRANCH   2   3
BRANCH   2  12
HETATM   12  C   UNL     1     -41.596 -51.503  12.161  1.00  0.00     0.136 C 
HETATM   13  C   UNL     1     -40.304 -51.433  12.984  1.00  0.00     0.036 C 
BRANCH  12  14
HETATM   14  N   UNL     1     -42.432 -52.600  12.654  1.00  0.00    -0.297 N 
HETATM   15  C   UNL     1     -42.262 -53.285  13.827  1.00  0.00     0.112 A 
HETATM   16  C   UNL     1     -43.296 -54.186  13.900  1.00  0.00     0.037 A 
HETATM   17  C   UNL     1     -44.052 -53.955  12.737  1.00  0.00     0.108 A 
HETATM   18  N   UNL     1     -43.548 -52.971  11.987  1.00  0.00    -0.310 N 
ATOM     19  HN  UNL     1     -43.918 -52.589  11.116  1.00  0.00     0.186 HD
ENDBRANCH  12  14
ENDBRANCH   2  12
TORSDOF 6
ENDMDL
