MODEL 1
REMARK VINA RESULT:      -6.5      0.000      0.000
REMARK  4 active torsions:
REMARK  status: ('A' for Active; 'I' for Inactive)
REMARK    1  A    between atoms: C_2  and  C_5 
REMARK    2  A    between atoms: C_7  and  N_8 
REMARK       I    between atoms: N_8  and  C_9 
REMARK       I    between atoms: C_9  and  N_11 
REMARK    3  A    between atoms: N_11  and  C_12 
REMARK    4  A    between atoms: C_16  and  O_17 
ROOT
HETATM    1  N   UNL     1     -41.150 -50.900  12.223  1.00  0.00    -0.293 N 
HETATM    2  C   UNL     1     -40.930 -49.715  11.582  1.00  0.00     0.322 C 
HETATM    3  O   UNL     1     -39.789 -49.268  11.493  1.00  0.00    -0.247 OA
HETATM    4  N   UNL     1     -42.017 -49.115  11.022  1.00  0.00    -0.336 N 
HETATM    5  H   UNL     1     -40.311 -51.358  12.547  1.00  0.00     0.172 HD
HETATM    6  H   UNL     1     -42.913 -49.396  11.412  1.00  0.00     0.164 HD
ENDROOT
BRANCH   1   7
HETATM    7  C   UNL     1     -42.355 -51.545  12.400  1.00  0.00     0.132 A 
HETATM    8  C   UNL     1     -43.396 -51.092  13.240  1.00  0.00     0.086 A 
HETATM    9  C   UNL     1     -44.384 -52.047  13.122  1.00  0.00     0.087 A 
HETATM   10  O   UNL     1     -43.965 -52.992  12.237  1.00  0.00    -0.240 OA
HETATM   11  N   UNL     1     -42.706 -52.686  11.793  1.00  0.00    -0.245 N 
ATOM     12  HN  UNL     1     -42.145 -53.220  11.129  1.00  0.00     0.196 HD
BRANCH   9  13
HETATM   13  C   UNL     1     -45.756 -52.235  13.696  1.00  0.00     0.000 C 
HETATM   14  C   UNL     1     -46.794 -51.853  12.627  1.00  0.00     0.021 C 
HETATM   15  C   UNL     1     -45.947 -51.340  14.935  1.00  0.00     0.021 C 
HETATM   16  C   UNL     1     -45.977 -53.700  14.123  1.00  0.00     0.021 C 
ENDBRANCH   9  13
ENDBRANCH   1   7
BRANCH   4  17
HETATM   17  C   UNL     1     -41.942 -47.896  10.253  1.00  0.00     0.114 C 
HETATM   18  C   UNL     1     -41.920 -46.655  11.157  1.00  0.00     0.028 C 
HETATM   19  C   UNL     1     -42.690 -45.568  10.403  1.00  0.00     0.005 C 
HETATM   20  C   UNL     1     -43.088 -46.179   9.062  1.00  0.00     0.034 C 
HETATM   21  C   UNL     1     -43.170 -47.671   9.349  1.00  0.00     0.140 C 
BRANCH  21  22
HETATM   22  O   UNL     1     -44.408 -47.927  10.021  1.00  0.00    -0.394 OA
HETATM   23  H   UNL     1     -45.020 -47.205   9.796  1.00  0.00     0.210 HD
ENDBRANCH  21  22
ENDBRANCH   4  17
TORSDOF 4
ENDMDL
MODEL 2
REMARK VINA RESULT:      -6.2      3.027      3.650
REMARK  4 active torsions:
REMARK  status: ('A' for Active; 'I' for Inactive)
REMARK    1  A    between atoms: C_2  and  C_5 
REMARK    2  A    between atoms: C_7  and  N_8 
REMARK       I    between atoms: N_8  and  C_9 
REMARK       I    between atoms: C_9  and  N_11 
REMARK    3  A    between atoms: N_11  and  C_12 
REMARK    4  A    between atoms: C_16  and  O_17 
ROOT
HETATM    1  N   UNL     1     -41.425 -53.981  13.374  1.00  0.00    -0.293 N 
HETATM    2  C   UNL     1     -40.338 -53.154  13.384  1.00  0.00     0.322 C 
HETATM    3  O   UNL     1     -39.210 -53.624  13.512  1.00  0.00    -0.247 OA
HETATM    4  N   UNL     1     -40.582 -51.827  13.195  1.00  0.00    -0.336 N 
HETATM    5  H   UNL     1     -41.198 -54.963  13.428  1.00  0.00     0.172 HD
HETATM    6  H   UNL     1     -41.530 -51.528  13.408  1.00  0.00     0.164 HD
ENDROOT
BRANCH   1   7
HETATM    7  C   UNL     1     -42.748 -53.623  13.227  1.00  0.00     0.132 A 
HETATM    8  C   UNL     1     -43.520 -52.974  14.215  1.00  0.00     0.086 A 
HETATM    9  C   UNL     1     -44.770 -52.836  13.648  1.00  0.00     0.087 A 
HETATM   10  O   UNL     1     -44.729 -53.344  12.386  1.00  0.00    -0.240 OA
HETATM   11  N   UNL     1     -43.478 -53.837  12.126  1.00  0.00    -0.245 N 
ATOM     12  HN  UNL     1     -43.164 -54.280  11.262  1.00  0.00     0.196 HD
BRANCH   9  13
HETATM   13  C   UNL     1     -46.077 -52.245  14.085  1.00  0.00     0.000 C 
HETATM   14  C   UNL     1     -46.966 -53.370  14.639  1.00  0.00     0.021 C 
HETATM   15  C   UNL     1     -46.786 -51.571  12.895  1.00  0.00     0.021 C 
HETATM   16  C   UNL     1     -45.859 -51.180  15.180  1.00  0.00     0.021 C 
ENDBRANCH   9  13
ENDBRANCH   1   7
BRANCH   4  17
HETATM   17  C   UNL     1     -39.539 -50.833  13.112  1.00  0.00     0.114 C 
HETATM   18  C   UNL     1     -39.980 -49.495  13.720  1.00  0.00     0.028 C 
HETATM   19  C   UNL     1     -39.315 -48.406  12.876  1.00  0.00     0.005 C 
HETATM   20  C   UNL     1     -38.460 -49.132  11.839  1.00  0.00     0.034 C 
HETATM   21  C   UNL     1     -39.158 -50.472  11.663  1.00  0.00     0.140 C 
BRANCH  21  22
HETATM   22  O   UNL     1     -40.300 -50.271  10.823  1.00  0.00    -0.394 OA
HETATM   23  H   UNL     1     -40.430 -49.311  10.727  1.00  0.00     0.210 HD
ENDBRANCH  21  22
ENDBRANCH   4  17
TORSDOF 4
ENDMDL
MODEL 3
REMARK VINA RESULT:      -6.1      3.110      6.577
REMARK  4 active torsions:
REMARK  status: ('A' for Active; 'I' for Inactive)
REMARK    1  A    between atoms: C_2  and  C_5 
REMARK    2  A    between atoms: C_7  and  N_8 
REMARK       I    between atoms: N_8  and  C_9 
REMARK       I    between atoms: C_9  and  N_11 
REMARK    3  A    between atoms: N_11  and  C_12 
REMARK    4  A    between atoms: C_16  and  O_17 
ROOT
HETATM    1  N   UNL     1     -42.636 -52.778  11.776  1.00  0.00    -0.293 N 
HETATM    2  C   UNL     1     -43.753 -53.058  12.510  1.00  0.00     0.322 C 
HETATM    3  O   UNL     1     -44.485 -53.989  12.182  1.00  0.00    -0.247 OA
HETATM    4  N   UNL     1     -43.959 -52.296  13.620  1.00  0.00    -0.336 N 
HETATM    5  H   UNL     1     -42.469 -53.418  11.015  1.00  0.00     0.172 HD
HETATM    6  H   UNL     1     -43.489 -51.394  13.617  1.00  0.00     0.164 HD
ENDROOT
BRANCH   1   7
HETATM    7  C   UNL     1     -41.708 -51.786  12.011  1.00  0.00     0.132 A 
HETATM    8  C   UNL     1     -40.425 -51.998  12.563  1.00  0.00     0.086 A 
HETATM    9  C   UNL     1     -39.862 -50.741  12.635  1.00  0.00     0.087 A 
HETATM   10  O   UNL     1     -40.748 -49.842  12.124  1.00  0.00    -0.240 OA
HETATM   11  N   UNL     1     -41.894 -50.488  11.742  1.00  0.00    -0.245 N 
ATOM     12  HN  UNL     1     -42.726 -50.064  11.333  1.00  0.00     0.196 HD
BRANCH   9  13
HETATM   13  C   UNL     1     -38.545 -50.189  13.092  1.00  0.00     0.000 C 
HETATM   14  C   UNL     1     -37.451 -50.653  12.116  1.00  0.00     0.021 C 
HETATM   15  C   UNL     1     -38.213 -50.695  14.509  1.00  0.00     0.021 C 
HETATM   16  C   UNL     1     -38.577 -48.647  13.128  1.00  0.00     0.021 C 
ENDBRANCH   9  13
ENDBRANCH   1   7
BRANCH   4  17
HETATM   17  C   UNL     1     -45.054 -52.509  14.536  1.00  0.00     0.114 C 
HETATM   18  C   UNL     1     -46.320 -51.763  14.092  1.00  0.00     0.028 C 
HETATM   19  C   UNL     1     -47.020 -51.313  15.376  1.00  0.00     0.005 C 
HETATM   20  C   UNL     1     -46.181 -51.855  16.531  1.00  0.00     0.034 C 
HETATM   21  C   UNL     1     -44.780 -51.959  15.949  1.00  0.00     0.140 C 
BRANCH  21  22
HETATM   22  O   UNL     1     -44.207 -50.647  15.932  1.00  0.00    -0.394 OA
HETATM   23  H   UNL     1     -43.896 -50.450  16.833  1.00  0.00     0.210 HD
ENDBRANCH  21  22
ENDBRANCH   4  17
TORSDOF 4
ENDMDL
MODEL 4
REMARK VINA RESULT:      -6.1      2.061      6.149
REMARK  4 active torsions:
REMARK  status: ('A' for Active; 'I' for Inactive)
REMARK    1  A    between atoms: C_2  and  C_5 
REMARK    2  A    between atoms: C_7  and  N_8 
REMARK       I    between atoms: N_8  and  C_9 
REMARK       I    between atoms: C_9  and  N_11 
REMARK    3  A    between atoms: N_11  and  C_12 
REMARK    4  A    between atoms: C_16  and  O_17 
ROOT
HETATM    1  N   UNL     1     -40.070 -51.540  12.114  1.00  0.00    -0.293 N 
HETATM    2  C   UNL     1     -40.697 -52.691  12.496  1.00  0.00     0.322 C 
HETATM    3  O   UNL     1     -40.040 -53.628  12.943  1.00  0.00    -0.247 OA
HETATM    4  N   UNL     1     -42.056 -52.705  12.402  1.00  0.00    -0.336 N 
HETATM    5  H   UNL     1     -39.076 -51.535  12.281  1.00  0.00     0.172 HD
HETATM    6  H   UNL     1     -42.450 -52.028  11.753  1.00  0.00     0.164 HD
ENDROOT
BRANCH   1   7
HETATM    7  C   UNL     1     -40.654 -50.398  11.609  1.00  0.00     0.132 A 
HETATM    8  C   UNL     1     -41.472 -49.516  12.349  1.00  0.00     0.086 A 
HETATM    9  C   UNL     1     -41.843 -48.541  11.447  1.00  0.00     0.087 A 
HETATM   10  O   UNL     1     -41.252 -48.813  10.251  1.00  0.00    -0.240 OA
HETATM   11  N   UNL     1     -40.519 -49.966  10.349  1.00  0.00    -0.245 N 
ATOM     12  HN  UNL     1     -39.977 -50.409   9.607  1.00  0.00     0.196 HD
BRANCH   9  13
HETATM   13  C   UNL     1     -42.679 -47.297  11.508  1.00  0.00     0.000 C 
HETATM   14  C   UNL     1     -41.856 -46.124  10.951  1.00  0.00     0.021 C 
HETATM   15  C   UNL     1     -43.082 -46.993  12.963  1.00  0.00     0.021 C 
HETATM   16  C   UNL     1     -43.967 -47.459  10.676  1.00  0.00     0.021 C 
ENDBRANCH   9  13
ENDBRANCH   1   7
BRANCH   4  17
HETATM   17  C   UNL     1     -42.870 -53.817  12.829  1.00  0.00     0.114 C 
HETATM   18  C   UNL     1     -44.333 -53.651  12.395  1.00  0.00     0.028 C 
HETATM   19  C   UNL     1     -45.179 -54.263  13.514  1.00  0.00     0.005 C 
HETATM   20  C   UNL     1     -44.193 -54.821  14.538  1.00  0.00     0.034 C 
HETATM   21  C   UNL     1     -42.953 -53.957  14.361  1.00  0.00     0.140 C 
BRANCH  21  22
HETATM   22  O   UNL     1     -43.185 -52.707  15.020  1.00  0.00    -0.394 OA
HETATM   23  H   UNL     1     -44.145 -52.547  15.018  1.00  0.00     0.210 HD
ENDBRANCH  21  22
ENDBRANCH   4  17
TORSDOF 4
ENDMDL
MODEL 5
REMARK VINA RESULT:      -5.9      3.848      6.549
REMARK  4 active torsions:
REMARK  status: ('A' for Active; 'I' for Inactive)
REMARK    1  A    between atoms: C_2  and  C_5 
REMARK    2  A    between atoms: C_7  and  N_8 
REMARK       I    between atoms: N_8  and  C_9 
REMARK       I    between atoms: C_9  and  N_11 
REMARK    3  A    between atoms: N_11  and  C_12 
REMARK    4  A    between atoms: C_16  and  O_17 
ROOT
HETATM    1  N   UNL     1     -41.788 -54.579  14.463  1.00  0.00    -0.293 N 
HETATM    2  C   UNL     1     -43.149 -54.479  14.504  1.00  0.00     0.322 C 
HETATM    3  O   UNL     1     -43.815 -55.377  15.013  1.00  0.00    -0.247 OA
HETATM    4  N   UNL     1     -43.690 -53.331  14.010  1.00  0.00    -0.336 N 
HETATM    5  H   UNL     1     -41.419 -55.401  14.916  1.00  0.00     0.172 HD
HETATM    6  H   UNL     1     -43.100 -52.822  13.358  1.00  0.00     0.164 HD
ENDROOT
BRANCH   1   7
HETATM    7  C   UNL     1     -40.897 -53.663  13.945  1.00  0.00     0.132 A 
HETATM    8  C   UNL     1     -40.223 -52.679  14.701  1.00  0.00     0.086 A 
HETATM    9  C   UNL     1     -39.465 -51.987  13.780  1.00  0.00     0.087 A 
HETATM   10  O   UNL     1     -39.654 -52.551  12.555  1.00  0.00    -0.240 OA
HETATM   11  N   UNL     1     -40.545 -53.586  12.655  1.00  0.00    -0.245 N 
ATOM     12  HN  UNL     1     -40.876 -54.182  11.897  1.00  0.00     0.196 HD
BRANCH   9  13
HETATM   13  C   UNL     1     -38.502 -50.839  13.842  1.00  0.00     0.000 C 
HETATM   14  C   UNL     1     -37.928 -50.753  15.266  1.00  0.00     0.021 C 
HETATM   15  C   UNL     1     -39.218 -49.519  13.499  1.00  0.00     0.021 C 
HETATM   16  C   UNL     1     -37.348 -51.035  12.837  1.00  0.00     0.021 C 
ENDBRANCH   9  13
ENDBRANCH   1   7
BRANCH   4  17
HETATM   17  C   UNL     1     -45.104 -53.042  14.043  1.00  0.00     0.114 C 
HETATM   18  C   UNL     1     -45.637 -52.656  12.657  1.00  0.00     0.028 C 
HETATM   19  C   UNL     1     -46.724 -51.606  12.898  1.00  0.00     0.005 C 
HETATM   20  C   UNL     1     -46.838 -51.450  14.413  1.00  0.00     0.034 C 
HETATM   21  C   UNL     1     -45.457 -51.829  14.925  1.00  0.00     0.140 C 
BRANCH  21  22
HETATM   22  O   UNL     1     -44.582 -50.715  14.710  1.00  0.00    -0.394 OA
HETATM   23  H   UNL     1     -44.931 -50.208  13.956  1.00  0.00     0.210 HD
ENDBRANCH  21  22
ENDBRANCH   4  17
TORSDOF 4
ENDMDL
MODEL 6
REMARK VINA RESULT:      -5.8      1.948      6.452
REMARK  4 active torsions:
REMARK  status: ('A' for Active; 'I' for Inactive)
REMARK    1  A    between atoms: C_2  and  C_5 
REMARK    2  A    between atoms: C_7  and  N_8 
REMARK       I    between atoms: N_8  and  C_9 
REMARK       I    between atoms: C_9  and  N_11 
REMARK    3  A    between atoms: N_11  and  C_12 
REMARK    4  A    between atoms: C_16  and  O_17 
ROOT
HETATM    1  N   UNL     1     -40.656 -50.746  11.315  1.00  0.00    -0.293 N 
HETATM    2  C   UNL     1     -41.512 -51.596  11.953  1.00  0.00     0.322 C 
HETATM    3  O   UNL     1     -41.216 -52.780  12.088  1.00  0.00    -0.247 OA
HETATM    4  N   UNL     1     -42.651 -51.045  12.460  1.00  0.00    -0.336 N 
HETATM    5  H   UNL     1     -39.786 -51.171  11.032  1.00  0.00     0.172 HD
HETATM    6  H   UNL     1     -42.930 -50.165  12.035  1.00  0.00     0.164 HD
ENDROOT
BRANCH   1   7
HETATM    7  C   UNL     1     -40.826 -49.396  11.092  1.00  0.00     0.132 A 
HETATM    8  C   UNL     1     -40.190 -48.373  11.827  1.00  0.00     0.086 A 
HETATM    9  C   UNL     1     -40.667 -47.200  11.280  1.00  0.00     0.087 A 
HETATM   10  O   UNL     1     -41.511 -47.513  10.259  1.00  0.00    -0.240 OA
HETATM   11  N   UNL     1     -41.615 -48.874  10.145  1.00  0.00    -0.245 N 
ATOM     12  HN  UNL     1     -42.182 -49.388   9.471  1.00  0.00     0.196 HD
BRANCH   9  13
HETATM   13  C   UNL     1     -40.437 -45.739  11.529  1.00  0.00     0.000 C 
HETATM   14  C   UNL     1     -41.797 -45.058  11.759  1.00  0.00     0.021 C 
HETATM   15  C   UNL     1     -39.739 -45.091  10.319  1.00  0.00     0.021 C 
HETATM   16  C   UNL     1     -39.544 -45.527  12.769  1.00  0.00     0.021 C 
ENDBRANCH   9  13
ENDBRANCH   1   7
BRANCH   4  17
HETATM   17  C   UNL     1     -43.624 -51.793  13.220  1.00  0.00     0.114 C 
HETATM   18  C   UNL     1     -45.013 -51.142  13.160  1.00  0.00     0.028 C 
HETATM   19  C   UNL     1     -45.655 -51.388  14.527  1.00  0.00     0.005 C 
HETATM   20  C   UNL     1     -44.655 -52.222  15.325  1.00  0.00     0.034 C 
HETATM   21  C   UNL     1     -43.307 -51.848  14.727  1.00  0.00     0.140 C 
BRANCH  21  22
HETATM   22  O   UNL     1     -42.923 -50.575  15.259  1.00  0.00    -0.394 OA
HETATM   23  H   UNL     1     -42.595 -50.034  14.519  1.00  0.00     0.210 HD
ENDBRANCH  21  22
ENDBRANCH   4  17
TORSDOF 4
ENDMDL
MODEL 7
REMARK VINA RESULT:      -5.8      2.466      6.804
REMARK  4 active torsions:
REMARK  status: ('A' for Active; 'I' for Inactive)
REMARK    1  A    between atoms: C_2  and  C_5 
REMARK    2  A    between atoms: C_7  and  N_8 
REMARK       I    between atoms: N_8  and  C_9 
REMARK       I    between atoms: C_9  and  N_11 
REMARK    3  A    between atoms: N_11  and  C_12 
REMARK    4  A    between atoms: C_16  and  O_17 
ROOT
HETATM    1  N   UNL     1     -43.444 -49.714  12.343  1.00  0.00    -0.293 N 
HETATM    2  C   UNL     1     -43.097 -50.853  13.012  1.00  0.00     0.322 C 
HETATM    3  O   UNL     1     -43.968 -51.634  13.387  1.00  0.00    -0.247 OA
HETATM    4  N   UNL     1     -41.764 -51.078  13.179  1.00  0.00    -0.336 N 
HETATM    5  H   UNL     1     -44.432 -49.625  12.161  1.00  0.00     0.172 HD
HETATM    6  H   UNL     1     -41.175 -50.252  13.115  1.00  0.00     0.164 HD
ENDROOT
BRANCH   1   7
HETATM    7  C   UNL     1     -42.599 -48.746  11.845  1.00  0.00     0.132 A 
HETATM    8  C   UNL     1     -42.186 -47.596  12.553  1.00  0.00     0.086 A 
HETATM    9  C   UNL     1     -41.375 -46.913  11.671  1.00  0.00     0.087 A 
HETATM   10  O   UNL     1     -41.288 -47.634  10.520  1.00  0.00    -0.240 OA
HETATM   11  N   UNL     1     -42.049 -48.767  10.624  1.00  0.00    -0.245 N 
ATOM     12  HN  UNL     1     -42.174 -49.487   9.913  1.00  0.00     0.196 HD
BRANCH   9  13
HETATM   13  C   UNL     1     -40.584 -45.639  11.720  1.00  0.00     0.000 C 
HETATM   14  C   UNL     1     -39.571 -45.733  12.873  1.00  0.00     0.021 C 
HETATM   15  C   UNL     1     -41.517 -44.436  11.955  1.00  0.00     0.021 C 
HETATM   16  C   UNL     1     -39.829 -45.410  10.394  1.00  0.00     0.021 C 
ENDBRANCH   9  13
ENDBRANCH   1   7
BRANCH   4  17
HETATM   17  C   UNL     1     -41.233 -52.266  13.804  1.00  0.00     0.114 C 
HETATM   18  C   UNL     1     -39.796 -52.052  14.300  1.00  0.00     0.028 C 
HETATM   19  C   UNL     1     -39.077 -53.388  14.104  1.00  0.00     0.005 C 
HETATM   20  C   UNL     1     -40.121 -54.359  13.557  1.00  0.00     0.034 C 
HETATM   21  C   UNL     1     -41.114 -53.460  12.837  1.00  0.00     0.140 C 
BRANCH  21  22
HETATM   22  O   UNL     1     -40.549 -53.096  11.572  1.00  0.00    -0.394 OA
HETATM   23  H   UNL     1     -40.327 -53.918  11.102  1.00  0.00     0.210 HD
ENDBRANCH  21  22
ENDBRANCH   4  17
TORSDOF 4
ENDMDL
MODEL 8
REMARK VINA RESULT:      -5.7      3.456      5.999
REMARK  4 active torsions:
REMARK  status: ('A' for Active; 'I' for Inactive)
REMARK    1  A    between atoms: C_2  and  C_5 
REMARK    2  A    between atoms: C_7  and  N_8 
REMARK       I    between atoms: N_8  and  C_9 
REMARK       I    between atoms: C_9  and  N_11 
REMARK    3  A    between atoms: N_11  and  C_12 
REMARK    4  A    between atoms: C_16  and  O_17 
ROOT
HETATM    1  N   UNL     1     -41.125 -51.646  12.208  1.00  0.00    -0.293 N 
HETATM    2  C   UNL     1     -40.017 -52.051  12.895  1.00  0.00     0.322 C 
HETATM    3  O   UNL     1     -38.914 -51.592  12.607  1.00  0.00    -0.247 OA
HETATM    4  N   UNL     1     -40.221 -52.926  13.919  1.00  0.00    -0.336 N 
HETATM    5  H   UNL     1     -40.947 -50.933  11.518  1.00  0.00     0.172 HD
HETATM    6  H   UNL     1     -41.086 -53.458  13.866  1.00  0.00     0.164 HD
ENDROOT
BRANCH   1   7
HETATM    7  C   UNL     1     -42.428 -52.048  12.411  1.00  0.00     0.132 A 
HETATM    8  C   UNL     1     -43.339 -51.416  13.285  1.00  0.00     0.086 A 
HETATM    9  C   UNL     1     -44.496 -52.160  13.184  1.00  0.00     0.087 A 
HETATM   10  O   UNL     1     -44.291 -53.154  12.277  1.00  0.00    -0.240 OA
HETATM   11  N   UNL     1     -43.008 -53.089  11.801  1.00  0.00    -0.245 N 
ATOM     12  HN  UNL     1     -42.579 -53.711  11.116  1.00  0.00     0.196 HD
BRANCH   9  13
HETATM   13  C   UNL     1     -45.864 -52.088  13.794  1.00  0.00     0.000 C 
HETATM   14  C   UNL     1     -45.819 -51.128  14.994  1.00  0.00     0.021 C 
HETATM   15  C   UNL     1     -46.314 -53.482  14.271  1.00  0.00     0.021 C 
HETATM   16  C   UNL     1     -46.897 -51.575  12.769  1.00  0.00     0.021 C 
ENDBRANCH   9  13
ENDBRANCH   1   7
BRANCH   4  17
HETATM   17  C   UNL     1     -39.165 -53.397  14.783  1.00  0.00     0.114 C 
HETATM   18  C   UNL     1     -38.949 -54.910  14.643  1.00  0.00     0.028 C 
HETATM   19  C   UNL     1     -38.564 -55.414  16.036  1.00  0.00     0.005 C 
HETATM   20  C   UNL     1     -38.506 -54.181  16.935  1.00  0.00     0.034 C 
HETATM   21  C   UNL     1     -39.473 -53.206  16.280  1.00  0.00     0.140 C 
BRANCH  21  22
HETATM   22  O   UNL     1     -40.806 -53.601  16.627  1.00  0.00    -0.394 OA
HETATM   23  H   UNL     1     -40.870 -53.598  17.598  1.00  0.00     0.210 HD
ENDBRANCH  21  22
ENDBRANCH   4  17
TORSDOF 4
ENDMDL
MODEL 9
REMARK VINA RESULT:      -5.6      3.326      4.496
REMARK  4 active torsions:
REMARK  status: ('A' for Active; 'I' for Inactive)
REMARK    1  A    between atoms: C_2  and  C_5 
REMARK    2  A    between atoms: C_7  and  N_8 
REMARK       I    between atoms: N_8  and  C_9 
REMARK       I    between atoms: C_9  and  N_11 
REMARK    3  A    between atoms: N_11  and  C_12 
REMARK    4  A    between atoms: C_16  and  O_17 
ROOT
HETATM    1  N   UNL     1     -41.051 -51.395  11.321  1.00  0.00    -0.293 N 
HETATM    2  C   UNL     1     -40.026 -50.530  11.577  1.00  0.00     0.322 C 
HETATM    3  O   UNL     1     -39.764 -49.634  10.778  1.00  0.00    -0.247 OA
HETATM    4  N   UNL     1     -39.376 -50.691  12.763  1.00  0.00    -0.336 N 
HETATM    5  H   UNL     1     -41.565 -51.190  10.478  1.00  0.00     0.172 HD
HETATM    6  H   UNL     1     -39.462 -51.615  13.180  1.00  0.00     0.164 HD
ENDROOT
BRANCH   1   7
HETATM    7  C   UNL     1     -41.483 -52.438  12.112  1.00  0.00     0.132 A 
HETATM    8  C   UNL     1     -42.551 -52.362  13.032  1.00  0.00     0.086 A 
HETATM    9  C   UNL     1     -42.611 -53.615  13.604  1.00  0.00     0.087 A 
HETATM   10  O   UNL     1     -41.656 -54.397  13.030  1.00  0.00    -0.240 OA
HETATM   11  N   UNL     1     -40.952 -53.667  12.109  1.00  0.00    -0.245 N 
ATOM     12  HN  UNL     1     -40.177 -53.995  11.534  1.00  0.00     0.196 HD
BRANCH   9  13
HETATM   13  C   UNL     1     -43.479 -54.275  14.634  1.00  0.00     0.000 C 
HETATM   14  C   UNL     1     -43.922 -53.215  15.656  1.00  0.00     0.021 C 
HETATM   15  C   UNL     1     -42.701 -55.389  15.359  1.00  0.00     0.021 C 
HETATM   16  C   UNL     1     -44.726 -54.906  13.980  1.00  0.00     0.021 C 
ENDBRANCH   9  13
ENDBRANCH   1   7
BRANCH   4  17
HETATM   17  C   UNL     1     -38.317 -49.819  13.213  1.00  0.00     0.114 C 
HETATM   18  C   UNL     1     -37.482 -50.466  14.326  1.00  0.00     0.028 C 
HETATM   19  C   UNL     1     -37.073 -49.329  15.265  1.00  0.00     0.005 C 
HETATM   20  C   UNL     1     -37.625 -48.046  14.647  1.00  0.00     0.034 C 
HETATM   21  C   UNL     1     -38.833 -48.515  13.850  1.00  0.00     0.140 C 
BRANCH  21  22
HETATM   22  O   UNL     1     -39.912 -48.734  14.766  1.00  0.00    -0.394 OA
HETATM   23  H   UNL     1     -40.742 -48.677  14.262  1.00  0.00     0.210 HD
ENDBRANCH  21  22
ENDBRANCH   4  17
TORSDOF 4
ENDMDL
