MODEL 1
REMARK VINA RESULT:      -6.6      0.000      0.000
REMARK  7 active torsions:
REMARK  status: ('A' for Active; 'I' for Inactive)
REMARK    1  A    between atoms: N_1  and  C_9 
REMARK    2  A    between atoms: C_6  and  N_8 
REMARK    3  A    between atoms: C_14  and  C_22 
REMARK    4  A    between atoms: C_14  and  C_23 
REMARK    5  A    between atoms: C_19  and  O_21 
REMARK    6  A    between atoms: C_22  and  O_24 
REMARK    7  A    between atoms: C_23  and  O_25 
ROOT
HETATM    1  N   UNL     1     -41.657 -48.377  11.674  1.00  0.00    -0.322 N 
HETATM    2  C   UNL     1     -42.434 -50.230  12.527  1.00  0.00     0.122 A 
HETATM    3  C   UNL     1     -41.247 -49.597  12.157  1.00  0.00     0.140 A 
HETATM    4  N   UNL     1     -43.528 -49.429  12.251  1.00  0.00    -0.346 N 
ATOM      5  HN  UNL     1     -44.512 -49.646  12.408  1.00  0.00     0.167 HD
HETATM    6  C   UNL     1     -42.360 -51.532  13.089  1.00  0.00     0.135 A 
HETATM    7  C   UNL     1     -43.024 -48.333  11.743  1.00  0.00     0.185 A 
HETATM    8  N   UNL     1     -40.006 -50.100  12.259  1.00  0.00    -0.336 N 
ATOM      9  HN  UNL     1     -39.155 -49.606  11.990  1.00  0.00     0.168 HD
HETATM   10  N   UNL     1     -41.110 -52.077  13.172  1.00  0.00    -0.337 N 
ATOM     11  HN  UNL     1     -40.983 -53.021  13.537  1.00  0.00     0.168 HD
HETATM   12  C   UNL     1     -40.042 -51.350  12.764  1.00  0.00     0.183 A 
ENDROOT
BRANCH   1  13
HETATM   13  C   UNL     1     -40.938 -47.246  11.163  1.00  0.00     0.094 C 
HETATM   14  C   UNL     1     -40.738 -46.066  12.156  1.00  0.00     0.039 C 
HETATM   15  C   UNL     1     -40.753 -45.125  10.893  1.00  0.00     0.006 C 
HETATM   16  C   UNL     1     -41.709 -46.225  10.287  1.00  0.00     0.039 C 
BRANCH  15  17
HETATM   17  C   UNL     1     -41.332 -43.721  11.083  1.00  0.00     0.175 C 
BRANCH  17  18
HETATM   18  O   UNL     1     -40.438 -42.717  10.621  1.00  0.00    -0.400 OA
HETATM   19  H   UNL     1     -40.617 -42.581   9.674  1.00  0.00     0.209 HD
ENDBRANCH  17  18
ENDBRANCH  15  17
BRANCH  15  20
HETATM   20  C   UNL     1     -39.369 -45.004  10.217  1.00  0.00     0.175 C 
BRANCH  20  21
HETATM   21  O   UNL     1     -39.528 -44.616   8.858  1.00  0.00    -0.400 OA
HETATM   22  H   UNL     1     -38.671 -44.281   8.542  1.00  0.00     0.209 HD
ENDBRANCH  20  21
ENDBRANCH  15  20
ENDBRANCH   1  13
BRANCH   6  23
HETATM   23  N   UNL     1     -43.495 -52.270  13.474  1.00  0.00    -0.362 N 
HETATM   24  C   UNL     1     -44.576 -51.501  14.116  1.00  0.00     0.162 C 
HETATM   25  C   UNL     1     -45.579 -52.441  14.850  1.00  0.00     0.073 C 
HETATM   26  C   UNL     1     -46.006 -53.629  13.960  1.00  0.00     0.041 C 
HETATM   27  C   UNL     1     -46.850 -51.632  15.182  1.00  0.00     0.047 C 
HETATM   28  C   UNL     1     -44.863 -54.290  13.192  1.00  0.00     0.023 C 
HETATM   29  C   UNL     1     -43.942 -53.282  12.513  1.00  0.00     0.124 C 
BRANCH  25  30
HETATM   30  O   UNL     1     -45.133 -52.856  16.157  1.00  0.00    -0.384 OA
HETATM   31  C   UNL     1     -45.802 -53.927  16.796  1.00  0.00     0.202 C 
ENDBRANCH  25  30
ENDBRANCH   6  23
TORSDOF 7
ENDMDL
MODEL 2
REMARK VINA RESULT:      -6.3      1.879      2.931
REMARK  7 active torsions:
REMARK  status: ('A' for Active; 'I' for Inactive)
REMARK    1  A    between atoms: N_1  and  C_9 
REMARK    2  A    between atoms: C_6  and  N_8 
REMARK    3  A    between atoms: C_14  and  C_22 
REMARK    4  A    between atoms: C_14  and  C_23 
REMARK    5  A    between atoms: C_19  and  O_21 
REMARK    6  A    between atoms: C_22  and  O_24 
REMARK    7  A    between atoms: C_23  and  O_25 
ROOT
HETATM    1  N   UNL     1     -42.296 -47.597  12.374  1.00  0.00    -0.322 N 
HETATM    2  C   UNL     1     -43.002 -49.507  13.159  1.00  0.00     0.122 A 
HETATM    3  C   UNL     1     -42.715 -48.195  13.539  1.00  0.00     0.140 A 
HETATM    4  N   UNL     1     -42.739 -49.702  11.816  1.00  0.00    -0.346 N 
ATOM      5  HN  UNL     1     -42.847 -50.564  11.280  1.00  0.00     0.167 HD
HETATM    6  C   UNL     1     -43.483 -50.407  14.148  1.00  0.00     0.135 A 
HETATM    7  C   UNL     1     -42.320 -48.541  11.382  1.00  0.00     0.185 A 
HETATM    8  N   UNL     1     -42.828 -47.676  14.772  1.00  0.00    -0.336 N 
ATOM      9  HN  UNL     1     -42.621 -46.707  15.014  1.00  0.00     0.168 HD
HETATM   10  N   UNL     1     -43.575 -49.909  15.416  1.00  0.00    -0.337 N 
ATOM     11  HN  UNL     1     -43.884 -50.506  16.183  1.00  0.00     0.168 HD
HETATM   12  C   UNL     1     -43.251 -48.613  15.644  1.00  0.00     0.183 A 
ENDROOT
BRANCH   1  13
HETATM   13  C   UNL     1     -41.883 -46.259  12.068  1.00  0.00     0.094 C 
HETATM   14  C   UNL     1     -41.538 -45.981  10.576  1.00  0.00     0.039 C 
HETATM   15  C   UNL     1     -40.520 -44.905  11.110  1.00  0.00     0.006 C 
HETATM   16  C   UNL     1     -40.411 -45.864  12.359  1.00  0.00     0.039 C 
BRANCH  15  17
HETATM   17  C   UNL     1     -39.250 -44.684  10.283  1.00  0.00     0.175 C 
BRANCH  17  18
HETATM   18  O   UNL     1     -39.534 -44.626   8.892  1.00  0.00    -0.400 OA
HETATM   19  H   UNL     1     -38.682 -44.567   8.423  1.00  0.00     0.209 HD
ENDBRANCH  17  18
ENDBRANCH  15  17
BRANCH  15  20
HETATM   20  C   UNL     1     -41.180 -43.535  11.380  1.00  0.00     0.175 C 
BRANCH  20  21
HETATM   21  O   UNL     1     -40.716 -42.580  10.434  1.00  0.00    -0.400 OA
HETATM   22  H   UNL     1     -40.551 -41.747  10.909  1.00  0.00     0.209 HD
ENDBRANCH  20  21
ENDBRANCH  15  20
ENDBRANCH   1  13
BRANCH   6  23
HETATM   23  N   UNL     1     -43.781 -51.756  13.880  1.00  0.00    -0.362 N 
HETATM   24  C   UNL     1     -43.128 -52.747  14.754  1.00  0.00     0.162 C 
HETATM   25  C   UNL     1     -43.195 -54.177  14.138  1.00  0.00     0.073 C 
HETATM   26  C   UNL     1     -44.618 -54.519  13.643  1.00  0.00     0.041 C 
HETATM   27  C   UNL     1     -42.830 -55.197  15.237  1.00  0.00     0.047 C 
HETATM   28  C   UNL     1     -45.311 -53.395  12.876  1.00  0.00     0.023 C 
HETATM   29  C   UNL     1     -45.183 -52.040  13.564  1.00  0.00     0.124 C 
BRANCH  25  30
HETATM   30  O   UNL     1     -42.183 -54.426  13.143  1.00  0.00    -0.384 OA
HETATM   31  C   UNL     1     -40.871 -53.947  13.372  1.00  0.00     0.202 C 
ENDBRANCH  25  30
ENDBRANCH   6  23
TORSDOF 7
ENDMDL
MODEL 3
REMARK VINA RESULT:      -6.2      1.651      2.524
REMARK  7 active torsions:
REMARK  status: ('A' for Active; 'I' for Inactive)
REMARK    1  A    between atoms: N_1  and  C_9 
REMARK    2  A    between atoms: C_6  and  N_8 
REMARK    3  A    between atoms: C_14  and  C_22 
REMARK    4  A    between atoms: C_14  and  C_23 
REMARK    5  A    between atoms: C_19  and  O_21 
REMARK    6  A    between atoms: C_22  and  O_24 
REMARK    7  A    between atoms: C_23  and  O_25 
ROOT
HETATM    1  N   UNL     1     -41.259 -47.430  12.372  1.00  0.00    -0.322 N 
HETATM    2  C   UNL     1     -41.224 -49.570  12.798  1.00  0.00     0.122 A 
HETATM    3  C   UNL     1     -40.511 -48.562  12.149  1.00  0.00     0.140 A 
HETATM    4  N   UNL     1     -42.379 -49.070  13.370  1.00  0.00    -0.346 N 
ATOM      5  HN  UNL     1     -43.088 -49.585  13.893  1.00  0.00     0.167 HD
HETATM    6  C   UNL     1     -40.703 -50.892  12.771  1.00  0.00     0.135 A 
HETATM    7  C   UNL     1     -42.365 -47.790  13.095  1.00  0.00     0.185 A 
HETATM    8  N   UNL     1     -39.364 -48.705  11.466  1.00  0.00    -0.336 N 
ATOM      9  HN  UNL     1     -38.860 -47.943  11.012  1.00  0.00     0.168 HD
HETATM   10  N   UNL     1     -39.553 -51.067  12.055  1.00  0.00    -0.337 N 
ATOM     11  HN  UNL     1     -39.137 -51.994  11.967  1.00  0.00     0.168 HD
HETATM   12  C   UNL     1     -38.971 -49.995  11.464  1.00  0.00     0.183 A 
ENDROOT
BRANCH   1  13
HETATM   13  C   UNL     1     -41.072 -46.057  12.002  1.00  0.00     0.094 C 
HETATM   14  C   UNL     1     -41.835 -45.013  12.866  1.00  0.00     0.039 C 
HETATM   15  C   UNL     1     -41.885 -44.118  11.571  1.00  0.00     0.006 C 
HETATM   16  C   UNL     1     -41.898 -45.502  10.812  1.00  0.00     0.039 C 
BRANCH  15  17
HETATM   17  C   UNL     1     -43.109 -43.215  11.402  1.00  0.00     0.175 C 
BRANCH  17  18
HETATM   18  O   UNL     1     -43.692 -43.357  10.114  1.00  0.00    -0.400 OA
HETATM   19  H   UNL     1     -44.659 -43.363  10.229  1.00  0.00     0.209 HD
ENDBRANCH  17  18
ENDBRANCH  15  17
BRANCH  15  20
HETATM   20  C   UNL     1     -40.610 -43.268  11.379  1.00  0.00     0.175 C 
BRANCH  20  21
HETATM   21  O   UNL     1     -40.913 -42.110  10.609  1.00  0.00    -0.400 OA
HETATM   22  H   UNL     1     -41.827 -42.200  10.287  1.00  0.00     0.209 HD
ENDBRANCH  20  21
ENDBRANCH  15  20
ENDBRANCH   1  13
BRANCH   6  23
HETATM   23  N   UNL     1     -41.352 -51.987  13.372  1.00  0.00    -0.362 N 
HETATM   24  C   UNL     1     -42.538 -52.500  12.665  1.00  0.00     0.162 C 
HETATM   25  C   UNL     1     -43.395 -53.416  13.590  1.00  0.00     0.073 C 
HETATM   26  C   UNL     1     -42.525 -54.455  14.330  1.00  0.00     0.041 C 
HETATM   27  C   UNL     1     -44.398 -54.194  12.711  1.00  0.00     0.047 C 
HETATM   28  C   UNL     1     -41.226 -53.899  14.908  1.00  0.00     0.023 C 
HETATM   29  C   UNL     1     -40.467 -53.017  13.923  1.00  0.00     0.124 C 
BRANCH  25  30
HETATM   30  O   UNL     1     -44.270 -52.688  14.476  1.00  0.00    -0.384 OA
HETATM   31  C   UNL     1     -44.971 -51.568  13.970  1.00  0.00     0.202 C 
ENDBRANCH  25  30
ENDBRANCH   6  23
TORSDOF 7
ENDMDL
MODEL 4
REMARK VINA RESULT:      -6.1      3.461      8.413
REMARK  7 active torsions:
REMARK  status: ('A' for Active; 'I' for Inactive)
REMARK    1  A    between atoms: N_1  and  C_9 
REMARK    2  A    between atoms: C_6  and  N_8 
REMARK    3  A    between atoms: C_14  and  C_22 
REMARK    4  A    between atoms: C_14  and  C_23 
REMARK    5  A    between atoms: C_19  and  O_21 
REMARK    6  A    between atoms: C_22  and  O_24 
REMARK    7  A    between atoms: C_23  and  O_25 
ROOT
HETATM    1  N   UNL     1     -39.630 -51.561  14.263  1.00  0.00    -0.322 N 
HETATM    2  C   UNL     1     -39.990 -49.871  12.930  1.00  0.00     0.122 A 
HETATM    3  C   UNL     1     -39.051 -50.858  13.233  1.00  0.00     0.140 A 
HETATM    4  N   UNL     1     -41.087 -49.958  13.767  1.00  0.00    -0.346 N 
ATOM      5  HN  UNL     1     -41.912 -49.358  13.774  1.00  0.00     0.167 HD
HETATM    6  C   UNL     1     -39.700 -48.963  11.876  1.00  0.00     0.135 A 
HETATM    7  C   UNL     1     -40.835 -50.978  14.548  1.00  0.00     0.185 A 
HETATM    8  N   UNL     1     -37.862 -51.041  12.637  1.00  0.00    -0.336 N 
ATOM      9  HN  UNL     1     -37.202 -51.782  12.875  1.00  0.00     0.168 HD
HETATM   10  N   UNL     1     -38.481 -49.111  11.277  1.00  0.00    -0.337 N 
ATOM     11  HN  UNL     1     -38.192 -48.476  10.533  1.00  0.00     0.168 HD
HETATM   12  C   UNL     1     -37.661 -50.111  11.682  1.00  0.00     0.183 A 
ENDROOT
BRANCH   1  13
HETATM   13  C   UNL     1     -39.205 -52.709  15.010  1.00  0.00     0.094 C 
HETATM   14  C   UNL     1     -39.631 -54.089  14.432  1.00  0.00     0.039 C 
HETATM   15  C   UNL     1     -39.642 -54.603  15.920  1.00  0.00     0.006 C 
HETATM   16  C   UNL     1     -40.028 -53.111  16.262  1.00  0.00     0.039 C 
BRANCH  15  17
HETATM   17  C   UNL     1     -40.664 -55.688  16.270  1.00  0.00     0.175 C 
BRANCH  17  18
HETATM   18  O   UNL     1     -40.030 -56.903  16.646  1.00  0.00    -0.400 OA
HETATM   19  H   UNL     1     -40.258 -57.075  17.577  1.00  0.00     0.209 HD
ENDBRANCH  17  18
ENDBRANCH  15  17
BRANCH  15  20
HETATM   20  C   UNL     1     -38.248 -55.057  16.409  1.00  0.00     0.175 C 
BRANCH  20  21
HETATM   21  O   UNL     1     -37.724 -56.040  15.525  1.00  0.00    -0.400 OA
HETATM   22  H   UNL     1     -37.189 -56.658  16.053  1.00  0.00     0.209 HD
ENDBRANCH  20  21
ENDBRANCH  15  20
ENDBRANCH   1  13
BRANCH   6  23
HETATM   23  N   UNL     1     -40.564 -47.916  11.503  1.00  0.00    -0.362 N 
HETATM   24  C   UNL     1     -39.934 -46.599  11.308  1.00  0.00     0.162 C 
HETATM   25  C   UNL     1     -40.997 -45.459  11.299  1.00  0.00     0.073 C 
HETATM   26  C   UNL     1     -42.192 -45.800  10.381  1.00  0.00     0.041 C 
HETATM   27  C   UNL     1     -40.336 -44.181  10.741  1.00  0.00     0.047 C 
HETATM   28  C   UNL     1     -42.704 -47.233  10.512  1.00  0.00     0.023 C 
HETATM   29  C   UNL     1     -41.584 -48.267  10.512  1.00  0.00     0.124 C 
BRANCH  25  30
HETATM   30  O   UNL     1     -41.407 -45.040  12.616  1.00  0.00    -0.384 OA
HETATM   31  C   UNL     1     -40.410 -44.750  13.578  1.00  0.00     0.202 C 
ENDBRANCH  25  30
ENDBRANCH   6  23
TORSDOF 7
ENDMDL
MODEL 5
REMARK VINA RESULT:      -6.0      4.689      6.261
REMARK  7 active torsions:
REMARK  status: ('A' for Active; 'I' for Inactive)
REMARK    1  A    between atoms: N_1  and  C_9 
REMARK    2  A    between atoms: C_6  and  N_8 
REMARK    3  A    between atoms: C_14  and  C_22 
REMARK    4  A    between atoms: C_14  and  C_23 
REMARK    5  A    between atoms: C_19  and  O_21 
REMARK    6  A    between atoms: C_22  and  O_24 
REMARK    7  A    between atoms: C_23  and  O_25 
ROOT
HETATM    1  N   UNL     1     -41.040 -48.209  11.584  1.00  0.00    -0.322 N 
HETATM    2  C   UNL     1     -39.495 -48.586  13.079  1.00  0.00     0.122 A 
HETATM    3  C   UNL     1     -39.863 -48.896  11.769  1.00  0.00     0.140 A 
HETATM    4  N   UNL     1     -40.432 -47.761  13.674  1.00  0.00    -0.346 N 
ATOM      5  HN  UNL     1     -40.420 -47.391  14.625  1.00  0.00     0.167 HD
HETATM    6  C   UNL     1     -38.289 -49.137  13.591  1.00  0.00     0.135 A 
HETATM    7  C   UNL     1     -41.337 -47.558  12.751  1.00  0.00     0.185 A 
HETATM    8  N   UNL     1     -39.199 -49.694  10.919  1.00  0.00    -0.336 N 
ATOM      9  HN  UNL     1     -39.489 -49.891   9.961  1.00  0.00     0.168 HD
HETATM   10  N   UNL     1     -37.613 -49.977  12.754  1.00  0.00    -0.337 N 
ATOM     11  HN  UNL     1     -36.755 -50.434  13.064  1.00  0.00     0.168 HD
HETATM   12  C   UNL     1     -38.094 -50.198  11.506  1.00  0.00     0.183 A 
ENDROOT
BRANCH   1  13
HETATM   13  C   UNL     1     -41.917 -48.077  10.457  1.00  0.00     0.094 C 
HETATM   14  C   UNL     1     -41.868 -46.709   9.717  1.00  0.00     0.039 C 
HETATM   15  C   UNL     1     -43.382 -46.956   9.360  1.00  0.00     0.006 C 
HETATM   16  C   UNL     1     -43.408 -47.745  10.726  1.00  0.00     0.039 C 
BRANCH  15  17
HETATM   17  C   UNL     1     -44.277 -45.719   9.248  1.00  0.00     0.175 C 
BRANCH  17  18
HETATM   18  O   UNL     1     -45.501 -46.015   8.591  1.00  0.00    -0.400 OA
HETATM   19  H   UNL     1     -45.433 -45.678   7.680  1.00  0.00     0.209 HD
ENDBRANCH  17  18
ENDBRANCH  15  17
BRANCH  15  20
HETATM   20  C   UNL     1     -43.566 -47.819   8.091  1.00  0.00     0.175 C 
BRANCH  20  21
HETATM   21  O   UNL     1     -43.061 -47.124   6.958  1.00  0.00    -0.400 OA
HETATM   22  H   UNL     1     -42.842 -46.218   7.239  1.00  0.00     0.209 HD
ENDBRANCH  20  21
ENDBRANCH  15  20
ENDBRANCH   1  13
BRANCH   6  23
HETATM   23  N   UNL     1     -37.836 -48.909  14.904  1.00  0.00    -0.362 N 
HETATM   24  C   UNL     1     -36.908 -49.915  15.449  1.00  0.00     0.162 C 
HETATM   25  C   UNL     1     -36.791 -49.795  16.999  1.00  0.00     0.073 C 
HETATM   26  C   UNL     1     -36.570 -48.333  17.444  1.00  0.00     0.041 C 
HETATM   27  C   UNL     1     -35.564 -50.610  17.458  1.00  0.00     0.047 C 
HETATM   28  C   UNL     1     -37.450 -47.311  16.729  1.00  0.00     0.023 C 
HETATM   29  C   UNL     1     -37.497 -47.519  15.219  1.00  0.00     0.124 C 
BRANCH  25  30
HETATM   30  O   UNL     1     -37.867 -50.438  17.712  1.00  0.00    -0.384 OA
HETATM   31  C   UNL     1     -37.887 -50.363  19.125  1.00  0.00     0.202 C 
ENDBRANCH  25  30
ENDBRANCH   6  23
TORSDOF 7
ENDMDL
MODEL 6
REMARK VINA RESULT:      -6.0      3.256      4.747
REMARK  7 active torsions:
REMARK  status: ('A' for Active; 'I' for Inactive)
REMARK    1  A    between atoms: N_1  and  C_9 
REMARK    2  A    between atoms: C_6  and  N_8 
REMARK    3  A    between atoms: C_14  and  C_22 
REMARK    4  A    between atoms: C_14  and  C_23 
REMARK    5  A    between atoms: C_19  and  O_21 
REMARK    6  A    between atoms: C_22  and  O_24 
REMARK    7  A    between atoms: C_23  and  O_25 
ROOT
HETATM    1  N   UNL     1     -41.343 -48.492  12.200  1.00  0.00    -0.322 N 
HETATM    2  C   UNL     1     -40.180 -49.941  13.344  1.00  0.00     0.122 A 
HETATM    3  C   UNL     1     -40.125 -49.129  12.210  1.00  0.00     0.140 A 
HETATM    4  N   UNL     1     -41.400 -49.819  13.982  1.00  0.00    -0.346 N 
ATOM      5  HN  UNL     1     -41.713 -50.304  14.823  1.00  0.00     0.167 HD
HETATM    6  C   UNL     1     -39.047 -50.740  13.658  1.00  0.00     0.135 A 
HETATM    7  C   UNL     1     -42.067 -48.946  13.270  1.00  0.00     0.185 A 
HETATM    8  N   UNL     1     -39.102 -49.027  11.347  1.00  0.00    -0.336 N 
ATOM      9  HN  UNL     1     -39.089 -48.413  10.532  1.00  0.00     0.168 HD
HETATM   10  N   UNL     1     -38.007 -50.676  12.776  1.00  0.00    -0.337 N 
ATOM     11  HN  UNL     1     -37.172 -51.245  12.921  1.00  0.00     0.168 HD
HETATM   12  C   UNL     1     -38.095 -49.849  11.706  1.00  0.00     0.183 A 
ENDROOT
BRANCH   1  13
HETATM   13  C   UNL     1     -41.916 -47.511  11.324  1.00  0.00     0.094 C 
HETATM   14  C   UNL     1     -43.450 -47.292  11.463  1.00  0.00     0.039 C 
HETATM   15  C   UNL     1     -43.440 -46.922   9.932  1.00  0.00     0.006 C 
HETATM   16  C   UNL     1     -42.226 -47.928   9.863  1.00  0.00     0.039 C 
BRANCH  15  17
HETATM   17  C   UNL     1     -44.692 -47.278   9.126  1.00  0.00     0.175 C 
BRANCH  17  18
HETATM   18  O   UNL     1     -45.873 -46.800   9.754  1.00  0.00    -0.400 OA
HETATM   19  H   UNL     1     -46.516 -46.596   9.052  1.00  0.00     0.209 HD
ENDBRANCH  17  18
ENDBRANCH  15  17
BRANCH  15  20
HETATM   20  C   UNL     1     -43.088 -45.439   9.675  1.00  0.00     0.175 C 
BRANCH  20  21
HETATM   21  O   UNL     1     -44.207 -44.770   9.106  1.00  0.00    -0.400 OA
HETATM   22  H   UNL     1     -44.913 -45.428   8.980  1.00  0.00     0.209 HD
ENDBRANCH  20  21
ENDBRANCH  15  20
ENDBRANCH   1  13
BRANCH   6  23
HETATM   23  N   UNL     1     -39.003 -51.611  14.762  1.00  0.00    -0.362 N 
HETATM   24  C   UNL     1     -38.913 -53.047  14.448  1.00  0.00     0.162 C 
HETATM   25  C   UNL     1     -39.273 -53.921  15.687  1.00  0.00     0.073 C 
HETATM   26  C   UNL     1     -38.536 -53.442  16.957  1.00  0.00     0.041 C 
HETATM   27  C   UNL     1     -38.819 -55.370  15.408  1.00  0.00     0.047 C 
HETATM   28  C   UNL     1     -38.524 -51.928  17.151  1.00  0.00     0.023 C 
HETATM   29  C   UNL     1     -38.163 -51.169  15.879  1.00  0.00     0.124 C 
BRANCH  25  30
HETATM   30  O   UNL     1     -40.691 -54.081  15.891  1.00  0.00    -0.384 OA
HETATM   31  C   UNL     1     -41.535 -54.171  14.758  1.00  0.00     0.202 C 
ENDBRANCH  25  30
ENDBRANCH   6  23
TORSDOF 7
ENDMDL
MODEL 7
REMARK VINA RESULT:      -5.9      2.818      3.509
REMARK  7 active torsions:
REMARK  status: ('A' for Active; 'I' for Inactive)
REMARK    1  A    between atoms: N_1  and  C_9 
REMARK    2  A    between atoms: C_6  and  N_8 
REMARK    3  A    between atoms: C_14  and  C_22 
REMARK    4  A    between atoms: C_14  and  C_23 
REMARK    5  A    between atoms: C_19  and  O_21 
REMARK    6  A    between atoms: C_22  and  O_24 
REMARK    7  A    between atoms: C_23  and  O_25 
ROOT
HETATM    1  N   UNL     1     -42.261 -49.257  12.436  1.00  0.00    -0.322 N 
HETATM    2  C   UNL     1     -41.787 -51.127  13.457  1.00  0.00     0.122 A 
HETATM    3  C   UNL     1     -41.223 -50.129  12.660  1.00  0.00     0.140 A 
HETATM    4  N   UNL     1     -43.128 -50.878  13.684  1.00  0.00    -0.346 N 
ATOM      5  HN  UNL     1     -43.783 -51.447  14.221  1.00  0.00     0.167 HD
HETATM    6  C   UNL     1     -40.958 -52.198  13.888  1.00  0.00     0.135 A 
HETATM    7  C   UNL     1     -43.374 -49.755  13.059  1.00  0.00     0.185 A 
HETATM    8  N   UNL     1     -39.954 -50.075  12.225  1.00  0.00    -0.336 N 
ATOM      9  HN  UNL     1     -39.569 -49.324  11.652  1.00  0.00     0.168 HD
HETATM   10  N   UNL     1     -39.672 -52.179  13.431  1.00  0.00    -0.337 N 
ATOM     11  HN  UNL     1     -39.027 -52.932  13.674  1.00  0.00     0.168 HD
HETATM   12  C   UNL     1     -39.260 -51.150  12.651  1.00  0.00     0.183 A 
ENDROOT
BRANCH   1  13
HETATM   13  C   UNL     1     -42.346 -48.017  11.721  1.00  0.00     0.094 C 
HETATM   14  C   UNL     1     -43.739 -47.678  11.117  1.00  0.00     0.039 C 
HETATM   15  C   UNL     1     -42.957 -46.905   9.989  1.00  0.00     0.006 C 
HETATM   16  C   UNL     1     -41.834 -47.981  10.257  1.00  0.00     0.039 C 
BRANCH  15  17
HETATM   17  C   UNL     1     -43.591 -46.887   8.596  1.00  0.00     0.175 C 
BRANCH  17  18
HETATM   18  O   UNL     1     -42.784 -46.183   7.661  1.00  0.00    -0.400 OA
HETATM   19  H   UNL     1     -41.985 -46.717   7.506  1.00  0.00     0.209 HD
ENDBRANCH  17  18
ENDBRANCH  15  17
BRANCH  15  20
HETATM   20  C   UNL     1     -42.599 -45.457  10.391  1.00  0.00     0.175 C 
BRANCH  20  21
HETATM   21  O   UNL     1     -43.525 -44.550   9.804  1.00  0.00    -0.400 OA
HETATM   22  H   UNL     1     -43.085 -44.128   9.045  1.00  0.00     0.209 HD
ENDBRANCH  20  21
ENDBRANCH  15  20
ENDBRANCH   1  13
BRANCH   6  23
HETATM   23  N   UNL     1     -41.429 -53.266  14.673  1.00  0.00    -0.362 N 
HETATM   24  C   UNL     1     -41.157 -53.173  16.118  1.00  0.00     0.162 C 
HETATM   25  C   UNL     1     -41.349 -54.551  16.820  1.00  0.00     0.073 C 
HETATM   26  C   UNL     1     -42.677 -55.223  16.406  1.00  0.00     0.041 C 
HETATM   27  C   UNL     1     -41.405 -54.317  18.344  1.00  0.00     0.047 C 
HETATM   28  C   UNL     1     -42.986 -55.151  14.912  1.00  0.00     0.023 C 
HETATM   29  C   UNL     1     -42.764 -53.761  14.326  1.00  0.00     0.124 C 
BRANCH  25  30
HETATM   30  O   UNL     1     -40.214 -55.430  16.689  1.00  0.00    -0.384 OA
HETATM   31  C   UNL     1     -40.337 -56.769  17.131  1.00  0.00     0.202 C 
ENDBRANCH  25  30
ENDBRANCH   6  23
TORSDOF 7
ENDMDL
MODEL 8
REMARK VINA RESULT:      -5.9      1.918      8.394
REMARK  7 active torsions:
REMARK  status: ('A' for Active; 'I' for Inactive)
REMARK    1  A    between atoms: N_1  and  C_9 
REMARK    2  A    between atoms: C_6  and  N_8 
REMARK    3  A    between atoms: C_14  and  C_22 
REMARK    4  A    between atoms: C_14  and  C_23 
REMARK    5  A    between atoms: C_19  and  O_21 
REMARK    6  A    between atoms: C_22  and  O_24 
REMARK    7  A    between atoms: C_23  and  O_25 
ROOT
HETATM    1  N   UNL     1     -42.999 -50.789  13.347  1.00  0.00    -0.322 N 
HETATM    2  C   UNL     1     -42.134 -48.942  12.570  1.00  0.00     0.122 A 
HETATM    3  C   UNL     1     -42.057 -50.330  12.457  1.00  0.00     0.140 A 
HETATM    4  N   UNL     1     -43.073 -48.574  13.517  1.00  0.00    -0.346 N 
ATOM      5  HN  UNL     1     -43.324 -47.629  13.808  1.00  0.00     0.167 HD
HETATM    6  C   UNL     1     -41.282 -48.148  11.755  1.00  0.00     0.135 A 
HETATM    7  C   UNL     1     -43.567 -49.703  13.958  1.00  0.00     0.185 A 
HETATM    8  N   UNL     1     -41.232 -51.023  11.656  1.00  0.00    -0.336 N 
ATOM      9  HN  UNL     1     -41.208 -52.041  11.587  1.00  0.00     0.168 HD
HETATM   10  N   UNL     1     -40.412 -48.833  10.956  1.00  0.00    -0.337 N 
ATOM     11  HN  UNL     1     -39.749 -48.329  10.365  1.00  0.00     0.168 HD
HETATM   12  C   UNL     1     -40.439 -50.188  10.954  1.00  0.00     0.183 A 
ENDROOT
BRANCH   1  13
HETATM   13  C   UNL     1     -43.440 -52.108  13.695  1.00  0.00     0.094 C 
HETATM   14  C   UNL     1     -44.951 -52.399  13.468  1.00  0.00     0.039 C 
HETATM   15  C   UNL     1     -44.843 -53.403  14.676  1.00  0.00     0.006 C 
HETATM   16  C   UNL     1     -43.727 -52.411  15.189  1.00  0.00     0.039 C 
BRANCH  15  17
HETATM   17  C   UNL     1     -46.089 -53.568  15.551  1.00  0.00     0.175 C 
BRANCH  17  18
HETATM   18  O   UNL     1     -45.912 -54.584  16.529  1.00  0.00    -0.400 OA
HETATM   19  H   UNL     1     -44.966 -54.603  16.763  1.00  0.00     0.209 HD
ENDBRANCH  17  18
ENDBRANCH  15  17
BRANCH  15  20
HETATM   20  C   UNL     1     -44.344 -54.802  14.252  1.00  0.00     0.175 C 
BRANCH  20  21
HETATM   21  O   UNL     1     -45.455 -55.644  13.966  1.00  0.00    -0.400 OA
HETATM   22  H   UNL     1     -45.171 -56.292  13.299  1.00  0.00     0.209 HD
ENDBRANCH  20  21
ENDBRANCH  15  20
ENDBRANCH   1  13
BRANCH   6  23
HETATM   23  N   UNL     1     -41.261 -46.742  11.805  1.00  0.00    -0.362 N 
HETATM   24  C   UNL     1     -40.017 -46.133  12.306  1.00  0.00     0.162 C 
HETATM   25  C   UNL     1     -40.235 -44.640  12.697  1.00  0.00     0.073 C 
HETATM   26  C   UNL     1     -40.992 -43.866  11.596  1.00  0.00     0.041 C 
HETATM   27  C   UNL     1     -38.852 -43.974  12.863  1.00  0.00     0.047 C 
HETATM   28  C   UNL     1     -42.182 -44.612  10.999  1.00  0.00     0.023 C 
HETATM   29  C   UNL     1     -41.863 -46.063  10.654  1.00  0.00     0.124 C 
BRANCH  25  30
HETATM   30  O   UNL     1     -40.816 -44.464  14.004  1.00  0.00    -0.384 OA
HETATM   31  C   UNL     1     -40.716 -43.197  14.627  1.00  0.00     0.202 C 
ENDBRANCH  25  30
ENDBRANCH   6  23
TORSDOF 7
ENDMDL
MODEL 9
REMARK VINA RESULT:      -5.8      3.230      4.256
REMARK  7 active torsions:
REMARK  status: ('A' for Active; 'I' for Inactive)
REMARK    1  A    between atoms: N_1  and  C_9 
REMARK    2  A    between atoms: C_6  and  N_8 
REMARK    3  A    between atoms: C_14  and  C_22 
REMARK    4  A    between atoms: C_14  and  C_23 
REMARK    5  A    between atoms: C_19  and  O_21 
REMARK    6  A    between atoms: C_22  and  O_24 
REMARK    7  A    between atoms: C_23  and  O_25 
ROOT
HETATM    1  N   UNL     1     -41.031 -49.765  12.908  1.00  0.00    -0.322 N 
HETATM    2  C   UNL     1     -40.893 -51.761  13.780  1.00  0.00     0.122 A 
HETATM    3  C   UNL     1     -41.608 -51.011  12.845  1.00  0.00     0.140 A 
HETATM    4  N   UNL     1     -39.934 -50.986  14.406  1.00  0.00    -0.346 N 
ATOM      5  HN  UNL     1     -39.282 -51.274  15.135  1.00  0.00     0.167 HD
HETATM    6  C   UNL     1     -41.236 -53.129  13.955  1.00  0.00     0.135 A 
HETATM    7  C   UNL     1     -40.048 -49.802  13.860  1.00  0.00     0.185 A 
HETATM    8  N   UNL     1     -42.625 -51.443  12.083  1.00  0.00    -0.336 N 
ATOM      9  HN  UNL     1     -43.121 -50.871  11.398  1.00  0.00     0.168 HD
HETATM   10  N   UNL     1     -42.290 -53.580  13.213  1.00  0.00    -0.337 N 
ATOM     11  HN  UNL     1     -42.612 -54.544  13.308  1.00  0.00     0.168 HD
HETATM   12  C   UNL     1     -42.902 -52.736  12.348  1.00  0.00     0.183 A 
ENDROOT
BRANCH   1  13
HETATM   13  C   UNL     1     -41.276 -48.548  12.191  1.00  0.00     0.094 C 
HETATM   14  C   UNL     1     -42.753 -48.059  12.172  1.00  0.00     0.039 C 
HETATM   15  C   UNL     1     -42.426 -47.425  10.768  1.00  0.00     0.006 C 
HETATM   16  C   UNL     1     -41.404 -48.622  10.647  1.00  0.00     0.039 C 
BRANCH  15  17
HETATM   17  C   UNL     1     -43.568 -47.373   9.749  1.00  0.00     0.175 C 
BRANCH  17  18
HETATM   18  O   UNL     1     -44.191 -46.096   9.725  1.00  0.00    -0.400 OA
HETATM   19  H   UNL     1     -43.565 -45.458  10.112  1.00  0.00     0.209 HD
ENDBRANCH  17  18
ENDBRANCH  15  17
BRANCH  15  20
HETATM   20  C   UNL     1     -41.792 -46.020  10.876  1.00  0.00     0.175 C 
BRANCH  20  21
HETATM   21  O   UNL     1     -41.439 -45.549   9.581  1.00  0.00    -0.400 OA
HETATM   22  H   UNL     1     -40.909 -46.241   9.148  1.00  0.00     0.209 HD
ENDBRANCH  20  21
ENDBRANCH  15  20
ENDBRANCH   1  13
BRANCH   6  23
HETATM   23  N   UNL     1     -40.597 -53.969  14.885  1.00  0.00    -0.362 N 
HETATM   24  C   UNL     1     -41.483 -54.811  15.709  1.00  0.00     0.162 C 
HETATM   25  C   UNL     1     -40.729 -55.382  16.948  1.00  0.00     0.073 C 
HETATM   26  C   UNL     1     -39.363 -55.987  16.557  1.00  0.00     0.041 C 
HETATM   27  C   UNL     1     -41.581 -56.517  17.555  1.00  0.00     0.047 C 
HETATM   28  C   UNL     1     -38.553 -55.144  15.574  1.00  0.00     0.023 C 
HETATM   29  C   UNL     1     -39.385 -54.635  14.402  1.00  0.00     0.124 C 
BRANCH  25  30
HETATM   30  O   UNL     1     -40.634 -54.452  18.046  1.00  0.00    -0.384 OA
HETATM   31  C   UNL     1     -41.343 -54.734  19.238  1.00  0.00     0.202 C 
ENDBRANCH  25  30
ENDBRANCH   6  23
TORSDOF 7
ENDMDL
