MODEL 1
REMARK VINA RESULT:      -6.0      0.000      0.000
REMARK  5 active torsions:
REMARK  status: ('A' for Active; 'I' for Inactive)
REMARK    1  A    between atoms: C_2  and  C_5 
REMARK    2  A    between atoms: C_5  and  C_6 
REMARK       I    between atoms: C_6  and  N_8 
REMARK    3  A    between atoms: N_8  and  C_9 
REMARK    4  A    between atoms: C_9  and  C_10 
REMARK    5  A    between atoms: C_16  and  N_17 
ROOT
HETATM    1  C   UNL     1     -44.190 -51.120  13.179  1.00  0.00     0.004 A 
HETATM    2  C   UNL     1     -45.595 -51.100  13.302  1.00  0.00     0.014 A 
HETATM    3  C   UNL     1     -46.307 -52.277  13.466  1.00  0.00     0.018 A 
HETATM    4  C   UNL     1     -45.590 -53.446  13.482  1.00  0.00     0.089 A 
HETATM    5  N   UNL     1     -44.247 -53.507  13.327  1.00  0.00    -0.352 N 
ATOM      6  HN  UNL     1     -43.773 -54.409  13.328  1.00  0.00     0.166 HD
HETATM    7  C   UNL     1     -43.533 -52.364  13.171  1.00  0.00     0.111 A 
ENDROOT
BRANCH   1   8
HETATM    8  C   UNL     1     -43.491 -49.789  13.171  1.00  0.00     0.165 C 
BRANCH   8   9
HETATM    9  N   UNL     1     -43.148 -49.354  11.832  1.00  0.00    -0.357 N 
HETATM   10  C   UNL     1     -43.084 -48.016  11.518  1.00  0.00     0.218 C 
HETATM   11  O   UNL     1     -43.341 -47.129  12.325  1.00  0.00    -0.274 OA
HETATM   12  H   UNL     1     -42.857 -50.048  11.157  1.00  0.00     0.162 HD
BRANCH  10  13
HETATM   13  C   UNL     1     -42.676 -47.721  10.083  1.00  0.00     0.111 C 
BRANCH  13  14
HETATM   14  C   UNL     1     -43.819 -47.237   9.164  1.00  0.00    -0.043 C 
HETATM   15  C   UNL     1     -43.810 -45.703   9.040  1.00  0.00     0.015 C 
HETATM   16  C   UNL     1     -45.193 -47.700   9.670  1.00  0.00     0.015 C 
HETATM   17  C   UNL     1     -43.596 -47.833   7.759  1.00  0.00     0.015 C 
ENDBRANCH  13  14
ENDBRANCH  10  13
ENDBRANCH   8   9
ENDBRANCH   1   8
BRANCH   7  18
HETATM   18  N   UNL     1     -42.167 -52.504  13.131  1.00  0.00    -0.363 N 
HETATM   19  C   UNL     1     -41.500 -53.345  14.136  1.00  0.00     0.150 C 
HETATM   20  C   UNL     1     -40.171 -52.647  14.507  1.00  0.00     0.187 C 
HETATM   21  O   UNL     1     -39.344 -52.402  13.351  1.00  0.00    -0.388 OA
HETATM   22  C   UNL     1     -40.055 -51.630  12.363  1.00  0.00     0.187 C 
HETATM   23  C   UNL     1     -41.341 -52.353  11.933  1.00  0.00     0.150 C 
ENDBRANCH   7  18
TORSDOF 5
ENDMDL
MODEL 2
REMARK VINA RESULT:      -5.9      2.235      4.094
REMARK  5 active torsions:
REMARK  status: ('A' for Active; 'I' for Inactive)
REMARK    1  A    between atoms: C_2  and  C_5 
REMARK    2  A    between atoms: C_5  and  C_6 
REMARK       I    between atoms: C_6  and  N_8 
REMARK    3  A    between atoms: N_8  and  C_9 
REMARK    4  A    between atoms: C_9  and  C_10 
REMARK    5  A    between atoms: C_16  and  N_17 
ROOT
HETATM    1  C   UNL     1     -39.984 -49.445  12.432  1.00  0.00     0.004 A 
HETATM    2  C   UNL     1     -39.102 -48.356  12.581  1.00  0.00     0.014 A 
HETATM    3  C   UNL     1     -38.386 -48.182  13.754  1.00  0.00     0.018 A 
HETATM    4  C   UNL     1     -38.592 -49.096  14.756  1.00  0.00     0.089 A 
HETATM    5  N   UNL     1     -39.460 -50.130  14.663  1.00  0.00    -0.352 N 
ATOM      6  HN  UNL     1     -39.584 -50.765  15.450  1.00  0.00     0.166 HD
HETATM    7  C   UNL     1     -40.164 -50.319  13.519  1.00  0.00     0.111 A 
ENDROOT
BRANCH   1   8
HETATM    8  C   UNL     1     -40.590 -49.647  11.070  1.00  0.00     0.165 C 
BRANCH   8   9
HETATM    9  N   UNL     1     -41.964 -49.192  11.004  1.00  0.00    -0.357 N 
HETATM   10  C   UNL     1     -42.266 -47.910  10.606  1.00  0.00     0.218 C 
HETATM   11  O   UNL     1     -41.408 -47.082  10.320  1.00  0.00    -0.274 OA
HETATM   12  H   UNL     1     -42.704 -49.863  11.158  1.00  0.00     0.162 HD
BRANCH  10  13
HETATM   13  C   UNL     1     -43.753 -47.597  10.554  1.00  0.00     0.111 C 
BRANCH  13  14
HETATM   14  C   UNL     1     -44.274 -47.122   9.180  1.00  0.00    -0.043 C 
HETATM   15  C   UNL     1     -43.540 -47.844   8.036  1.00  0.00     0.015 C 
HETATM   16  C   UNL     1     -44.122 -45.603   9.007  1.00  0.00     0.015 C 
HETATM   17  C   UNL     1     -45.774 -47.470   9.084  1.00  0.00     0.015 C 
ENDBRANCH  13  14
ENDBRANCH  10  13
ENDBRANCH   8   9
ENDBRANCH   1   8
BRANCH   7  18
HETATM   18  N   UNL     1     -40.940 -51.452  13.467  1.00  0.00    -0.363 N 
HETATM   19  C   UNL     1     -40.314 -52.764  13.695  1.00  0.00     0.150 C 
HETATM   20  C   UNL     1     -40.981 -53.764  12.724  1.00  0.00     0.187 C 
HETATM   21  O   UNL     1     -42.415 -53.798  12.878  1.00  0.00    -0.388 OA
HETATM   22  C   UNL     1     -42.983 -52.484  12.710  1.00  0.00     0.187 C 
HETATM   23  C   UNL     1     -42.379 -51.499  13.723  1.00  0.00     0.150 C 
ENDBRANCH   7  18
TORSDOF 5
ENDMDL
MODEL 3
REMARK VINA RESULT:      -5.7      2.169      5.372
REMARK  5 active torsions:
REMARK  status: ('A' for Active; 'I' for Inactive)
REMARK    1  A    between atoms: C_2  and  C_5 
REMARK    2  A    between atoms: C_5  and  C_6 
REMARK       I    between atoms: C_6  and  N_8 
REMARK    3  A    between atoms: N_8  and  C_9 
REMARK    4  A    between atoms: C_9  and  C_10 
REMARK    5  A    between atoms: C_16  and  N_17 
ROOT
HETATM    1  C   UNL     1     -42.219 -49.203  12.743  1.00  0.00     0.004 A 
HETATM    2  C   UNL     1     -43.012 -48.138  12.269  1.00  0.00     0.014 A 
HETATM    3  C   UNL     1     -42.862 -47.667  10.975  1.00  0.00     0.018 A 
HETATM    4  C   UNL     1     -41.902 -48.265  10.198  1.00  0.00     0.089 A 
HETATM    5  N   UNL     1     -41.097 -49.261  10.632  1.00  0.00    -0.352 N 
ATOM      6  HN  UNL     1     -40.388 -49.652  10.012  1.00  0.00     0.166 HD
HETATM    7  C   UNL     1     -41.235 -49.739  11.894  1.00  0.00     0.111 A 
ENDROOT
BRANCH   1   8
HETATM    8  C   UNL     1     -42.566 -49.755  14.099  1.00  0.00     0.165 C 
BRANCH   8   9
HETATM    9  N   UNL     1     -43.987 -49.999  14.248  1.00  0.00    -0.357 N 
HETATM   10  C   UNL     1     -44.555 -51.167  13.795  1.00  0.00     0.218 C 
HETATM   11  O   UNL     1     -43.914 -52.041  13.220  1.00  0.00    -0.274 OA
HETATM   12  H   UNL     1     -44.538 -49.340  14.781  1.00  0.00     0.162 HD
BRANCH  10  13
HETATM   13  C   UNL     1     -46.047 -51.289  14.057  1.00  0.00     0.111 C 
BRANCH  13  14
HETATM   14  C   UNL     1     -46.429 -52.141  15.288  1.00  0.00    -0.043 C 
HETATM   15  C   UNL     1     -47.562 -51.473  16.087  1.00  0.00     0.015 C 
HETATM   16  C   UNL     1     -45.224 -52.380  16.211  1.00  0.00     0.015 C 
HETATM   17  C   UNL     1     -46.935 -53.511  14.791  1.00  0.00     0.015 C 
ENDBRANCH  13  14
ENDBRANCH  10  13
ENDBRANCH   8   9
ENDBRANCH   1   8
BRANCH   7  18
HETATM   18  N   UNL     1     -40.455 -50.822  12.220  1.00  0.00    -0.363 N 
HETATM   19  C   UNL     1     -40.902 -52.171  11.842  1.00  0.00     0.150 C 
HETATM   20  C   UNL     1     -40.523 -53.121  13.001  1.00  0.00     0.187 C 
HETATM   21  O   UNL     1     -39.114 -53.068  13.308  1.00  0.00    -0.388 OA
HETATM   22  C   UNL     1     -38.703 -51.721  13.611  1.00  0.00     0.187 C 
HETATM   23  C   UNL     1     -39.009 -50.784  12.432  1.00  0.00     0.150 C 
ENDBRANCH   7  18
TORSDOF 5
ENDMDL
MODEL 4
REMARK VINA RESULT:      -5.6      3.205      5.403
REMARK  5 active torsions:
REMARK  status: ('A' for Active; 'I' for Inactive)
REMARK    1  A    between atoms: C_2  and  C_5 
REMARK    2  A    between atoms: C_5  and  C_6 
REMARK       I    between atoms: C_6  and  N_8 
REMARK    3  A    between atoms: N_8  and  C_9 
REMARK    4  A    between atoms: C_9  and  C_10 
REMARK    5  A    between atoms: C_16  and  N_17 
ROOT
HETATM    1  C   UNL     1     -41.330 -52.933  13.265  1.00  0.00     0.004 A 
HETATM    2  C   UNL     1     -41.704 -54.155  13.860  1.00  0.00     0.014 A 
HETATM    3  C   UNL     1     -40.985 -54.671  14.926  1.00  0.00     0.018 A 
HETATM    4  C   UNL     1     -39.895 -53.954  15.352  1.00  0.00     0.089 A 
HETATM    5  N   UNL     1     -39.485 -52.800  14.780  1.00  0.00    -0.352 N 
ATOM      6  HN  UNL     1     -38.654 -52.323  15.130  1.00  0.00     0.166 HD
HETATM    7  C   UNL     1     -40.181 -52.277  13.740  1.00  0.00     0.111 A 
ENDROOT
BRANCH   1   8
HETATM    8  C   UNL     1     -42.264 -52.370  12.228  1.00  0.00     0.165 C 
BRANCH   8   9
HETATM    9  N   UNL     1     -43.421 -51.729  12.818  1.00  0.00    -0.357 N 
HETATM   10  C   UNL     1     -44.652 -52.345  12.809  1.00  0.00     0.218 C 
HETATM   11  O   UNL     1     -44.847 -53.435  12.284  1.00  0.00    -0.274 OA
HETATM   12  H   UNL     1     -43.290 -50.865  13.326  1.00  0.00     0.162 HD
BRANCH  10  13
HETATM   13  C   UNL     1     -45.757 -51.561  13.498  1.00  0.00     0.111 C 
BRANCH  13  14
HETATM   14  C   UNL     1     -45.793 -51.694  15.037  1.00  0.00    -0.043 C 
HETATM   15  C   UNL     1     -44.884 -50.643  15.699  1.00  0.00     0.015 C 
HETATM   16  C   UNL     1     -45.371 -53.098  15.497  1.00  0.00     0.015 C 
HETATM   17  C   UNL     1     -47.239 -51.446  15.511  1.00  0.00     0.015 C 
ENDBRANCH  13  14
ENDBRANCH  10  13
ENDBRANCH   8   9
ENDBRANCH   1   8
BRANCH   7  18
HETATM   18  N   UNL     1     -39.762 -51.048  13.288  1.00  0.00    -0.363 N 
HETATM   19  C   UNL     1     -40.319 -49.830  13.895  1.00  0.00     0.150 C 
HETATM   20  C   UNL     1     -40.508 -48.798  12.760  1.00  0.00     0.187 C 
HETATM   21  O   UNL     1     -39.281 -48.550  12.042  1.00  0.00    -0.388 OA
HETATM   22  C   UNL     1     -38.734 -49.776  11.517  1.00  0.00     0.187 C 
HETATM   23  C   UNL     1     -38.474 -50.781  12.650  1.00  0.00     0.150 C 
ENDBRANCH   7  18
TORSDOF 5
ENDMDL
MODEL 5
REMARK VINA RESULT:      -5.6      2.167      6.445
REMARK  5 active torsions:
REMARK  status: ('A' for Active; 'I' for Inactive)
REMARK    1  A    between atoms: C_2  and  C_5 
REMARK    2  A    between atoms: C_5  and  C_6 
REMARK       I    between atoms: C_6  and  N_8 
REMARK    3  A    between atoms: N_8  and  C_9 
REMARK    4  A    between atoms: C_9  and  C_10 
REMARK    5  A    between atoms: C_16  and  N_17 
ROOT
HETATM    1  C   UNL     1     -41.810 -49.651  12.267  1.00  0.00     0.004 A 
HETATM    2  C   UNL     1     -41.154 -50.726  12.901  1.00  0.00     0.014 A 
HETATM    3  C   UNL     1     -39.815 -50.981  12.654  1.00  0.00     0.018 A 
HETATM    4  C   UNL     1     -39.175 -50.162  11.759  1.00  0.00     0.089 A 
HETATM    5  N   UNL     1     -39.783 -49.147  11.102  1.00  0.00    -0.352 N 
ATOM      6  HN  UNL     1     -39.258 -48.585  10.433  1.00  0.00     0.166 HD
HETATM    7  C   UNL     1     -41.092 -48.879  11.337  1.00  0.00     0.111 A 
ENDROOT
BRANCH   1   8
HETATM    8  C   UNL     1     -43.212 -49.349  12.721  1.00  0.00     0.165 C 
BRANCH   8   9
HETATM    9  N   UNL     1     -44.037 -50.538  12.791  1.00  0.00    -0.357 N 
HETATM   10  C   UNL     1     -44.579 -50.954  13.985  1.00  0.00     0.218 C 
HETATM   11  O   UNL     1     -44.374 -50.375  15.047  1.00  0.00    -0.274 OA
HETATM   12  H   UNL     1     -44.292 -51.002  11.929  1.00  0.00     0.162 HD
BRANCH  10  13
HETATM   13  C   UNL     1     -45.449 -52.197  13.888  1.00  0.00     0.111 C 
BRANCH  13  14
HETATM   14  C   UNL     1     -44.677 -53.534  13.828  1.00  0.00    -0.043 C 
HETATM   15  C   UNL     1     -43.592 -53.588  14.918  1.00  0.00     0.015 C 
HETATM   16  C   UNL     1     -44.032 -53.759  12.453  1.00  0.00     0.015 C 
HETATM   17  C   UNL     1     -45.675 -54.681  14.087  1.00  0.00     0.015 C 
ENDBRANCH  13  14
ENDBRANCH  10  13
ENDBRANCH   8   9
ENDBRANCH   1   8
BRANCH   7  18
HETATM   18  N   UNL     1     -41.603 -47.766  10.713  1.00  0.00    -0.363 N 
HETATM   19  C   UNL     1     -40.846 -46.506  10.756  1.00  0.00     0.150 C 
HETATM   20  C   UNL     1     -41.872 -45.360  10.912  1.00  0.00     0.187 C 
HETATM   21  O   UNL     1     -42.866 -45.376   9.866  1.00  0.00    -0.388 OA
HETATM   22  C   UNL     1     -43.541 -46.648   9.816  1.00  0.00     0.187 C 
HETATM   23  C   UNL     1     -42.534 -47.787   9.587  1.00  0.00     0.150 C 
ENDBRANCH   7  18
TORSDOF 5
ENDMDL
MODEL 6
REMARK VINA RESULT:      -5.6      4.565      6.394
REMARK  5 active torsions:
REMARK  status: ('A' for Active; 'I' for Inactive)
REMARK    1  A    between atoms: C_2  and  C_5 
REMARK    2  A    between atoms: C_5  and  C_6 
REMARK       I    between atoms: C_6  and  N_8 
REMARK    3  A    between atoms: N_8  and  C_9 
REMARK    4  A    between atoms: C_9  and  C_10 
REMARK    5  A    between atoms: C_16  and  N_17 
ROOT
HETATM    1  C   UNL     1     -41.923 -54.458  14.532  1.00  0.00     0.004 A 
HETATM    2  C   UNL     1     -41.891 -53.699  13.344  1.00  0.00     0.014 A 
HETATM    3  C   UNL     1     -40.752 -52.999  12.983  1.00  0.00     0.018 A 
HETATM    4  C   UNL     1     -39.681 -53.061  13.838  1.00  0.00     0.089 A 
HETATM    5  N   UNL     1     -39.690 -53.746  15.004  1.00  0.00    -0.352 N 
ATOM      6  HN  UNL     1     -38.868 -53.738  15.608  1.00  0.00     0.166 HD
HETATM    7  C   UNL     1     -40.795 -54.443  15.370  1.00  0.00     0.111 A 
ENDROOT
BRANCH   1   8
HETATM    8  C   UNL     1     -43.139 -55.315  14.756  1.00  0.00     0.165 C 
BRANCH   8   9
HETATM    9  N   UNL     1     -44.300 -54.537  15.139  1.00  0.00    -0.357 N 
HETATM   10  C   UNL     1     -45.311 -54.288  14.241  1.00  0.00     0.218 C 
HETATM   11  O   UNL     1     -45.279 -54.673  13.077  1.00  0.00    -0.274 OA
HETATM   12  H   UNL     1     -44.402 -54.265  16.107  1.00  0.00     0.162 HD
BRANCH  10  13
HETATM   13  C   UNL     1     -46.476 -53.489  14.804  1.00  0.00     0.111 C 
BRANCH  13  14
HETATM   14  C   UNL     1     -46.333 -51.955  14.691  1.00  0.00    -0.043 C 
HETATM   15  C   UNL     1     -44.874 -51.523  14.923  1.00  0.00     0.015 C 
HETATM   16  C   UNL     1     -47.247 -51.224  15.686  1.00  0.00     0.015 C 
HETATM   17  C   UNL     1     -46.738 -51.535  13.264  1.00  0.00     0.015 C 
ENDBRANCH  13  14
ENDBRANCH  10  13
ENDBRANCH   8   9
ENDBRANCH   1   8
BRANCH   7  18
HETATM   18  N   UNL     1     -40.683 -55.199  16.512  1.00  0.00    -0.363 N 
HETATM   19  C   UNL     1     -39.554 -56.130  16.652  1.00  0.00     0.150 C 
HETATM   20  C   UNL     1     -40.090 -57.397  17.356  1.00  0.00     0.187 C 
HETATM   21  O   UNL     1     -40.719 -57.093  18.619  1.00  0.00    -0.388 OA
HETATM   22  C   UNL     1     -41.778 -56.130  18.448  1.00  0.00     0.187 C 
HETATM   23  C   UNL     1     -41.237 -54.838  17.816  1.00  0.00     0.150 C 
ENDBRANCH   7  18
TORSDOF 5
ENDMDL
MODEL 7
REMARK VINA RESULT:      -5.5      2.441      5.627
REMARK  5 active torsions:
REMARK  status: ('A' for Active; 'I' for Inactive)
REMARK    1  A    between atoms: C_2  and  C_5 
REMARK    2  A    between atoms: C_5  and  C_6 
REMARK       I    between atoms: C_6  and  N_8 
REMARK    3  A    between atoms: N_8  and  C_9 
REMARK    4  A    between atoms: C_9  and  C_10 
REMARK    5  A    between atoms: C_16  and  N_17 
ROOT
HETATM    1  C   UNL     1     -41.383 -48.882  11.668  1.00  0.00     0.004 A 
HETATM    2  C   UNL     1     -42.361 -48.149  10.964  1.00  0.00     0.014 A 
HETATM    3  C   UNL     1     -42.052 -46.926  10.393  1.00  0.00     0.018 A 
HETATM    4  C   UNL     1     -40.772 -46.461  10.561  1.00  0.00     0.089 A 
HETATM    5  N   UNL     1     -39.820 -47.118  11.262  1.00  0.00    -0.352 N 
ATOM      6  HN  UNL     1     -38.891 -46.711  11.369  1.00  0.00     0.166 HD
HETATM    7  C   UNL     1     -40.104 -48.320  11.823  1.00  0.00     0.111 A 
ENDROOT
BRANCH   1   8
HETATM    8  C   UNL     1     -41.762 -50.270  12.109  1.00  0.00     0.165 C 
BRANCH   8   9
HETATM    9  N   UNL     1     -43.158 -50.366  12.486  1.00  0.00    -0.357 N 
HETATM   10  C   UNL     1     -43.543 -51.082  13.595  1.00  0.00     0.218 C 
HETATM   11  O   UNL     1     -42.749 -51.697  14.300  1.00  0.00    -0.274 OA
HETATM   12  H   UNL     1     -43.836 -49.814  11.978  1.00  0.00     0.162 HD
BRANCH  10  13
HETATM   13  C   UNL     1     -45.036 -51.058  13.878  1.00  0.00     0.111 C 
BRANCH  13  14
HETATM   14  C   UNL     1     -45.842 -52.214  13.244  1.00  0.00    -0.043 C 
HETATM   15  C   UNL     1     -46.751 -51.693  12.117  1.00  0.00     0.015 C 
HETATM   16  C   UNL     1     -46.693 -52.954  14.287  1.00  0.00     0.015 C 
HETATM   17  C   UNL     1     -44.846 -53.220  12.632  1.00  0.00     0.015 C 
ENDBRANCH  13  14
ENDBRANCH  10  13
ENDBRANCH   8   9
ENDBRANCH   1   8
BRANCH   7  18
HETATM   18  N   UNL     1     -39.053 -48.971  12.424  1.00  0.00    -0.363 N 
HETATM   19  C   UNL     1     -37.971 -49.515  11.590  1.00  0.00     0.150 C 
HETATM   20  C   UNL     1     -37.543 -50.862  12.216  1.00  0.00     0.187 C 
HETATM   21  O   UNL     1     -37.160 -50.721  13.599  1.00  0.00    -0.388 OA
HETATM   22  C   UNL     1     -38.222 -50.126  14.371  1.00  0.00     0.187 C 
HETATM   23  C   UNL     1     -38.603 -48.752  13.798  1.00  0.00     0.150 C 
ENDBRANCH   7  18
TORSDOF 5
ENDMDL
MODEL 8
REMARK VINA RESULT:      -5.5      2.555      6.715
REMARK  5 active torsions:
REMARK  status: ('A' for Active; 'I' for Inactive)
REMARK    1  A    between atoms: C_2  and  C_5 
REMARK    2  A    between atoms: C_5  and  C_6 
REMARK       I    between atoms: C_6  and  N_8 
REMARK    3  A    between atoms: N_8  and  C_9 
REMARK    4  A    between atoms: C_9  and  C_10 
REMARK    5  A    between atoms: C_16  and  N_17 
ROOT
HETATM    1  C   UNL     1     -39.534 -49.775  13.153  1.00  0.00     0.004 A 
HETATM    2  C   UNL     1     -38.505 -50.674  13.500  1.00  0.00     0.014 A 
HETATM    3  C   UNL     1     -37.446 -50.904  12.637  1.00  0.00     0.018 A 
HETATM    4  C   UNL     1     -37.461 -50.240  11.436  1.00  0.00     0.089 A 
HETATM    5  N   UNL     1     -38.451 -49.401  11.054  1.00  0.00    -0.352 N 
ATOM      6  HN  UNL     1     -38.414 -48.952  10.139  1.00  0.00     0.166 HD
HETATM    7  C   UNL     1     -39.491 -49.159  11.889  1.00  0.00     0.111 A 
ENDROOT
BRANCH   1   8
HETATM    8  C   UNL     1     -40.550 -49.463  14.217  1.00  0.00     0.165 C 
BRANCH   8   9
HETATM    9  N   UNL     1     -41.220 -50.651  14.705  1.00  0.00    -0.357 N 
HETATM   10  C   UNL     1     -42.346 -51.135  14.079  1.00  0.00     0.218 C 
HETATM   11  O   UNL     1     -42.859 -50.583  13.111  1.00  0.00    -0.274 OA
HETATM   12  H   UNL     1     -40.789 -51.178  15.453  1.00  0.00     0.162 HD
BRANCH  10  13
HETATM   13  C   UNL     1     -42.911 -52.408  14.687  1.00  0.00     0.111 C 
BRANCH  13  14
HETATM   14  C   UNL     1     -42.669 -53.692  13.862  1.00  0.00    -0.043 C 
HETATM   15  C   UNL     1     -42.716 -54.938  14.763  1.00  0.00     0.015 C 
HETATM   16  C   UNL     1     -41.324 -53.647  13.121  1.00  0.00     0.015 C 
HETATM   17  C   UNL     1     -43.794 -53.813  12.815  1.00  0.00     0.015 C 
ENDBRANCH  13  14
ENDBRANCH  10  13
ENDBRANCH   8   9
ENDBRANCH   1   8
BRANCH   7  18
HETATM   18  N   UNL     1     -40.396 -48.213  11.471  1.00  0.00    -0.363 N 
HETATM   19  C   UNL     1     -39.994 -46.799  11.434  1.00  0.00     0.150 C 
HETATM   20  C   UNL     1     -41.213 -45.965  11.889  1.00  0.00     0.187 C 
HETATM   21  O   UNL     1     -42.383 -46.231  11.088  1.00  0.00    -0.388 OA
HETATM   22  C   UNL     1     -42.707 -47.635  11.099  1.00  0.00     0.187 C 
HETATM   23  C   UNL     1     -41.525 -48.467  10.577  1.00  0.00     0.150 C 
ENDBRANCH   7  18
TORSDOF 5
ENDMDL
MODEL 9
REMARK VINA RESULT:      -5.4      3.213      5.298
REMARK  5 active torsions:
REMARK  status: ('A' for Active; 'I' for Inactive)
REMARK    1  A    between atoms: C_2  and  C_5 
REMARK    2  A    between atoms: C_5  and  C_6 
REMARK       I    between atoms: C_6  and  N_8 
REMARK    3  A    between atoms: N_8  and  C_9 
REMARK    4  A    between atoms: C_9  and  C_10 
REMARK    5  A    between atoms: C_16  and  N_17 
ROOT
HETATM    1  C   UNL     1     -41.785 -53.530  13.396  1.00  0.00     0.004 A 
HETATM    2  C   UNL     1     -40.421 -53.861  13.517  1.00  0.00     0.014 A 
HETATM    3  C   UNL     1     -39.961 -54.573  14.612  1.00  0.00     0.018 A 
HETATM    4  C   UNL     1     -40.882 -54.915  15.569  1.00  0.00     0.089 A 
HETATM    5  N   UNL     1     -42.191 -54.580  15.506  1.00  0.00    -0.352 N 
ATOM      6  HN  UNL     1     -42.824 -54.846  16.260  1.00  0.00     0.166 HD
HETATM    7  C   UNL     1     -42.660 -53.888  14.437  1.00  0.00     0.111 A 
ENDROOT
BRANCH   1   8
HETATM    8  C   UNL     1     -42.220 -52.904  12.098  1.00  0.00     0.165 C 
BRANCH   8   9
HETATM    9  N   UNL     1     -41.212 -52.021  11.548  1.00  0.00    -0.357 N 
HETATM   10  C   UNL     1     -41.173 -50.690  11.892  1.00  0.00     0.218 C 
HETATM   11  O   UNL     1     -41.992 -50.172  12.644  1.00  0.00    -0.274 OA
HETATM   12  H   UNL     1     -40.473 -52.421  10.983  1.00  0.00     0.162 HD
BRANCH  10  13
HETATM   13  C   UNL     1     -40.036 -49.904  11.260  1.00  0.00     0.111 C 
BRANCH  13  14
HETATM   14  C   UNL     1     -38.807 -49.684  12.169  1.00  0.00    -0.043 C 
HETATM   15  C   UNL     1     -37.502 -49.765  11.356  1.00  0.00     0.015 C 
HETATM   16  C   UNL     1     -38.758 -50.703  13.317  1.00  0.00     0.015 C 
HETATM   17  C   UNL     1     -38.904 -48.272  12.781  1.00  0.00     0.015 C 
ENDBRANCH  13  14
ENDBRANCH  10  13
ENDBRANCH   8   9
ENDBRANCH   1   8
BRANCH   7  18
HETATM   18  N   UNL     1     -44.018 -53.683  14.398  1.00  0.00    -0.363 N 
HETATM   19  C   UNL     1     -44.548 -52.330  14.623  1.00  0.00     0.150 C 
HETATM   20  C   UNL     1     -45.848 -52.479  15.446  1.00  0.00     0.187 C 
HETATM   21  O   UNL     1     -46.802 -53.350  14.804  1.00  0.00    -0.388 OA
HETATM   22  C   UNL     1     -46.224 -54.644  14.543  1.00  0.00     0.187 C 
HETATM   23  C   UNL     1     -44.973 -54.511  13.662  1.00  0.00     0.150 C 
ENDBRANCH   7  18
TORSDOF 5
ENDMDL
