MODEL 1
REMARK VINA RESULT:      -5.3      0.000      0.000
REMARK  2 active torsions:
REMARK  status: ('A' for Active; 'I' for Inactive)
REMARK       I    between atoms: N_2  and  C_3 
REMARK    1  A    between atoms: C_3  and  C_5 
REMARK    2  A    between atoms: N_7  and  C_11 
ROOT
HETATM    1  C   UNL     1     -39.658 -44.191  11.111  1.00  0.00     0.231 C 
HETATM    2  C   UNL     1     -39.831 -45.502  10.328  1.00  0.00     0.183 C 
HETATM    3  N   UNL     1     -40.749 -46.409  11.017  1.00  0.00    -0.213 N 
HETATM    4  C   UNL     1     -40.447 -46.644  12.430  1.00  0.00     0.167 C 
HETATM    5  C   UNL     1     -40.194 -45.304  13.147  1.00  0.00     0.189 C 
HETATM    6  O   UNL     1     -39.225 -44.495  12.454  1.00  0.00    -0.373 OA
ENDROOT
BRANCH   3   7
HETATM    7  C   UNL     1     -41.988 -46.683  10.507  1.00  0.00     0.680 A 
HETATM    8  N   UNL     1     -42.279 -46.263   9.260  1.00  0.00    -0.200 N 
HETATM    9  C   UNL     1     -43.475 -46.627   8.738  1.00  0.00     0.131 A 
ATOM     10  HN  UNL     1     -41.622 -45.690   8.729  1.00  0.00     0.183 HD
HETATM   11  C   UNL     1     -44.403 -47.377   9.412  1.00  0.00     0.065 A 
HETATM   12 CL   UNL     1     -45.897 -47.829   8.718  1.00  0.00    -0.081 Cl
HETATM   13  C   UNL     1     -44.038 -47.737  10.682  1.00  0.00     0.131 A 
HETATM   14  N   UNL     1     -42.855 -47.399  11.244  1.00  0.00    -0.200 N 
ATOM     15  HN  UNL     1     -42.627 -47.679  12.198  1.00  0.00     0.183 HD
ENDBRANCH   3   7
BRANCH   1  16
HETATM   16  C   UNL     1     -40.840 -43.184  11.066  1.00  0.00     0.247 C 
HETATM   17  N   UNL     1     -40.608 -41.914  11.554  1.00  0.00    -0.363 N 
HETATM   18  C   UNL     1     -41.680 -40.948  11.540  1.00  0.00     0.149 C 
HETATM   19  H   UNL     1     -39.668 -41.539  11.451  1.00  0.00     0.162 HD
HETATM   20  O   UNL     1     -41.959 -43.525  10.679  1.00  0.00    -0.271 OA
ENDBRANCH   1  16
TORSDOF 2
ENDMDL
MODEL 2
REMARK VINA RESULT:      -5.3      9.084     10.534
REMARK  2 active torsions:
REMARK  status: ('A' for Active; 'I' for Inactive)
REMARK       I    between atoms: N_2  and  C_3 
REMARK    1  A    between atoms: C_3  and  C_5 
REMARK    2  A    between atoms: N_7  and  C_11 
ROOT
HETATM    1  C   UNL     1     -46.373 -54.348  14.945  1.00  0.00     0.231 C 
HETATM    2  C   UNL     1     -45.518 -55.023  13.862  1.00  0.00     0.183 C 
HETATM    3  N   UNL     1     -44.651 -54.052  13.195  1.00  0.00    -0.213 N 
HETATM    4  C   UNL     1     -45.329 -52.853  12.697  1.00  0.00     0.167 C 
HETATM    5  C   UNL     1     -46.241 -52.269  13.792  1.00  0.00     0.189 C 
HETATM    6  O   UNL     1     -47.119 -53.263  14.353  1.00  0.00    -0.373 OA
ENDROOT
BRANCH   3   7
HETATM    7  C   UNL     1     -43.296 -54.071  13.377  1.00  0.00     0.680 A 
HETATM    8  N   UNL     1     -42.514 -53.469  12.459  1.00  0.00    -0.200 N 
HETATM    9  C   UNL     1     -41.183 -53.415  12.708  1.00  0.00     0.131 A 
ATOM     10  HN  UNL     1     -42.910 -53.070  11.608  1.00  0.00     0.183 HD
HETATM   11  C   UNL     1     -40.594 -53.951  13.823  1.00  0.00     0.065 A 
HETATM   12 CL   UNL     1     -38.914 -53.854  14.111  1.00  0.00    -0.081 Cl
HETATM   13  C   UNL     1     -41.458 -54.569  14.689  1.00  0.00     0.131 A 
HETATM   14  N   UNL     1     -42.793 -54.645  14.484  1.00  0.00    -0.200 N 
ATOM     15  HN  UNL     1     -43.400 -55.124  15.150  1.00  0.00     0.183 HD
ENDBRANCH   3   7
BRANCH   1  16
HETATM   16  C   UNL     1     -45.652 -53.943  16.260  1.00  0.00     0.247 C 
HETATM   17  N   UNL     1     -46.181 -52.885  16.973  1.00  0.00    -0.363 N 
HETATM   18  C   UNL     1     -45.538 -52.469  18.195  1.00  0.00     0.149 C 
HETATM   19  H   UNL     1     -47.188 -52.753  16.931  1.00  0.00     0.162 HD
HETATM   20  O   UNL     1     -44.608 -54.493  16.615  1.00  0.00    -0.271 OA
ENDBRANCH   1  16
TORSDOF 2
ENDMDL
MODEL 3
REMARK VINA RESULT:      -5.0      6.671      8.175
REMARK  2 active torsions:
REMARK  status: ('A' for Active; 'I' for Inactive)
REMARK       I    between atoms: N_2  and  C_3 
REMARK    1  A    between atoms: C_3  and  C_5 
REMARK    2  A    between atoms: N_7  and  C_11 
ROOT
HETATM    1  C   UNL     1     -40.161 -51.523  12.544  1.00  0.00     0.231 C 
HETATM    2  C   UNL     1     -40.867 -52.715  11.879  1.00  0.00     0.183 C 
HETATM    3  N   UNL     1     -41.125 -53.780  12.846  1.00  0.00    -0.213 N 
HETATM    4  C   UNL     1     -39.966 -54.195  13.638  1.00  0.00     0.167 C 
HETATM    5  C   UNL     1     -39.244 -52.959  14.207  1.00  0.00     0.189 C 
HETATM    6  O   UNL     1     -38.954 -51.985  13.187  1.00  0.00    -0.373 OA
ENDROOT
BRANCH   3   7
HETATM    7  C   UNL     1     -42.398 -54.072  13.255  1.00  0.00     0.680 A 
HETATM    8  N   UNL     1     -42.577 -54.581  14.489  1.00  0.00    -0.200 N 
HETATM    9  C   UNL     1     -43.851 -54.772  14.910  1.00  0.00     0.131 A 
ATOM     10  HN  UNL     1     -41.782 -54.814  15.085  1.00  0.00     0.183 HD
HETATM   11  C   UNL     1     -44.955 -54.496  14.146  1.00  0.00     0.065 A 
HETATM   12 CL   UNL     1     -46.547 -54.738  14.713  1.00  0.00    -0.081 Cl
HETATM   13  C   UNL     1     -44.681 -54.010  12.895  1.00  0.00     0.131 A 
HETATM   14  N   UNL     1     -43.427 -53.800  12.433  1.00  0.00    -0.200 N 
ATOM     15  HN  UNL     1     -43.266 -53.445  11.490  1.00  0.00     0.183 HD
ENDBRANCH   3   7
BRANCH   1  16
HETATM   16  C   UNL     1     -41.027 -50.614  13.459  1.00  0.00     0.247 C 
HETATM   17  N   UNL     1     -42.374 -50.523  13.168  1.00  0.00    -0.363 N 
HETATM   18  C   UNL     1     -43.215 -49.684  13.986  1.00  0.00     0.149 C 
HETATM   19  H   UNL     1     -42.820 -51.343  12.763  1.00  0.00     0.162 HD
HETATM   20  O   UNL     1     -40.522 -49.944  14.361  1.00  0.00    -0.271 OA
ENDBRANCH   1  16
TORSDOF 2
ENDMDL
MODEL 4
REMARK VINA RESULT:      -5.0      3.016      5.090
REMARK  2 active torsions:
REMARK  status: ('A' for Active; 'I' for Inactive)
REMARK       I    between atoms: N_2  and  C_3 
REMARK    1  A    between atoms: C_3  and  C_5 
REMARK    2  A    between atoms: N_7  and  C_11 
ROOT
HETATM    1  C   UNL     1     -42.883 -47.711  11.343  1.00  0.00     0.231 C 
HETATM    2  C   UNL     1     -42.844 -46.616  12.420  1.00  0.00     0.183 C 
HETATM    3  N   UNL     1     -41.642 -45.794  12.291  1.00  0.00    -0.213 N 
HETATM    4  C   UNL     1     -40.384 -46.539  12.213  1.00  0.00     0.167 C 
HETATM    5  C   UNL     1     -40.508 -47.679  11.184  1.00  0.00     0.189 C 
HETATM    6  O   UNL     1     -41.673 -48.493  11.417  1.00  0.00    -0.373 OA
ENDROOT
BRANCH   3   7
HETATM    7  C   UNL     1     -41.716 -44.493  11.876  1.00  0.00     0.680 A 
HETATM    8  N   UNL     1     -42.919 -43.996  11.527  1.00  0.00    -0.200 N 
HETATM    9  C   UNL     1     -42.987 -42.680  11.212  1.00  0.00     0.131 A 
ATOM     10  HN  UNL     1     -43.748 -44.589  11.501  1.00  0.00     0.183 HD
HETATM   11  C   UNL     1     -41.903 -41.840  11.209  1.00  0.00     0.065 A 
HETATM   12 CL   UNL     1     -42.027 -40.183  10.818  1.00  0.00    -0.081 Cl
HETATM   13  C   UNL     1     -40.716 -42.434  11.548  1.00  0.00     0.131 A 
HETATM   14  N   UNL     1     -40.600 -43.742  11.873  1.00  0.00    -0.200 N 
ATOM     15  HN  UNL     1     -39.694 -44.147  12.109  1.00  0.00     0.183 HD
ENDBRANCH   3   7
BRANCH   1  16
HETATM   16  C   UNL     1     -43.230 -47.261   9.897  1.00  0.00     0.247 C 
HETATM   17  N   UNL     1     -42.966 -48.153   8.877  1.00  0.00    -0.363 N 
HETATM   18  C   UNL     1     -43.264 -47.774   7.517  1.00  0.00     0.149 C 
HETATM   19  H   UNL     1     -43.046 -49.144   9.091  1.00  0.00     0.162 HD
HETATM   20  O   UNL     1     -43.653 -46.128   9.661  1.00  0.00    -0.271 OA
ENDBRANCH   1  16
TORSDOF 2
ENDMDL
MODEL 5
REMARK VINA RESULT:      -5.0      7.538      9.817
REMARK  2 active torsions:
REMARK  status: ('A' for Active; 'I' for Inactive)
REMARK       I    between atoms: N_2  and  C_3 
REMARK    1  A    between atoms: C_3  and  C_5 
REMARK    2  A    between atoms: N_7  and  C_11 
ROOT
HETATM    1  C   UNL     1     -45.651 -54.463  14.687  1.00  0.00     0.231 C 
HETATM    2  C   UNL     1     -44.977 -54.592  13.313  1.00  0.00     0.183 C 
HETATM    3  N   UNL     1     -44.714 -53.278  12.729  1.00  0.00    -0.213 N 
HETATM    4  C   UNL     1     -45.862 -52.370  12.699  1.00  0.00     0.167 C 
HETATM    5  C   UNL     1     -46.553 -52.346  14.075  1.00  0.00     0.189 C 
HETATM    6  O   UNL     1     -46.851 -53.671  14.555  1.00  0.00    -0.373 OA
ENDROOT
BRANCH   3   7
HETATM    7  C   UNL     1     -43.438 -52.803  12.601  1.00  0.00     0.680 A 
HETATM    8  N   UNL     1     -43.256 -51.477  12.452  1.00  0.00    -0.200 N 
HETATM    9  C   UNL     1     -41.981 -51.017  12.424  1.00  0.00     0.131 A 
ATOM     10  HN  UNL     1     -44.049 -50.841  12.363  1.00  0.00     0.183 HD
HETATM   11  C   UNL     1     -40.878 -51.826  12.519  1.00  0.00     0.065 A 
HETATM   12 CL   UNL     1     -39.285 -51.211  12.492  1.00  0.00    -0.081 Cl
HETATM   13  C   UNL     1     -41.154 -53.162  12.638  1.00  0.00     0.131 A 
HETATM   14  N   UNL     1     -42.409 -53.666  12.674  1.00  0.00    -0.200 N 
ATOM     15  HN  UNL     1     -42.570 -54.670  12.753  1.00  0.00     0.183 HD
ENDBRANCH   3   7
BRANCH   1  16
HETATM   16  C   UNL     1     -44.752 -54.010  15.871  1.00  0.00     0.247 C 
HETATM   17  N   UNL     1     -45.375 -53.752  17.076  1.00  0.00    -0.363 N 
HETATM   18  C   UNL     1     -44.579 -53.321  18.200  1.00  0.00     0.149 C 
HETATM   19  H   UNL     1     -46.204 -54.297  17.298  1.00  0.00     0.162 HD
HETATM   20  O   UNL     1     -43.544 -53.819  15.722  1.00  0.00    -0.271 OA
ENDBRANCH   1  16
TORSDOF 2
ENDMDL
MODEL 6
REMARK VINA RESULT:      -5.0      4.107      5.642
REMARK  2 active torsions:
REMARK  status: ('A' for Active; 'I' for Inactive)
REMARK       I    between atoms: N_2  and  C_3 
REMARK    1  A    between atoms: C_3  and  C_5 
REMARK    2  A    between atoms: N_7  and  C_11 
ROOT
HETATM    1  C   UNL     1     -37.817 -50.463  12.799  1.00  0.00     0.231 C 
HETATM    2  C   UNL     1     -38.382 -50.190  11.397  1.00  0.00     0.183 C 
HETATM    3  N   UNL     1     -39.844 -50.200  11.407  1.00  0.00    -0.213 N 
HETATM    4  C   UNL     1     -40.453 -51.377  12.030  1.00  0.00     0.167 C 
HETATM    5  C   UNL     1     -39.789 -51.659  13.391  1.00  0.00     0.189 C 
HETATM    6  O   UNL     1     -38.353 -51.709  13.292  1.00  0.00    -0.373 OA
ENDROOT
BRANCH   3   7
HETATM    7  C   UNL     1     -40.561 -49.049  11.227  1.00  0.00     0.680 A 
HETATM    8  N   UNL     1     -39.899 -47.876  11.197  1.00  0.00    -0.200 N 
HETATM    9  C   UNL     1     -40.615 -46.759  10.921  1.00  0.00     0.131 A 
ATOM     10  HN  UNL     1     -38.896 -47.831  11.376  1.00  0.00     0.183 HD
HETATM   11  C   UNL     1     -41.966 -46.757  10.693  1.00  0.00     0.065 A 
HETATM   12 CL   UNL     1     -42.835 -45.331  10.336  1.00  0.00    -0.081 Cl
HETATM   13  C   UNL     1     -42.564 -47.987  10.771  1.00  0.00     0.131 A 
HETATM   14  N   UNL     1     -41.891 -49.130  11.040  1.00  0.00    -0.200 N 
ATOM     15  HN  UNL     1     -42.376 -50.025  11.100  1.00  0.00     0.183 HD
ENDBRANCH   3   7
BRANCH   1  16
HETATM   16  C   UNL     1     -37.913 -49.308  13.833  1.00  0.00     0.247 C 
HETATM   17  N   UNL     1     -37.687 -49.625  15.158  1.00  0.00    -0.363 N 
HETATM   18  C   UNL     1     -37.775 -48.585  16.154  1.00  0.00     0.149 C 
HETATM   19  H   UNL     1     -37.028 -50.374  15.353  1.00  0.00     0.162 HD
HETATM   20  O   UNL     1     -38.250 -48.172  13.496  1.00  0.00    -0.271 OA
ENDBRANCH   1  16
TORSDOF 2
ENDMDL
MODEL 7
REMARK VINA RESULT:      -4.9      2.326      4.160
REMARK  2 active torsions:
REMARK  status: ('A' for Active; 'I' for Inactive)
REMARK       I    between atoms: N_2  and  C_3 
REMARK    1  A    between atoms: C_3  and  C_5 
REMARK    2  A    between atoms: N_7  and  C_11 
ROOT
HETATM    1  C   UNL     1     -41.222 -46.933  12.812  1.00  0.00     0.231 C 
HETATM    2  C   UNL     1     -42.491 -46.241  12.291  1.00  0.00     0.183 C 
HETATM    3  N   UNL     1     -42.443 -46.078  10.838  1.00  0.00    -0.213 N 
HETATM    4  C   UNL     1     -41.221 -45.458  10.323  1.00  0.00     0.167 C 
HETATM    5  C   UNL     1     -39.983 -46.129  10.945  1.00  0.00     0.189 C 
HETATM    6  O   UNL     1     -40.064 -46.187  12.382  1.00  0.00    -0.373 OA
ENDROOT
BRANCH   3   7
HETATM    7  C   UNL     1     -43.267 -46.799  10.018  1.00  0.00     0.680 A 
HETATM    8  N   UNL     1     -44.543 -46.999  10.402  1.00  0.00    -0.200 N 
HETATM    9  C   UNL     1     -45.367 -47.632   9.532  1.00  0.00     0.131 A 
ATOM     10  HN  UNL     1     -44.876 -46.686  11.314  1.00  0.00     0.183 HD
HETATM   11  C   UNL     1     -44.970 -48.092   8.304  1.00  0.00     0.065 A 
HETATM   12 CL   UNL     1     -46.040 -48.876   7.227  1.00  0.00    -0.081 Cl
HETATM   13  C   UNL     1     -43.651 -47.873   8.007  1.00  0.00     0.131 A 
HETATM   14  N   UNL     1     -42.792 -47.244   8.842  1.00  0.00    -0.200 N 
ATOM     15  HN  UNL     1     -41.813 -47.110   8.586  1.00  0.00     0.183 HD
ENDBRANCH   3   7
BRANCH   1  16
HETATM   16  C   UNL     1     -41.096 -48.459  12.549  1.00  0.00     0.247 C 
HETATM   17  N   UNL     1     -42.245 -49.217  12.656  1.00  0.00    -0.363 N 
HETATM   18  C   UNL     1     -42.172 -50.640  12.428  1.00  0.00     0.149 C 
HETATM   19  H   UNL     1     -43.123 -48.769  12.407  1.00  0.00     0.162 HD
HETATM   20  O   UNL     1     -40.003 -48.983  12.327  1.00  0.00    -0.271 OA
ENDBRANCH   1  16
TORSDOF 2
ENDMDL
MODEL 8
REMARK VINA RESULT:      -4.8      3.164      4.865
REMARK  2 active torsions:
REMARK  status: ('A' for Active; 'I' for Inactive)
REMARK       I    between atoms: N_2  and  C_3 
REMARK    1  A    between atoms: C_3  and  C_5 
REMARK    2  A    between atoms: N_7  and  C_11 
ROOT
HETATM    1  C   UNL     1     -41.686 -45.577  10.268  1.00  0.00     0.231 C 
HETATM    2  C   UNL     1     -40.257 -45.942  10.699  1.00  0.00     0.183 C 
HETATM    3  N   UNL     1     -40.226 -46.406  12.085  1.00  0.00    -0.213 N 
HETATM    4  C   UNL     1     -40.888 -45.525  13.050  1.00  0.00     0.167 C 
HETATM    5  C   UNL     1     -42.279 -45.119  12.529  1.00  0.00     0.189 C 
HETATM    6  O   UNL     1     -42.224 -44.602  11.186  1.00  0.00    -0.373 OA
ENDROOT
BRANCH   3   7
HETATM    7  C   UNL     1     -39.969 -47.714  12.387  1.00  0.00     0.680 A 
HETATM    8  N   UNL     1     -40.068 -48.110  13.671  1.00  0.00    -0.200 N 
HETATM    9  C   UNL     1     -39.904 -49.429  13.935  1.00  0.00     0.131 A 
ATOM     10  HN  UNL     1     -40.260 -47.441  14.417  1.00  0.00     0.183 HD
HETATM   11  C   UNL     1     -39.625 -50.369  12.978  1.00  0.00     0.065 A 
HETATM   12 CL   UNL     1     -39.436 -52.026  13.344  1.00  0.00    -0.081 Cl
HETATM   13  C   UNL     1     -39.512 -49.876  11.704  1.00  0.00     0.131 A 
HETATM   14  N   UNL     1     -39.671 -48.569  11.392  1.00  0.00    -0.200 N 
ATOM     15  HN  UNL     1     -39.568 -48.241  10.432  1.00  0.00     0.183 HD
ENDBRANCH   3   7
BRANCH   1  16
HETATM   16  C   UNL     1     -42.660 -46.757   9.997  1.00  0.00     0.247 C 
HETATM   17  N   UNL     1     -44.008 -46.463   9.932  1.00  0.00    -0.363 N 
HETATM   18  C   UNL     1     -44.949 -47.530   9.690  1.00  0.00     0.149 C 
HETATM   19  H   UNL     1     -44.268 -45.548   9.574  1.00  0.00     0.162 HD
HETATM   20  O   UNL     1     -42.255 -47.918   9.915  1.00  0.00    -0.271 OA
ENDBRANCH   1  16
TORSDOF 2
ENDMDL
MODEL 9
REMARK VINA RESULT:      -4.8      3.033      4.170
REMARK  2 active torsions:
REMARK  status: ('A' for Active; 'I' for Inactive)
REMARK       I    between atoms: N_2  and  C_3 
REMARK    1  A    between atoms: C_3  and  C_5 
REMARK    2  A    between atoms: N_7  and  C_11 
ROOT
HETATM    1  C   UNL     1     -42.456 -44.374  11.102  1.00  0.00     0.231 C 
HETATM    2  C   UNL     1     -42.174 -45.660  10.309  1.00  0.00     0.183 C 
HETATM    3  N   UNL     1     -40.792 -46.101  10.494  1.00  0.00    -0.213 N 
HETATM    4  C   UNL     1     -39.776 -45.072  10.261  1.00  0.00     0.167 C 
HETATM    5  C   UNL     1     -40.153 -43.778  11.005  1.00  0.00     0.189 C 
HETATM    6  O   UNL     1     -41.502 -43.362  10.718  1.00  0.00    -0.373 OA
ENDROOT
BRANCH   3   7
HETATM    7  C   UNL     1     -40.499 -47.232  11.205  1.00  0.00     0.680 A 
HETATM    8  N   UNL     1     -40.827 -48.427  10.677  1.00  0.00    -0.200 N 
HETATM    9  C   UNL     1     -40.442 -49.538  11.351  1.00  0.00     0.131 A 
ATOM     10  HN  UNL     1     -41.347 -48.493   9.801  1.00  0.00     0.183 HD
HETATM   11  C   UNL     1     -39.761 -49.509  12.540  1.00  0.00     0.065 A 
HETATM   12 CL   UNL     1     -39.280 -50.929  13.358  1.00  0.00    -0.081 Cl
HETATM   13  C   UNL     1     -39.494 -48.253  13.020  1.00  0.00     0.131 A 
HETATM   14  N   UNL     1     -39.856 -47.117  12.380  1.00  0.00    -0.200 N 
ATOM     15  HN  UNL     1     -39.647 -46.201  12.777  1.00  0.00     0.183 HD
ENDBRANCH   3   7
BRANCH   1  16
HETATM   16  C   UNL     1     -42.605 -44.516  12.641  1.00  0.00     0.247 C 
HETATM   17  N   UNL     1     -43.129 -45.701  13.120  1.00  0.00    -0.363 N 
HETATM   18  C   UNL     1     -43.294 -45.873  14.543  1.00  0.00     0.149 C 
HETATM   19  H   UNL     1     -42.935 -46.545  12.588  1.00  0.00     0.162 HD
HETATM   20  O   UNL     1     -42.337 -43.584  13.401  1.00  0.00    -0.271 OA
ENDBRANCH   1  16
TORSDOF 2
ENDMDL
