MODEL 1
REMARK VINA RESULT:      -5.8      0.000      0.000
REMARK  4 active torsions:
REMARK  status: ('A' for Active; 'I' for Inactive)
REMARK    1  A    between atoms: C_2  and  S_3 
REMARK    2  A    between atoms: S_3  and  C_4 
REMARK    3  A    between atoms: C_8  and  N_10 
REMARK       I    between atoms: N_10  and  C_11 
REMARK       I    between atoms: C_11  and  N_13 
REMARK    4  A    between atoms: N_13  and  C_14 
ROOT
HETATM    1  N   UNL     1     -43.000 -51.088  12.668  1.00  0.00    -0.338 N 
HETATM    2  C   UNL     1     -41.948 -51.801  12.173  1.00  0.00     0.322 C 
HETATM    3  O   UNL     1     -41.841 -53.022  12.265  1.00  0.00    -0.247 OA
HETATM    4  N   UNL     1     -41.013 -51.085  11.475  1.00  0.00    -0.294 N 
HETATM    5  H   UNL     1     -42.841 -50.082  12.691  1.00  0.00     0.164 HD
HETATM    6  H   UNL     1     -40.324 -51.648  11.001  1.00  0.00     0.172 HD
ENDROOT
BRANCH   1   7
HETATM    7  C   UNL     1     -44.108 -51.658  13.408  1.00  0.00     0.087 C 
HETATM    8  C   UNL     1     -45.442 -51.086  12.914  1.00  0.00     0.025 C 
HETATM    9  C   UNL     1     -46.618 -51.634  13.712  1.00  0.00     0.003 C 
HETATM   10  C   UNL     1     -46.438 -51.398  15.214  1.00  0.00     0.015 C 
HETATM   11  C   UNL     1     -45.097 -51.926  15.753  1.00  0.00     0.049 C 
HETATM   12  C   UNL     1     -43.943 -51.367  14.909  1.00  0.00     0.040 C 
BRANCH  11  13
HETATM   13  S   UNL     1     -45.166 -53.766  15.800  1.00  0.00    -0.165 SA
BRANCH  13  14
HETATM   14  C   UNL     1     -43.424 -54.178  16.118  1.00  0.00     0.070 C 
HETATM   15  C   UNL     1     -42.898 -55.016  14.965  1.00  0.00     0.016 C 
ENDBRANCH  13  14
ENDBRANCH  11  13
ENDBRANCH   1   7
BRANCH   4  16
HETATM   16  C   UNL     1     -40.937 -49.717  11.356  1.00  0.00     0.125 A 
HETATM   17  C   UNL     1     -39.956 -48.897  11.954  1.00  0.00     0.069 A 
HETATM   18  C   UNL     1     -40.257 -47.615  11.546  1.00  0.00     0.113 A 
HETATM   19  N   UNL     1     -41.382 -47.725  10.789  1.00  0.00    -0.306 N 
HETATM   20  C   UNL     1     -42.133 -46.671  10.155  1.00  0.00     0.177 C 
HETATM   21  N   UNL     1     -41.802 -48.988  10.639  1.00  0.00    -0.284 N 
ATOM     22  HN  UNL     1     -42.602 -49.320  10.100  1.00  0.00     0.188 HD
ENDBRANCH   4  16
TORSDOF 4
ENDMDL
MODEL 2
REMARK VINA RESULT:      -5.7      1.624      2.508
REMARK  4 active torsions:
REMARK  status: ('A' for Active; 'I' for Inactive)
REMARK    1  A    between atoms: C_2  and  S_3 
REMARK    2  A    between atoms: S_3  and  C_4 
REMARK    3  A    between atoms: C_8  and  N_10 
REMARK       I    between atoms: N_10  and  C_11 
REMARK       I    between atoms: C_11  and  N_13 
REMARK    4  A    between atoms: N_13  and  C_14 
ROOT
HETATM    1  N   UNL     1     -42.464 -50.521  12.128  1.00  0.00    -0.338 N 
HETATM    2  C   UNL     1     -41.148 -50.552  11.769  1.00  0.00     0.322 C 
HETATM    3  O   UNL     1     -40.377 -51.462  12.063  1.00  0.00    -0.247 OA
HETATM    4  N   UNL     1     -40.719 -49.524  10.973  1.00  0.00    -0.294 N 
HETATM    5  H   UNL     1     -42.908 -49.615  11.985  1.00  0.00     0.164 HD
HETATM    6  H   UNL     1     -39.788 -49.641  10.605  1.00  0.00     0.172 HD
ENDROOT
BRANCH   1   7
HETATM    7  C   UNL     1     -43.122 -51.524  12.940  1.00  0.00     0.087 C 
HETATM    8  C   UNL     1     -43.180 -52.867  12.200  1.00  0.00     0.025 C 
HETATM    9  C   UNL     1     -43.912 -53.925  13.016  1.00  0.00     0.003 C 
HETATM   10  C   UNL     1     -45.312 -53.455  13.419  1.00  0.00     0.015 C 
HETATM   11  C   UNL     1     -45.311 -52.093  14.136  1.00  0.00     0.049 C 
HETATM   12  C   UNL     1     -44.546 -51.065  13.292  1.00  0.00     0.040 C 
BRANCH  11  13
HETATM   13  S   UNL     1     -44.630 -52.324  15.832  1.00  0.00    -0.165 SA
BRANCH  13  14
HETATM   14  C   UNL     1     -46.131 -52.149  16.844  1.00  0.00     0.070 C 
HETATM   15  C   UNL     1     -47.211 -51.480  16.010  1.00  0.00     0.016 C 
ENDBRANCH  13  14
ENDBRANCH  11  13
ENDBRANCH   1   7
BRANCH   4  16
HETATM   16  C   UNL     1     -41.422 -48.393  10.629  1.00  0.00     0.125 A 
HETATM   17  C   UNL     1     -41.532 -47.227  11.418  1.00  0.00     0.069 A 
HETATM   18  C   UNL     1     -42.301 -46.357  10.674  1.00  0.00     0.113 A 
HETATM   19  N   UNL     1     -42.632 -47.036   9.542  1.00  0.00    -0.306 N 
HETATM   20  C   UNL     1     -43.461 -46.591   8.450  1.00  0.00     0.177 C 
HETATM   21  N   UNL     1     -42.095 -48.262   9.479  1.00  0.00    -0.284 N 
ATOM     22  HN  UNL     1     -42.181 -48.942   8.724  1.00  0.00     0.188 HD
ENDBRANCH   4  16
TORSDOF 4
ENDMDL
MODEL 3
REMARK VINA RESULT:      -5.6      2.868      3.600
REMARK  4 active torsions:
REMARK  status: ('A' for Active; 'I' for Inactive)
REMARK    1  A    between atoms: C_2  and  S_3 
REMARK    2  A    between atoms: S_3  and  C_4 
REMARK    3  A    between atoms: C_8  and  N_10 
REMARK       I    between atoms: N_10  and  C_11 
REMARK       I    between atoms: C_11  and  N_13 
REMARK    4  A    between atoms: N_13  and  C_14 
ROOT
HETATM    1  N   UNL     1     -41.223 -50.782  11.766  1.00  0.00    -0.338 N 
HETATM    2  C   UNL     1     -40.108 -50.037  11.521  1.00  0.00     0.322 C 
HETATM    3  O   UNL     1     -38.966 -50.399  11.793  1.00  0.00    -0.247 OA
HETATM    4  N   UNL     1     -40.309 -48.853  10.865  1.00  0.00    -0.294 N 
HETATM    5  H   UNL     1     -42.095 -50.263  11.671  1.00  0.00     0.164 HD
HETATM    6  H   UNL     1     -39.464 -48.389  10.570  1.00  0.00     0.172 HD
ENDROOT
BRANCH   1   7
HETATM    7  C   UNL     1     -41.225 -52.075  12.420  1.00  0.00     0.087 C 
HETATM    8  C   UNL     1     -42.629 -52.691  12.402  1.00  0.00     0.025 C 
HETATM    9  C   UNL     1     -42.665 -54.029  13.128  1.00  0.00     0.003 C 
HETATM   10  C   UNL     1     -42.133 -53.907  14.559  1.00  0.00     0.015 C 
HETATM   11  C   UNL     1     -40.738 -53.263  14.634  1.00  0.00     0.049 C 
HETATM   12  C   UNL     1     -40.742 -51.930  13.873  1.00  0.00     0.040 C 
BRANCH  11  13
HETATM   13  S   UNL     1     -39.498 -54.475  14.014  1.00  0.00    -0.165 SA
BRANCH  13  14
HETATM   14  C   UNL     1     -38.712 -55.004  15.566  1.00  0.00     0.070 C 
HETATM   15  C   UNL     1     -39.184 -54.098  16.690  1.00  0.00     0.016 C 
ENDBRANCH  13  14
ENDBRANCH  11  13
ENDBRANCH   1   7
BRANCH   4  16
HETATM   16  C   UNL     1     -41.517 -48.264  10.569  1.00  0.00     0.125 A 
HETATM   17  C   UNL     1     -42.345 -47.590  11.492  1.00  0.00     0.069 A 
HETATM   18  C   UNL     1     -43.425 -47.150  10.756  1.00  0.00     0.113 A 
HETATM   19  N   UNL     1     -43.215 -47.600   9.490  1.00  0.00    -0.306 N 
HETATM   20  C   UNL     1     -44.069 -47.447   8.339  1.00  0.00     0.177 C 
HETATM   21  N   UNL     1     -42.057 -48.259   9.344  1.00  0.00    -0.284 N 
ATOM     22  HN  UNL     1     -41.674 -48.666   8.490  1.00  0.00     0.188 HD
ENDBRANCH   4  16
TORSDOF 4
ENDMDL
MODEL 4
REMARK VINA RESULT:      -5.5      1.995      2.874
REMARK  4 active torsions:
REMARK  status: ('A' for Active; 'I' for Inactive)
REMARK    1  A    between atoms: C_2  and  S_3 
REMARK    2  A    between atoms: S_3  and  C_4 
REMARK    3  A    between atoms: C_8  and  N_10 
REMARK       I    between atoms: N_10  and  C_11 
REMARK       I    between atoms: C_11  and  N_13 
REMARK    4  A    between atoms: N_13  and  C_14 
ROOT
HETATM    1  N   UNL     1     -43.825 -52.237  13.702  1.00  0.00    -0.338 N 
HETATM    2  C   UNL     1     -43.758 -53.030  12.595  1.00  0.00     0.322 C 
HETATM    3  O   UNL     1     -44.600 -53.875  12.303  1.00  0.00    -0.247 OA
HETATM    4  N   UNL     1     -42.711 -52.789  11.746  1.00  0.00    -0.294 N 
HETATM    5  H   UNL     1     -42.959 -51.740  13.905  1.00  0.00     0.164 HD
HETATM    6  H   UNL     1     -42.760 -53.286  10.870  1.00  0.00     0.172 HD
ENDROOT
BRANCH   1   7
HETATM    7  C   UNL     1     -44.865 -52.309  14.708  1.00  0.00     0.087 C 
HETATM    8  C   UNL     1     -46.065 -51.441  14.310  1.00  0.00     0.025 C 
HETATM    9  C   UNL     1     -47.152 -51.463  15.378  1.00  0.00     0.003 C 
HETATM   10  C   UNL     1     -46.603 -51.054  16.747  1.00  0.00     0.015 C 
HETATM   11  C   UNL     1     -45.375 -51.875  17.178  1.00  0.00     0.049 C 
HETATM   12  C   UNL     1     -44.316 -51.844  16.066  1.00  0.00     0.040 C 
BRANCH  11  13
HETATM   13  S   UNL     1     -45.932 -53.571  17.632  1.00  0.00    -0.165 SA
BRANCH  13  14
HETATM   14  C   UNL     1     -46.525 -53.306  19.330  1.00  0.00     0.070 C 
HETATM   15  C   UNL     1     -45.525 -52.433  20.070  1.00  0.00     0.016 C 
ENDBRANCH  13  14
ENDBRANCH  11  13
ENDBRANCH   1   7
BRANCH   4  16
HETATM   16  C   UNL     1     -41.643 -51.950  11.964  1.00  0.00     0.125 A 
HETATM   17  C   UNL     1     -40.460 -52.295  12.651  1.00  0.00     0.069 A 
HETATM   18  C   UNL     1     -39.672 -51.163  12.606  1.00  0.00     0.113 A 
HETATM   19  N   UNL     1     -40.412 -50.226  11.956  1.00  0.00    -0.306 N 
HETATM   20  C   UNL     1     -40.065 -48.854  11.680  1.00  0.00     0.177 C 
HETATM   21  N   UNL     1     -41.601 -50.681  11.537  1.00  0.00    -0.284 N 
ATOM     22  HN  UNL     1     -42.313 -50.174  11.011  1.00  0.00     0.188 HD
ENDBRANCH   4  16
TORSDOF 4
ENDMDL
MODEL 5
REMARK VINA RESULT:      -5.4      1.825      2.039
REMARK  4 active torsions:
REMARK  status: ('A' for Active; 'I' for Inactive)
REMARK    1  A    between atoms: C_2  and  S_3 
REMARK    2  A    between atoms: S_3  and  C_4 
REMARK    3  A    between atoms: C_8  and  N_10 
REMARK       I    between atoms: N_10  and  C_11 
REMARK       I    between atoms: C_11  and  N_13 
REMARK    4  A    between atoms: N_13  and  C_14 
ROOT
HETATM    1  N   UNL     1     -41.864 -51.601  12.491  1.00  0.00    -0.338 N 
HETATM    2  C   UNL     1     -40.536 -51.552  12.186  1.00  0.00     0.322 C 
HETATM    3  O   UNL     1     -39.752 -52.478  12.381  1.00  0.00    -0.247 OA
HETATM    4  N   UNL     1     -40.105 -50.414  11.561  1.00  0.00    -0.294 N 
HETATM    5  H   UNL     1     -42.328 -50.694  12.458  1.00  0.00     0.164 HD
HETATM    6  H   UNL     1     -39.157 -50.457  11.220  1.00  0.00     0.172 HD
ENDROOT
BRANCH   1   7
HETATM    7  C   UNL     1     -42.525 -52.723  13.125  1.00  0.00     0.087 C 
HETATM    8  C   UNL     1     -43.825 -53.074  12.391  1.00  0.00     0.025 C 
HETATM    9  C   UNL     1     -44.562 -54.220  13.071  1.00  0.00     0.003 C 
HETATM   10  C   UNL     1     -44.826 -53.921  14.549  1.00  0.00     0.015 C 
HETATM   11  C   UNL     1     -43.555 -53.531  15.325  1.00  0.00     0.049 C 
HETATM   12  C   UNL     1     -42.834 -52.390  14.594  1.00  0.00     0.040 C 
BRANCH  11  13
HETATM   13  S   UNL     1     -42.524 -55.039  15.558  1.00  0.00    -0.165 SA
BRANCH  13  14
HETATM   14  C   UNL     1     -40.957 -54.312  16.128  1.00  0.00     0.070 C 
HETATM   15  C   UNL     1     -39.852 -54.710  15.163  1.00  0.00     0.016 C 
ENDBRANCH  13  14
ENDBRANCH  11  13
ENDBRANCH   1   7
BRANCH   4  16
HETATM   16  C   UNL     1     -40.824 -49.260  11.350  1.00  0.00     0.125 A 
HETATM   17  C   UNL     1     -40.941 -48.191  12.264  1.00  0.00     0.069 A 
HETATM   18  C   UNL     1     -41.728 -47.254  11.627  1.00  0.00     0.113 A 
HETATM   19  N   UNL     1     -42.061 -47.807  10.430  1.00  0.00    -0.306 N 
HETATM   20  C   UNL     1     -42.906 -47.255   9.401  1.00  0.00     0.177 C 
HETATM   21  N   UNL     1     -41.510 -49.012  10.227  1.00  0.00    -0.284 N 
ATOM     22  HN  UNL     1     -41.595 -49.606   9.402  1.00  0.00     0.188 HD
ENDBRANCH   4  16
TORSDOF 4
ENDMDL
MODEL 6
REMARK VINA RESULT:      -5.2      3.517      6.809
REMARK  4 active torsions:
REMARK  status: ('A' for Active; 'I' for Inactive)
REMARK    1  A    between atoms: C_2  and  S_3 
REMARK    2  A    between atoms: S_3  and  C_4 
REMARK    3  A    between atoms: C_8  and  N_10 
REMARK       I    between atoms: N_10  and  C_11 
REMARK       I    between atoms: C_11  and  N_13 
REMARK    4  A    between atoms: N_13  and  C_14 
ROOT
HETATM    1  N   UNL     1     -43.936 -52.930  14.019  1.00  0.00    -0.338 N 
HETATM    2  C   UNL     1     -44.947 -53.560  13.353  1.00  0.00     0.322 C 
HETATM    3  O   UNL     1     -44.799 -54.168  12.296  1.00  0.00    -0.247 OA
HETATM    4  N   UNL     1     -46.168 -53.551  13.971  1.00  0.00    -0.294 N 
HETATM    5  H   UNL     1     -44.256 -52.309  14.760  1.00  0.00     0.164 HD
HETATM    6  H   UNL     1     -46.861 -54.139  13.534  1.00  0.00     0.172 HD
ENDROOT
BRANCH   1   7
HETATM    7  C   UNL     1     -42.566 -52.850  13.554  1.00  0.00     0.087 C 
HETATM    8  C   UNL     1     -41.835 -54.178  13.789  1.00  0.00     0.025 C 
HETATM    9  C   UNL     1     -40.377 -54.101  13.352  1.00  0.00     0.003 C 
HETATM   10  C   UNL     1     -39.647 -52.940  14.033  1.00  0.00     0.015 C 
HETATM   11  C   UNL     1     -40.360 -51.588  13.855  1.00  0.00     0.049 C 
HETATM   12  C   UNL     1     -41.828 -51.717  14.285  1.00  0.00     0.040 C 
BRANCH  11  13
HETATM   13  S   UNL     1     -40.137 -51.032  12.113  1.00  0.00    -0.165 SA
BRANCH  13  14
HETATM   14  C   UNL     1     -38.739 -49.882  12.284  1.00  0.00     0.070 C 
HETATM   15  C   UNL     1     -37.446 -50.639  12.033  1.00  0.00     0.016 C 
ENDBRANCH  13  14
ENDBRANCH  11  13
ENDBRANCH   1   7
BRANCH   4  16
HETATM   16  C   UNL     1     -46.522 -52.850  15.100  1.00  0.00     0.125 A 
HETATM   17  C   UNL     1     -47.057 -51.544  15.117  1.00  0.00     0.069 A 
HETATM   18  C   UNL     1     -47.277 -51.260  16.449  1.00  0.00     0.113 A 
HETATM   19  N   UNL     1     -46.840 -52.350  17.134  1.00  0.00    -0.306 N 
HETATM   20  C   UNL     1     -46.807 -52.549  18.562  1.00  0.00     0.177 C 
HETATM   21  N   UNL     1     -46.398 -53.337  16.342  1.00  0.00    -0.284 N 
ATOM     22  HN  UNL     1     -46.046 -54.252  16.622  1.00  0.00     0.188 HD
ENDBRANCH   4  16
TORSDOF 4
ENDMDL
MODEL 7
REMARK VINA RESULT:      -5.1      3.456      5.286
REMARK  4 active torsions:
REMARK  status: ('A' for Active; 'I' for Inactive)
REMARK    1  A    between atoms: C_2  and  S_3 
REMARK    2  A    between atoms: S_3  and  C_4 
REMARK    3  A    between atoms: C_8  and  N_10 
REMARK       I    between atoms: N_10  and  C_11 
REMARK       I    between atoms: C_11  and  N_13 
REMARK    4  A    between atoms: N_13  and  C_14 
ROOT
HETATM    1  N   UNL     1     -45.401 -53.294  15.304  1.00  0.00    -0.338 N 
HETATM    2  C   UNL     1     -45.670 -54.411  14.567  1.00  0.00     0.322 C 
HETATM    3  O   UNL     1     -46.707 -55.063  14.663  1.00  0.00    -0.247 OA
HETATM    4  N   UNL     1     -44.736 -54.749  13.626  1.00  0.00    -0.294 N 
HETATM    5  H   UNL     1     -44.429 -52.993  15.254  1.00  0.00     0.164 HD
HETATM    6  H   UNL     1     -45.020 -55.488  13.002  1.00  0.00     0.172 HD
ENDROOT
BRANCH   1   7
HETATM    7  C   UNL     1     -46.270 -52.751  16.327  1.00  0.00     0.087 C 
HETATM    8  C   UNL     1     -47.165 -51.647  15.750  1.00  0.00     0.025 C 
HETATM    9  C   UNL     1     -48.054 -51.027  16.820  1.00  0.00     0.003 C 
HETATM   10  C   UNL     1     -47.231 -50.509  18.003  1.00  0.00     0.015 C 
HETATM   11  C   UNL     1     -46.290 -51.571  18.598  1.00  0.00     0.049 C 
HETATM   12  C   UNL     1     -45.430 -52.184  17.484  1.00  0.00     0.040 C 
BRANCH  11  13
HETATM   13  S   UNL     1     -47.303 -52.801  19.523  1.00  0.00    -0.165 SA
BRANCH  13  14
HETATM   14  C   UNL     1     -48.504 -51.717  20.354  1.00  0.00     0.070 C 
HETATM   15  C   UNL     1     -49.905 -52.246  20.095  1.00  0.00     0.016 C 
ENDBRANCH  13  14
ENDBRANCH  11  13
ENDBRANCH   1   7
BRANCH   4  16
HETATM   16  C   UNL     1     -43.494 -54.184  13.451  1.00  0.00     0.125 A 
HETATM   17  C   UNL     1     -42.352 -54.460  14.233  1.00  0.00     0.069 A 
HETATM   18  C   UNL     1     -41.344 -53.693  13.687  1.00  0.00     0.113 A 
HETATM   19  N   UNL     1     -41.923 -52.995  12.673  1.00  0.00    -0.306 N 
HETATM   20  C   UNL     1     -41.313 -52.017  11.807  1.00  0.00     0.177 C 
HETATM   21  N   UNL     1     -43.217 -53.288  12.493  1.00  0.00    -0.284 N 
ATOM     22  HN  UNL     1     -43.851 -52.914  11.787  1.00  0.00     0.188 HD
ENDBRANCH   4  16
TORSDOF 4
ENDMDL
MODEL 8
REMARK VINA RESULT:      -5.0      3.481      6.160
REMARK  4 active torsions:
REMARK  status: ('A' for Active; 'I' for Inactive)
REMARK    1  A    between atoms: C_2  and  S_3 
REMARK    2  A    between atoms: S_3  and  C_4 
REMARK    3  A    between atoms: C_8  and  N_10 
REMARK       I    between atoms: N_10  and  C_11 
REMARK       I    between atoms: C_11  and  N_13 
REMARK    4  A    between atoms: N_13  and  C_14 
ROOT
HETATM    1  N   UNL     1     -41.413 -52.372  13.613  1.00  0.00    -0.338 N 
HETATM    2  C   UNL     1     -41.513 -52.489  12.257  1.00  0.00     0.322 C 
HETATM    3  O   UNL     1     -40.566 -52.360  11.485  1.00  0.00    -0.247 OA
HETATM    4  N   UNL     1     -42.743 -52.845  11.775  1.00  0.00    -0.294 N 
HETATM    5  H   UNL     1     -42.313 -52.304  14.087  1.00  0.00     0.164 HD
HETATM    6  H   UNL     1     -42.759 -53.063  10.791  1.00  0.00     0.172 HD
ENDROOT
BRANCH   1   7
HETATM    7  C   UNL     1     -40.198 -52.034  14.325  1.00  0.00     0.087 C 
HETATM    8  C   UNL     1     -40.035 -52.915  15.569  1.00  0.00     0.025 C 
HETATM    9  C   UNL     1     -38.788 -52.544  16.361  1.00  0.00     0.003 C 
HETATM   10  C   UNL     1     -38.778 -51.058  16.731  1.00  0.00     0.015 C 
HETATM   11  C   UNL     1     -38.972 -50.130  15.518  1.00  0.00     0.049 C 
HETATM   12  C   UNL     1     -40.224 -50.553  14.738  1.00  0.00     0.040 C 
BRANCH  11  13
HETATM   13  S   UNL     1     -37.427 -50.145  14.515  1.00  0.00    -0.165 SA
BRANCH  13  14
HETATM   14  C   UNL     1     -38.006 -49.403  12.960  1.00  0.00     0.070 C 
HETATM   15  C   UNL     1     -37.660 -50.336  11.811  1.00  0.00     0.016 C 
ENDBRANCH  13  14
ENDBRANCH  11  13
ENDBRANCH   1   7
BRANCH   4  16
HETATM   16  C   UNL     1     -43.917 -52.941  12.486  1.00  0.00     0.125 A 
HETATM   17  C   UNL     1     -44.486 -54.140  12.968  1.00  0.00     0.069 A 
HETATM   18  C   UNL     1     -45.631 -53.756  13.633  1.00  0.00     0.113 A 
HETATM   19  N   UNL     1     -45.707 -52.406  13.486  1.00  0.00    -0.306 N 
HETATM   20  C   UNL     1     -46.738 -51.516  13.958  1.00  0.00     0.177 C 
HETATM   21  N   UNL     1     -44.671 -51.884  12.815  1.00  0.00    -0.284 N 
ATOM     22  HN  UNL     1     -44.496 -50.902  12.602  1.00  0.00     0.188 HD
ENDBRANCH   4  16
TORSDOF 4
ENDMDL
MODEL 9
REMARK VINA RESULT:      -5.0      2.689      4.092
REMARK  4 active torsions:
REMARK  status: ('A' for Active; 'I' for Inactive)
REMARK    1  A    between atoms: C_2  and  S_3 
REMARK    2  A    between atoms: S_3  and  C_4 
REMARK    3  A    between atoms: C_8  and  N_10 
REMARK       I    between atoms: N_10  and  C_11 
REMARK       I    between atoms: C_11  and  N_13 
REMARK    4  A    between atoms: N_13  and  C_14 
ROOT
HETATM    1  N   UNL     1     -40.024 -50.400  12.634  1.00  0.00    -0.338 N 
HETATM    2  C   UNL     1     -38.898 -50.116  11.918  1.00  0.00     0.322 C 
HETATM    3  O   UNL     1     -37.970 -50.905  11.756  1.00  0.00    -0.247 OA
HETATM    4  N   UNL     1     -38.871 -48.896  11.299  1.00  0.00    -0.294 N 
HETATM    5  H   UNL     1     -40.596 -49.582  12.842  1.00  0.00     0.164 HD
HETATM    6  H   UNL     1     -38.099 -48.765  10.665  1.00  0.00     0.172 HD
ENDROOT
BRANCH   1   7
HETATM    7  C   UNL     1     -40.263 -51.643  13.338  1.00  0.00     0.087 C 
HETATM    8  C   UNL     1     -39.003 -52.094  14.086  1.00  0.00     0.025 C 
HETATM    9  C   UNL     1     -39.217 -53.426  14.793  1.00  0.00     0.003 C 
HETATM   10  C   UNL     1     -39.700 -54.507  13.823  1.00  0.00     0.015 C 
HETATM   11  C   UNL     1     -40.945 -54.089  13.021  1.00  0.00     0.049 C 
HETATM   12  C   UNL     1     -40.694 -52.735  12.344  1.00  0.00     0.040 C 
BRANCH  11  13
HETATM   13  S   UNL     1     -42.401 -54.103  14.150  1.00  0.00    -0.165 SA
BRANCH  13  14
HETATM   14  C   UNL     1     -43.767 -53.884  12.970  1.00  0.00     0.070 C 
HETATM   15  C   UNL     1     -44.974 -54.661  13.465  1.00  0.00     0.016 C 
ENDBRANCH  13  14
ENDBRANCH  11  13
ENDBRANCH   1   7
BRANCH   4  16
HETATM   16  C   UNL     1     -39.777 -47.871  11.448  1.00  0.00     0.125 A 
HETATM   17  C   UNL     1     -39.817 -46.965  12.530  1.00  0.00     0.069 A 
HETATM   18  C   UNL     1     -40.861 -46.109  12.247  1.00  0.00     0.113 A 
HETATM   19  N   UNL     1     -41.396 -46.555  11.079  1.00  0.00    -0.306 N 
HETATM   20  C   UNL     1     -42.537 -46.035  10.368  1.00  0.00     0.177 C 
HETATM   21  N   UNL     1     -40.746 -47.606  10.561  1.00  0.00    -0.284 N 
ATOM     22  HN  UNL     1     -40.944 -48.095   9.689  1.00  0.00     0.188 HD
ENDBRANCH   4  16
TORSDOF 4
ENDMDL
