MODEL 1
REMARK VINA RESULT:      -5.5      0.000      0.000
REMARK  7 active torsions:
REMARK  status: ('A' for Active; 'I' for Inactive)
REMARK    1  A    between atoms: O_2  and  C_3 
REMARK    2  A    between atoms: C_3  and  C_4 
REMARK    3  A    between atoms: C_4  and  N_5 
REMARK    4  A    between atoms: C_8  and  C_9 
REMARK    5  A    between atoms: C_9  and  N_10 
REMARK       I    between atoms: N_10  and  C_11 
REMARK    6  A    between atoms: C_11  and  C_13 
REMARK    7  A    between atoms: C_13  and  N_14 
ROOT
HETATM    1  C   UNL     1     -41.237 -50.302  11.666  1.00  0.00     0.127 C 
ENDROOT
BRANCH   1   2
HETATM    2  C   UNL     1     -41.241 -50.832  13.113  1.00  0.00     0.007 C 
HETATM    3  C   UNL     1     -40.320 -52.050  13.303  1.00  0.00     0.036 C 
HETATM    4  C   UNL     1     -40.886 -53.324  12.663  1.00  0.00     0.273 C 
HETATM    5  N   UNL     1     -42.267 -53.637  13.064  1.00  0.00     0.090 N 
HETATM    6  C   UNL     1     -43.148 -52.482  12.843  1.00  0.00     0.273 C 
HETATM    7  C   UNL     1     -42.669 -51.206  13.539  1.00  0.00     0.036 C 
BRANCH   5   8
HETATM    8  C   UNL     1     -42.324 -54.181  14.436  1.00  0.00     0.298 C 
BRANCH   8   9
HETATM    9  C   UNL     1     -43.746 -54.311  15.010  1.00  0.00     0.197 C 
BRANCH   9  10
HETATM   10  O   UNL     1     -44.360 -55.504  14.515  1.00  0.00    -0.394 OA
HETATM   11  C   UNL     1     -45.582 -55.204  13.848  1.00  0.00     0.201 C 
ENDBRANCH   9  10
ENDBRANCH   8   9
ENDBRANCH   5   8
ENDBRANCH   1   2
BRANCH   1  12
HETATM   12  N   UNL     1     -42.290 -49.341  11.419  1.00  0.00    -0.359 N 
HETATM   13  C   UNL     1     -42.018 -48.044  11.038  1.00  0.00     0.237 C 
HETATM   14  O   UNL     1     -40.880 -47.630  10.834  1.00  0.00    -0.272 OA
HETATM   15  H   UNL     1     -43.247 -49.641  11.571  1.00  0.00     0.162 HD
BRANCH  13  16
HETATM   16  C   UNL     1     -43.227 -47.154  10.887  1.00  0.00     0.249 C 
BRANCH  16  17
HETATM   17  N   UNL     1     -43.950 -47.477   9.686  1.00  0.00    -0.264 N 
HETATM   18  C   UNL     1     -43.478 -47.670   8.427  1.00  0.00     0.213 A 
HETATM   19  N   UNL     1     -44.489 -48.006   7.654  1.00  0.00    -0.281 N 
HETATM   20  N   UNL     1     -45.597 -48.017   8.469  1.00  0.00    -0.008 NA
ATOM     21  HN  UNL     1     -44.456 -48.216   6.656  1.00  0.00     0.184 HD
HETATM   22  N   UNL     1     -45.274 -47.700   9.718  1.00  0.00    -0.005 NA
ENDBRANCH  16  17
ENDBRANCH  13  16
ENDBRANCH   1  12
TORSDOF 7
ENDMDL
MODEL 2
REMARK VINA RESULT:      -5.4      4.112      5.391
REMARK  7 active torsions:
REMARK  status: ('A' for Active; 'I' for Inactive)
REMARK    1  A    between atoms: O_2  and  C_3 
REMARK    2  A    between atoms: C_3  and  C_4 
REMARK    3  A    between atoms: C_4  and  N_5 
REMARK    4  A    between atoms: C_8  and  C_9 
REMARK    5  A    between atoms: C_9  and  N_10 
REMARK       I    between atoms: N_10  and  C_11 
REMARK    6  A    between atoms: C_11  and  C_13 
REMARK    7  A    between atoms: C_13  and  N_14 
ROOT
HETATM    1  C   UNL     1     -39.740 -53.156  15.055  1.00  0.00     0.127 C 
ENDROOT
BRANCH   1   2
HETATM    2  C   UNL     1     -40.512 -53.843  13.912  1.00  0.00     0.007 C 
HETATM    3  C   UNL     1     -40.722 -52.922  12.697  1.00  0.00     0.036 C 
HETATM    4  C   UNL     1     -41.764 -51.826  12.960  1.00  0.00     0.273 C 
HETATM    5  N   UNL     1     -43.049 -52.328  13.473  1.00  0.00     0.090 N 
HETATM    6  C   UNL     1     -42.843 -53.175  14.656  1.00  0.00     0.273 C 
HETATM    7  C   UNL     1     -41.878 -54.337  14.414  1.00  0.00     0.036 C 
BRANCH   5   8
HETATM    8  C   UNL     1     -43.846 -52.969  12.407  1.00  0.00     0.298 C 
BRANCH   8   9
HETATM    9  C   UNL     1     -45.321 -53.206  12.773  1.00  0.00     0.197 C 
BRANCH   9  10
HETATM   10  O   UNL     1     -45.543 -54.599  13.008  1.00  0.00    -0.394 OA
HETATM   11  C   UNL     1     -46.024 -54.819  14.330  1.00  0.00     0.201 C 
ENDBRANCH   9  10
ENDBRANCH   8   9
ENDBRANCH   5   8
ENDBRANCH   1   2
BRANCH   1  12
HETATM   12  N   UNL     1     -38.697 -52.274  14.576  1.00  0.00    -0.359 N 
HETATM   13  C   UNL     1     -38.640 -50.947  14.944  1.00  0.00     0.237 C 
HETATM   14  O   UNL     1     -39.429 -50.436  15.735  1.00  0.00    -0.272 OA
HETATM   15  H   UNL     1     -38.021 -52.654  13.923  1.00  0.00     0.162 HD
BRANCH  13  16
HETATM   16  C   UNL     1     -37.530 -50.151  14.303  1.00  0.00     0.249 C 
BRANCH  16  17
HETATM   17  N   UNL     1     -37.486 -50.390  12.885  1.00  0.00    -0.264 N 
HETATM   18  C   UNL     1     -37.901 -49.591  11.868  1.00  0.00     0.213 A 
HETATM   19  N   UNL     1     -37.611 -50.187  10.731  1.00  0.00    -0.281 N 
HETATM   20  N   UNL     1     -37.004 -51.373  11.073  1.00  0.00    -0.008 NA
ATOM     21  HN  UNL     1     -37.797 -49.839   9.790  1.00  0.00     0.184 HD
HETATM   22  N   UNL     1     -36.918 -51.503  12.391  1.00  0.00    -0.005 NA
ENDBRANCH  16  17
ENDBRANCH  13  16
ENDBRANCH   1  12
TORSDOF 7
ENDMDL
MODEL 3
REMARK VINA RESULT:      -5.3      1.752      2.395
REMARK  7 active torsions:
REMARK  status: ('A' for Active; 'I' for Inactive)
REMARK    1  A    between atoms: O_2  and  C_3 
REMARK    2  A    between atoms: C_3  and  C_4 
REMARK    3  A    between atoms: C_4  and  N_5 
REMARK    4  A    between atoms: C_8  and  C_9 
REMARK    5  A    between atoms: C_9  and  N_10 
REMARK       I    between atoms: N_10  and  C_11 
REMARK    6  A    between atoms: C_11  and  C_13 
REMARK    7  A    between atoms: C_13  and  N_14 
ROOT
HETATM    1  C   UNL     1     -43.041 -49.586  13.157  1.00  0.00     0.127 C 
ENDROOT
BRANCH   1   2
HETATM    2  C   UNL     1     -44.130 -50.636  13.450  1.00  0.00     0.007 C 
HETATM    3  C   UNL     1     -44.528 -50.684  14.935  1.00  0.00     0.036 C 
HETATM    4  C   UNL     1     -43.446 -51.324  15.816  1.00  0.00     0.273 C 
HETATM    5  N   UNL     1     -42.991 -52.643  15.347  1.00  0.00     0.090 N 
HETATM    6  C   UNL     1     -42.576 -52.580  13.938  1.00  0.00     0.273 C 
HETATM    7  C   UNL     1     -43.659 -52.030  13.007  1.00  0.00     0.036 C 
BRANCH   5   8
HETATM    8  C   UNL     1     -43.987 -53.695  15.633  1.00  0.00     0.298 C 
BRANCH   8   9
HETATM    9  C   UNL     1     -43.727 -55.029  14.913  1.00  0.00     0.197 C 
BRANCH   9  10
HETATM   10  O   UNL     1     -44.868 -55.387  14.130  1.00  0.00    -0.394 OA
HETATM   11  C   UNL     1     -46.011 -54.636  14.528  1.00  0.00     0.201 C 
ENDBRANCH   9  10
ENDBRANCH   8   9
ENDBRANCH   5   8
ENDBRANCH   1   2
BRANCH   1  12
HETATM   12  N   UNL     1     -42.932 -49.268  11.750  1.00  0.00    -0.359 N 
HETATM   13  C   UNL     1     -42.307 -48.121  11.309  1.00  0.00     0.237 C 
HETATM   14  O   UNL     1     -41.760 -47.322  12.065  1.00  0.00    -0.272 OA
HETATM   15  H   UNL     1     -43.366 -49.902  11.088  1.00  0.00     0.162 HD
BRANCH  13  16
HETATM   16  C   UNL     1     -42.340 -47.908   9.816  1.00  0.00     0.249 C 
BRANCH  16  17
HETATM   17  N   UNL     1     -43.242 -46.841   9.474  1.00  0.00    -0.264 N 
HETATM   18  C   UNL     1     -44.590 -46.876   9.315  1.00  0.00     0.213 A 
HETATM   19  N   UNL     1     -45.009 -45.654   9.064  1.00  0.00    -0.281 N 
HETATM   20  N   UNL     1     -43.883 -44.863   9.073  1.00  0.00    -0.008 NA
ATOM     21  HN  UNL     1     -45.970 -45.355   8.897  1.00  0.00     0.184 HD
HETATM   22  N   UNL     1     -42.797 -45.581   9.330  1.00  0.00    -0.005 NA
ENDBRANCH  16  17
ENDBRANCH  13  16
ENDBRANCH   1  12
TORSDOF 7
ENDMDL
MODEL 4
REMARK VINA RESULT:      -5.3      4.672      6.603
REMARK  7 active torsions:
REMARK  status: ('A' for Active; 'I' for Inactive)
REMARK    1  A    between atoms: O_2  and  C_3 
REMARK    2  A    between atoms: C_3  and  C_4 
REMARK    3  A    between atoms: C_4  and  N_5 
REMARK    4  A    between atoms: C_8  and  C_9 
REMARK    5  A    between atoms: C_9  and  N_10 
REMARK       I    between atoms: N_10  and  C_11 
REMARK    6  A    between atoms: C_11  and  C_13 
REMARK    7  A    between atoms: C_13  and  N_14 
ROOT
HETATM    1  C   UNL     1     -43.053 -52.644  13.164  1.00  0.00     0.127 C 
ENDROOT
BRANCH   1   2
HETATM    2  C   UNL     1     -42.288 -53.979  13.237  1.00  0.00     0.007 C 
HETATM    3  C   UNL     1     -42.227 -54.554  14.663  1.00  0.00     0.036 C 
HETATM    4  C   UNL     1     -41.273 -53.772  15.575  1.00  0.00     0.273 C 
HETATM    5  N   UNL     1     -39.922 -53.591  15.019  1.00  0.00     0.090 N 
HETATM    6  C   UNL     1     -39.987 -53.005  13.673  1.00  0.00     0.273 C 
HETATM    7  C   UNL     1     -40.858 -53.805  12.701  1.00  0.00     0.036 C 
BRANCH   5   8
HETATM    8  C   UNL     1     -39.133 -54.837  15.095  1.00  0.00     0.298 C 
BRANCH   8   9
HETATM    9  C   UNL     1     -39.023 -55.434  16.508  1.00  0.00     0.197 C 
BRANCH   9  10
HETATM   10  O   UNL     1     -39.333 -56.830  16.469  1.00  0.00    -0.394 OA
HETATM   11  C   UNL     1     -40.304 -57.160  17.458  1.00  0.00     0.201 C 
ENDBRANCH   9  10
ENDBRANCH   8   9
ENDBRANCH   5   8
ENDBRANCH   1   2
BRANCH   1  12
HETATM   12  N   UNL     1     -44.279 -52.658  13.931  1.00  0.00    -0.359 N 
HETATM   13  C   UNL     1     -45.499 -52.935  13.350  1.00  0.00     0.237 C 
HETATM   14  O   UNL     1     -45.624 -53.238  12.166  1.00  0.00    -0.272 OA
HETATM   15  H   UNL     1     -44.223 -52.417  14.914  1.00  0.00     0.162 HD
BRANCH  13  16
HETATM   16  C   UNL     1     -46.686 -52.842  14.277  1.00  0.00     0.249 C 
BRANCH  16  17
HETATM   17  N   UNL     1     -46.328 -53.256  15.606  1.00  0.00    -0.264 N 
HETATM   18  C   UNL     1     -46.402 -52.560  16.770  1.00  0.00     0.213 A 
HETATM   19  N   UNL     1     -46.027 -53.354  17.751  1.00  0.00    -0.281 N 
HETATM   20  N   UNL     1     -45.721 -54.559  17.162  1.00  0.00    -0.008 NA
ATOM     21  HN  UNL     1     -45.974 -53.123  18.743  1.00  0.00     0.184 HD
HETATM   22  N   UNL     1     -45.908 -54.510  15.848  1.00  0.00    -0.005 NA
ENDBRANCH  16  17
ENDBRANCH  13  16
ENDBRANCH   1  12
TORSDOF 7
ENDMDL
MODEL 5
REMARK VINA RESULT:      -5.2      3.599      5.189
REMARK  7 active torsions:
REMARK  status: ('A' for Active; 'I' for Inactive)
REMARK    1  A    between atoms: O_2  and  C_3 
REMARK    2  A    between atoms: C_3  and  C_4 
REMARK    3  A    between atoms: C_4  and  N_5 
REMARK    4  A    between atoms: C_8  and  C_9 
REMARK    5  A    between atoms: C_9  and  N_10 
REMARK       I    between atoms: N_10  and  C_11 
REMARK    6  A    between atoms: C_11  and  C_13 
REMARK    7  A    between atoms: C_13  and  N_14 
ROOT
HETATM    1  C   UNL     1     -41.505 -49.725  11.616  1.00  0.00     0.127 C 
ENDROOT
BRANCH   1   2
HETATM    2  C   UNL     1     -39.966 -49.794  11.635  1.00  0.00     0.007 C 
HETATM    3  C   UNL     1     -39.428 -50.797  12.670  1.00  0.00     0.036 C 
HETATM    4  C   UNL     1     -39.585 -50.299  14.112  1.00  0.00     0.273 C 
HETATM    5  N   UNL     1     -39.038 -48.952  14.346  1.00  0.00     0.090 N 
HETATM    6  C   UNL     1     -39.587 -47.992  13.378  1.00  0.00     0.273 C 
HETATM    7  C   UNL     1     -39.374 -48.406  11.921  1.00  0.00     0.036 C 
BRANCH   5   8
HETATM    8  C   UNL     1     -37.563 -48.967  14.406  1.00  0.00     0.298 C 
BRANCH   8   9
HETATM    9  C   UNL     1     -36.941 -47.723  15.064  1.00  0.00     0.197 C 
BRANCH   9  10
HETATM   10  O   UNL     1     -35.757 -48.093  15.777  1.00  0.00    -0.394 OA
HETATM   11  C   UNL     1     -35.857 -49.428  16.264  1.00  0.00     0.201 C 
ENDBRANCH   9  10
ENDBRANCH   8   9
ENDBRANCH   5   8
ENDBRANCH   1   2
BRANCH   1  12
HETATM   12  N   UNL     1     -42.009 -48.701  10.726  1.00  0.00    -0.359 N 
HETATM   13  C   UNL     1     -42.809 -47.673  11.179  1.00  0.00     0.237 C 
HETATM   14  O   UNL     1     -43.105 -47.525  12.362  1.00  0.00    -0.272 OA
HETATM   15  H   UNL     1     -41.787 -48.781   9.740  1.00  0.00     0.162 HD
BRANCH  13  16
HETATM   16  C   UNL     1     -43.305 -46.729  10.111  1.00  0.00     0.249 C 
BRANCH  16  17
HETATM   17  N   UNL     1     -44.033 -47.444   9.098  1.00  0.00    -0.264 N 
HETATM   18  C   UNL     1     -45.356 -47.742   9.042  1.00  0.00     0.213 A 
HETATM   19  N   UNL     1     -45.594 -48.356   7.903  1.00  0.00    -0.281 N 
HETATM   20  N   UNL     1     -44.383 -48.428   7.255  1.00  0.00    -0.008 NA
ATOM     21  HN  UNL     1     -46.492 -48.706   7.569  1.00  0.00     0.184 HD
HETATM   22  N   UNL     1     -43.421 -47.866   7.978  1.00  0.00    -0.005 NA
ENDBRANCH  16  17
ENDBRANCH  13  16
ENDBRANCH   1  12
TORSDOF 7
ENDMDL
MODEL 6
REMARK VINA RESULT:      -5.2      3.179      7.556
REMARK  7 active torsions:
REMARK  status: ('A' for Active; 'I' for Inactive)
REMARK    1  A    between atoms: O_2  and  C_3 
REMARK    2  A    between atoms: C_3  and  C_4 
REMARK    3  A    between atoms: C_4  and  N_5 
REMARK    4  A    between atoms: C_8  and  C_9 
REMARK    5  A    between atoms: C_9  and  N_10 
REMARK       I    between atoms: N_10  and  C_11 
REMARK    6  A    between atoms: C_11  and  C_13 
REMARK    7  A    between atoms: C_13  and  N_14 
ROOT
HETATM    1  C   UNL     1     -42.862 -49.759  12.774  1.00  0.00     0.127 C 
ENDROOT
BRANCH   1   2
HETATM    2  C   UNL     1     -42.983 -48.225  12.695  1.00  0.00     0.007 C 
HETATM    3  C   UNL     1     -43.527 -47.739  11.340  1.00  0.00     0.036 C 
HETATM    4  C   UNL     1     -42.501 -47.879  10.207  1.00  0.00     0.273 C 
HETATM    5  N   UNL     1     -41.193 -47.271  10.501  1.00  0.00     0.090 N 
HETATM    6  C   UNL     1     -40.662 -47.769  11.778  1.00  0.00     0.273 C 
HETATM    7  C   UNL     1     -41.618 -47.568  12.956  1.00  0.00     0.036 C 
BRANCH   5   8
HETATM    8  C   UNL     1     -41.246 -45.797  10.406  1.00  0.00     0.298 C 
BRANCH   8   9
HETATM    9  C   UNL     1     -39.872 -45.108  10.460  1.00  0.00     0.197 C 
BRANCH   9  10
HETATM   10  O   UNL     1     -40.003 -43.813  11.053  1.00  0.00    -0.394 OA
HETATM   11  C   UNL     1     -41.233 -43.704  11.761  1.00  0.00     0.201 C 
ENDBRANCH   9  10
ENDBRANCH   8   9
ENDBRANCH   5   8
ENDBRANCH   1   2
BRANCH   1  12
HETATM   12  N   UNL     1     -44.147 -50.422  12.794  1.00  0.00    -0.359 N 
HETATM   13  C   UNL     1     -44.768 -50.771  13.975  1.00  0.00     0.237 C 
HETATM   14  O   UNL     1     -44.305 -50.501  15.080  1.00  0.00    -0.272 OA
HETATM   15  H   UNL     1     -44.568 -50.662  11.903  1.00  0.00     0.162 HD
BRANCH  13  16
HETATM   16  C   UNL     1     -46.070 -51.517  13.818  1.00  0.00     0.249 C 
BRANCH  16  17
HETATM   17  N   UNL     1     -45.835 -52.928  13.678  1.00  0.00    -0.264 N 
HETATM   18  C   UNL     1     -46.311 -53.956  14.428  1.00  0.00     0.213 A 
HETATM   19  N   UNL     1     -45.886 -55.084  13.901  1.00  0.00    -0.281 N 
HETATM   20  N   UNL     1     -45.136 -54.727  12.805  1.00  0.00    -0.008 NA
ATOM     21  HN  UNL     1     -46.075 -56.029  14.236  1.00  0.00     0.184 HD
HETATM   22  N   UNL     1     -45.104 -53.407  12.657  1.00  0.00    -0.005 NA
ENDBRANCH  16  17
ENDBRANCH  13  16
ENDBRANCH   1  12
TORSDOF 7
ENDMDL
MODEL 7
REMARK VINA RESULT:      -5.2      2.164      2.808
REMARK  7 active torsions:
REMARK  status: ('A' for Active; 'I' for Inactive)
REMARK    1  A    between atoms: O_2  and  C_3 
REMARK    2  A    between atoms: C_3  and  C_4 
REMARK    3  A    between atoms: C_4  and  N_5 
REMARK    4  A    between atoms: C_8  and  C_9 
REMARK    5  A    between atoms: C_9  and  N_10 
REMARK       I    between atoms: N_10  and  C_11 
REMARK    6  A    between atoms: C_11  and  C_13 
REMARK    7  A    between atoms: C_13  and  N_14 
ROOT
HETATM    1  C   UNL     1     -43.046 -50.254  12.908  1.00  0.00     0.127 C 
ENDROOT
BRANCH   1   2
HETATM    2  C   UNL     1     -41.872 -50.562  13.857  1.00  0.00     0.007 C 
HETATM    3  C   UNL     1     -40.701 -51.264  13.147  1.00  0.00     0.036 C 
HETATM    4  C   UNL     1     -41.013 -52.725  12.796  1.00  0.00     0.273 C 
HETATM    5  N   UNL     1     -41.501 -53.526  13.931  1.00  0.00     0.090 N 
HETATM    6  C   UNL     1     -42.644 -52.868  14.580  1.00  0.00     0.273 C 
HETATM    7  C   UNL     1     -42.349 -51.435  15.028  1.00  0.00     0.036 C 
BRANCH   5   8
HETATM    8  C   UNL     1     -40.406 -53.878  14.858  1.00  0.00     0.298 C 
BRANCH   8   9
HETATM    9  C   UNL     1     -39.213 -54.584  14.192  1.00  0.00     0.197 C 
BRANCH   9  10
HETATM   10  O   UNL     1     -38.737 -55.633  15.039  1.00  0.00    -0.394 OA
HETATM   11  C   UNL     1     -39.457 -55.657  16.267  1.00  0.00     0.201 C 
ENDBRANCH   9  10
ENDBRANCH   8   9
ENDBRANCH   5   8
ENDBRANCH   1   2
BRANCH   1  12
HETATM   12  N   UNL     1     -42.619 -49.641  11.669  1.00  0.00    -0.359 N 
HETATM   13  C   UNL     1     -42.691 -48.279  11.467  1.00  0.00     0.237 C 
HETATM   14  O   UNL     1     -43.070 -47.492  12.332  1.00  0.00    -0.272 OA
HETATM   15  H   UNL     1     -42.296 -50.252  10.927  1.00  0.00     0.162 HD
BRANCH  13  16
HETATM   16  C   UNL     1     -42.270 -47.811  10.097  1.00  0.00     0.249 C 
BRANCH  16  17
HETATM   17  N   UNL     1     -43.198 -46.839   9.583  1.00  0.00    -0.264 N 
HETATM   18  C   UNL     1     -44.503 -46.996   9.242  1.00  0.00     0.213 A 
HETATM   19  N   UNL     1     -44.978 -45.824   8.877  1.00  0.00    -0.281 N 
HETATM   20  N   UNL     1     -43.933 -44.939   9.005  1.00  0.00    -0.008 NA
ATOM     21  HN  UNL     1     -45.927 -45.616   8.565  1.00  0.00     0.184 HD
HETATM   22  N   UNL     1     -42.839 -45.551   9.443  1.00  0.00    -0.005 NA
ENDBRANCH  16  17
ENDBRANCH  13  16
ENDBRANCH   1  12
TORSDOF 7
ENDMDL
MODEL 8
REMARK VINA RESULT:      -5.1      2.881      3.578
REMARK  7 active torsions:
REMARK  status: ('A' for Active; 'I' for Inactive)
REMARK    1  A    between atoms: O_2  and  C_3 
REMARK    2  A    between atoms: C_3  and  C_4 
REMARK    3  A    between atoms: C_4  and  N_5 
REMARK    4  A    between atoms: C_8  and  C_9 
REMARK    5  A    between atoms: C_9  and  N_10 
REMARK       I    between atoms: N_10  and  C_11 
REMARK    6  A    between atoms: C_11  and  C_13 
REMARK    7  A    between atoms: C_13  and  N_14 
ROOT
HETATM    1  C   UNL     1     -42.591 -47.509  11.912  1.00  0.00     0.127 C 
ENDROOT
BRANCH   1   2
HETATM    2  C   UNL     1     -41.908 -48.814  11.459  1.00  0.00     0.007 C 
HETATM    3  C   UNL     1     -42.245 -50.010  12.367  1.00  0.00     0.036 C 
HETATM    4  C   UNL     1     -41.549 -49.928  13.732  1.00  0.00     0.273 C 
HETATM    5  N   UNL     1     -40.094 -49.716  13.655  1.00  0.00     0.090 N 
HETATM    6  C   UNL     1     -39.782 -48.550  12.817  1.00  0.00     0.273 C 
HETATM    7  C   UNL     1     -40.383 -48.630  11.412  1.00  0.00     0.036 C 
BRANCH   5   8
HETATM    8  C   UNL     1     -39.386 -50.950  13.255  1.00  0.00     0.298 C 
BRANCH   8   9
HETATM    9  C   UNL     1     -39.869 -52.221  13.975  1.00  0.00     0.197 C 
BRANCH   9  10
HETATM   10  O   UNL     1     -39.201 -53.365  13.436  1.00  0.00    -0.394 OA
HETATM   11  C   UNL     1     -39.197 -54.436  14.374  1.00  0.00     0.201 C 
ENDBRANCH   9  10
ENDBRANCH   8   9
ENDBRANCH   5   8
ENDBRANCH   1   2
BRANCH   1  12
HETATM   12  N   UNL     1     -43.532 -47.002  10.938  1.00  0.00    -0.359 N 
HETATM   13  C   UNL     1     -43.155 -46.109   9.957  1.00  0.00     0.237 C 
HETATM   14  O   UNL     1     -41.998 -45.725   9.809  1.00  0.00    -0.272 OA
HETATM   15  H   UNL     1     -44.500 -47.295  11.019  1.00  0.00     0.162 HD
BRANCH  13  16
HETATM   16  C   UNL     1     -44.272 -45.628   9.065  1.00  0.00     0.249 C 
BRANCH  16  17
HETATM   17  N   UNL     1     -45.159 -46.709   8.731  1.00  0.00    -0.264 N 
HETATM   18  C   UNL     1     -44.883 -47.881   8.101  1.00  0.00     0.213 A 
HETATM   19  N   UNL     1     -45.986 -48.598   8.061  1.00  0.00    -0.281 N 
HETATM   20  N   UNL     1     -46.949 -47.839   8.684  1.00  0.00    -0.008 NA
ATOM     21  HN  UNL     1     -46.102 -49.526   7.653  1.00  0.00     0.184 HD
HETATM   22  N   UNL     1     -46.450 -46.683   9.103  1.00  0.00    -0.005 NA
ENDBRANCH  16  17
ENDBRANCH  13  16
ENDBRANCH   1  12
TORSDOF 7
ENDMDL
MODEL 9
REMARK VINA RESULT:      -5.1      2.939      6.833
REMARK  7 active torsions:
REMARK  status: ('A' for Active; 'I' for Inactive)
REMARK    1  A    between atoms: O_2  and  C_3 
REMARK    2  A    between atoms: C_3  and  C_4 
REMARK    3  A    between atoms: C_4  and  N_5 
REMARK    4  A    between atoms: C_8  and  C_9 
REMARK    5  A    between atoms: C_9  and  N_10 
REMARK       I    between atoms: N_10  and  C_11 
REMARK    6  A    between atoms: C_11  and  C_13 
REMARK    7  A    between atoms: C_13  and  N_14 
ROOT
HETATM    1  C   UNL     1     -41.319 -50.970  13.494  1.00  0.00     0.127 C 
ENDROOT
BRANCH   1   2
HETATM    2  C   UNL     1     -41.657 -50.368  12.117  1.00  0.00     0.007 C 
HETATM    3  C   UNL     1     -40.406 -49.946  11.327  1.00  0.00     0.036 C 
HETATM    4  C   UNL     1     -39.745 -48.684  11.897  1.00  0.00     0.273 C 
HETATM    5  N   UNL     1     -40.666 -47.550  12.074  1.00  0.00     0.090 N 
HETATM    6  C   UNL     1     -41.840 -47.950  12.862  1.00  0.00     0.273 C 
HETATM    7  C   UNL     1     -42.584 -49.153  12.280  1.00  0.00     0.036 C 
BRANCH   5   8
HETATM    8  C   UNL     1     -40.998 -46.914  10.783  1.00  0.00     0.298 C 
BRANCH   8   9
HETATM    9  C   UNL     1     -41.551 -45.483  10.903  1.00  0.00     0.197 C 
BRANCH   9  10
HETATM   10  O   UNL     1     -42.474 -45.230   9.841  1.00  0.00    -0.394 OA
HETATM   11  C   UNL     1     -43.151 -46.425   9.464  1.00  0.00     0.201 C 
ENDBRANCH   9  10
ENDBRANCH   8   9
ENDBRANCH   5   8
ENDBRANCH   1   2
BRANCH   1  12
HETATM   12  N   UNL     1     -42.191 -52.066  13.856  1.00  0.00    -0.359 N 
HETATM   13  C   UNL     1     -41.916 -53.367  13.490  1.00  0.00     0.237 C 
HETATM   14  O   UNL     1     -40.899 -53.692  12.884  1.00  0.00    -0.272 OA
HETATM   15  H   UNL     1     -43.042 -51.844  14.361  1.00  0.00     0.162 HD
BRANCH  13  16
HETATM   16  C   UNL     1     -42.962 -54.378  13.889  1.00  0.00     0.249 C 
BRANCH  16  17
HETATM   17  N   UNL     1     -44.267 -53.959  13.455  1.00  0.00    -0.264 N 
HETATM   18  C   UNL     1     -45.447 -53.996  14.127  1.00  0.00     0.213 A 
HETATM   19  N   UNL     1     -46.373 -53.454  13.366  1.00  0.00    -0.281 N 
HETATM   20  N   UNL     1     -45.735 -53.079  12.207  1.00  0.00    -0.008 NA
ATOM     21  HN  UNL     1     -47.362 -53.335  13.590  1.00  0.00     0.184 HD
HETATM   22  N   UNL     1     -44.442 -53.379  12.256  1.00  0.00    -0.005 NA
ENDBRANCH  16  17
ENDBRANCH  13  16
ENDBRANCH   1  12
TORSDOF 7
ENDMDL
