MODEL 1
REMARK VINA RESULT:      -6.9      0.000      0.000
REMARK  5 active torsions:
REMARK  status: ('A' for Active; 'I' for Inactive)
REMARK    1  A    between atoms: C_2  and  C_4 
REMARK    2  A    between atoms: C_2  and  N_21 
REMARK    3  A    between atoms: C_4  and  N_5 
REMARK       I    between atoms: N_5  and  C_6 
REMARK       I    between atoms: C_6  and  N_8 
REMARK    4  A    between atoms: N_8  and  C_9 
REMARK    5  A    between atoms: C_15  and  N_16 
ROOT
HETATM    1  N   UNL     1     -43.816 -50.992  12.893  1.00  0.00    -0.340 N 
HETATM    2  C   UNL     1     -43.163 -49.789  12.792  1.00  0.00     0.320 C 
HETATM    3  O   UNL     1     -43.117 -48.981  13.712  1.00  0.00    -0.247 OA
HETATM    4  N   UNL     1     -42.542 -49.645  11.571  1.00  0.00    -0.306 N 
HETATM    5  H   UNL     1     -44.263 -51.285  12.037  1.00  0.00     0.164 HD
HETATM    6  H   UNL     1     -42.111 -50.490  11.216  1.00  0.00     0.171 HD
ENDROOT
BRANCH   1   7
HETATM    7  C   UNL     1     -44.482 -51.369  14.133  1.00  0.00     0.165 C 
BRANCH   7   8
HETATM    8  C   UNL     1     -45.924 -52.001  13.991  1.00  0.00     0.168 C 
HETATM    9  C   UNL     1     -46.913 -51.286  14.932  1.00  0.00     0.050 C 
HETATM   10  C   UNL     1     -46.361 -51.623  12.543  1.00  0.00     0.050 C 
BRANCH   8  11
HETATM   11  N   UNL     1     -45.897 -53.494  14.096  1.00  0.00     0.103 N 
HETATM   12  C   UNL     1     -46.069 -54.095  15.437  1.00  0.00     0.299 C 
HETATM   13  C   UNL     1     -44.770 -54.274  16.246  1.00  0.00     0.198 C 
HETATM   14  O   UNL     1     -43.788 -55.013  15.511  1.00  0.00    -0.388 OA
HETATM   15  C   UNL     1     -43.525 -54.388  14.251  1.00  0.00     0.198 C 
HETATM   16  C   UNL     1     -44.810 -54.231  13.424  1.00  0.00     0.299 C 
ENDBRANCH   8  11
ENDBRANCH   7   8
ENDBRANCH   1   7
BRANCH   4  17
HETATM   17  C   UNL     1     -41.799 -48.471  11.306  1.00  0.00     0.075 A 
HETATM   18  C   UNL     1     -42.457 -47.359  10.767  1.00  0.00     0.034 A 
HETATM   19  C   UNL     1     -41.738 -46.206  10.512  1.00  0.00     0.019 A 
HETATM   20  C   UNL     1     -40.387 -46.213  10.783  1.00  0.00     0.089 A 
HETATM   21  N   UNL     1     -39.716 -47.284  11.278  1.00  0.00    -0.355 N 
HETATM   22  C   UNL     1     -40.411 -48.410  11.562  1.00  0.00     0.109 A 
ATOM     23  HN  UNL     1     -38.708 -47.241  11.433  1.00  0.00     0.166 HD
BRANCH  22  24
HETATM   24  N   UNL     1     -39.746 -49.503  12.167  1.00  0.00    -0.267 NA
HETATM   25  C   UNL     1     -38.558 -49.992  11.443  1.00  0.00     0.097 C 
HETATM   26  C   UNL     1     -37.581 -50.431  12.529  1.00  0.00     0.016 C 
HETATM   27  C   UNL     1     -37.900 -49.517  13.693  1.00  0.00     0.016 C 
HETATM   28  C   UNL     1     -39.402 -49.291  13.582  1.00  0.00     0.097 C 
ENDBRANCH  22  24
ENDBRANCH   4  17
TORSDOF 5
ENDMDL
MODEL 2
REMARK VINA RESULT:      -6.7      2.404      7.735
REMARK  5 active torsions:
REMARK  status: ('A' for Active; 'I' for Inactive)
REMARK    1  A    between atoms: C_2  and  C_4 
REMARK    2  A    between atoms: C_2  and  N_21 
REMARK    3  A    between atoms: C_4  and  N_5 
REMARK       I    between atoms: N_5  and  C_6 
REMARK       I    between atoms: C_6  and  N_8 
REMARK    4  A    between atoms: N_8  and  C_9 
REMARK    5  A    between atoms: C_15  and  N_16 
ROOT
HETATM    1  N   UNL     1     -41.315 -49.498  10.885  1.00  0.00    -0.340 N 
HETATM    2  C   UNL     1     -41.363 -50.328  11.976  1.00  0.00     0.320 C 
HETATM    3  O   UNL     1     -41.141 -49.937  13.116  1.00  0.00    -0.247 OA
HETATM    4  N   UNL     1     -41.738 -51.607  11.630  1.00  0.00    -0.306 N 
HETATM    5  H   UNL     1     -40.959 -49.944  10.051  1.00  0.00     0.164 HD
HETATM    6  H   UNL     1     -42.458 -51.658  10.920  1.00  0.00     0.171 HD
ENDROOT
BRANCH   1   7
HETATM    7  C   UNL     1     -41.004 -48.083  11.045  1.00  0.00     0.165 C 
BRANCH   7   8
HETATM    8  C   UNL     1     -42.141 -47.064  10.638  1.00  0.00     0.168 C 
HETATM    9  C   UNL     1     -42.998 -47.650   9.500  1.00  0.00     0.050 C 
HETATM   10  C   UNL     1     -43.069 -47.012  11.889  1.00  0.00     0.050 C 
BRANCH   8  11
HETATM   11  N   UNL     1     -41.603 -45.687  10.399  1.00  0.00     0.103 N 
HETATM   12  C   UNL     1     -40.163 -45.455  10.648  1.00  0.00     0.299 C 
HETATM   13  C   UNL     1     -39.804 -45.063  12.093  1.00  0.00     0.198 C 
HETATM   14  O   UNL     1     -40.556 -43.927  12.534  1.00  0.00    -0.388 OA
HETATM   15  C   UNL     1     -41.960 -44.170  12.403  1.00  0.00     0.198 C 
HETATM   16  C   UNL     1     -42.334 -44.535  10.959  1.00  0.00     0.299 C 
ENDBRANCH   8  11
ENDBRANCH   7   8
ENDBRANCH   1   7
BRANCH   4  17
HETATM   17  C   UNL     1     -41.865 -52.589  12.640  1.00  0.00     0.075 A 
HETATM   18  C   UNL     1     -40.746 -53.358  12.983  1.00  0.00     0.034 A 
HETATM   19  C   UNL     1     -40.860 -54.315  13.974  1.00  0.00     0.019 A 
HETATM   20  C   UNL     1     -42.091 -54.484  14.570  1.00  0.00     0.089 A 
HETATM   21  N   UNL     1     -43.200 -53.775  14.240  1.00  0.00    -0.355 N 
HETATM   22  C   UNL     1     -43.097 -52.813  13.294  1.00  0.00     0.109 A 
ATOM     23  HN  UNL     1     -44.093 -53.963  14.696  1.00  0.00     0.166 HD
BRANCH  22  24
HETATM   24  N   UNL     1     -44.218 -52.000  13.004  1.00  0.00    -0.267 NA
HETATM   25  C   UNL     1     -45.436 -52.730  12.607  1.00  0.00     0.097 C 
HETATM   26  C   UNL     1     -46.593 -51.923  13.186  1.00  0.00     0.016 C 
HETATM   27  C   UNL     1     -46.006 -51.294  14.432  1.00  0.00     0.016 C 
HETATM   28  C   UNL     1     -44.552 -51.034  14.063  1.00  0.00     0.097 C 
ENDBRANCH  22  24
ENDBRANCH   4  17
TORSDOF 5
ENDMDL
MODEL 3
REMARK VINA RESULT:      -6.6      1.364      3.395
REMARK  5 active torsions:
REMARK  status: ('A' for Active; 'I' for Inactive)
REMARK    1  A    between atoms: C_2  and  C_4 
REMARK    2  A    between atoms: C_2  and  N_21 
REMARK    3  A    between atoms: C_4  and  N_5 
REMARK       I    between atoms: N_5  and  C_6 
REMARK       I    between atoms: C_6  and  N_8 
REMARK    4  A    between atoms: N_8  and  C_9 
REMARK    5  A    between atoms: C_15  and  N_16 
ROOT
HETATM    1  N   UNL     1     -43.380 -51.446  12.876  1.00  0.00    -0.340 N 
HETATM    2  C   UNL     1     -42.777 -50.216  12.815  1.00  0.00     0.320 C 
HETATM    3  O   UNL     1     -42.839 -49.401  13.728  1.00  0.00    -0.247 OA
HETATM    4  N   UNL     1     -42.071 -50.049  11.644  1.00  0.00    -0.306 N 
HETATM    5  H   UNL     1     -43.746 -51.764  11.990  1.00  0.00     0.164 HD
HETATM    6  H   UNL     1     -41.575 -50.875  11.331  1.00  0.00     0.171 HD
ENDROOT
BRANCH   1   7
HETATM    7  C   UNL     1     -44.122 -51.847  14.064  1.00  0.00     0.165 C 
BRANCH   7   8
HETATM    8  C   UNL     1     -45.572 -52.429  13.822  1.00  0.00     0.168 C 
HETATM    9  C   UNL     1     -46.636 -51.395  14.238  1.00  0.00     0.050 C 
HETATM   10  C   UNL     1     -45.677 -52.552  12.272  1.00  0.00     0.050 C 
BRANCH   8  11
HETATM   11  N   UNL     1     -45.735 -53.796  14.411  1.00  0.00     0.103 N 
HETATM   12  C   UNL     1     -45.876 -53.903  15.880  1.00  0.00     0.299 C 
HETATM   13  C   UNL     1     -44.552 -54.009  16.659  1.00  0.00     0.198 C 
HETATM   14  O   UNL     1     -43.740 -55.084  16.176  1.00  0.00    -0.388 OA
HETATM   15  C   UNL     1     -43.498 -54.943  14.772  1.00  0.00     0.198 C 
HETATM   16  C   UNL     1     -44.813 -54.865  13.982  1.00  0.00     0.299 C 
ENDBRANCH   8  11
ENDBRANCH   7   8
ENDBRANCH   1   7
BRANCH   4  17
HETATM   17  C   UNL     1     -41.363 -48.844  11.427  1.00  0.00     0.075 A 
HETATM   18  C   UNL     1     -40.126 -48.661  12.059  1.00  0.00     0.034 A 
HETATM   19  C   UNL     1     -39.425 -47.489  11.846  1.00  0.00     0.019 A 
HETATM   20  C   UNL     1     -39.994 -46.534  11.030  1.00  0.00     0.089 A 
HETATM   21  N   UNL     1     -41.203 -46.670  10.429  1.00  0.00    -0.355 N 
HETATM   22  C   UNL     1     -41.887 -47.825  10.602  1.00  0.00     0.109 A 
ATOM     23  HN  UNL     1     -41.588 -45.918   9.857  1.00  0.00     0.166 HD
BRANCH  22  24
HETATM   24  N   UNL     1     -43.104 -48.022   9.906  1.00  0.00    -0.267 NA
HETATM   25  C   UNL     1     -44.321 -47.680  10.664  1.00  0.00     0.097 C 
HETATM   26  C   UNL     1     -45.290 -47.116   9.631  1.00  0.00     0.016 C 
HETATM   27  C   UNL     1     -44.385 -46.481   8.596  1.00  0.00     0.016 C 
HETATM   28  C   UNL     1     -43.154 -47.377   8.585  1.00  0.00     0.097 C 
ENDBRANCH  22  24
ENDBRANCH   4  17
TORSDOF 5
ENDMDL
MODEL 4
REMARK VINA RESULT:      -6.5      2.544      7.525
REMARK  5 active torsions:
REMARK  status: ('A' for Active; 'I' for Inactive)
REMARK    1  A    between atoms: C_2  and  C_4 
REMARK    2  A    between atoms: C_2  and  N_21 
REMARK    3  A    between atoms: C_4  and  N_5 
REMARK       I    between atoms: N_5  and  C_6 
REMARK       I    between atoms: C_6  and  N_8 
REMARK    4  A    between atoms: N_8  and  C_9 
REMARK    5  A    between atoms: C_15  and  N_16 
ROOT
HETATM    1  N   UNL     1     -42.132 -49.713  11.708  1.00  0.00    -0.340 N 
HETATM    2  C   UNL     1     -42.689 -50.622  12.571  1.00  0.00     0.320 C 
HETATM    3  O   UNL     1     -43.251 -50.293  13.609  1.00  0.00    -0.247 OA
HETATM    4  N   UNL     1     -42.581 -51.911  12.097  1.00  0.00    -0.306 N 
HETATM    5  H   UNL     1     -41.286 -50.042  11.263  1.00  0.00     0.164 HD
HETATM    6  H   UNL     1     -42.719 -52.006  11.098  1.00  0.00     0.171 HD
ENDROOT
BRANCH   1   7
HETATM    7  C   UNL     1     -42.200 -48.286  11.993  1.00  0.00     0.165 C 
BRANCH   7   8
HETATM    8  C   UNL     1     -40.850 -47.476  11.852  1.00  0.00     0.168 C 
HETATM    9  C   UNL     1     -40.503 -46.785  13.185  1.00  0.00     0.050 C 
HETATM   10  C   UNL     1     -39.768 -48.579  11.647  1.00  0.00     0.050 C 
BRANCH   8  11
HETATM   11  N   UNL     1     -40.849 -46.590  10.645  1.00  0.00     0.103 N 
HETATM   12  C   UNL     1     -39.799 -45.551  10.553  1.00  0.00     0.299 C 
HETATM   13  C   UNL     1     -40.149 -44.207  11.218  1.00  0.00     0.198 C 
HETATM   14  O   UNL     1     -41.388 -43.682  10.729  1.00  0.00    -0.388 OA
HETATM   15  C   UNL     1     -42.443 -44.632  10.908  1.00  0.00     0.198 C 
HETATM   16  C   UNL     1     -42.118 -45.968  10.223  1.00  0.00     0.299 C 
ENDBRANCH   8  11
ENDBRANCH   7   8
ENDBRANCH   1   7
BRANCH   4  17
HETATM   17  C   UNL     1     -43.129 -52.975  12.851  1.00  0.00     0.075 A 
HETATM   18  C   UNL     1     -44.441 -53.388  12.587  1.00  0.00     0.034 A 
HETATM   19  C   UNL     1     -44.982 -54.432  13.315  1.00  0.00     0.019 A 
HETATM   20  C   UNL     1     -44.201 -55.009  14.293  1.00  0.00     0.089 A 
HETATM   21  N   UNL     1     -42.938 -54.612  14.592  1.00  0.00    -0.355 N 
HETATM   22  C   UNL     1     -42.384 -53.612  13.868  1.00  0.00     0.109 A 
ATOM     23  HN  UNL     1     -42.417 -55.058  15.348  1.00  0.00     0.166 HD
BRANCH  22  24
HETATM   24  N   UNL     1     -41.036 -53.250  14.102  1.00  0.00    -0.267 NA
HETATM   25  C   UNL     1     -40.699 -52.964  15.509  1.00  0.00     0.097 C 
HETATM   26  C   UNL     1     -39.270 -53.465  15.688  1.00  0.00     0.016 C 
HETATM   27  C   UNL     1     -39.167 -54.617  14.711  1.00  0.00     0.016 C 
HETATM   28  C   UNL     1     -40.053 -54.193  13.547  1.00  0.00     0.097 C 
ENDBRANCH  22  24
ENDBRANCH   4  17
TORSDOF 5
ENDMDL
MODEL 5
REMARK VINA RESULT:      -6.0      2.011      4.047
REMARK  5 active torsions:
REMARK  status: ('A' for Active; 'I' for Inactive)
REMARK    1  A    between atoms: C_2  and  C_4 
REMARK    2  A    between atoms: C_2  and  N_21 
REMARK    3  A    between atoms: C_4  and  N_5 
REMARK       I    between atoms: N_5  and  C_6 
REMARK       I    between atoms: C_6  and  N_8 
REMARK    4  A    between atoms: N_8  and  C_9 
REMARK    5  A    between atoms: C_15  and  N_16 
ROOT
HETATM    1  N   UNL     1     -41.585 -52.969  14.954  1.00  0.00    -0.340 N 
HETATM    2  C   UNL     1     -40.856 -52.494  13.894  1.00  0.00     0.320 C 
HETATM    3  O   UNL     1     -40.933 -52.973  12.769  1.00  0.00    -0.247 OA
HETATM    4  N   UNL     1     -40.091 -51.405  14.246  1.00  0.00    -0.306 N 
HETATM    5  H   UNL     1     -41.091 -52.935  15.835  1.00  0.00     0.164 HD
HETATM    6  H   UNL     1     -40.544 -50.760  14.883  1.00  0.00     0.171 HD
ENDROOT
BRANCH   1   7
HETATM    7  C   UNL     1     -42.512 -54.080  14.775  1.00  0.00     0.165 C 
BRANCH   7   8
HETATM    8  C   UNL     1     -44.050 -53.737  14.901  1.00  0.00     0.168 C 
HETATM    9  C   UNL     1     -44.887 -54.742  14.087  1.00  0.00     0.050 C 
HETATM   10  C   UNL     1     -44.380 -54.019  16.398  1.00  0.00     0.050 C 
BRANCH   8  11
HETATM   11  N   UNL     1     -44.329 -52.292  14.626  1.00  0.00     0.103 N 
HETATM   12  C   UNL     1     -45.301 -51.598  15.500  1.00  0.00     0.299 C 
HETATM   13  C   UNL     1     -46.771 -51.698  15.053  1.00  0.00     0.198 C 
HETATM   14  O   UNL     1     -46.943 -51.259  13.700  1.00  0.00    -0.388 OA
HETATM   15  C   UNL     1     -46.088 -51.995  12.819  1.00  0.00     0.198 C 
HETATM   16  C   UNL     1     -44.615 -51.878  13.239  1.00  0.00     0.299 C 
ENDBRANCH   8  11
ENDBRANCH   7   8
ENDBRANCH   1   7
BRANCH   4  17
HETATM   17  C   UNL     1     -39.295 -50.771  13.264  1.00  0.00     0.075 A 
HETATM   18  C   UNL     1     -38.034 -51.303  12.966  1.00  0.00     0.034 A 
HETATM   19  C   UNL     1     -37.252 -50.693  12.003  1.00  0.00     0.019 A 
HETATM   20  C   UNL     1     -37.749 -49.563  11.389  1.00  0.00     0.089 A 
HETATM   21  N   UNL     1     -38.953 -49.007  11.677  1.00  0.00    -0.355 N 
HETATM   22  C   UNL     1     -39.742 -49.610  12.595  1.00  0.00     0.109 A 
ATOM     23  HN  UNL     1     -39.257 -48.152  11.210  1.00  0.00     0.166 HD
BRANCH  22  24
HETATM   24  N   UNL     1     -41.039 -49.099  12.839  1.00  0.00    -0.267 NA
HETATM   25  C   UNL     1     -41.111 -47.640  13.039  1.00  0.00     0.097 C 
HETATM   26  C   UNL     1     -42.438 -47.216  12.419  1.00  0.00     0.016 C 
HETATM   27  C   UNL     1     -42.651 -48.217  11.302  1.00  0.00     0.016 C 
HETATM   28  C   UNL     1     -42.044 -49.505  11.843  1.00  0.00     0.097 C 
ENDBRANCH  22  24
ENDBRANCH   4  17
TORSDOF 5
ENDMDL
MODEL 6
REMARK VINA RESULT:      -5.9      2.474      3.632
REMARK  5 active torsions:
REMARK  status: ('A' for Active; 'I' for Inactive)
REMARK    1  A    between atoms: C_2  and  C_4 
REMARK    2  A    between atoms: C_2  and  N_21 
REMARK    3  A    between atoms: C_4  and  N_5 
REMARK       I    between atoms: N_5  and  C_6 
REMARK       I    between atoms: C_6  and  N_8 
REMARK    4  A    between atoms: N_8  and  C_9 
REMARK    5  A    between atoms: C_15  and  N_16 
ROOT
HETATM    1  N   UNL     1     -42.589 -49.328  13.882  1.00  0.00    -0.340 N 
HETATM    2  C   UNL     1     -42.541 -48.974  12.557  1.00  0.00     0.320 C 
HETATM    3  O   UNL     1     -41.936 -49.630  11.717  1.00  0.00    -0.247 OA
HETATM    4  N   UNL     1     -43.289 -47.846  12.302  1.00  0.00    -0.306 N 
HETATM    5  H   UNL     1     -42.586 -48.540  14.513  1.00  0.00     0.164 HD
HETATM    6  H   UNL     1     -44.163 -47.796  12.811  1.00  0.00     0.171 HD
ENDROOT
BRANCH   1   7
HETATM    7  C   UNL     1     -41.917 -50.534  14.349  1.00  0.00     0.165 C 
BRANCH   7   8
HETATM    8  C   UNL     1     -42.849 -51.745  14.751  1.00  0.00     0.168 C 
HETATM    9  C   UNL     1     -42.636 -52.111  16.233  1.00  0.00     0.050 C 
HETATM   10  C   UNL     1     -44.290 -51.161  14.658  1.00  0.00     0.050 C 
BRANCH   8  11
HETATM   11  N   UNL     1     -42.742 -52.883  13.784  1.00  0.00     0.103 N 
HETATM   12  C   UNL     1     -43.445 -52.756  12.488  1.00  0.00     0.299 C 
HETATM   13  C   UNL     1     -44.909 -53.235  12.489  1.00  0.00     0.198 C 
HETATM   14  O   UNL     1     -45.025 -54.579  12.968  1.00  0.00    -0.388 OA
HETATM   15  C   UNL     1     -44.445 -54.702  14.271  1.00  0.00     0.198 C 
HETATM   16  C   UNL     1     -42.976 -54.254  14.276  1.00  0.00     0.299 C 
ENDBRANCH   8  11
ENDBRANCH   7   8
ENDBRANCH   1   7
BRANCH   4  17
HETATM   17  C   UNL     1     -43.373 -47.356  10.978  1.00  0.00     0.075 A 
HETATM   18  C   UNL     1     -44.397 -47.825  10.145  1.00  0.00     0.034 A 
HETATM   19  C   UNL     1     -44.490 -47.345   8.851  1.00  0.00     0.019 A 
HETATM   20  C   UNL     1     -43.546 -46.434   8.431  1.00  0.00     0.089 A 
HETATM   21  N   UNL     1     -42.525 -45.983   9.204  1.00  0.00    -0.355 N 
HETATM   22  C   UNL     1     -42.439 -46.420  10.482  1.00  0.00     0.109 A 
ATOM     23  HN  UNL     1     -41.837 -45.329   8.830  1.00  0.00     0.166 HD
BRANCH  22  24
HETATM   24  N   UNL     1     -41.438 -45.889  11.331  1.00  0.00    -0.267 NA
HETATM   25  C   UNL     1     -40.071 -45.915  10.781  1.00  0.00     0.097 C 
HETATM   26  C   UNL     1     -39.403 -44.649  11.307  1.00  0.00     0.016 C 
HETATM   27  C   UNL     1     -40.549 -43.669  11.446  1.00  0.00     0.016 C 
HETATM   28  C   UNL     1     -41.733 -44.540  11.841  1.00  0.00     0.097 C 
ENDBRANCH  22  24
ENDBRANCH   4  17
TORSDOF 5
ENDMDL
MODEL 7
REMARK VINA RESULT:      -5.9      2.396      3.469
REMARK  5 active torsions:
REMARK  status: ('A' for Active; 'I' for Inactive)
REMARK    1  A    between atoms: C_2  and  C_4 
REMARK    2  A    between atoms: C_2  and  N_21 
REMARK    3  A    between atoms: C_4  and  N_5 
REMARK       I    between atoms: N_5  and  C_6 
REMARK       I    between atoms: C_6  and  N_8 
REMARK    4  A    between atoms: N_8  and  C_9 
REMARK    5  A    between atoms: C_15  and  N_16 
ROOT
HETATM    1  N   UNL     1     -43.606 -51.536  12.551  1.00  0.00    -0.340 N 
HETATM    2  C   UNL     1     -42.394 -51.015  12.928  1.00  0.00     0.320 C 
HETATM    3  O   UNL     1     -42.264 -50.268  13.891  1.00  0.00    -0.247 OA
HETATM    4  N   UNL     1     -41.369 -51.475  12.132  1.00  0.00    -0.306 N 
HETATM    5  H   UNL     1     -43.715 -51.628  11.551  1.00  0.00     0.164 HD
HETATM    6  H   UNL     1     -41.444 -52.452  11.871  1.00  0.00     0.171 HD
ENDROOT
BRANCH   1   7
HETATM    7  C   UNL     1     -44.811 -51.226  13.309  1.00  0.00     0.165 C 
BRANCH   7   8
HETATM    8  C   UNL     1     -46.023 -52.226  13.140  1.00  0.00     0.168 C 
HETATM    9  C   UNL     1     -46.920 -51.782  11.969  1.00  0.00     0.050 C 
HETATM   10  C   UNL     1     -45.354 -53.558  12.686  1.00  0.00     0.050 C 
BRANCH   8  11
HETATM   11  N   UNL     1     -46.730 -52.477  14.436  1.00  0.00     0.103 N 
HETATM   12  C   UNL     1     -46.902 -51.335  15.362  1.00  0.00     0.299 C 
HETATM   13  C   UNL     1     -45.736 -51.105  16.341  1.00  0.00     0.198 C 
HETATM   14  O   UNL     1     -45.435 -52.288  17.090  1.00  0.00    -0.388 OA
HETATM   15  C   UNL     1     -45.157 -53.384  16.212  1.00  0.00     0.198 C 
HETATM   16  C   UNL     1     -46.326 -53.641  15.249  1.00  0.00     0.299 C 
ENDBRANCH   8  11
ENDBRANCH   7   8
ENDBRANCH   1   7
BRANCH   4  17
HETATM   17  C   UNL     1     -40.044 -51.058  12.398  1.00  0.00     0.075 A 
HETATM   18  C   UNL     1     -39.516 -49.978  11.679  1.00  0.00     0.034 A 
HETATM   19  C   UNL     1     -38.224 -49.560  11.938  1.00  0.00     0.019 A 
HETATM   20  C   UNL     1     -37.500 -50.249  12.888  1.00  0.00     0.089 A 
HETATM   21  N   UNL     1     -37.974 -51.316  13.580  1.00  0.00    -0.355 N 
HETATM   22  C   UNL     1     -39.247 -51.718  13.360  1.00  0.00     0.109 A 
ATOM     23  HN  UNL     1     -37.382 -51.805  14.252  1.00  0.00     0.166 HD
BRANCH  22  24
HETATM   24  N   UNL     1     -39.788 -52.768  14.139  1.00  0.00    -0.267 NA
HETATM   25  C   UNL     1     -39.163 -54.088  13.933  1.00  0.00     0.097 C 
HETATM   26  C   UNL     1     -39.189 -54.760  15.302  1.00  0.00     0.016 C 
HETATM   27  C   UNL     1     -39.097 -53.603  16.274  1.00  0.00     0.016 C 
HETATM   28  C   UNL     1     -39.853 -52.478  15.580  1.00  0.00     0.097 C 
ENDBRANCH  22  24
ENDBRANCH   4  17
TORSDOF 5
ENDMDL
MODEL 8
REMARK VINA RESULT:      -5.9      1.936      3.727
REMARK  5 active torsions:
REMARK  status: ('A' for Active; 'I' for Inactive)
REMARK    1  A    between atoms: C_2  and  C_4 
REMARK    2  A    between atoms: C_2  and  N_21 
REMARK    3  A    between atoms: C_4  and  N_5 
REMARK       I    between atoms: N_5  and  C_6 
REMARK       I    between atoms: C_6  and  N_8 
REMARK    4  A    between atoms: N_8  and  C_9 
REMARK    5  A    between atoms: C_15  and  N_16 
ROOT
HETATM    1  N   UNL     1     -42.069 -52.318  14.716  1.00  0.00    -0.340 N 
HETATM    2  C   UNL     1     -41.163 -52.070  13.717  1.00  0.00     0.320 C 
HETATM    3  O   UNL     1     -41.155 -52.691  12.660  1.00  0.00    -0.247 OA
HETATM    4  N   UNL     1     -40.325 -51.024  14.033  1.00  0.00    -0.306 N 
HETATM    5  H   UNL     1     -41.689 -52.210  15.646  1.00  0.00     0.164 HD
HETATM    6  H   UNL     1     -40.775 -50.254  14.515  1.00  0.00     0.171 HD
ENDROOT
BRANCH   1   7
HETATM    7  C   UNL     1     -43.090 -53.344  14.550  1.00  0.00     0.165 C 
BRANCH   7   8
HETATM    8  C   UNL     1     -44.506 -52.851  14.047  1.00  0.00     0.168 C 
HETATM    9  C   UNL     1     -44.544 -51.311  13.992  1.00  0.00     0.050 C 
HETATM   10  C   UNL     1     -44.571 -53.334  12.567  1.00  0.00     0.050 C 
BRANCH   8  11
HETATM   11  N   UNL     1     -45.627 -53.498  14.799  1.00  0.00     0.103 N 
HETATM   12  C   UNL     1     -46.958 -52.853  14.745  1.00  0.00     0.299 C 
HETATM   13  C   UNL     1     -47.207 -51.776  15.816  1.00  0.00     0.198 C 
HETATM   14  O   UNL     1     -46.971 -52.279  17.136  1.00  0.00    -0.388 OA
HETATM   15  C   UNL     1     -45.647 -52.812  17.243  1.00  0.00     0.198 C 
HETATM   16  C   UNL     1     -45.397 -53.908  16.197  1.00  0.00     0.299 C 
ENDBRANCH   8  11
ENDBRANCH   7   8
ENDBRANCH   1   7
BRANCH   4  17
HETATM   17  C   UNL     1     -39.344 -50.615  13.100  1.00  0.00     0.075 A 
HETATM   18  C   UNL     1     -38.108 -51.274  13.084  1.00  0.00     0.034 A 
HETATM   19  C   UNL     1     -37.146 -50.885  12.170  1.00  0.00     0.019 A 
HETATM   20  C   UNL     1     -37.445 -49.840  11.323  1.00  0.00     0.089 A 
HETATM   21  N   UNL     1     -38.621 -49.164  11.334  1.00  0.00    -0.355 N 
HETATM   22  C   UNL     1     -39.584 -49.552  12.202  1.00  0.00     0.109 A 
ATOM     23  HN  UNL     1     -38.777 -48.378  10.702  1.00  0.00     0.166 HD
BRANCH  22  24
HETATM   24  N   UNL     1     -40.850 -48.921  12.163  1.00  0.00    -0.267 NA
HETATM   25  C   UNL     1     -40.940 -47.650  12.904  1.00  0.00     0.097 C 
HETATM   26  C   UNL     1     -41.892 -46.779  12.091  1.00  0.00     0.016 C 
HETATM   27  C   UNL     1     -41.680 -47.246  10.666  1.00  0.00     0.016 C 
HETATM   28  C   UNL     1     -41.389 -48.734  10.806  1.00  0.00     0.097 C 
ENDBRANCH  22  24
ENDBRANCH   4  17
TORSDOF 5
ENDMDL
MODEL 9
REMARK VINA RESULT:      -5.8      2.298      7.530
REMARK  5 active torsions:
REMARK  status: ('A' for Active; 'I' for Inactive)
REMARK    1  A    between atoms: C_2  and  C_4 
REMARK    2  A    between atoms: C_2  and  N_21 
REMARK    3  A    between atoms: C_4  and  N_5 
REMARK       I    between atoms: N_5  and  C_6 
REMARK       I    between atoms: C_6  and  N_8 
REMARK    4  A    between atoms: N_8  and  C_9 
REMARK    5  A    between atoms: C_15  and  N_16 
ROOT
HETATM    1  N   UNL     1     -42.834 -49.831  12.099  1.00  0.00    -0.340 N 
HETATM    2  C   UNL     1     -43.477 -50.225  13.245  1.00  0.00     0.320 C 
HETATM    3  O   UNL     1     -43.320 -49.660  14.321  1.00  0.00    -0.247 OA
HETATM    4  N   UNL     1     -44.336 -51.277  13.014  1.00  0.00    -0.306 N 
HETATM    5  H   UNL     1     -42.578 -50.598  11.493  1.00  0.00     0.164 HD
HETATM    6  H   UNL     1     -44.844 -51.222  12.139  1.00  0.00     0.171 HD
ENDROOT
BRANCH   1   7
HETATM    7  C   UNL     1     -41.930 -48.689  12.114  1.00  0.00     0.165 C 
BRANCH   7   8
HETATM    8  C   UNL     1     -42.499 -47.335  11.530  1.00  0.00     0.168 C 
HETATM    9  C   UNL     1     -43.738 -47.612  10.656  1.00  0.00     0.050 C 
HETATM   10  C   UNL     1     -43.022 -46.572  12.784  1.00  0.00     0.050 C 
BRANCH   8  11
HETATM   11  N   UNL     1     -41.430 -46.504  10.891  1.00  0.00     0.103 N 
HETATM   12  C   UNL     1     -40.033 -46.719  11.330  1.00  0.00     0.299 C 
HETATM   13  C   UNL     1     -39.594 -45.882  12.545  1.00  0.00     0.198 C 
HETATM   14  O   UNL     1     -39.821 -44.484  12.334  1.00  0.00    -0.388 OA
HETATM   15  C   UNL     1     -41.194 -44.239  12.013  1.00  0.00     0.198 C 
HETATM   16  C   UNL     1     -41.636 -45.047  10.784  1.00  0.00     0.299 C 
ENDBRANCH   8  11
ENDBRANCH   7   8
ENDBRANCH   1   7
BRANCH   4  17
HETATM   17  C   UNL     1     -45.103 -51.793  14.085  1.00  0.00     0.075 A 
HETATM   18  C   UNL     1     -46.376 -51.260  14.326  1.00  0.00     0.034 A 
HETATM   19  C   UNL     1     -47.134 -51.764  15.366  1.00  0.00     0.019 A 
HETATM   20  C   UNL     1     -46.586 -52.763  16.141  1.00  0.00     0.089 A 
HETATM   21  N   UNL     1     -45.345 -53.279  15.951  1.00  0.00    -0.355 N 
HETATM   22  C   UNL     1     -44.602 -52.818  14.918  1.00  0.00     0.109 A 
ATOM     23  HN  UNL     1     -44.979 -53.999  16.574  1.00  0.00     0.166 HD
BRANCH  22  24
HETATM   24  N   UNL     1     -43.346 -53.410  14.647  1.00  0.00    -0.267 NA
HETATM   25  C   UNL     1     -42.234 -52.936  15.492  1.00  0.00     0.097 C 
HETATM   26  C   UNL     1     -41.342 -54.155  15.700  1.00  0.00     0.016 C 
HETATM   27  C   UNL     1     -42.307 -55.322  15.648  1.00  0.00     0.016 C 
HETATM   28  C   UNL     1     -43.361 -54.882  14.641  1.00  0.00     0.097 C 
ENDBRANCH  22  24
ENDBRANCH   4  17
TORSDOF 5
ENDMDL
