MODEL 1
REMARK VINA RESULT:      -6.8      0.000      0.000
REMARK  7 active torsions:
REMARK  status: ('A' for Active; 'I' for Inactive)
REMARK    1  A    between atoms: N_2  and  C_15 
REMARK    2  A    between atoms: C_6  and  N_8 
REMARK       I    between atoms: N_9  and  C_14 
REMARK    3  A    between atoms: C_14  and  C_22 
REMARK    4  A    between atoms: C_15  and  C_19 
REMARK    5  A    between atoms: N_16  and  C_20 
REMARK    6  A    between atoms: C_19  and  O_30 
REMARK    7  A    between atoms: C_20  and  C_22 
ROOT
HETATM    1  C   UNL     1     -41.044 -51.543  14.020  1.00  0.00     0.117 A 
HETATM    2  N   UNL     1     -42.876 -52.547  13.354  1.00  0.00    -0.324 N 
HETATM    3  C   UNL     1     -41.978 -51.582  12.992  1.00  0.00     0.140 A 
HETATM    4  N   UNL     1     -41.407 -52.443  15.012  1.00  0.00    -0.346 N 
ATOM      5  HN  UNL     1     -40.928 -52.611  15.897  1.00  0.00     0.167 HD
HETATM    6  C   UNL     1     -39.934 -50.665  13.873  1.00  0.00     0.114 A 
HETATM    7  C   UNL     1     -42.495 -53.032  14.573  1.00  0.00     0.185 A 
HETATM    8  N   UNL     1     -41.988 -50.849  11.868  1.00  0.00    -0.336 N 
ATOM      9  HN  UNL     1     -42.713 -50.893  11.151  1.00  0.00     0.168 HD
HETATM   10  N   UNL     1     -39.906 -49.928  12.720  1.00  0.00    -0.341 N 
ATOM     11  HN  UNL     1     -39.131 -49.289  12.541  1.00  0.00     0.167 HD
HETATM   12  C   UNL     1     -40.907 -50.047  11.817  1.00  0.00     0.183 A 
ENDROOT
BRANCH   6  13
HETATM   13  N   UNL     1     -38.906 -50.463  14.816  1.00  0.00    -0.264 NA
HETATM   14  C   UNL     1     -37.541 -50.266  14.281  1.00  0.00     0.117 C 
HETATM   15  C   UNL     1     -36.493 -50.255  15.420  1.00  0.00     0.140 C 
HETATM   16  N   UNL     1     -36.852 -49.316  16.499  1.00  0.00    -0.349 N 
HETATM   17  C   UNL     1     -38.205 -49.580  17.027  1.00  0.00     0.140 C 
HETATM   18  C   UNL     1     -35.997 -48.263  16.806  1.00  0.00     0.231 C 
HETATM   19  C   UNL     1     -39.268 -49.520  15.900  1.00  0.00     0.117 C 
HETATM   20  O   UNL     1     -34.878 -48.185  16.285  1.00  0.00    -0.272 OA
BRANCH  18  21
HETATM   21  C   UNL     1     -36.392 -47.179  17.809  1.00  0.00     0.206 C 
BRANCH  21  22
HETATM   22  C   UNL     1     -35.114 -46.638  18.428  1.00  0.00    -0.069 C 
BRANCH  22  23
HETATM   23  N   UNL     1     -34.052 -46.190  18.942  1.00  0.00    -0.369 N 
ATOM     24  HN2 UNL     1     -34.932 -46.514  18.540  1.00  0.00     0.165 HD
ATOM     25  HN1 UNL     1     -33.194 -45.828  19.356  1.00  0.00     0.165 HD
ENDBRANCH  22  23
ENDBRANCH  21  22
ENDBRANCH  18  21
ENDBRANCH   6  13
BRANCH   2  26
HETATM   26  C   UNL     1     -43.934 -53.098  12.523  1.00  0.00     0.171 C 
BRANCH  26  27
HETATM   27  C   UNL     1     -45.358 -52.659  12.889  1.00  0.00     0.097 C 
HETATM   28  C   UNL     1     -45.489 -51.308  13.566  1.00  0.00     0.068 C 
HETATM   29  C   UNL     1     -46.754 -51.451  14.397  1.00  0.00     0.170 C 
HETATM   30  O   UNL     1     -46.938 -52.843  14.676  1.00  0.00    -0.388 OA
HETATM   31  C   UNL     1     -45.935 -53.585  13.967  1.00  0.00     0.207 C 
BRANCH  27  32
HETATM   32  O   UNL     1     -46.224 -52.698  11.747  1.00  0.00    -0.386 OA
HETATM   33  H   UNL     1     -46.237 -51.823  11.315  1.00  0.00     0.210 HD
ENDBRANCH  27  32
ENDBRANCH  26  27
ENDBRANCH   2  26
TORSDOF 7
ENDMDL
MODEL 2
REMARK VINA RESULT:      -6.8      4.169      5.224
REMARK  7 active torsions:
REMARK  status: ('A' for Active; 'I' for Inactive)
REMARK    1  A    between atoms: N_2  and  C_15 
REMARK    2  A    between atoms: C_6  and  N_8 
REMARK       I    between atoms: N_9  and  C_14 
REMARK    3  A    between atoms: C_14  and  C_22 
REMARK    4  A    between atoms: C_15  and  C_19 
REMARK    5  A    between atoms: N_16  and  C_20 
REMARK    6  A    between atoms: C_19  and  O_30 
REMARK    7  A    between atoms: C_20  and  C_22 
ROOT
HETATM    1  C   UNL     1     -42.550 -51.750  13.085  1.00  0.00     0.117 A 
HETATM    2  N   UNL     1     -43.611 -53.589  13.634  1.00  0.00    -0.324 N 
HETATM    3  C   UNL     1     -42.923 -52.535  14.168  1.00  0.00     0.140 A 
HETATM    4  N   UNL     1     -42.969 -52.353  11.907  1.00  0.00    -0.346 N 
ATOM      5  HN  UNL     1     -42.813 -52.022  10.955  1.00  0.00     0.167 HD
HETATM    6  C   UNL     1     -41.872 -50.529  13.354  1.00  0.00     0.114 A 
HETATM    7  C   UNL     1     -43.610 -53.439  12.276  1.00  0.00     0.185 A 
HETATM    8  N   UNL     1     -42.684 -52.302  15.468  1.00  0.00    -0.336 N 
ATOM      9  HN  UNL     1     -42.954 -52.924  16.230  1.00  0.00     0.168 HD
HETATM   10  N   UNL     1     -41.642 -50.254  14.675  1.00  0.00    -0.341 N 
ATOM     11  HN  UNL     1     -41.174 -49.387  14.943  1.00  0.00     0.167 HD
HETATM   12  C   UNL     1     -42.036 -51.131  15.627  1.00  0.00     0.183 A 
ENDROOT
BRANCH   6  13
HETATM   13  N   UNL     1     -41.388 -49.619  12.392  1.00  0.00    -0.264 NA
HETATM   14  C   UNL     1     -42.399 -48.928  11.561  1.00  0.00     0.117 C 
HETATM   15  C   UNL     1     -41.726 -48.118  10.426  1.00  0.00     0.140 C 
HETATM   16  N   UNL     1     -40.661 -47.231  10.931  1.00  0.00    -0.349 N 
HETATM   17  C   UNL     1     -39.656 -47.974  11.718  1.00  0.00     0.140 C 
HETATM   18  C   UNL     1     -40.765 -45.857  10.742  1.00  0.00     0.231 C 
HETATM   19  C   UNL     1     -40.318 -48.729  12.900  1.00  0.00     0.117 C 
HETATM   20  O   UNL     1     -41.664 -45.382  10.037  1.00  0.00    -0.272 OA
BRANCH  18  21
HETATM   21  C   UNL     1     -39.768 -44.886  11.375  1.00  0.00     0.206 C 
BRANCH  21  22
HETATM   22  C   UNL     1     -40.310 -43.479  11.179  1.00  0.00    -0.069 C 
BRANCH  22  23
HETATM   23  N   UNL     1     -40.758 -42.311  11.017  1.00  0.00    -0.369 N 
ATOM     24  HN2 UNL     1     -40.371 -43.251  11.109  1.00  0.00     0.165 HD
ATOM     25  HN1 UNL     1     -41.121 -41.368  10.887  1.00  0.00     0.165 HD
ENDBRANCH  22  23
ENDBRANCH  21  22
ENDBRANCH  18  21
ENDBRANCH   6  13
BRANCH   2  26
HETATM   26  C   UNL     1     -44.370 -54.586  14.370  1.00  0.00     0.171 C 
BRANCH  26  27
HETATM   27  C   UNL     1     -45.746 -54.130  14.874  1.00  0.00     0.097 C 
HETATM   28  C   UNL     1     -46.253 -52.808  14.329  1.00  0.00     0.068 C 
HETATM   29  C   UNL     1     -47.164 -52.298  15.435  1.00  0.00     0.170 C 
HETATM   30  O   UNL     1     -46.730 -52.886  16.666  1.00  0.00    -0.388 OA
HETATM   31  C   UNL     1     -45.683 -53.824  16.376  1.00  0.00     0.207 C 
BRANCH  27  32
HETATM   32  O   UNL     1     -46.740 -55.139  14.658  1.00  0.00    -0.386 OA
HETATM   33  H   UNL     1     -47.035 -55.115  13.729  1.00  0.00     0.210 HD
ENDBRANCH  27  32
ENDBRANCH  26  27
ENDBRANCH   2  26
TORSDOF 7
ENDMDL
MODEL 3
REMARK VINA RESULT:      -6.6      4.823      5.842
REMARK  7 active torsions:
REMARK  status: ('A' for Active; 'I' for Inactive)
REMARK    1  A    between atoms: N_2  and  C_15 
REMARK    2  A    between atoms: C_6  and  N_8 
REMARK       I    between atoms: N_9  and  C_14 
REMARK    3  A    between atoms: C_14  and  C_22 
REMARK    4  A    between atoms: C_15  and  C_19 
REMARK    5  A    between atoms: N_16  and  C_20 
REMARK    6  A    between atoms: C_19  and  O_30 
REMARK    7  A    between atoms: C_20  and  C_22 
ROOT
HETATM    1  C   UNL     1     -42.278 -50.060  13.041  1.00  0.00     0.117 A 
HETATM    2  N   UNL     1     -43.015 -51.314  14.682  1.00  0.00    -0.324 N 
HETATM    3  C   UNL     1     -42.318 -51.368  13.507  1.00  0.00     0.140 A 
HETATM    4  N   UNL     1     -42.987 -49.237  13.904  1.00  0.00    -0.346 N 
ATOM      5  HN  UNL     1     -43.153 -48.235  13.804  1.00  0.00     0.167 HD
HETATM    6  C   UNL     1     -41.541 -49.803  11.851  1.00  0.00     0.114 A 
HETATM    7  C   UNL     1     -43.399 -50.018  14.877  1.00  0.00     0.185 A 
HETATM    8  N   UNL     1     -41.769 -52.455  12.942  1.00  0.00    -0.336 N 
ATOM      9  HN  UNL     1     -41.849 -53.404  13.308  1.00  0.00     0.168 HD
HETATM   10  N   UNL     1     -40.946 -50.892  11.272  1.00  0.00    -0.341 N 
ATOM     11  HN  UNL     1     -40.389 -50.779  10.425  1.00  0.00     0.167 HD
HETATM   12  C   UNL     1     -41.098 -52.118  11.824  1.00  0.00     0.183 A 
ENDROOT
BRANCH   6  13
HETATM   13  N   UNL     1     -41.411 -48.555  11.209  1.00  0.00    -0.264 NA
HETATM   14  C   UNL     1     -42.663 -47.881  10.803  1.00  0.00     0.117 C 
HETATM   15  C   UNL     1     -42.367 -46.629   9.941  1.00  0.00     0.140 C 
HETATM   16  N   UNL     1     -41.387 -45.732  10.581  1.00  0.00    -0.349 N 
HETATM   17  C   UNL     1     -40.140 -46.442  10.929  1.00  0.00     0.140 C 
HETATM   18  C   UNL     1     -41.752 -44.426  10.892  1.00  0.00     0.231 C 
HETATM   19  C   UNL     1     -40.426 -47.655  11.852  1.00  0.00     0.117 C 
HETATM   20  O   UNL     1     -42.836 -43.966  10.515  1.00  0.00    -0.272 OA
BRANCH  18  21
HETATM   21  C   UNL     1     -40.826 -43.506  11.689  1.00  0.00     0.206 C 
BRANCH  21  22
HETATM   22  C   UNL     1     -41.173 -42.074  11.319  1.00  0.00    -0.069 C 
BRANCH  22  23
HETATM   23  N   UNL     1     -41.462 -40.885  11.010  1.00  0.00    -0.369 N 
ATOM     24  HN2 UNL     1     -41.258 -41.861  11.227  1.00  0.00     0.165 HD
ATOM     25  HN1 UNL     1     -41.694 -39.924  10.762  1.00  0.00     0.165 HD
ENDBRANCH  22  23
ENDBRANCH  21  22
ENDBRANCH  18  21
ENDBRANCH   6  13
BRANCH   2  26
HETATM   26  C   UNL     1     -43.164 -52.390  15.648  1.00  0.00     0.171 C 
BRANCH  26  27
HETATM   27  C   UNL     1     -44.157 -53.494  15.259  1.00  0.00     0.097 C 
HETATM   28  C   UNL     1     -45.390 -53.047  14.497  1.00  0.00     0.068 C 
HETATM   29  C   UNL     1     -46.430 -54.093  14.866  1.00  0.00     0.170 C 
HETATM   30  O   UNL     1     -46.061 -54.648  16.133  1.00  0.00    -0.388 OA
HETATM   31  C   UNL     1     -44.791 -54.100  16.516  1.00  0.00     0.207 C 
BRANCH  27  32
HETATM   32  O   UNL     1     -43.508 -54.543  14.528  1.00  0.00    -0.386 OA
HETATM   33  H   UNL     1     -42.572 -54.311  14.382  1.00  0.00     0.210 HD
ENDBRANCH  27  32
ENDBRANCH  26  27
ENDBRANCH   2  26
TORSDOF 7
ENDMDL
MODEL 4
REMARK VINA RESULT:      -6.6      4.565      6.701
REMARK  7 active torsions:
REMARK  status: ('A' for Active; 'I' for Inactive)
REMARK    1  A    between atoms: N_2  and  C_15 
REMARK    2  A    between atoms: C_6  and  N_8 
REMARK       I    between atoms: N_9  and  C_14 
REMARK    3  A    between atoms: C_14  and  C_22 
REMARK    4  A    between atoms: C_15  and  C_19 
REMARK    5  A    between atoms: N_16  and  C_20 
REMARK    6  A    between atoms: C_19  and  O_30 
REMARK    7  A    between atoms: C_20  and  C_22 
ROOT
HETATM    1  C   UNL     1     -40.168 -50.565  12.707  1.00  0.00     0.117 A 
HETATM    2  N   UNL     1     -41.320 -49.169  11.469  1.00  0.00    -0.324 N 
HETATM    3  C   UNL     1     -40.044 -49.583  11.732  1.00  0.00     0.140 A 
HETATM    4  N   UNL     1     -41.503 -50.704  13.060  1.00  0.00    -0.346 N 
ATOM      5  HN  UNL     1     -41.892 -51.327  13.767  1.00  0.00     0.167 HD
HETATM    6  C   UNL     1     -38.985 -51.235  13.127  1.00  0.00     0.114 A 
HETATM    7  C   UNL     1     -42.160 -49.866  12.290  1.00  0.00     0.185 A 
HETATM    8  N   UNL     1     -38.916 -49.146  11.150  1.00  0.00    -0.336 N 
ATOM      9  HN  UNL     1     -38.871 -48.400  10.456  1.00  0.00     0.168 HD
HETATM   10  N   UNL     1     -37.824 -50.827  12.525  1.00  0.00    -0.341 N 
ATOM     11  HN  UNL     1     -36.940 -51.275  12.767  1.00  0.00     0.167 HD
HETATM   12  C   UNL     1     -37.851 -49.831  11.610  1.00  0.00     0.183 A 
ENDROOT
BRANCH   6  13
HETATM   13  N   UNL     1     -38.904 -52.231  14.121  1.00  0.00    -0.264 NA
HETATM   14  C   UNL     1     -39.137 -51.801  15.517  1.00  0.00     0.117 C 
HETATM   15  C   UNL     1     -38.824 -52.945  16.512  1.00  0.00     0.140 C 
HETATM   16  N   UNL     1     -39.511 -54.200  16.151  1.00  0.00    -0.349 N 
HETATM   17  C   UNL     1     -39.214 -54.608  14.764  1.00  0.00     0.140 C 
HETATM   18  C   UNL     1     -40.412 -54.770  17.044  1.00  0.00     0.231 C 
HETATM   19  C   UNL     1     -39.594 -53.491  13.758  1.00  0.00     0.117 C 
HETATM   20  O   UNL     1     -40.541 -54.317  18.188  1.00  0.00    -0.272 OA
BRANCH  18  21
HETATM   21  C   UNL     1     -41.260 -55.983  16.659  1.00  0.00     0.206 C 
BRANCH  21  22
HETATM   22  C   UNL     1     -42.417 -55.483  15.810  1.00  0.00    -0.069 C 
BRANCH  22  23
HETATM   23  N   UNL     1     -43.377 -55.067  15.105  1.00  0.00    -0.369 N 
ATOM     24  HN2 UNL     1     -42.573 -55.397  15.639  1.00  0.00     0.165 HD
ATOM     25  HN1 UNL     1     -44.154 -54.731  14.536  1.00  0.00     0.165 HD
ENDBRANCH  22  23
ENDBRANCH  21  22
ENDBRANCH  18  21
ENDBRANCH   6  13
BRANCH   2  26
HETATM   26  C   UNL     1     -41.737 -48.291  10.388  1.00  0.00     0.171 C 
BRANCH  26  27
HETATM   27  C   UNL     1     -41.514 -46.793  10.631  1.00  0.00     0.097 C 
HETATM   28  C   UNL     1     -41.847 -46.283  12.020  1.00  0.00     0.068 C 
HETATM   29  C   UNL     1     -42.215 -44.827  11.783  1.00  0.00     0.170 C 
HETATM   30  O   UNL     1     -42.665 -44.705  10.430  1.00  0.00    -0.388 OA
HETATM   31  C   UNL     1     -42.485 -45.969   9.775  1.00  0.00     0.207 C 
BRANCH  27  32
HETATM   32  O   UNL     1     -40.175 -46.405  10.297  1.00  0.00    -0.386 OA
HETATM   33  H   UNL     1     -39.934 -46.774   9.427  1.00  0.00     0.210 HD
ENDBRANCH  27  32
ENDBRANCH  26  27
ENDBRANCH   2  26
TORSDOF 7
ENDMDL
MODEL 5
REMARK VINA RESULT:      -6.5      4.894      8.315
REMARK  7 active torsions:
REMARK  status: ('A' for Active; 'I' for Inactive)
REMARK    1  A    between atoms: N_2  and  C_15 
REMARK    2  A    between atoms: C_6  and  N_8 
REMARK       I    between atoms: N_9  and  C_14 
REMARK    3  A    between atoms: C_14  and  C_22 
REMARK    4  A    between atoms: C_15  and  C_19 
REMARK    5  A    between atoms: N_16  and  C_20 
REMARK    6  A    between atoms: C_19  and  O_30 
REMARK    7  A    between atoms: C_20  and  C_22 
ROOT
HETATM    1  C   UNL     1     -41.062 -47.421  12.179  1.00  0.00     0.117 A 
HETATM    2  N   UNL     1     -40.693 -45.320  11.672  1.00  0.00    -0.324 N 
HETATM    3  C   UNL     1     -41.253 -46.468  11.187  1.00  0.00     0.140 A 
HETATM    4  N   UNL     1     -40.351 -46.860  13.231  1.00  0.00    -0.346 N 
ATOM      5  HN  UNL     1     -40.041 -47.327  14.084  1.00  0.00     0.167 HD
HETATM    6  C   UNL     1     -41.617 -48.714  11.972  1.00  0.00     0.114 A 
HETATM    7  C   UNL     1     -40.162 -45.604  12.899  1.00  0.00     0.185 A 
HETATM    8  N   UNL     1     -41.876 -46.628  10.008  1.00  0.00    -0.336 N 
ATOM      9  HN  UNL     1     -41.967 -45.904   9.295  1.00  0.00     0.168 HD
HETATM   10  N   UNL     1     -42.284 -48.894  10.789  1.00  0.00    -0.341 N 
ATOM     11  HN  UNL     1     -42.721 -49.792  10.581  1.00  0.00     0.167 HD
HETATM   12  C   UNL     1     -42.363 -47.879   9.897  1.00  0.00     0.183 A 
ENDROOT
BRANCH   6  13
HETATM   13  N   UNL     1     -41.504 -49.815  12.844  1.00  0.00    -0.264 NA
HETATM   14  C   UNL     1     -42.264 -49.743  14.111  1.00  0.00     0.117 C 
HETATM   15  C   UNL     1     -41.894 -50.917  15.050  1.00  0.00     0.140 C 
HETATM   16  N   UNL     1     -41.987 -52.224  14.372  1.00  0.00    -0.349 N 
HETATM   17  C   UNL     1     -41.179 -52.259  13.136  1.00  0.00     0.140 C 
HETATM   18  C   UNL     1     -42.867 -53.187  14.855  1.00  0.00     0.231 C 
HETATM   19  C   UNL     1     -41.597 -51.127  12.162  1.00  0.00     0.117 C 
HETATM   20  O   UNL     1     -43.467 -53.016  15.923  1.00  0.00    -0.272 OA
BRANCH  18  21
HETATM   21  C   UNL     1     -43.111 -54.495  14.102  1.00  0.00     0.206 C 
BRANCH  21  22
HETATM   22  C   UNL     1     -44.612 -54.645  13.918  1.00  0.00    -0.069 C 
BRANCH  22  23
HETATM   23  N   UNL     1     -45.859 -54.768  13.765  1.00  0.00    -0.369 N 
ATOM     24  HN2 UNL     1     -44.847 -54.666  13.842  1.00  0.00     0.165 HD
ATOM     25  HN1 UNL     1     -46.866 -54.868  13.642  1.00  0.00     0.165 HD
ENDBRANCH  22  23
ENDBRANCH  21  22
ENDBRANCH  18  21
ENDBRANCH   6  13
BRANCH   2  26
HETATM   26  C   UNL     1     -40.801 -43.993  11.089  1.00  0.00     0.171 C 
BRANCH  26  27
HETATM   27  C   UNL     1     -42.175 -43.322  11.226  1.00  0.00     0.097 C 
HETATM   28  C   UNL     1     -42.212 -41.821  11.007  1.00  0.00     0.068 C 
HETATM   29  C   UNL     1     -43.396 -41.372  11.847  1.00  0.00     0.170 C 
HETATM   30  O   UNL     1     -43.585 -42.336  12.888  1.00  0.00    -0.388 OA
HETATM   31  C   UNL     1     -42.669 -43.420  12.674  1.00  0.00     0.207 C 
BRANCH  27  32
HETATM   32  O   UNL     1     -43.145 -43.945  10.373  1.00  0.00    -0.386 OA
HETATM   33  H   UNL     1     -43.323 -44.851  10.687  1.00  0.00     0.210 HD
ENDBRANCH  27  32
ENDBRANCH  26  27
ENDBRANCH   2  26
TORSDOF 7
ENDMDL
MODEL 6
REMARK VINA RESULT:      -6.5      4.702      7.442
REMARK  7 active torsions:
REMARK  status: ('A' for Active; 'I' for Inactive)
REMARK    1  A    between atoms: N_2  and  C_15 
REMARK    2  A    between atoms: C_6  and  N_8 
REMARK       I    between atoms: N_9  and  C_14 
REMARK    3  A    between atoms: C_14  and  C_22 
REMARK    4  A    between atoms: C_15  and  C_19 
REMARK    5  A    between atoms: N_16  and  C_20 
REMARK    6  A    between atoms: C_19  and  O_30 
REMARK    7  A    between atoms: C_20  and  C_22 
ROOT
HETATM    1  C   UNL     1     -41.638 -49.681  12.116  1.00  0.00     0.117 A 
HETATM    2  N   UNL     1     -42.306 -47.796  11.216  1.00  0.00    -0.324 N 
HETATM    3  C   UNL     1     -41.202 -48.585  11.382  1.00  0.00     0.140 A 
HETATM    4  N   UNL     1     -42.982 -49.527  12.428  1.00  0.00    -0.346 N 
ATOM      5  HN  UNL     1     -43.563 -50.158  12.980  1.00  0.00     0.167 HD
HETATM    6  C   UNL     1     -40.700 -50.718  12.379  1.00  0.00     0.114 A 
HETATM    7  C   UNL     1     -43.348 -48.399  11.862  1.00  0.00     0.185 A 
HETATM    8  N   UNL     1     -39.966 -48.355  10.912  1.00  0.00    -0.336 N 
ATOM      9  HN  UNL     1     -39.685 -47.519  10.400  1.00  0.00     0.168 HD
HETATM   10  N   UNL     1     -39.439 -50.520  11.884  1.00  0.00    -0.341 N 
ATOM     11  HN  UNL     1     -38.720 -51.231  12.021  1.00  0.00     0.167 HD
HETATM   12  C   UNL     1     -39.148 -49.383  11.211  1.00  0.00     0.183 A 
ENDROOT
BRANCH   6  13
HETATM   13  N   UNL     1     -40.944 -51.887  13.128  1.00  0.00    -0.264 NA
HETATM   14  C   UNL     1     -41.313 -51.703  14.549  1.00  0.00     0.117 C 
HETATM   15  C   UNL     1     -41.356 -53.060  15.293  1.00  0.00     0.140 C 
HETATM   16  N   UNL     1     -42.182 -54.057  14.586  1.00  0.00    -0.349 N 
HETATM   17  C   UNL     1     -41.748 -54.234  13.186  1.00  0.00     0.140 C 
HETATM   18  C   UNL     1     -43.294 -54.601  15.220  1.00  0.00     0.231 C 
HETATM   19  C   UNL     1     -41.773 -52.888  12.417  1.00  0.00     0.117 C 
HETATM   20  O   UNL     1     -43.519 -54.367  16.413  1.00  0.00    -0.272 OA
BRANCH  18  21
HETATM   21  C   UNL     1     -44.265 -55.521  14.479  1.00  0.00     0.206 C 
BRANCH  21  22
HETATM   22  C   UNL     1     -45.521 -54.718  14.181  1.00  0.00    -0.069 C 
BRANCH  22  23
HETATM   23  N   UNL     1     -46.563 -54.052  13.934  1.00  0.00    -0.369 N 
ATOM     24  HN2 UNL     1     -45.745 -54.629  14.127  1.00  0.00     0.165 HD
ATOM     25  HN1 UNL     1     -47.405 -53.513  13.734  1.00  0.00     0.165 HD
ENDBRANCH  22  23
ENDBRANCH  21  22
ENDBRANCH  18  21
ENDBRANCH   6  13
BRANCH   2  26
HETATM   26  C   UNL     1     -42.412 -46.630  10.355  1.00  0.00     0.171 C 
BRANCH  26  27
HETATM   27  C   UNL     1     -43.498 -46.704   9.273  1.00  0.00     0.097 C 
HETATM   28  C   UNL     1     -44.854 -47.217   9.720  1.00  0.00     0.068 C 
HETATM   29  C   UNL     1     -45.433 -47.830   8.455  1.00  0.00     0.170 C 
HETATM   30  O   UNL     1     -44.340 -48.204   7.610  1.00  0.00    -0.388 OA
HETATM   31  C   UNL     1     -43.121 -47.751   8.218  1.00  0.00     0.207 C 
BRANCH  27  32
HETATM   32  O   UNL     1     -43.667 -45.441   8.618  1.00  0.00    -0.386 OA
HETATM   33  H   UNL     1     -43.222 -45.459   7.751  1.00  0.00     0.210 HD
ENDBRANCH  27  32
ENDBRANCH  26  27
ENDBRANCH   2  26
TORSDOF 7
ENDMDL
MODEL 7
REMARK VINA RESULT:      -6.5      4.207      8.070
REMARK  7 active torsions:
REMARK  status: ('A' for Active; 'I' for Inactive)
REMARK    1  A    between atoms: N_2  and  C_15 
REMARK    2  A    between atoms: C_6  and  N_8 
REMARK       I    between atoms: N_9  and  C_14 
REMARK    3  A    between atoms: C_14  and  C_22 
REMARK    4  A    between atoms: C_15  and  C_19 
REMARK    5  A    between atoms: N_16  and  C_20 
REMARK    6  A    between atoms: C_19  and  O_30 
REMARK    7  A    between atoms: C_20  and  C_22 
ROOT
HETATM    1  C   UNL     1     -41.091 -49.808  12.116  1.00  0.00     0.117 A 
HETATM    2  N   UNL     1     -41.451 -47.855  11.187  1.00  0.00    -0.324 N 
HETATM    3  C   UNL     1     -40.456 -48.742  11.491  1.00  0.00     0.140 A 
HETATM    4  N   UNL     1     -42.448 -49.540  12.229  1.00  0.00    -0.346 N 
ATOM      5  HN  UNL     1     -43.158 -50.127  12.668  1.00  0.00     0.167 HD
HETATM    6  C   UNL     1     -40.296 -50.930  12.482  1.00  0.00     0.114 A 
HETATM    7  C   UNL     1     -42.626 -48.374  11.651  1.00  0.00     0.185 A 
HETATM    8  N   UNL     1     -39.148 -48.615  11.218  1.00  0.00    -0.336 N 
ATOM      9  HN  UNL     1     -38.722 -47.798  10.780  1.00  0.00     0.168 HD
HETATM   10  N   UNL     1     -38.962 -50.837  12.187  1.00  0.00    -0.341 N 
ATOM     11  HN  UNL     1     -38.335 -51.611  12.407  1.00  0.00     0.167 HD
HETATM   12  C   UNL     1     -38.476 -49.717  11.602  1.00  0.00     0.183 A 
ENDROOT
BRANCH   6  13
HETATM   13  N   UNL     1     -40.749 -52.086  13.149  1.00  0.00    -0.264 NA
HETATM   14  C   UNL     1     -41.129 -51.930  14.570  1.00  0.00     0.117 C 
HETATM   15  C   UNL     1     -41.415 -53.304  15.224  1.00  0.00     0.140 C 
HETATM   16  N   UNL     1     -42.368 -54.108  14.436  1.00  0.00    -0.349 N 
HETATM   17  C   UNL     1     -41.924 -54.269  13.037  1.00  0.00     0.140 C 
HETATM   18  C   UNL     1     -43.573 -54.500  15.009  1.00  0.00     0.231 C 
HETATM   19  C   UNL     1     -41.707 -52.893  12.356  1.00  0.00     0.117 C 
HETATM   20  O   UNL     1     -43.796 -54.305  16.210  1.00  0.00    -0.272 OA
BRANCH  18  21
HETATM   21  C   UNL     1     -44.657 -55.203  14.190  1.00  0.00     0.206 C 
BRANCH  21  22
HETATM   22  C   UNL     1     -45.612 -54.135  13.682  1.00  0.00    -0.069 C 
BRANCH  22  23
HETATM   23  N   UNL     1     -46.405 -53.249  13.261  1.00  0.00    -0.369 N 
ATOM     24  HN2 UNL     1     -45.794 -53.998  13.586  1.00  0.00     0.165 HD
ATOM     25  HN1 UNL     1     -47.044 -52.531  12.920  1.00  0.00     0.165 HD
ENDBRANCH  22  23
ENDBRANCH  21  22
ENDBRANCH  18  21
ENDBRANCH   6  13
BRANCH   2  26
HETATM   26  C   UNL     1     -41.325 -46.668  10.357  1.00  0.00     0.171 C 
BRANCH  26  27
HETATM   27  C   UNL     1     -41.215 -45.339  11.118  1.00  0.00     0.097 C 
HETATM   28  C   UNL     1     -42.433 -44.436  11.067  1.00  0.00     0.068 C 
HETATM   29  C   UNL     1     -41.846 -43.044  11.237  1.00  0.00     0.170 C 
HETATM   30  O   UNL     1     -40.487 -43.084  10.788  1.00  0.00    -0.388 OA
HETATM   31  C   UNL     1     -40.156 -44.443  10.464  1.00  0.00     0.207 C 
BRANCH  27  32
HETATM   32  O   UNL     1     -40.845 -45.553  12.486  1.00  0.00    -0.386 OA
HETATM   33  H   UNL     1     -41.502 -46.132  12.917  1.00  0.00     0.210 HD
ENDBRANCH  27  32
ENDBRANCH  26  27
ENDBRANCH   2  26
TORSDOF 7
ENDMDL
MODEL 8
REMARK VINA RESULT:      -6.5      5.949      8.369
REMARK  7 active torsions:
REMARK  status: ('A' for Active; 'I' for Inactive)
REMARK    1  A    between atoms: N_2  and  C_15 
REMARK    2  A    between atoms: C_6  and  N_8 
REMARK       I    between atoms: N_9  and  C_14 
REMARK    3  A    between atoms: C_14  and  C_22 
REMARK    4  A    between atoms: C_15  and  C_19 
REMARK    5  A    between atoms: N_16  and  C_20 
REMARK    6  A    between atoms: C_19  and  O_30 
REMARK    7  A    between atoms: C_20  and  C_22 
ROOT
HETATM    1  C   UNL     1     -41.395 -46.280  11.680  1.00  0.00     0.117 A 
HETATM    2  N   UNL     1     -41.966 -44.230  12.208  1.00  0.00    -0.324 N 
HETATM    3  C   UNL     1     -42.163 -45.200  11.266  1.00  0.00     0.140 A 
HETATM    4  N   UNL     1     -40.705 -45.944  12.836  1.00  0.00    -0.346 N 
ATOM      5  HN  UNL     1     -40.044 -46.525  13.351  1.00  0.00     0.167 HD
HETATM    6  C   UNL     1     -41.466 -47.477  10.914  1.00  0.00     0.114 A 
HETATM    7  C   UNL     1     -41.082 -44.719  13.128  1.00  0.00     0.185 A 
HETATM    8  N   UNL     1     -42.954 -45.126  10.183  1.00  0.00    -0.336 N 
ATOM      9  HN  UNL     1     -43.480 -44.298   9.902  1.00  0.00     0.168 HD
HETATM   10  N   UNL     1     -42.289 -47.436   9.821  1.00  0.00    -0.341 N 
ATOM     11  HN  UNL     1     -42.401 -48.264   9.234  1.00  0.00     0.167 HD
HETATM   12  C   UNL     1     -42.956 -46.298   9.519  1.00  0.00     0.183 A 
ENDROOT
BRANCH   6  13
HETATM   13  N   UNL     1     -40.741 -48.661  11.156  1.00  0.00    -0.264 NA
HETATM   14  C   UNL     1     -39.338 -48.506  11.597  1.00  0.00     0.117 C 
HETATM   15  C   UNL     1     -38.611 -49.872  11.632  1.00  0.00     0.140 C 
HETATM   16  N   UNL     1     -39.366 -50.885  12.393  1.00  0.00    -0.349 N 
HETATM   17  C   UNL     1     -40.746 -51.033  11.889  1.00  0.00     0.140 C 
HETATM   18  C   UNL     1     -38.791 -51.471  13.516  1.00  0.00     0.231 C 
HETATM   19  C   UNL     1     -41.501 -49.678  11.919  1.00  0.00     0.117 C 
HETATM   20  O   UNL     1     -37.607 -51.258  13.804  1.00  0.00    -0.272 OA
BRANCH  18  21
HETATM   21  C   UNL     1     -39.587 -52.411  14.422  1.00  0.00     0.206 C 
BRANCH  21  22
HETATM   22  C   UNL     1     -39.208 -53.836  14.051  1.00  0.00    -0.069 C 
BRANCH  22  23
HETATM   23  N   UNL     1     -38.894 -55.018  13.743  1.00  0.00    -0.369 N 
ATOM     24  HN2 UNL     1     -39.187 -54.068  13.970  1.00  0.00     0.165 HD
ATOM     25  HN1 UNL     1     -38.640 -55.974  13.495  1.00  0.00     0.165 HD
ENDBRANCH  22  23
ENDBRANCH  21  22
ENDBRANCH  18  21
ENDBRANCH   6  13
BRANCH   2  26
HETATM   26  C   UNL     1     -42.698 -42.980  12.327  1.00  0.00     0.171 C 
BRANCH  26  27
HETATM   27  C   UNL     1     -42.084 -41.782  11.590  1.00  0.00     0.097 C 
HETATM   28  C   UNL     1     -40.843 -41.175  12.216  1.00  0.00     0.068 C 
HETATM   29  C   UNL     1     -40.891 -39.726  11.759  1.00  0.00     0.170 C 
HETATM   30  O   UNL     1     -42.258 -39.399  11.486  1.00  0.00    -0.388 OA
HETATM   31  C   UNL     1     -43.047 -40.589  11.627  1.00  0.00     0.207 C 
BRANCH  27  32
HETATM   32  O   UNL     1     -41.810 -42.101  10.219  1.00  0.00    -0.386 OA
HETATM   33  H   UNL     1     -41.231 -42.885  10.174  1.00  0.00     0.210 HD
ENDBRANCH  27  32
ENDBRANCH  26  27
ENDBRANCH   2  26
TORSDOF 7
ENDMDL
MODEL 9
REMARK VINA RESULT:      -6.4      3.823      4.366
REMARK  7 active torsions:
REMARK  status: ('A' for Active; 'I' for Inactive)
REMARK    1  A    between atoms: N_2  and  C_15 
REMARK    2  A    between atoms: C_6  and  N_8 
REMARK       I    between atoms: N_9  and  C_14 
REMARK    3  A    between atoms: C_14  and  C_22 
REMARK    4  A    between atoms: C_15  and  C_19 
REMARK    5  A    between atoms: N_16  and  C_20 
REMARK    6  A    between atoms: C_19  and  O_30 
REMARK    7  A    between atoms: C_20  and  C_22 
ROOT
HETATM    1  C   UNL     1     -41.504 -54.152  14.832  1.00  0.00     0.117 A 
HETATM    2  N   UNL     1     -43.398 -54.084  13.729  1.00  0.00    -0.324 N 
HETATM    3  C   UNL     1     -42.154 -53.519  13.780  1.00  0.00     0.140 A 
HETATM    4  N   UNL     1     -42.368 -55.055  15.437  1.00  0.00    -0.346 N 
ATOM      5  HN  UNL     1     -42.177 -55.641  16.250  1.00  0.00     0.167 HD
HETATM    6  C   UNL     1     -40.145 -53.809  15.074  1.00  0.00     0.114 A 
HETATM    7  C   UNL     1     -43.482 -54.996  14.743  1.00  0.00     0.185 A 
HETATM    8  N   UNL     1     -41.662 -52.571  12.967  1.00  0.00    -0.336 N 
ATOM      9  HN  UNL     1     -42.188 -52.114  12.223  1.00  0.00     0.168 HD
HETATM   10  N   UNL     1     -39.611 -52.866  14.237  1.00  0.00    -0.341 N 
ATOM     11  HN  UNL     1     -38.636 -52.583  14.343  1.00  0.00     0.167 HD
HETATM   12  C   UNL     1     -40.376 -52.308  13.271  1.00  0.00     0.183 A 
ENDROOT
BRANCH   6  13
HETATM   13  N   UNL     1     -39.332 -54.317  16.107  1.00  0.00    -0.264 NA
HETATM   14  C   UNL     1     -38.528 -55.519  15.793  1.00  0.00     0.117 C 
HETATM   15  C   UNL     1     -37.843 -56.079  17.063  1.00  0.00     0.140 C 
HETATM   16  N   UNL     1     -37.100 -55.039  17.800  1.00  0.00    -0.349 N 
HETATM   17  C   UNL     1     -37.956 -53.880  18.126  1.00  0.00     0.140 C 
HETATM   18  C   UNL     1     -35.729 -55.179  17.990  1.00  0.00     0.231 C 
HETATM   19  C   UNL     1     -38.586 -53.272  16.846  1.00  0.00     0.117 C 
HETATM   20  O   UNL     1     -35.151 -56.225  17.674  1.00  0.00    -0.272 OA
BRANCH  18  21
HETATM   21  C   UNL     1     -34.890 -54.062  18.612  1.00  0.00     0.206 C 
BRANCH  21  22
HETATM   22  C   UNL     1     -33.491 -54.157  18.025  1.00  0.00    -0.069 C 
BRANCH  22  23
HETATM   23  N   UNL     1     -32.330 -54.236  17.539  1.00  0.00    -0.369 N 
ATOM     24  HN2 UNL     1     -33.285 -54.198  17.897  1.00  0.00     0.165 HD
ATOM     25  HN1 UNL     1     -31.391 -54.300  17.147  1.00  0.00     0.165 HD
ENDBRANCH  22  23
ENDBRANCH  21  22
ENDBRANCH  18  21
ENDBRANCH   6  13
BRANCH   2  26
HETATM   26  C   UNL     1     -44.388 -53.897  12.682  1.00  0.00     0.171 C 
BRANCH  26  27
HETATM   27  C   UNL     1     -45.591 -53.022  13.059  1.00  0.00     0.097 C 
HETATM   28  C   UNL     1     -45.271 -51.667  13.661  1.00  0.00     0.068 C 
HETATM   29  C   UNL     1     -46.482 -51.373  14.531  1.00  0.00     0.170 C 
HETATM   30  O   UNL     1     -47.075 -52.624  14.893  1.00  0.00    -0.388 OA
HETATM   31  C   UNL     1     -46.379 -53.673  14.202  1.00  0.00     0.207 C 
BRANCH  27  32
HETATM   32  O   UNL     1     -46.474 -52.843  11.944  1.00  0.00    -0.386 OA
HETATM   33  H   UNL     1     -46.262 -53.495  11.250  1.00  0.00     0.210 HD
ENDBRANCH  27  32
ENDBRANCH  26  27
ENDBRANCH   2  26
TORSDOF 7
ENDMDL
