MODEL 1
REMARK VINA RESULT:      -5.8      0.000      0.000
REMARK  5 active torsions:
REMARK  status: ('A' for Active; 'I' for Inactive)
REMARK    1  A    between atoms: C_2  and  C_3 
REMARK       I    between atoms: C_2  and  N_12 
REMARK    2  A    between atoms: C_3  and  N_4 
REMARK    3  A    between atoms: N_12  and  C_13 
REMARK    4  A    between atoms: C_13  and  C_14 
REMARK    5  A    between atoms: C_14  and  N_15 
ROOT
HETATM    1  O   UNL     1     -43.227 -47.520  12.109  1.00  0.00    -0.272 OA
HETATM    2  C   UNL     1     -42.878 -47.583  10.933  1.00  0.00     0.236 C 
HETATM    3  N   UNL     1     -41.913 -48.462  10.483  1.00  0.00    -0.358 N 
HETATM    4  H   UNL     1     -41.509 -48.304   9.566  1.00  0.00     0.162 HD
ENDROOT
BRANCH   2   5
HETATM    5  C   UNL     1     -43.496 -46.701   9.843  1.00  0.00     0.235 C 
BRANCH   5   6
HETATM    6  N   UNL     1     -44.460 -47.423   9.015  1.00  0.00    -0.301 N 
HETATM    7  C   UNL     1     -45.746 -47.627   9.472  1.00  0.00     0.102 A 
HETATM    8  C   UNL     1     -46.632 -48.347   8.781  1.00  0.00     0.092 A 
HETATM    9  C   UNL     1     -46.225 -48.934   7.495  1.00  0.00     0.250 A 
HETATM   10  O   UNL     1     -46.980 -49.659   6.860  1.00  0.00    -0.268 OA
HETATM   11  N   UNL     1     -44.963 -48.621   7.076  1.00  0.00    -0.275 N 
HETATM   12  C   UNL     1     -44.037 -47.898   7.780  1.00  0.00     0.329 A 
HETATM   13  H   UNL     1     -44.665 -49.011   6.194  1.00  0.00     0.173 HD
HETATM   14  O   UNL     1     -42.907 -47.712   7.333  1.00  0.00    -0.246 OA
ENDBRANCH   5   6
ENDBRANCH   2   5
BRANCH   3  15
HETATM   15  C   UNL     1     -41.209 -49.359  11.385  1.00  0.00     0.143 C 
BRANCH  15  16
HETATM   16  C   UNL     1     -39.747 -48.944  11.626  1.00  0.00     0.155 C 
BRANCH  16  17
HETATM   17  N   UNL     1     -39.630 -47.884  12.621  1.00  0.00    -0.277 N 
HETATM   18  C   UNL     1     -39.672 -46.558  12.258  1.00  0.00     0.236 C 
HETATM   19  O   UNL     1     -39.795 -46.154  11.107  1.00  0.00    -0.272 OA
HETATM   20  C   UNL     1     -39.538 -45.635  13.438  1.00  0.00     0.187 C 
HETATM   21  S   UNL     1     -39.316 -46.694  14.877  1.00  0.00    -0.059 SA
HETATM   22  C   UNL     1     -39.319 -48.158  13.922  1.00  0.00     0.289 C 
HETATM   23  O   UNL     1     -39.039 -49.244  14.401  1.00  0.00    -0.260 OA
ENDBRANCH  16  17
ENDBRANCH  15  16
ENDBRANCH   3  15
TORSDOF 5
ENDMDL
MODEL 2
REMARK VINA RESULT:      -5.6      5.508      6.624
REMARK  5 active torsions:
REMARK  status: ('A' for Active; 'I' for Inactive)
REMARK    1  A    between atoms: C_2  and  C_3 
REMARK       I    between atoms: C_2  and  N_12 
REMARK    2  A    between atoms: C_3  and  N_4 
REMARK    3  A    between atoms: N_12  and  C_13 
REMARK    4  A    between atoms: C_13  and  C_14 
REMARK    5  A    between atoms: C_14  and  N_15 
ROOT
HETATM    1  O   UNL     1     -42.636 -54.595  14.399  1.00  0.00    -0.272 OA
HETATM    2  C   UNL     1     -42.864 -54.109  13.294  1.00  0.00     0.236 C 
HETATM    3  N   UNL     1     -41.877 -53.573  12.492  1.00  0.00    -0.358 N 
HETATM    4  H   UNL     1     -42.157 -52.986  11.712  1.00  0.00     0.162 HD
ENDROOT
BRANCH   2   5
HETATM    5  C   UNL     1     -44.271 -54.069  12.687  1.00  0.00     0.235 C 
BRANCH   5   6
HETATM    6  N   UNL     1     -45.223 -53.342  13.524  1.00  0.00    -0.301 N 
HETATM    7  C   UNL     1     -45.246 -51.963  13.504  1.00  0.00     0.102 A 
HETATM    8  C   UNL     1     -46.047 -51.261  14.309  1.00  0.00     0.092 A 
HETATM    9  C   UNL     1     -46.931 -51.982  15.239  1.00  0.00     0.250 A 
HETATM   10  O   UNL     1     -47.630 -51.382  16.045  1.00  0.00    -0.268 OA
HETATM   11  N   UNL     1     -46.905 -53.345  15.142  1.00  0.00    -0.275 N 
HETATM   12  C   UNL     1     -46.078 -54.078  14.333  1.00  0.00     0.329 A 
HETATM   13  H   UNL     1     -47.506 -53.858  15.769  1.00  0.00     0.173 HD
HETATM   14  O   UNL     1     -46.100 -55.307  14.356  1.00  0.00    -0.246 OA
ENDBRANCH   5   6
ENDBRANCH   2   5
BRANCH   3  15
HETATM   15  C   UNL     1     -40.488 -53.511  12.919  1.00  0.00     0.143 C 
BRANCH  15  16
HETATM   16  C   UNL     1     -40.173 -52.262  13.760  1.00  0.00     0.155 C 
BRANCH  16  17
HETATM   17  N   UNL     1     -39.778 -51.125  12.936  1.00  0.00    -0.277 N 
HETATM   18  C   UNL     1     -40.717 -50.327  12.326  1.00  0.00     0.236 C 
HETATM   19  O   UNL     1     -41.929 -50.494  12.403  1.00  0.00    -0.272 OA
HETATM   20  C   UNL     1     -40.094 -49.212  11.531  1.00  0.00     0.187 C 
HETATM   21  S   UNL     1     -38.313 -49.433  11.673  1.00  0.00    -0.059 SA
HETATM   22  C   UNL     1     -38.471 -50.901  12.610  1.00  0.00     0.289 C 
HETATM   23  O   UNL     1     -37.512 -51.605  12.876  1.00  0.00    -0.260 OA
ENDBRANCH  16  17
ENDBRANCH  15  16
ENDBRANCH   3  15
TORSDOF 5
ENDMDL
MODEL 3
REMARK VINA RESULT:      -5.6      5.254      6.428
REMARK  5 active torsions:
REMARK  status: ('A' for Active; 'I' for Inactive)
REMARK    1  A    between atoms: C_2  and  C_3 
REMARK       I    between atoms: C_2  and  N_12 
REMARK    2  A    between atoms: C_3  and  N_4 
REMARK    3  A    between atoms: N_12  and  C_13 
REMARK    4  A    between atoms: C_13  and  C_14 
REMARK    5  A    between atoms: C_14  and  N_15 
ROOT
HETATM    1  O   UNL     1     -42.274 -54.042  13.615  1.00  0.00    -0.272 OA
HETATM    2  C   UNL     1     -42.995 -53.551  12.749  1.00  0.00     0.236 C 
HETATM    3  N   UNL     1     -42.554 -52.594  11.859  1.00  0.00    -0.358 N 
HETATM    4  H   UNL     1     -43.247 -52.068  11.336  1.00  0.00     0.162 HD
ENDROOT
BRANCH   2   5
HETATM    5  C   UNL     1     -44.458 -53.971  12.563  1.00  0.00     0.235 C 
BRANCH   5   6
HETATM    6  N   UNL     1     -45.359 -53.300  13.499  1.00  0.00    -0.301 N 
HETATM    7  C   UNL     1     -45.905 -52.076  13.173  1.00  0.00     0.102 A 
HETATM    8  C   UNL     1     -46.670 -51.397  14.030  1.00  0.00     0.092 A 
HETATM    9  C   UNL     1     -46.938 -51.975  15.357  1.00  0.00     0.250 A 
HETATM   10  O   UNL     1     -47.575 -51.358  16.202  1.00  0.00    -0.268 OA
HETATM   11  N   UNL     1     -46.427 -53.223  15.572  1.00  0.00    -0.275 N 
HETATM   12  C   UNL     1     -45.628 -53.925  14.709  1.00  0.00     0.329 A 
HETATM   13  H   UNL     1     -46.603 -53.639  16.474  1.00  0.00     0.173 HD
HETATM   14  O   UNL     1     -45.178 -55.026  15.019  1.00  0.00    -0.246 OA
ENDBRANCH   5   6
ENDBRANCH   2   5
BRANCH   3  15
HETATM   15  C   UNL     1     -41.200 -52.067  11.905  1.00  0.00     0.143 C 
BRANCH  15  16
HETATM   16  C   UNL     1     -41.063 -50.840  12.823  1.00  0.00     0.155 C 
BRANCH  16  17
HETATM   17  N   UNL     1     -41.461 -49.605  12.159  1.00  0.00    -0.277 N 
HETATM   18  C   UNL     1     -40.530 -48.776  11.578  1.00  0.00     0.236 C 
HETATM   19  O   UNL     1     -39.322 -48.983  11.571  1.00  0.00    -0.272 OA
HETATM   20  C   UNL     1     -41.156 -47.563  10.946  1.00  0.00     0.187 C 
HETATM   21  S   UNL     1     -42.921 -47.682  11.278  1.00  0.00    -0.059 SA
HETATM   22  C   UNL     1     -42.744 -49.142  12.223  1.00  0.00     0.289 C 
HETATM   23  O   UNL     1     -43.670 -49.617  12.859  1.00  0.00    -0.260 OA
ENDBRANCH  16  17
ENDBRANCH  15  16
ENDBRANCH   3  15
TORSDOF 5
ENDMDL
MODEL 4
REMARK VINA RESULT:      -5.6      3.585      4.961
REMARK  5 active torsions:
REMARK  status: ('A' for Active; 'I' for Inactive)
REMARK    1  A    between atoms: C_2  and  C_3 
REMARK       I    between atoms: C_2  and  N_12 
REMARK    2  A    between atoms: C_3  and  N_4 
REMARK    3  A    between atoms: N_12  and  C_13 
REMARK    4  A    between atoms: C_13  and  C_14 
REMARK    5  A    between atoms: C_14  and  N_15 
ROOT
HETATM    1  O   UNL     1     -42.949 -47.732  13.272  1.00  0.00    -0.272 OA
HETATM    2  C   UNL     1     -42.683 -48.640  12.487  1.00  0.00     0.236 C 
HETATM    3  N   UNL     1     -42.975 -48.577  11.140  1.00  0.00    -0.358 N 
HETATM    4  H   UNL     1     -42.947 -49.437  10.601  1.00  0.00     0.162 HD
ENDROOT
BRANCH   2   5
HETATM    5  C   UNL     1     -41.981 -49.929  12.929  1.00  0.00     0.235 C 
BRANCH   5   6
HETATM    6  N   UNL     1     -42.837 -51.108  12.800  1.00  0.00    -0.301 N 
HETATM    7  C   UNL     1     -44.121 -51.085  13.303  1.00  0.00     0.102 A 
HETATM    8  C   UNL     1     -44.907 -52.164  13.274  1.00  0.00     0.092 A 
HETATM    9  C   UNL     1     -44.385 -53.409  12.686  1.00  0.00     0.250 A 
HETATM   10  O   UNL     1     -45.042 -54.442  12.702  1.00  0.00    -0.268 OA
HETATM   11  N   UNL     1     -43.135 -53.327  12.141  1.00  0.00    -0.275 N 
HETATM   12  C   UNL     1     -42.312 -52.232  12.177  1.00  0.00     0.329 A 
HETATM   13  H   UNL     1     -42.760 -54.168  11.730  1.00  0.00     0.173 HD
HETATM   14  O   UNL     1     -41.181 -52.277  11.697  1.00  0.00    -0.246 OA
ENDBRANCH   5   6
ENDBRANCH   2   5
BRANCH   3  15
HETATM   15  C   UNL     1     -43.657 -47.435  10.553  1.00  0.00     0.143 C 
BRANCH  15  16
HETATM   16  C   UNL     1     -42.727 -46.548   9.709  1.00  0.00     0.155 C 
BRANCH  16  17
HETATM   17  N   UNL     1     -42.051 -45.534  10.510  1.00  0.00    -0.277 N 
HETATM   18  C   UNL     1     -42.521 -44.243  10.570  1.00  0.00     0.236 C 
HETATM   19  O   UNL     1     -43.508 -43.832   9.970  1.00  0.00    -0.272 OA
HETATM   20  C   UNL     1     -41.680 -43.365  11.456  1.00  0.00     0.187 C 
HETATM   21  S   UNL     1     -40.329 -44.400  12.043  1.00  0.00    -0.059 SA
HETATM   22  C   UNL     1     -40.847 -45.780  11.103  1.00  0.00     0.289 C 
HETATM   23  O   UNL     1     -40.165 -46.786  11.001  1.00  0.00    -0.260 OA
ENDBRANCH  16  17
ENDBRANCH  15  16
ENDBRANCH   3  15
TORSDOF 5
ENDMDL
MODEL 5
REMARK VINA RESULT:      -5.5      5.845      6.947
REMARK  5 active torsions:
REMARK  status: ('A' for Active; 'I' for Inactive)
REMARK    1  A    between atoms: C_2  and  C_3 
REMARK       I    between atoms: C_2  and  N_12 
REMARK    2  A    between atoms: C_3  and  N_4 
REMARK    3  A    between atoms: N_12  and  C_13 
REMARK    4  A    between atoms: C_13  and  C_14 
REMARK    5  A    between atoms: C_14  and  N_15 
ROOT
HETATM    1  O   UNL     1     -42.463 -53.567  17.304  1.00  0.00    -0.272 OA
HETATM    2  C   UNL     1     -43.114 -53.861  16.304  1.00  0.00     0.236 C 
HETATM    3  N   UNL     1     -42.529 -54.222  15.108  1.00  0.00    -0.358 N 
HETATM    4  H   UNL     1     -43.104 -54.222  14.271  1.00  0.00     0.162 HD
ENDROOT
BRANCH   2   5
HETATM    5  C   UNL     1     -44.646 -53.874  16.295  1.00  0.00     0.235 C 
BRANCH   5   6
HETATM    6  N   UNL     1     -45.206 -53.300  15.073  1.00  0.00    -0.301 N 
HETATM    7  C   UNL     1     -45.355 -51.933  14.958  1.00  0.00     0.102 A 
HETATM    8  C   UNL     1     -45.931 -51.375  13.892  1.00  0.00     0.092 A 
HETATM    9  C   UNL     1     -46.418 -52.246  12.809  1.00  0.00     0.250 A 
HETATM   10  O   UNL     1     -47.016 -51.785  11.845  1.00  0.00    -0.268 OA
HETATM   11  N   UNL     1     -46.163 -53.579  12.963  1.00  0.00    -0.275 N 
HETATM   12  C   UNL     1     -45.587 -54.167  14.057  1.00  0.00     0.329 A 
HETATM   13  H   UNL     1     -46.485 -54.192  12.229  1.00  0.00     0.173 HD
HETATM   14  O   UNL     1     -45.445 -55.387  14.117  1.00  0.00    -0.246 OA
ENDBRANCH   5   6
ENDBRANCH   2   5
BRANCH   3  15
HETATM   15  C   UNL     1     -41.085 -54.245  14.933  1.00  0.00     0.143 C 
BRANCH  15  16
HETATM   16  C   UNL     1     -40.653 -54.015  13.474  1.00  0.00     0.155 C 
BRANCH  16  17
HETATM   17  N   UNL     1     -40.743 -52.613  13.084  1.00  0.00    -0.277 N 
HETATM   18  C   UNL     1     -41.900 -52.094  12.553  1.00  0.00     0.236 C 
HETATM   19  O   UNL     1     -42.924 -52.738  12.352  1.00  0.00    -0.272 OA
HETATM   20  C   UNL     1     -41.778 -50.631  12.227  1.00  0.00     0.187 C 
HETATM   21  S   UNL     1     -40.086 -50.170  12.633  1.00  0.00    -0.059 SA
HETATM   22  C   UNL     1     -39.646 -51.801  13.084  1.00  0.00     0.289 C 
HETATM   23  O   UNL     1     -38.492 -52.117  13.320  1.00  0.00    -0.260 OA
ENDBRANCH  16  17
ENDBRANCH  15  16
ENDBRANCH   3  15
TORSDOF 5
ENDMDL
MODEL 6
REMARK VINA RESULT:      -5.5      4.775      6.438
REMARK  5 active torsions:
REMARK  status: ('A' for Active; 'I' for Inactive)
REMARK    1  A    between atoms: C_2  and  C_3 
REMARK       I    between atoms: C_2  and  N_12 
REMARK    2  A    between atoms: C_3  and  N_4 
REMARK    3  A    between atoms: N_12  and  C_13 
REMARK    4  A    between atoms: C_13  and  C_14 
REMARK    5  A    between atoms: C_14  and  N_15 
ROOT
HETATM    1  O   UNL     1     -41.393 -51.313  13.718  1.00  0.00    -0.272 OA
HETATM    2  C   UNL     1     -41.146 -51.983  12.718  1.00  0.00     0.236 C 
HETATM    3  N   UNL     1     -40.666 -51.435  11.547  1.00  0.00    -0.358 N 
HETATM    4  H   UNL     1     -40.707 -51.994  10.701  1.00  0.00     0.162 HD
ENDROOT
BRANCH   2   5
HETATM    5  C   UNL     1     -41.331 -53.505  12.681  1.00  0.00     0.235 C 
BRANCH   5   6
HETATM    6  N   UNL     1     -42.609 -53.929  13.251  1.00  0.00    -0.301 N 
HETATM    7  C   UNL     1     -43.783 -53.684  12.570  1.00  0.00     0.102 A 
HETATM    8  C   UNL     1     -44.974 -53.987  13.090  1.00  0.00     0.092 A 
HETATM    9  C   UNL     1     -45.032 -54.602  14.426  1.00  0.00     0.250 A 
HETATM   10  O   UNL     1     -46.103 -54.833  14.973  1.00  0.00    -0.268 OA
HETATM   11  N   UNL     1     -43.824 -54.884  14.999  1.00  0.00    -0.275 N 
HETATM   12  C   UNL     1     -42.596 -54.566  14.485  1.00  0.00     0.329 A 
HETATM   13  H   UNL     1     -43.842 -55.310  15.914  1.00  0.00     0.173 HD
HETATM   14  O   UNL     1     -41.566 -54.821  15.106  1.00  0.00    -0.246 OA
ENDBRANCH   5   6
ENDBRANCH   2   5
BRANCH   3  15
HETATM   15  C   UNL     1     -40.450 -50.004  11.399  1.00  0.00     0.143 C 
BRANCH  15  16
HETATM   16  C   UNL     1     -38.960 -49.622  11.368  1.00  0.00     0.155 C 
BRANCH  16  17
HETATM   17  N   UNL     1     -38.392 -49.499  12.706  1.00  0.00    -0.277 N 
HETATM   18  C   UNL     1     -37.795 -50.571  13.327  1.00  0.00     0.236 C 
HETATM   19  O   UNL     1     -37.695 -51.692  12.840  1.00  0.00    -0.272 OA
HETATM   20  C   UNL     1     -37.274 -50.225  14.695  1.00  0.00     0.187 C 
HETATM   21  S   UNL     1     -37.718 -48.503  14.977  1.00  0.00    -0.059 SA
HETATM   22  C   UNL     1     -38.568 -48.371  13.455  1.00  0.00     0.289 C 
HETATM   23  O   UNL     1     -39.239 -47.393  13.171  1.00  0.00    -0.260 OA
ENDBRANCH  16  17
ENDBRANCH  15  16
ENDBRANCH   3  15
TORSDOF 5
ENDMDL
MODEL 7
REMARK VINA RESULT:      -5.4      6.214      7.535
REMARK  5 active torsions:
REMARK  status: ('A' for Active; 'I' for Inactive)
REMARK    1  A    between atoms: C_2  and  C_3 
REMARK       I    between atoms: C_2  and  N_12 
REMARK    2  A    between atoms: C_3  and  N_4 
REMARK    3  A    between atoms: N_12  and  C_13 
REMARK    4  A    between atoms: C_13  and  C_14 
REMARK    5  A    between atoms: C_14  and  N_15 
ROOT
HETATM    1  O   UNL     1     -44.444 -53.794  12.110  1.00  0.00    -0.272 OA
HETATM    2  C   UNL     1     -44.448 -54.217  13.264  1.00  0.00     0.236 C 
HETATM    3  N   UNL     1     -43.294 -54.411  13.995  1.00  0.00    -0.358 N 
HETATM    4  H   UNL     1     -43.348 -54.974  14.838  1.00  0.00     0.162 HD
ENDROOT
BRANCH   2   5
HETATM    5  C   UNL     1     -45.742 -54.552  14.013  1.00  0.00     0.235 C 
BRANCH   5   6
HETATM    6  N   UNL     1     -46.136 -53.502  14.952  1.00  0.00    -0.301 N 
HETATM    7  C   UNL     1     -46.783 -52.374  14.493  1.00  0.00     0.102 A 
HETATM    8  C   UNL     1     -47.091 -51.360  15.305  1.00  0.00     0.092 A 
HETATM    9  C   UNL     1     -46.731 -51.455  16.729  1.00  0.00     0.250 A 
HETATM   10  O   UNL     1     -46.929 -50.522  17.497  1.00  0.00    -0.268 OA
HETATM   11  N   UNL     1     -46.165 -52.635  17.118  1.00  0.00    -0.275 N 
HETATM   12  C   UNL     1     -45.829 -53.677  16.295  1.00  0.00     0.329 A 
HETATM   13  H   UNL     1     -45.914 -52.722  18.091  1.00  0.00     0.173 HD
HETATM   14  O   UNL     1     -45.276 -54.680  16.740  1.00  0.00    -0.246 OA
ENDBRANCH   5   6
ENDBRANCH   2   5
BRANCH   3  15
HETATM   15  C   UNL     1     -41.976 -54.162  13.434  1.00  0.00     0.143 C 
BRANCH  15  16
HETATM   16  C   UNL     1     -41.249 -52.985  14.105  1.00  0.00     0.155 C 
BRANCH  16  17
HETATM   17  N   UNL     1     -41.402 -51.742  13.358  1.00  0.00    -0.277 N 
HETATM   18  C   UNL     1     -40.385 -51.252  12.572  1.00  0.00     0.236 C 
HETATM   19  O   UNL     1     -39.290 -51.786  12.439  1.00  0.00    -0.272 OA
HETATM   20  C   UNL     1     -40.756 -49.965  11.888  1.00  0.00     0.187 C 
HETATM   21  S   UNL     1     -42.418 -49.562  12.450  1.00  0.00    -0.059 SA
HETATM   22  C   UNL     1     -42.493 -50.937  13.528  1.00  0.00     0.289 C 
HETATM   23  O   UNL     1     -43.403 -51.086  14.325  1.00  0.00    -0.260 OA
ENDBRANCH  16  17
ENDBRANCH  15  16
ENDBRANCH   3  15
TORSDOF 5
ENDMDL
MODEL 8
REMARK VINA RESULT:      -5.2      6.119      7.338
REMARK  5 active torsions:
REMARK  status: ('A' for Active; 'I' for Inactive)
REMARK    1  A    between atoms: C_2  and  C_3 
REMARK       I    between atoms: C_2  and  N_12 
REMARK    2  A    between atoms: C_3  and  N_4 
REMARK    3  A    between atoms: N_12  and  C_13 
REMARK    4  A    between atoms: C_13  and  C_14 
REMARK    5  A    between atoms: C_14  and  N_15 
ROOT
HETATM    1  O   UNL     1     -43.138 -49.995  13.476  1.00  0.00    -0.272 OA
HETATM    2  C   UNL     1     -43.720 -50.997  13.068  1.00  0.00     0.236 C 
HETATM    3  N   UNL     1     -43.077 -52.017  12.397  1.00  0.00    -0.358 N 
HETATM    4  H   UNL     1     -43.642 -52.690  11.889  1.00  0.00     0.162 HD
ENDROOT
BRANCH   2   5
HETATM    5  C   UNL     1     -45.221 -51.222  13.284  1.00  0.00     0.235 C 
BRANCH   5   6
HETATM    6  N   UNL     1     -45.498 -52.151  14.378  1.00  0.00    -0.301 N 
HETATM    7  C   UNL     1     -45.607 -51.681  15.671  1.00  0.00     0.102 A 
HETATM    8  C   UNL     1     -45.784 -52.505  16.706  1.00  0.00     0.092 A 
HETATM    9  C   UNL     1     -45.867 -53.953  16.457  1.00  0.00     0.250 A 
HETATM   10  O   UNL     1     -45.957 -54.751  17.381  1.00  0.00    -0.268 OA
HETATM   11  N   UNL     1     -45.829 -54.330  15.145  1.00  0.00    -0.275 N 
HETATM   12  C   UNL     1     -45.633 -53.499  14.074  1.00  0.00     0.329 A 
HETATM   13  H   UNL     1     -45.889 -55.318  14.952  1.00  0.00     0.173 HD
HETATM   14  O   UNL     1     -45.566 -53.946  12.931  1.00  0.00    -0.246 OA
ENDBRANCH   5   6
ENDBRANCH   2   5
BRANCH   3  15
HETATM   15  C   UNL     1     -41.657 -51.960  12.088  1.00  0.00     0.143 C 
BRANCH  15  16
HETATM   16  C   UNL     1     -40.936 -53.298  12.325  1.00  0.00     0.155 C 
BRANCH  16  17
HETATM   17  N   UNL     1     -40.608 -53.509  13.730  1.00  0.00    -0.277 N 
HETATM   18  C   UNL     1     -39.348 -53.246  14.214  1.00  0.00     0.236 C 
HETATM   19  O   UNL     1     -38.412 -52.836  13.536  1.00  0.00    -0.272 OA
HETATM   20  C   UNL     1     -39.228 -53.527  15.687  1.00  0.00     0.187 C 
HETATM   21  S   UNL     1     -40.829 -54.166  16.204  1.00  0.00    -0.059 SA
HETATM   22  C   UNL     1     -41.482 -54.119  14.583  1.00  0.00     0.289 C 
HETATM   23  O   UNL     1     -42.562 -54.612  14.306  1.00  0.00    -0.260 OA
ENDBRANCH  16  17
ENDBRANCH  15  16
ENDBRANCH   3  15
TORSDOF 5
ENDMDL
MODEL 9
REMARK VINA RESULT:      -5.2      4.212      5.685
REMARK  5 active torsions:
REMARK  status: ('A' for Active; 'I' for Inactive)
REMARK    1  A    between atoms: C_2  and  C_3 
REMARK       I    between atoms: C_2  and  N_12 
REMARK    2  A    between atoms: C_3  and  N_4 
REMARK    3  A    between atoms: N_12  and  C_13 
REMARK    4  A    between atoms: C_13  and  C_14 
REMARK    5  A    between atoms: C_14  and  N_15 
ROOT
HETATM    1  O   UNL     1     -41.826 -50.471  13.663  1.00  0.00    -0.272 OA
HETATM    2  C   UNL     1     -41.761 -50.867  12.502  1.00  0.00     0.236 C 
HETATM    3  N   UNL     1     -41.799 -50.017  11.416  1.00  0.00    -0.358 N 
HETATM    4  H   UNL     1     -41.977 -50.415  10.499  1.00  0.00     0.162 HD
ENDROOT
BRANCH   2   5
HETATM    5  C   UNL     1     -41.610 -52.350  12.146  1.00  0.00     0.235 C 
BRANCH   5   6
HETATM    6  N   UNL     1     -42.637 -53.184  12.767  1.00  0.00    -0.301 N 
HETATM    7  C   UNL     1     -43.951 -53.078  12.361  1.00  0.00     0.102 A 
HETATM    8  C   UNL     1     -44.929 -53.765  12.955  1.00  0.00     0.092 A 
HETATM    9  C   UNL     1     -44.592 -54.663  14.072  1.00  0.00     0.250 A 
HETATM   10  O   UNL     1     -45.462 -55.259  14.692  1.00  0.00    -0.268 OA
HETATM   11  N   UNL     1     -43.261 -54.771  14.361  1.00  0.00    -0.275 N 
HETATM   12  C   UNL     1     -42.249 -54.062  13.771  1.00  0.00     0.329 A 
HETATM   13  H   UNL     1     -43.008 -55.385  15.121  1.00  0.00     0.173 HD
HETATM   14  O   UNL     1     -41.084 -54.199  14.139  1.00  0.00    -0.246 OA
ENDBRANCH   5   6
ENDBRANCH   2   5
BRANCH   3  15
HETATM   15  C   UNL     1     -41.958 -48.579  11.569  1.00  0.00     0.143 C 
BRANCH  15  16
HETATM   16  C   UNL     1     -40.682 -47.793  11.225  1.00  0.00     0.155 C 
BRANCH  16  17
HETATM   17  N   UNL     1     -39.725 -47.782  12.325  1.00  0.00    -0.277 N 
HETATM   18  C   UNL     1     -39.636 -46.710  13.182  1.00  0.00     0.236 C 
HETATM   19  O   UNL     1     -40.318 -45.695  13.100  1.00  0.00    -0.272 OA
HETATM   20  C   UNL     1     -38.590 -46.909  14.245  1.00  0.00     0.187 C 
HETATM   21  S   UNL     1     -37.828 -48.503  13.902  1.00  0.00    -0.059 SA
HETATM   22  C   UNL     1     -38.778 -48.757  12.456  1.00  0.00     0.289 C 
HETATM   23  O   UNL     1     -38.554 -49.678  11.689  1.00  0.00    -0.260 OA
ENDBRANCH  16  17
ENDBRANCH  15  16
ENDBRANCH   3  15
TORSDOF 5
ENDMDL
