MODEL 1
REMARK VINA RESULT:      -6.4      0.000      0.000
REMARK  4 active torsions:
REMARK  status: ('A' for Active; 'I' for Inactive)
REMARK    1  A    between atoms: N_5  and  C_6 
REMARK    2  A    between atoms: C_6  and  C_7 
REMARK    3  A    between atoms: C_7  and  O_8 
REMARK    4  A    between atoms: C_7  and  C_9 
ROOT
HETATM    1  C   UNL     1     -41.036 -54.955  16.163  1.00  0.00     0.161 C 
HETATM    2  N   UNL     1     -41.700 -54.426  15.007  1.00  0.00    -0.302 N 
HETATM    3  C   UNL     1     -42.989 -54.782  14.562  1.00  0.00     0.329 A 
HETATM    4  O   UNL     1     -43.747 -55.601  15.057  1.00  0.00    -0.246 OA
HETATM    5  N   UNL     1     -43.249 -53.982  13.428  1.00  0.00    -0.295 N 
HETATM    6  C   UNL     1     -42.130 -53.183  13.165  1.00  0.00     0.066 A 
HETATM    7  C   UNL     1     -41.903 -52.264  12.164  1.00  0.00     0.032 A 
HETATM    8  C   UNL     1     -40.671 -51.600  12.172  1.00  0.00     0.002 A 
HETATM    9  C   UNL     1     -39.709 -51.867  13.169  1.00  0.00     0.002 A 
HETATM   10  C   UNL     1     -39.956 -52.804  14.177  1.00  0.00     0.032 A 
HETATM   11  C   UNL     1     -41.174 -53.451  14.149  1.00  0.00     0.065 A 
ENDROOT
BRANCH   5  12
HETATM   12  C   UNL     1     -44.480 -54.009  12.673  1.00  0.00     0.170 C 
BRANCH  12  13
HETATM   13  C   UNL     1     -45.177 -52.633  12.583  1.00  0.00     0.169 C 
BRANCH  13  14
HETATM   14  O   UNL     1     -46.334 -52.663  11.749  1.00  0.00    -0.389 OA
HETATM   15  H   UNL     1     -47.113 -52.496  12.309  1.00  0.00     0.210 HD
ENDBRANCH  13  14
BRANCH  13  16
HETATM   16  C   UNL     1     -45.607 -52.058  13.921  1.00  0.00    -0.028 A 
HETATM   17  C   UNL     1     -46.809 -52.501  14.497  1.00  0.00     0.010 A 
HETATM   18  C   UNL     1     -47.237 -52.008  15.731  1.00  0.00     0.001 A 
HETATM   19  C   UNL     1     -46.468 -51.073  16.416  1.00  0.00     0.000 A 
HETATM   20  C   UNL     1     -45.262 -50.640  15.872  1.00  0.00     0.001 A 
HETATM   21  C   UNL     1     -44.831 -51.132  14.636  1.00  0.00     0.010 A 
ENDBRANCH  13  16
ENDBRANCH  12  13
ENDBRANCH   5  12
TORSDOF 4
ENDMDL
MODEL 2
REMARK VINA RESULT:      -6.3      1.365      2.702
REMARK  4 active torsions:
REMARK  status: ('A' for Active; 'I' for Inactive)
REMARK    1  A    between atoms: N_5  and  C_6 
REMARK    2  A    between atoms: C_6  and  C_7 
REMARK    3  A    between atoms: C_7  and  O_8 
REMARK    4  A    between atoms: C_7  and  C_9 
ROOT
HETATM    1  C   UNL     1     -39.591 -52.262  13.590  1.00  0.00     0.161 C 
HETATM    2  N   UNL     1     -40.845 -52.948  13.699  1.00  0.00    -0.302 N 
HETATM    3  C   UNL     1     -41.954 -52.777  12.846  1.00  0.00     0.329 A 
HETATM    4  O   UNL     1     -42.052 -52.018  11.896  1.00  0.00    -0.246 OA
HETATM    5  N   UNL     1     -42.939 -53.684  13.294  1.00  0.00    -0.295 N 
HETATM    6  C   UNL     1     -42.457 -54.365  14.418  1.00  0.00     0.066 A 
HETATM    7  C   UNL     1     -43.054 -55.324  15.208  1.00  0.00     0.032 A 
HETATM    8  C   UNL     1     -42.302 -55.837  16.270  1.00  0.00     0.002 A 
HETATM    9  C   UNL     1     -40.986 -55.389  16.513  1.00  0.00     0.002 A 
HETATM   10  C   UNL     1     -40.397 -54.414  15.701  1.00  0.00     0.032 A 
HETATM   11  C   UNL     1     -41.156 -53.917  14.663  1.00  0.00     0.065 A 
ENDROOT
BRANCH   5  12
HETATM   12  C   UNL     1     -44.234 -53.856  12.679  1.00  0.00     0.170 C 
BRANCH  12  13
HETATM   13  C   UNL     1     -45.054 -52.550  12.594  1.00  0.00     0.169 C 
BRANCH  13  14
HETATM   14  O   UNL     1     -46.219 -52.692  11.782  1.00  0.00    -0.389 OA
HETATM   15  H   UNL     1     -46.315 -51.882  11.250  1.00  0.00     0.210 HD
ENDBRANCH  13  14
BRANCH  13  16
HETATM   16  C   UNL     1     -45.509 -52.004  13.935  1.00  0.00    -0.028 A 
HETATM   17  C   UNL     1     -46.762 -52.395  14.439  1.00  0.00     0.010 A 
HETATM   18  C   UNL     1     -47.215 -51.926  15.674  1.00  0.00     0.001 A 
HETATM   19  C   UNL     1     -46.422 -51.072  16.432  1.00  0.00     0.000 A 
HETATM   20  C   UNL     1     -45.168 -50.694  15.960  1.00  0.00     0.001 A 
HETATM   21  C   UNL     1     -44.712 -51.161  14.724  1.00  0.00     0.010 A 
ENDBRANCH  13  16
ENDBRANCH  12  13
ENDBRANCH   5  12
TORSDOF 4
ENDMDL
MODEL 3
REMARK VINA RESULT:      -6.0      2.434      5.910
REMARK  4 active torsions:
REMARK  status: ('A' for Active; 'I' for Inactive)
REMARK    1  A    between atoms: N_5  and  C_6 
REMARK    2  A    between atoms: C_6  and  C_7 
REMARK    3  A    between atoms: C_7  and  O_8 
REMARK    4  A    between atoms: C_7  and  C_9 
ROOT
HETATM    1  C   UNL     1     -44.830 -50.450  16.209  1.00  0.00     0.161 C 
HETATM    2  N   UNL     1     -44.383 -51.229  15.092  1.00  0.00    -0.302 N 
HETATM    3  C   UNL     1     -43.388 -50.849  14.169  1.00  0.00     0.329 A 
HETATM    4  O   UNL     1     -42.758 -49.805  14.142  1.00  0.00    -0.246 OA
HETATM    5  N   UNL     1     -43.242 -51.935  13.278  1.00  0.00    -0.295 N 
HETATM    6  C   UNL     1     -44.153 -52.939  13.627  1.00  0.00     0.066 A 
HETATM    7  C   UNL     1     -44.396 -54.166  13.049  1.00  0.00     0.032 A 
HETATM    8  C   UNL     1     -45.375 -54.970  13.643  1.00  0.00     0.002 A 
HETATM    9  C   UNL     1     -46.077 -54.535  14.787  1.00  0.00     0.002 A 
HETATM   10  C   UNL     1     -45.817 -53.285  15.359  1.00  0.00     0.032 A 
HETATM   11  C   UNL     1     -44.852 -52.506  14.757  1.00  0.00     0.065 A 
ENDROOT
BRANCH   5  12
HETATM   12  C   UNL     1     -42.300 -51.975  12.184  1.00  0.00     0.170 C 
BRANCH  12  13
HETATM   13  C   UNL     1     -40.905 -52.497  12.591  1.00  0.00     0.169 C 
BRANCH  13  14
HETATM   14  O   UNL     1     -40.439 -53.534  11.729  1.00  0.00    -0.389 OA
HETATM   15  H   UNL     1     -39.473 -53.600  11.831  1.00  0.00     0.210 HD
ENDBRANCH  13  14
BRANCH  13  16
HETATM   16  C   UNL     1     -39.822 -51.434  12.634  1.00  0.00    -0.028 A 
HETATM   17  C   UNL     1     -39.982 -50.269  11.864  1.00  0.00     0.010 A 
HETATM   18  C   UNL     1     -39.017 -49.260  11.883  1.00  0.00     0.001 A 
HETATM   19  C   UNL     1     -37.884 -49.390  12.678  1.00  0.00     0.000 A 
HETATM   20  C   UNL     1     -37.720 -50.526  13.467  1.00  0.00     0.001 A 
HETATM   21  C   UNL     1     -38.684 -51.538  13.450  1.00  0.00     0.010 A 
ENDBRANCH  13  16
ENDBRANCH  12  13
ENDBRANCH   5  12
TORSDOF 4
ENDMDL
MODEL 4
REMARK VINA RESULT:      -6.0      2.226      3.386
REMARK  4 active torsions:
REMARK  status: ('A' for Active; 'I' for Inactive)
REMARK    1  A    between atoms: N_5  and  C_6 
REMARK    2  A    between atoms: C_6  and  C_7 
REMARK    3  A    between atoms: C_7  and  O_8 
REMARK    4  A    between atoms: C_7  and  C_9 
ROOT
HETATM    1  C   UNL     1     -38.779 -52.451  16.247  1.00  0.00     0.161 C 
HETATM    2  N   UNL     1     -39.943 -52.538  15.414  1.00  0.00    -0.302 N 
HETATM    3  C   UNL     1     -40.303 -51.623  14.404  1.00  0.00     0.329 A 
HETATM    4  O   UNL     1     -39.715 -50.605  14.078  1.00  0.00    -0.246 OA
HETATM    5  N   UNL     1     -41.484 -52.129  13.817  1.00  0.00    -0.295 N 
HETATM    6  C   UNL     1     -41.856 -53.305  14.479  1.00  0.00     0.066 A 
HETATM    7  C   UNL     1     -42.934 -54.140  14.280  1.00  0.00     0.032 A 
HETATM    8  C   UNL     1     -43.031 -55.268  15.103  1.00  0.00     0.002 A 
HETATM    9  C   UNL     1     -42.058 -55.532  16.091  1.00  0.00     0.002 A 
HETATM   10  C   UNL     1     -40.971 -54.672  16.279  1.00  0.00     0.032 A 
HETATM   11  C   UNL     1     -40.896 -53.564  15.461  1.00  0.00     0.065 A 
ENDROOT
BRANCH   5  12
HETATM   12  C   UNL     1     -42.181 -51.508  12.715  1.00  0.00     0.170 C 
BRANCH  12  13
HETATM   13  C   UNL     1     -43.103 -50.346  13.147  1.00  0.00     0.169 C 
BRANCH  13  14
HETATM   14  O   UNL     1     -43.433 -49.482  12.060  1.00  0.00    -0.389 OA
HETATM   15  H   UNL     1     -44.352 -49.184  12.182  1.00  0.00     0.210 HD
ENDBRANCH  13  14
BRANCH  13  16
HETATM   16  C   UNL     1     -44.411 -50.783  13.782  1.00  0.00    -0.028 A 
HETATM   17  C   UNL     1     -44.562 -50.671  15.175  1.00  0.00     0.010 A 
HETATM   18  C   UNL     1     -45.752 -51.050  15.799  1.00  0.00     0.001 A 
HETATM   19  C   UNL     1     -46.814 -51.534  15.045  1.00  0.00     0.000 A 
HETATM   20  C   UNL     1     -46.692 -51.629  13.660  1.00  0.00     0.001 A 
HETATM   21  C   UNL     1     -45.502 -51.251  13.033  1.00  0.00     0.010 A 
ENDBRANCH  13  16
ENDBRANCH  12  13
ENDBRANCH   5  12
TORSDOF 4
ENDMDL
MODEL 5
REMARK VINA RESULT:      -6.0      3.041      4.800
REMARK  4 active torsions:
REMARK  status: ('A' for Active; 'I' for Inactive)
REMARK    1  A    between atoms: N_5  and  C_6 
REMARK    2  A    between atoms: C_6  and  C_7 
REMARK    3  A    between atoms: C_7  and  O_8 
REMARK    4  A    between atoms: C_7  and  C_9 
ROOT
HETATM    1  C   UNL     1     -40.289 -55.101  15.719  1.00  0.00     0.161 C 
HETATM    2  N   UNL     1     -40.892 -54.392  14.628  1.00  0.00    -0.302 N 
HETATM    3  C   UNL     1     -40.212 -53.576  13.701  1.00  0.00     0.329 A 
HETATM    4  O   UNL     1     -39.021 -53.316  13.672  1.00  0.00    -0.246 OA
HETATM    5  N   UNL     1     -41.187 -53.126  12.784  1.00  0.00    -0.295 N 
HETATM    6  C   UNL     1     -42.438 -53.626  13.165  1.00  0.00     0.066 A 
HETATM    7  C   UNL     1     -43.683 -53.449  12.598  1.00  0.00     0.032 A 
HETATM    8  C   UNL     1     -44.761 -54.100  13.207  1.00  0.00     0.002 A 
HETATM    9  C   UNL     1     -44.573 -54.904  14.351  1.00  0.00     0.002 A 
HETATM   10  C   UNL     1     -43.303 -55.071  14.913  1.00  0.00     0.032 A 
HETATM   11  C   UNL     1     -42.254 -54.418  14.301  1.00  0.00     0.065 A 
ENDROOT
BRANCH   5  12
HETATM   12  C   UNL     1     -40.913 -52.280  11.647  1.00  0.00     0.170 C 
BRANCH  12  13
HETATM   13  C   UNL     1     -40.372 -50.886  12.033  1.00  0.00     0.169 C 
BRANCH  13  14
HETATM   14  O   UNL     1     -39.210 -50.528  11.287  1.00  0.00    -0.389 OA
HETATM   15  H   UNL     1     -39.480 -50.366  10.367  1.00  0.00     0.210 HD
ENDBRANCH  13  14
BRANCH  13  16
HETATM   16  C   UNL     1     -41.372 -49.755  11.869  1.00  0.00    -0.028 A 
HETATM   17  C   UNL     1     -41.226 -48.870  10.787  1.00  0.00     0.010 A 
HETATM   18  C   UNL     1     -42.130 -47.824  10.591  1.00  0.00     0.001 A 
HETATM   19  C   UNL     1     -43.200 -47.650  11.462  1.00  0.00     0.000 A 
HETATM   20  C   UNL     1     -43.375 -48.533  12.525  1.00  0.00     0.001 A 
HETATM   21  C   UNL     1     -42.471 -49.581  12.724  1.00  0.00     0.010 A 
ENDBRANCH  13  16
ENDBRANCH  12  13
ENDBRANCH   5  12
TORSDOF 4
ENDMDL
MODEL 6
REMARK VINA RESULT:      -6.0      3.146      4.509
REMARK  4 active torsions:
REMARK  status: ('A' for Active; 'I' for Inactive)
REMARK    1  A    between atoms: N_5  and  C_6 
REMARK    2  A    between atoms: C_6  and  C_7 
REMARK    3  A    between atoms: C_7  and  O_8 
REMARK    4  A    between atoms: C_7  and  C_9 
ROOT
HETATM    1  C   UNL     1     -38.076 -51.150  17.638  1.00  0.00     0.161 C 
HETATM    2  N   UNL     1     -38.352 -51.513  16.278  1.00  0.00    -0.302 N 
HETATM    3  C   UNL     1     -38.927 -52.726  15.850  1.00  0.00     0.329 A 
HETATM    4  O   UNL     1     -39.267 -53.673  16.541  1.00  0.00    -0.246 OA
HETATM    5  N   UNL     1     -39.058 -52.627  14.448  1.00  0.00    -0.295 N 
HETATM    6  C   UNL     1     -38.539 -51.397  14.026  1.00  0.00     0.066 A 
HETATM    7  C   UNL     1     -38.429 -50.859  12.761  1.00  0.00     0.032 A 
HETATM    8  C   UNL     1     -37.872 -49.580  12.657  1.00  0.00     0.002 A 
HETATM    9  C   UNL     1     -37.445 -48.877  13.804  1.00  0.00     0.002 A 
HETATM   10  C   UNL     1     -37.564 -49.440  15.079  1.00  0.00     0.032 A 
HETATM   11  C   UNL     1     -38.112 -50.703  15.160  1.00  0.00     0.065 A 
ENDROOT
BRANCH   5  12
HETATM   12  C   UNL     1     -39.631 -53.650  13.605  1.00  0.00     0.170 C 
BRANCH  12  13
HETATM   13  C   UNL     1     -40.851 -53.164  12.791  1.00  0.00     0.169 C 
BRANCH  13  14
HETATM   14  O   UNL     1     -40.712 -53.426  11.395  1.00  0.00    -0.389 OA
HETATM   15  H   UNL     1     -41.369 -52.887  10.921  1.00  0.00     0.210 HD
ENDBRANCH  13  14
BRANCH  13  16
HETATM   16  C   UNL     1     -42.177 -53.762  13.226  1.00  0.00    -0.028 A 
HETATM   17  C   UNL     1     -42.227 -54.516  14.412  1.00  0.00     0.010 A 
HETATM   18  C   UNL     1     -43.427 -55.074  14.856  1.00  0.00     0.001 A 
HETATM   19  C   UNL     1     -44.599 -54.880  14.133  1.00  0.00     0.000 A 
HETATM   20  C   UNL     1     -44.573 -54.116  12.969  1.00  0.00     0.001 A 
HETATM   21  C   UNL     1     -43.373 -53.557  12.521  1.00  0.00     0.010 A 
ENDBRANCH  13  16
ENDBRANCH  12  13
ENDBRANCH   5  12
TORSDOF 4
ENDMDL
MODEL 7
REMARK VINA RESULT:      -5.9      2.346      5.281
REMARK  4 active torsions:
REMARK  status: ('A' for Active; 'I' for Inactive)
REMARK    1  A    between atoms: N_5  and  C_6 
REMARK    2  A    between atoms: C_6  and  C_7 
REMARK    3  A    between atoms: C_7  and  O_8 
REMARK    4  A    between atoms: C_7  and  C_9 
ROOT
HETATM    1  C   UNL     1     -43.353 -50.352  17.276  1.00  0.00     0.161 C 
HETATM    2  N   UNL     1     -43.397 -50.714  15.890  1.00  0.00    -0.302 N 
HETATM    3  C   UNL     1     -42.283 -50.832  15.034  1.00  0.00     0.329 A 
HETATM    4  O   UNL     1     -41.111 -50.632  15.306  1.00  0.00    -0.246 OA
HETATM    5  N   UNL     1     -42.789 -51.254  13.785  1.00  0.00    -0.295 N 
HETATM    6  C   UNL     1     -44.184 -51.355  13.867  1.00  0.00     0.066 A 
HETATM    7  C   UNL     1     -45.113 -51.708  12.911  1.00  0.00     0.032 A 
HETATM    8  C   UNL     1     -46.456 -51.733  13.304  1.00  0.00     0.002 A 
HETATM    9  C   UNL     1     -46.833 -51.411  14.625  1.00  0.00     0.002 A 
HETATM   10  C   UNL     1     -45.876 -51.054  15.580  1.00  0.00     0.032 A 
HETATM   11  C   UNL     1     -44.559 -51.030  15.173  1.00  0.00     0.065 A 
ENDROOT
BRANCH   5  12
HETATM   12  C   UNL     1     -41.978 -51.524  12.622  1.00  0.00     0.170 C 
BRANCH  12  13
HETATM   13  C   UNL     1     -41.727 -53.029  12.382  1.00  0.00     0.169 C 
BRANCH  13  14
HETATM   14  O   UNL     1     -40.693 -53.263  11.427  1.00  0.00    -0.389 OA
HETATM   15  H   UNL     1     -39.957 -53.709  11.883  1.00  0.00     0.210 HD
ENDBRANCH  13  14
BRANCH  13  16
HETATM   16  C   UNL     1     -41.365 -53.813  13.631  1.00  0.00    -0.028 A 
HETATM   17  C   UNL     1     -40.028 -53.824  14.064  1.00  0.00     0.010 A 
HETATM   18  C   UNL     1     -39.654 -54.522  15.214  1.00  0.00     0.001 A 
HETATM   19  C   UNL     1     -40.607 -55.210  15.957  1.00  0.00     0.000 A 
HETATM   20  C   UNL     1     -41.941 -55.191  15.556  1.00  0.00     0.001 A 
HETATM   21  C   UNL     1     -42.318 -54.493  14.405  1.00  0.00     0.010 A 
ENDBRANCH  13  16
ENDBRANCH  12  13
ENDBRANCH   5  12
TORSDOF 4
ENDMDL
MODEL 8
REMARK VINA RESULT:      -5.8      2.184      5.003
REMARK  4 active torsions:
REMARK  status: ('A' for Active; 'I' for Inactive)
REMARK    1  A    between atoms: N_5  and  C_6 
REMARK    2  A    between atoms: C_6  and  C_7 
REMARK    3  A    between atoms: C_7  and  O_8 
REMARK    4  A    between atoms: C_7  and  C_9 
ROOT
HETATM    1  C   UNL     1     -43.660 -54.473  16.987  1.00  0.00     0.161 C 
HETATM    2  N   UNL     1     -43.800 -53.793  15.733  1.00  0.00    -0.302 N 
HETATM    3  C   UNL     1     -42.891 -53.853  14.657  1.00  0.00     0.329 A 
HETATM    4  O   UNL     1     -41.835 -54.463  14.609  1.00  0.00    -0.246 OA
HETATM    5  N   UNL     1     -43.454 -53.076  13.621  1.00  0.00    -0.295 N 
HETATM    6  C   UNL     1     -44.661 -52.524  14.068  1.00  0.00     0.066 A 
HETATM    7  C   UNL     1     -45.554 -51.690  13.430  1.00  0.00     0.032 A 
HETATM    8  C   UNL     1     -46.698 -51.314  14.141  1.00  0.00     0.002 A 
HETATM    9  C   UNL     1     -46.922 -51.775  15.456  1.00  0.00     0.002 A 
HETATM   10  C   UNL     1     -46.004 -52.620  16.088  1.00  0.00     0.032 A 
HETATM   11  C   UNL     1     -44.880 -52.976  15.372  1.00  0.00     0.065 A 
ENDROOT
BRANCH   5  12
HETATM   12  C   UNL     1     -42.857 -52.890  12.320  1.00  0.00     0.170 C 
BRANCH  12  13
HETATM   13  C   UNL     1     -41.375 -52.457  12.379  1.00  0.00     0.169 C 
BRANCH  13  14
HETATM   14  O   UNL     1     -40.567 -53.157  11.434  1.00  0.00    -0.389 OA
HETATM   15  H   UNL     1     -40.145 -52.499  10.854  1.00  0.00     0.210 HD
ENDBRANCH  13  14
BRANCH  13  16
HETATM   16  C   UNL     1     -41.143 -50.974  12.152  1.00  0.00    -0.028 A 
HETATM   17  C   UNL     1     -42.235 -50.093  12.240  1.00  0.00     0.010 A 
HETATM   18  C   UNL     1     -42.065 -48.721  12.051  1.00  0.00     0.001 A 
HETATM   19  C   UNL     1     -40.804 -48.202  11.782  1.00  0.00     0.000 A 
HETATM   20  C   UNL     1     -39.706 -49.056  11.715  1.00  0.00     0.001 A 
HETATM   21  C   UNL     1     -39.873 -50.431  11.904  1.00  0.00     0.010 A 
ENDBRANCH  13  16
ENDBRANCH  12  13
ENDBRANCH   5  12
TORSDOF 4
ENDMDL
MODEL 9
REMARK VINA RESULT:      -5.7      3.298      4.375
REMARK  4 active torsions:
REMARK  status: ('A' for Active; 'I' for Inactive)
REMARK    1  A    between atoms: N_5  and  C_6 
REMARK    2  A    between atoms: C_6  and  C_7 
REMARK    3  A    between atoms: C_7  and  O_8 
REMARK    4  A    between atoms: C_7  and  C_9 
ROOT
HETATM    1  C   UNL     1     -37.770 -49.716  12.197  1.00  0.00     0.161 C 
HETATM    2  N   UNL     1     -39.191 -49.905  12.162  1.00  0.00    -0.302 N 
HETATM    3  C   UNL     1     -39.868 -51.111  12.432  1.00  0.00     0.329 A 
HETATM    4  O   UNL     1     -39.379 -52.191  12.717  1.00  0.00    -0.246 OA
HETATM    5  N   UNL     1     -41.247 -50.820  12.328  1.00  0.00    -0.295 N 
HETATM    6  C   UNL     1     -41.405 -49.477  11.966  1.00  0.00     0.066 A 
HETATM    7  C   UNL     1     -42.547 -48.742  11.730  1.00  0.00     0.032 A 
HETATM    8  C   UNL     1     -42.383 -47.394  11.395  1.00  0.00     0.002 A 
HETATM    9  C   UNL     1     -41.098 -46.818  11.307  1.00  0.00     0.002 A 
HETATM   10  C   UNL     1     -39.949 -47.580  11.549  1.00  0.00     0.032 A 
HETATM   11  C   UNL     1     -40.132 -48.907  11.873  1.00  0.00     0.065 A 
ENDROOT
BRANCH   5  12
HETATM   12  C   UNL     1     -42.304 -51.776  12.556  1.00  0.00     0.170 C 
BRANCH  12  13
HETATM   13  C   UNL     1     -42.742 -51.868  14.034  1.00  0.00     0.169 C 
BRANCH  13  14
HETATM   14  O   UNL     1     -42.091 -50.901  14.856  1.00  0.00    -0.389 OA
HETATM   15  H   UNL     1     -42.306 -50.017  14.508  1.00  0.00     0.210 HD
ENDBRANCH  13  14
BRANCH  13  16
HETATM   16  C   UNL     1     -44.236 -51.711  14.259  1.00  0.00    -0.028 A 
HETATM   17  C   UNL     1     -44.714 -51.566  15.573  1.00  0.00     0.010 A 
HETATM   18  C   UNL     1     -46.078 -51.406  15.825  1.00  0.00     0.001 A 
HETATM   19  C   UNL     1     -46.985 -51.375  14.772  1.00  0.00     0.000 A 
HETATM   20  C   UNL     1     -46.527 -51.493  13.462  1.00  0.00     0.001 A 
HETATM   21  C   UNL     1     -45.162 -51.654  13.207  1.00  0.00     0.010 A 
ENDBRANCH  13  16
ENDBRANCH  12  13
ENDBRANCH   5  12
TORSDOF 4
ENDMDL
