MODEL 1
REMARK VINA RESULT:      -5.9      0.000      0.000
REMARK  5 active torsions:
REMARK  status: ('A' for Active; 'I' for Inactive)
REMARK    1  A    between atoms: C_5  and  N_9 
REMARK    2  A    between atoms: N_9  and  C_10 
REMARK    3  A    between atoms: C_10  and  C_11 
REMARK    4  A    between atoms: C_11  and  O_12 
REMARK    5  A    between atoms: C_11  and  C_13 
ROOT
HETATM    1  C   UNL     1     -41.815 -51.736  12.573  1.00  0.00     0.306 C 
ENDROOT
BRANCH   1   2
HETATM    2  N   UNL     1     -43.277 -51.707  12.471  1.00  0.00     0.090 N 
HETATM    3  H   UNL     1     -43.631 -50.780  12.705  1.00  0.00     0.316 HD
BRANCH   2   4
HETATM    4  C   UNL     1     -43.933 -52.732  13.302  1.00  0.00     0.221 C 
HETATM    5  C   UNL     1     -45.358 -53.074  12.828  1.00  0.00     0.036 C 
HETATM    6  C   UNL     1     -46.300 -51.873  12.940  1.00  0.00     0.007 C 
HETATM    7  C   UNL     1     -46.376 -51.327  14.377  1.00  0.00    -0.015 C 
HETATM    8  C   UNL     1     -47.191 -52.279  15.262  1.00  0.00     0.010 C 
HETATM    9  C   UNL     1     -44.954 -51.025  14.917  1.00  0.00    -0.013 C 
HETATM   10  C   UNL     1     -44.002 -52.226  14.755  1.00  0.00     0.040 C 
HETATM   11  C   UNL     1     -44.955 -50.537  16.366  1.00  0.00     0.010 C 
ENDBRANCH   2   4
ENDBRANCH   1   2
BRANCH   1  12
HETATM   12  C   UNL     1     -41.231 -53.170  12.524  1.00  0.00     0.179 C 
BRANCH  12  13
HETATM   13  O   UNL     1     -40.508 -53.411  11.314  1.00  0.00    -0.389 OA
HETATM   14  H   UNL     1     -40.062 -54.268  11.402  1.00  0.00     0.210 HD
ENDBRANCH  12  13
BRANCH  12  15
HETATM   15  C   UNL     1     -40.307 -53.353  13.712  1.00  0.00    -0.025 A 
HETATM   16  C   UNL     1     -39.632 -54.568  13.888  1.00  0.00     0.027 A 
HETATM   17  C   UNL     1     -38.914 -54.763  15.059  1.00  0.00     0.088 A 
HETATM   18  N   UNL     1     -38.824 -53.850  16.047  1.00  0.00    -0.375 N 
HETATM   19  C   UNL     1     -39.468 -52.679  15.850  1.00  0.00     0.088 A 
ATOM     20  HN  UNL     1     -38.295 -54.035  16.900  1.00  0.00     0.164 HD
HETATM   21  C   UNL     1     -40.208 -52.388  14.718  1.00  0.00     0.027 A 
ENDBRANCH  12  15
ENDBRANCH   1  12
TORSDOF 5
ENDMDL
MODEL 2
REMARK VINA RESULT:      -5.9      1.898      2.690
REMARK  5 active torsions:
REMARK  status: ('A' for Active; 'I' for Inactive)
REMARK    1  A    between atoms: C_5  and  N_9 
REMARK    2  A    between atoms: N_9  and  C_10 
REMARK    3  A    between atoms: C_10  and  C_11 
REMARK    4  A    between atoms: C_11  and  O_12 
REMARK    5  A    between atoms: C_11  and  C_13 
ROOT
HETATM    1  C   UNL     1     -41.624 -54.105  13.454  1.00  0.00     0.306 C 
ENDROOT
BRANCH   1   2
HETATM    2  N   UNL     1     -42.975 -53.900  12.924  1.00  0.00     0.090 N 
HETATM    3  H   UNL     1     -43.031 -53.013  12.426  1.00  0.00     0.316 HD
BRANCH   2   4
HETATM    4  C   UNL     1     -44.018 -53.970  13.964  1.00  0.00     0.221 C 
HETATM    5  C   UNL     1     -45.445 -53.993  13.388  1.00  0.00     0.036 C 
HETATM    6  C   UNL     1     -45.780 -52.701  12.640  1.00  0.00     0.007 C 
HETATM    7  C   UNL     1     -45.629 -51.457  13.534  1.00  0.00    -0.015 C 
HETATM    8  C   UNL     1     -46.784 -51.387  14.542  1.00  0.00     0.010 C 
HETATM    9  C   UNL     1     -44.221 -51.426  14.184  1.00  0.00    -0.013 C 
HETATM   10  C   UNL     1     -43.877 -52.751  14.893  1.00  0.00     0.040 C 
HETATM   11  C   UNL     1     -44.028 -50.245  15.136  1.00  0.00     0.010 C 
ENDBRANCH   2   4
ENDBRANCH   1   2
BRANCH   1  12
HETATM   12  C   UNL     1     -40.547 -53.277  12.710  1.00  0.00     0.179 C 
BRANCH  12  13
HETATM   13  O   UNL     1     -40.620 -53.457  11.292  1.00  0.00    -0.389 OA
HETATM   14  H   UNL     1     -39.715 -53.562  10.961  1.00  0.00     0.210 HD
ENDBRANCH  12  13
BRANCH  12  15
HETATM   15  C   UNL     1     -40.749 -51.813  13.046  1.00  0.00    -0.025 A 
HETATM   16  C   UNL     1     -41.226 -50.933  12.067  1.00  0.00     0.027 A 
HETATM   17  C   UNL     1     -41.258 -49.576  12.354  1.00  0.00     0.088 A 
HETATM   18  N   UNL     1     -40.854 -49.046  13.527  1.00  0.00    -0.375 N 
HETATM   19  C   UNL     1     -40.414 -49.913  14.464  1.00  0.00     0.088 A 
ATOM     20  HN  UNL     1     -40.881 -48.041  13.697  1.00  0.00     0.164 HD
HETATM   21  C   UNL     1     -40.345 -51.283  14.274  1.00  0.00     0.027 A 
ENDBRANCH  12  15
ENDBRANCH   1  12
TORSDOF 5
ENDMDL
MODEL 3
REMARK VINA RESULT:      -5.8      4.111      6.456
REMARK  5 active torsions:
REMARK  status: ('A' for Active; 'I' for Inactive)
REMARK    1  A    between atoms: C_5  and  N_9 
REMARK    2  A    between atoms: N_9  and  C_10 
REMARK    3  A    between atoms: C_10  and  C_11 
REMARK    4  A    between atoms: C_11  and  O_12 
REMARK    5  A    between atoms: C_11  and  C_13 
ROOT
HETATM    1  C   UNL     1     -42.863 -48.834  12.185  1.00  0.00     0.306 C 
ENDROOT
BRANCH   1   2
HETATM    2  N   UNL     1     -42.682 -50.278  12.013  1.00  0.00     0.090 N 
HETATM    3  H   UNL     1     -43.393 -50.654  11.387  1.00  0.00     0.316 HD
BRANCH   2   4
HETATM    4  C   UNL     1     -42.683 -51.015  13.290  1.00  0.00     0.221 C 
HETATM    5  C   UNL     1     -42.359 -52.511  13.125  1.00  0.00     0.036 C 
HETATM    6  C   UNL     1     -43.422 -53.237  12.298  1.00  0.00     0.007 C 
HETATM    7  C   UNL     1     -44.827 -53.102  12.912  1.00  0.00    -0.015 C 
HETATM    8  C   UNL     1     -44.943 -53.978  14.166  1.00  0.00     0.010 C 
HETATM    9  C   UNL     1     -45.171 -51.609  13.152  1.00  0.00    -0.013 C 
HETATM   10  C   UNL     1     -44.070 -50.877  13.944  1.00  0.00     0.040 C 
HETATM   11  C   UNL     1     -46.532 -51.408  13.819  1.00  0.00     0.010 C 
ENDBRANCH   2   4
ENDBRANCH   1   2
BRANCH   1  12
HETATM   12  C   UNL     1     -42.234 -48.002  11.041  1.00  0.00     0.179 C 
BRANCH  12  13
HETATM   13  O   UNL     1     -41.547 -48.827  10.095  1.00  0.00    -0.389 OA
HETATM   14  H   UNL     1     -41.520 -48.350   9.252  1.00  0.00     0.210 HD
ENDBRANCH  12  13
BRANCH  12  15
HETATM   15  C   UNL     1     -43.339 -47.239  10.339  1.00  0.00    -0.025 A 
HETATM   16  C   UNL     1     -44.594 -47.835  10.161  1.00  0.00     0.027 A 
HETATM   17  C   UNL     1     -45.537 -47.177   9.385  1.00  0.00     0.088 A 
HETATM   18  N   UNL     1     -45.321 -45.989   8.785  1.00  0.00    -0.375 N 
HETATM   19  C   UNL     1     -44.111 -45.422   8.983  1.00  0.00     0.088 A 
ATOM     20  HN  UNL     1     -46.036 -45.541   8.212  1.00  0.00     0.164 HD
HETATM   21  C   UNL     1     -43.105 -45.997   9.740  1.00  0.00     0.027 A 
ENDBRANCH  12  15
ENDBRANCH   1  12
TORSDOF 5
ENDMDL
MODEL 4
REMARK VINA RESULT:      -5.7      3.404      5.177
REMARK  5 active torsions:
REMARK  status: ('A' for Active; 'I' for Inactive)
REMARK    1  A    between atoms: C_5  and  N_9 
REMARK    2  A    between atoms: N_9  and  C_10 
REMARK    3  A    between atoms: C_10  and  C_11 
REMARK    4  A    between atoms: C_11  and  O_12 
REMARK    5  A    between atoms: C_11  and  C_13 
ROOT
HETATM    1  C   UNL     1     -42.346 -50.056  12.339  1.00  0.00     0.306 C 
ENDROOT
BRANCH   1   2
HETATM    2  N   UNL     1     -42.642 -51.486  12.220  1.00  0.00     0.090 N 
HETATM    3  H   UNL     1     -43.460 -51.633  11.630  1.00  0.00     0.316 HD
BRANCH   2   4
HETATM    4  C   UNL     1     -42.826 -52.146  13.526  1.00  0.00     0.221 C 
HETATM    5  C   UNL     1     -42.949 -53.677  13.417  1.00  0.00     0.036 C 
HETATM    6  C   UNL     1     -44.195 -54.095  12.631  1.00  0.00     0.007 C 
HETATM    7  C   UNL     1     -45.488 -53.539  13.255  1.00  0.00    -0.015 C 
HETATM    8  C   UNL     1     -45.823 -54.300  14.544  1.00  0.00     0.010 C 
HETATM    9  C   UNL     1     -45.382 -52.003  13.439  1.00  0.00    -0.013 C 
HETATM   10  C   UNL     1     -44.100 -51.591  14.189  1.00  0.00     0.040 C 
HETATM   11  C   UNL     1     -46.613 -51.395  14.112  1.00  0.00     0.010 C 
ENDBRANCH   2   4
ENDBRANCH   1   2
BRANCH   1  12
HETATM   12  C   UNL     1     -40.976 -49.665  11.731  1.00  0.00     0.179 C 
BRANCH  12  13
HETATM   13  O   UNL     1     -40.618 -50.511  10.634  1.00  0.00    -0.389 OA
HETATM   14  H   UNL     1     -39.938 -50.051  10.117  1.00  0.00     0.210 HD
ENDBRANCH  12  13
BRANCH  12  15
HETATM   15  C   UNL     1     -41.052 -48.227  11.260  1.00  0.00    -0.025 A 
HETATM   16  C   UNL     1     -42.164 -47.792  10.528  1.00  0.00     0.027 A 
HETATM   17  C   UNL     1     -42.139 -46.517   9.980  1.00  0.00     0.088 A 
HETATM   18  N   UNL     1     -41.103 -45.663  10.109  1.00  0.00    -0.375 N 
HETATM   19  C   UNL     1     -40.048 -46.096  10.833  1.00  0.00     0.088 A 
ATOM     20  HN  UNL     1     -41.117 -44.737   9.681  1.00  0.00     0.164 HD
HETATM   21  C   UNL     1     -39.977 -47.347  11.420  1.00  0.00     0.027 A 
ENDBRANCH  12  15
ENDBRANCH   1  12
TORSDOF 5
ENDMDL
MODEL 5
REMARK VINA RESULT:      -5.6      2.412      5.701
REMARK  5 active torsions:
REMARK  status: ('A' for Active; 'I' for Inactive)
REMARK    1  A    between atoms: C_5  and  N_9 
REMARK    2  A    between atoms: N_9  and  C_10 
REMARK    3  A    between atoms: C_10  and  C_11 
REMARK    4  A    between atoms: C_11  and  O_12 
REMARK    5  A    between atoms: C_11  and  C_13 
ROOT
HETATM    1  C   UNL     1     -45.148 -51.211  13.004  1.00  0.00     0.306 C 
ENDROOT
BRANCH   1   2
HETATM    2  N   UNL     1     -43.908 -51.827  12.523  1.00  0.00     0.090 N 
HETATM    3  H   UNL     1     -44.039 -52.828  12.382  1.00  0.00     0.316 HD
BRANCH   2   4
HETATM    4  C   UNL     1     -42.760 -51.581  13.414  1.00  0.00     0.221 C 
HETATM    5  C   UNL     1     -41.405 -51.639  12.684  1.00  0.00     0.036 C 
HETATM    6  C   UNL     1     -41.121 -53.032  12.119  1.00  0.00     0.007 C 
HETATM    7  C   UNL     1     -41.139 -54.116  13.212  1.00  0.00    -0.015 C 
HETATM    8  C   UNL     1     -39.879 -54.013  14.081  1.00  0.00     0.010 C 
HETATM    9  C   UNL     1     -42.465 -54.054  14.013  1.00  0.00    -0.013 C 
HETATM   10  C   UNL     1     -42.765 -52.635  14.536  1.00  0.00     0.040 C 
HETATM   11  C   UNL     1     -42.521 -55.067  15.157  1.00  0.00     0.010 C 
ENDBRANCH   2   4
ENDBRANCH   1   2
BRANCH   1  12
HETATM   12  C   UNL     1     -46.295 -52.232  13.207  1.00  0.00     0.179 C 
BRANCH  12  13
HETATM   13  O   UNL     1     -46.036 -53.467  12.533  1.00  0.00    -0.389 OA
HETATM   14  H   UNL     1     -46.890 -53.873  12.323  1.00  0.00     0.210 HD
ENDBRANCH  12  13
BRANCH  12  15
HETATM   15  C   UNL     1     -46.454 -52.487  14.692  1.00  0.00    -0.025 A 
HETATM   16  C   UNL     1     -46.889 -51.455  15.534  1.00  0.00     0.027 A 
HETATM   17  C   UNL     1     -46.881 -51.670  16.904  1.00  0.00     0.088 A 
HETATM   18  N   UNL     1     -46.478 -52.819  17.483  1.00  0.00    -0.375 N 
HETATM   19  C   UNL     1     -46.079 -53.808  16.654  1.00  0.00     0.088 A 
ATOM     20  HN  UNL     1     -46.475 -52.936  18.496  1.00  0.00     0.164 HD
HETATM   21  C   UNL     1     -46.051 -53.692  15.274  1.00  0.00     0.027 A 
ENDBRANCH  12  15
ENDBRANCH   1  12
TORSDOF 5
ENDMDL
MODEL 6
REMARK VINA RESULT:      -5.6      2.173      3.608
REMARK  5 active torsions:
REMARK  status: ('A' for Active; 'I' for Inactive)
REMARK    1  A    between atoms: C_5  and  N_9 
REMARK    2  A    between atoms: N_9  and  C_10 
REMARK    3  A    between atoms: C_10  and  C_11 
REMARK    4  A    between atoms: C_11  and  O_12 
REMARK    5  A    between atoms: C_11  and  C_13 
ROOT
HETATM    1  C   UNL     1     -42.378 -52.490  12.584  1.00  0.00     0.306 C 
ENDROOT
BRANCH   1   2
HETATM    2  N   UNL     1     -42.805 -52.717  13.967  1.00  0.00     0.090 N 
HETATM    3  H   UNL     1     -43.397 -53.544  14.025  1.00  0.00     0.316 HD
BRANCH   2   4
HETATM    4  C   UNL     1     -43.491 -51.553  14.556  1.00  0.00     0.221 C 
HETATM    5  C   UNL     1     -44.145 -51.860  15.916  1.00  0.00     0.036 C 
HETATM    6  C   UNL     1     -45.260 -52.901  15.790  1.00  0.00     0.007 C 
HETATM    7  C   UNL     1     -46.357 -52.459  14.805  1.00  0.00    -0.015 C 
HETATM    8  C   UNL     1     -47.214 -51.350  15.428  1.00  0.00     0.010 C 
HETATM    9  C   UNL     1     -45.734 -52.081  13.436  1.00  0.00    -0.013 C 
HETATM   10  C   UNL     1     -44.580 -51.070  13.580  1.00  0.00     0.040 C 
HETATM   11  C   UNL     1     -46.765 -51.574  12.428  1.00  0.00     0.010 C 
ENDBRANCH   2   4
ENDBRANCH   1   2
BRANCH   1  12
HETATM   12  C   UNL     1     -40.839 -52.507  12.412  1.00  0.00     0.179 C 
BRANCH  12  13
HETATM   13  O   UNL     1     -40.431 -53.343  11.325  1.00  0.00    -0.389 OA
HETATM   14  H   UNL     1     -41.012 -54.119  11.316  1.00  0.00     0.210 HD
ENDBRANCH  12  13
BRANCH  12  15
HETATM   15  C   UNL     1     -40.367 -51.088  12.165  1.00  0.00    -0.025 A 
HETATM   16  C   UNL     1     -41.276 -50.119  11.720  1.00  0.00     0.027 A 
HETATM   17  C   UNL     1     -40.791 -48.871  11.358  1.00  0.00     0.088 A 
HETATM   18  N   UNL     1     -39.488 -48.528  11.406  1.00  0.00    -0.375 N 
HETATM   19  C   UNL     1     -38.630 -49.470  11.854  1.00  0.00     0.088 A 
ATOM     20  HN  UNL     1     -39.167 -47.603  11.120  1.00  0.00     0.164 HD
HETATM   21  C   UNL     1     -39.015 -50.743  12.240  1.00  0.00     0.027 A 
ENDBRANCH  12  15
ENDBRANCH   1  12
TORSDOF 5
ENDMDL
MODEL 7
REMARK VINA RESULT:      -5.5      2.123      2.579
REMARK  5 active torsions:
REMARK  status: ('A' for Active; 'I' for Inactive)
REMARK    1  A    between atoms: C_5  and  N_9 
REMARK    2  A    between atoms: N_9  and  C_10 
REMARK    3  A    between atoms: C_10  and  C_11 
REMARK    4  A    between atoms: C_11  and  O_12 
REMARK    5  A    between atoms: C_11  and  C_13 
ROOT
HETATM    1  C   UNL     1     -42.149 -51.591  13.057  1.00  0.00     0.306 C 
ENDROOT
BRANCH   1   2
HETATM    2  N   UNL     1     -43.424 -52.090  12.534  1.00  0.00     0.090 N 
HETATM    3  H   UNL     1     -44.027 -51.313  12.267  1.00  0.00     0.316 HD
BRANCH   2   4
HETATM    4  C   UNL     1     -44.124 -52.982  13.477  1.00  0.00     0.221 C 
HETATM    5  C   UNL     1     -45.584 -53.259  13.076  1.00  0.00     0.036 C 
HETATM    6  C   UNL     1     -46.434 -51.986  13.097  1.00  0.00     0.007 C 
HETATM    7  C   UNL     1     -46.423 -51.304  14.477  1.00  0.00    -0.015 C 
HETATM    8  C   UNL     1     -47.273 -52.107  15.471  1.00  0.00     0.010 C 
HETATM    9  C   UNL     1     -44.966 -51.060  14.948  1.00  0.00    -0.013 C 
HETATM   10  C   UNL     1     -44.107 -52.339  14.876  1.00  0.00     0.040 C 
HETATM   11  C   UNL     1     -44.883 -50.440  16.343  1.00  0.00     0.010 C 
ENDBRANCH   2   4
ENDBRANCH   1   2
BRANCH   1  12
HETATM   12  C   UNL     1     -40.919 -52.200  12.341  1.00  0.00     0.179 C 
BRANCH  12  13
HETATM   13  O   UNL     1     -41.192 -52.500  10.969  1.00  0.00    -0.389 OA
HETATM   14  H   UNL     1     -40.579 -53.197  10.692  1.00  0.00     0.210 HD
ENDBRANCH  12  13
BRANCH  12  15
HETATM   15  C   UNL     1     -39.775 -51.209  12.425  1.00  0.00    -0.025 A 
HETATM   16  C   UNL     1     -38.737 -51.419  13.342  1.00  0.00     0.027 A 
HETATM   17  C   UNL     1     -37.784 -50.423  13.504  1.00  0.00     0.088 A 
HETATM   18  N   UNL     1     -37.794 -49.255  12.829  1.00  0.00    -0.375 N 
HETATM   19  C   UNL     1     -38.794 -49.080  11.938  1.00  0.00     0.088 A 
ATOM     20  HN  UNL     1     -37.083 -48.541  12.985  1.00  0.00     0.164 HD
HETATM   21  C   UNL     1     -39.790 -50.012  11.703  1.00  0.00     0.027 A 
ENDBRANCH  12  15
ENDBRANCH   1  12
TORSDOF 5
ENDMDL
MODEL 8
REMARK VINA RESULT:      -5.4      2.804      5.646
REMARK  5 active torsions:
REMARK  status: ('A' for Active; 'I' for Inactive)
REMARK    1  A    between atoms: C_5  and  N_9 
REMARK    2  A    between atoms: N_9  and  C_10 
REMARK    3  A    between atoms: C_10  and  C_11 
REMARK    4  A    between atoms: C_11  and  O_12 
REMARK    5  A    between atoms: C_11  and  C_13 
ROOT
HETATM    1  C   UNL     1     -44.359 -53.463  12.558  1.00  0.00     0.306 C 
ENDROOT
BRANCH   1   2
HETATM    2  N   UNL     1     -43.192 -52.847  11.921  1.00  0.00     0.090 N 
HETATM    3  H   UNL     1     -43.024 -53.263  11.006  1.00  0.00     0.316 HD
BRANCH   2   4
HETATM    4  C   UNL     1     -41.975 -52.925  12.750  1.00  0.00     0.221 C 
HETATM    5  C   UNL     1     -42.178 -52.375  14.174  1.00  0.00     0.036 C 
HETATM    6  C   UNL     1     -42.504 -50.880  14.167  1.00  0.00     0.007 C 
HETATM    7  C   UNL     1     -41.412 -50.050  13.469  1.00  0.00    -0.015 C 
HETATM    8  C   UNL     1     -40.166 -49.959  14.359  1.00  0.00     0.010 C 
HETATM    9  C   UNL     1     -41.133 -50.609  12.049  1.00  0.00    -0.013 C 
HETATM   10  C   UNL     1     -40.853 -52.125  12.064  1.00  0.00     0.040 C 
HETATM   11  C   UNL     1     -40.011 -49.866  11.323  1.00  0.00     0.010 C 
ENDBRANCH   2   4
ENDBRANCH   1   2
BRANCH   1  12
HETATM   12  C   UNL     1     -45.560 -52.496  12.692  1.00  0.00     0.179 C 
BRANCH  12  13
HETATM   13  O   UNL     1     -46.690 -52.939  11.934  1.00  0.00    -0.389 OA
HETATM   14  H   UNL     1     -47.338 -52.218  11.921  1.00  0.00     0.210 HD
ENDBRANCH  12  13
BRANCH  12  15
HETATM   15  C   UNL     1     -45.939 -52.399  14.156  1.00  0.00    -0.025 A 
HETATM   16  C   UNL     1     -45.568 -53.420  15.040  1.00  0.00     0.027 A 
HETATM   17  C   UNL     1     -46.055 -53.382  16.339  1.00  0.00     0.088 A 
HETATM   18  N   UNL     1     -46.870 -52.415  16.808  1.00  0.00    -0.375 N 
HETATM   19  C   UNL     1     -47.202 -51.431  15.945  1.00  0.00     0.088 A 
ATOM     20  HN  UNL     1     -47.218 -52.427  17.767  1.00  0.00     0.164 HD
HETATM   21  C   UNL     1     -46.767 -51.379  14.632  1.00  0.00     0.027 A 
ENDBRANCH  12  15
ENDBRANCH   1  12
TORSDOF 5
ENDMDL
MODEL 9
REMARK VINA RESULT:      -5.1      3.327      5.102
REMARK  5 active torsions:
REMARK  status: ('A' for Active; 'I' for Inactive)
REMARK    1  A    between atoms: C_5  and  N_9 
REMARK    2  A    between atoms: N_9  and  C_10 
REMARK    3  A    between atoms: C_10  and  C_11 
REMARK    4  A    between atoms: C_11  and  O_12 
REMARK    5  A    between atoms: C_11  and  C_13 
ROOT
HETATM    1  C   UNL     1     -40.858 -51.608  13.152  1.00  0.00     0.306 C 
ENDROOT
BRANCH   1   2
HETATM    2  N   UNL     1     -40.420 -50.332  12.581  1.00  0.00     0.090 N 
HETATM    3  H   UNL     1     -39.418 -50.353  12.390  1.00  0.00     0.316 HD
BRANCH   2   4
HETATM    4  C   UNL     1     -40.756 -49.175  13.430  1.00  0.00     0.221 C 
HETATM    5  C   UNL     1     -42.272 -48.938  13.556  1.00  0.00     0.036 C 
HETATM    6  C   UNL     1     -42.908 -48.584  12.210  1.00  0.00     0.007 C 
HETATM    7  C   UNL     1     -42.265 -47.337  11.575  1.00  0.00    -0.015 C 
HETATM    8  C   UNL     1     -42.709 -46.074  12.323  1.00  0.00     0.010 C 
HETATM    9  C   UNL     1     -40.727 -47.510  11.484  1.00  0.00    -0.013 C 
HETATM   10  C   UNL     1     -40.104 -47.914  12.835  1.00  0.00     0.040 C 
HETATM   11  C   UNL     1     -40.019 -46.278  10.917  1.00  0.00     0.010 C 
ENDBRANCH   2   4
ENDBRANCH   1   2
BRANCH   1  12
HETATM   12  C   UNL     1     -41.561 -52.526  12.121  1.00  0.00     0.179 C 
BRANCH  12  13
HETATM   13  O   UNL     1     -40.624 -53.305  11.371  1.00  0.00    -0.389 OA
HETATM   14  H   UNL     1     -40.859 -54.238  11.484  1.00  0.00     0.210 HD
ENDBRANCH  12  13
BRANCH  12  15
HETATM   15  C   UNL     1     -42.507 -53.448  12.865  1.00  0.00    -0.025 A 
HETATM   16  C   UNL     1     -43.859 -53.496  12.505  1.00  0.00     0.027 A 
HETATM   17  C   UNL     1     -44.730 -54.232  13.295  1.00  0.00     0.088 A 
HETATM   18  N   UNL     1     -44.354 -54.910  14.399  1.00  0.00    -0.375 N 
HETATM   19  C   UNL     1     -43.042 -54.865  14.719  1.00  0.00     0.088 A 
ATOM     20  HN  UNL     1     -45.025 -55.430  14.963  1.00  0.00     0.164 HD
HETATM   21  C   UNL     1     -42.096 -54.161  13.994  1.00  0.00     0.027 A 
ENDBRANCH  12  15
ENDBRANCH   1  12
TORSDOF 5
ENDMDL
