MODEL 1
REMARK VINA RESULT:      -5.0      0.000      0.000
REMARK  3 active torsions:
REMARK  status: ('A' for Active; 'I' for Inactive)
REMARK    1  A    between atoms: O_5  and  C_6 
REMARK    2  A    between atoms: C_6  and  C_7 
REMARK    3  A    between atoms: C_7  and  C_8 
ROOT
HETATM    1  C   UNL     3     -45.962 -52.672  13.465  1.00  0.00     0.065 C 
HETATM    2  C   UNL     3     -44.429 -52.462  13.350  1.00  0.00     0.068 C 
HETATM    3  C   UNL     3     -43.745 -53.745  12.854  1.00  0.00     0.272 C 
HETATM    4  N   UNL     3     -44.024 -54.871  13.758  1.00  0.00     0.083 N 
HETATM    5  C   UNL     3     -45.469 -55.123  13.871  1.00  0.00     0.272 C 
HETATM    6  C   UNL     3     -46.206 -53.880  14.396  1.00  0.00     0.068 C 
HETATM    7  H   UNL     3     -43.632 -54.662  14.707  1.00  0.00     0.315 HD
ENDROOT
BRANCH   1   8
HETATM    8  O   UNL     3     -46.495 -52.988  12.199  1.00  0.00    -0.389 OA
HETATM    9  H   UNL     3     -47.374 -53.431  12.333  1.00  0.00     0.210 HD
ENDBRANCH   1   8
BRANCH   1  10
HETATM   10  C   UNL     3     -46.686 -51.399  13.997  1.00  0.00     0.076 C 
BRANCH  10  11
HETATM   11  C   UNL     3     -46.619 -51.219  15.497  1.00  0.00    -0.053 A 
HETATM   12  C   UNL     3     -45.430 -50.788  16.107  1.00  0.00     0.024 A 
HETATM   13  C   UNL     3     -45.386 -50.633  17.494  1.00  0.00     0.088 A 
HETATM   14  N   UNL     3     -46.489 -50.895  18.245  1.00  0.00    -0.375 N 
HETATM   15  C   UNL     3     -47.655 -51.306  17.680  1.00  0.00     0.088 A 
ATOM     16  HN  UNL     3     -46.441 -50.780  19.257  1.00  0.00     0.164 HD
HETATM   17  C   UNL     3     -47.743 -51.473  16.297  1.00  0.00     0.024 A 
ENDBRANCH  10  11
ENDBRANCH   1  10
TORSDOF 3
ENDMDL
MODEL 2
REMARK VINA RESULT:      -4.9      8.007      9.646
REMARK  3 active torsions:
REMARK  status: ('A' for Active; 'I' for Inactive)
REMARK    1  A    between atoms: O_5  and  C_6 
REMARK    2  A    between atoms: C_6  and  C_7 
REMARK    3  A    between atoms: C_7  and  C_8 
ROOT
HETATM    1  C   UNL     3     -42.288 -45.661  11.055  1.00  0.00     0.065 C 
HETATM    2  C   UNL     3     -42.347 -44.900  12.406  1.00  0.00     0.068 C 
HETATM    3  C   UNL     3     -41.592 -43.566  12.306  1.00  0.00     0.272 C 
HETATM    4  N   UNL     3     -40.190 -43.784  11.920  1.00  0.00     0.083 N 
HETATM    5  C   UNL     3     -40.090 -44.479  10.627  1.00  0.00     0.272 C 
HETATM    6  C   UNL     3     -40.802 -45.840  10.676  1.00  0.00     0.068 C 
HETATM    7  H   UNL     3     -39.709 -44.353  12.658  1.00  0.00     0.315 HD
ENDROOT
BRANCH   1   8
HETATM    8  O   UNL     3     -42.900 -44.890  10.047  1.00  0.00    -0.389 OA
HETATM    9  H   UNL     3     -42.306 -44.888   9.252  1.00  0.00     0.210 HD
ENDBRANCH   1   8
BRANCH   1  10
HETATM   10  C   UNL     3     -43.017 -47.037  11.129  1.00  0.00     0.076 C 
BRANCH  10  11
HETATM   11  C   UNL     3     -43.730 -47.439   9.858  1.00  0.00    -0.053 A 
HETATM   12  C   UNL     3     -45.132 -47.501   9.820  1.00  0.00     0.024 A 
HETATM   13  C   UNL     3     -45.772 -47.879   8.638  1.00  0.00     0.088 A 
HETATM   14  N   UNL     3     -45.040 -48.182   7.533  1.00  0.00    -0.375 N 
HETATM   15  C   UNL     3     -43.682 -48.124   7.539  1.00  0.00     0.088 A 
ATOM     16  HN  UNL     3     -45.522 -48.459   6.677  1.00  0.00     0.164 HD
HETATM   17  C   UNL     3     -43.002 -47.749   8.700  1.00  0.00     0.024 A 
ENDBRANCH  10  11
ENDBRANCH   1  10
TORSDOF 3
ENDMDL
MODEL 3
REMARK VINA RESULT:      -4.9      3.280      4.857
REMARK  3 active torsions:
REMARK  status: ('A' for Active; 'I' for Inactive)
REMARK    1  A    between atoms: O_5  and  C_6 
REMARK    2  A    between atoms: C_6  and  C_7 
REMARK    3  A    between atoms: C_7  and  C_8 
ROOT
HETATM    1  C   UNL     3     -41.230 -52.916  12.633  1.00  0.00     0.065 C 
HETATM    2  C   UNL     3     -40.551 -51.732  13.373  1.00  0.00     0.068 C 
HETATM    3  C   UNL     3     -39.094 -52.076  13.716  1.00  0.00     0.272 C 
HETATM    4  N   UNL     3     -39.022 -53.286  14.548  1.00  0.00     0.083 N 
HETATM    5  C   UNL     3     -39.630 -54.442  13.869  1.00  0.00     0.272 C 
HETATM    6  C   UNL     3     -41.104 -54.168  13.528  1.00  0.00     0.068 C 
HETATM    7  H   UNL     3     -39.518 -53.116  15.456  1.00  0.00     0.315 HD
ENDROOT
BRANCH   1   8
HETATM    8  O   UNL     3     -40.548 -53.177  11.428  1.00  0.00    -0.389 OA
HETATM    9  H   UNL     3     -40.334 -54.146  11.395  1.00  0.00     0.210 HD
ENDBRANCH   1   8
BRANCH   1  10
HETATM   10  C   UNL     3     -42.722 -52.614  12.298  1.00  0.00     0.076 C 
BRANCH  10  11
HETATM   11  C   UNL     3     -43.715 -53.192  13.281  1.00  0.00    -0.053 A 
HETATM   12  C   UNL     3     -43.913 -52.583  14.531  1.00  0.00     0.024 A 
HETATM   13  C   UNL     3     -44.831 -53.135  15.426  1.00  0.00     0.088 A 
HETATM   14  N   UNL     3     -45.529 -54.251  15.086  1.00  0.00    -0.375 N 
HETATM   15  C   UNL     3     -45.363 -54.857  13.880  1.00  0.00     0.088 A 
ATOM     16  HN  UNL     3     -46.195 -54.644  15.752  1.00  0.00     0.164 HD
HETATM   17  C   UNL     3     -44.456 -54.337  12.955  1.00  0.00     0.024 A 
ENDBRANCH  10  11
ENDBRANCH   1  10
TORSDOF 3
ENDMDL
MODEL 4
REMARK VINA RESULT:      -4.8      3.458      5.305
REMARK  3 active torsions:
REMARK  status: ('A' for Active; 'I' for Inactive)
REMARK    1  A    between atoms: O_5  and  C_6 
REMARK    2  A    between atoms: C_6  and  C_7 
REMARK    3  A    between atoms: C_7  and  C_8 
ROOT
HETATM    1  C   UNL     3     -41.076 -52.925  12.609  1.00  0.00     0.065 C 
HETATM    2  C   UNL     3     -42.134 -51.790  12.545  1.00  0.00     0.068 C 
HETATM    3  C   UNL     3     -41.493 -50.485  12.048  1.00  0.00     0.272 C 
HETATM    4  N   UNL     3     -40.383 -50.080  12.922  1.00  0.00     0.083 N 
HETATM    5  C   UNL     3     -39.342 -51.118  12.986  1.00  0.00     0.272 C 
HETATM    6  C   UNL     3     -39.919 -52.444  13.510  1.00  0.00     0.068 C 
HETATM    7  H   UNL     3     -40.747 -49.893  13.887  1.00  0.00     0.315 HD
ENDROOT
BRANCH   1   8
HETATM    8  O   UNL     3     -40.553 -53.160  11.322  1.00  0.00    -0.389 OA
HETATM    9  H   UNL     3     -41.290 -53.484  10.740  1.00  0.00     0.210 HD
ENDBRANCH   1   8
BRANCH   1  10
HETATM   10  C   UNL     3     -41.684 -54.258  13.141  1.00  0.00     0.076 C 
BRANCH  10  11
HETATM   11  C   UNL     3     -43.050 -54.116  13.774  1.00  0.00    -0.053 A 
HETATM   12  C   UNL     3     -44.211 -54.234  12.992  1.00  0.00     0.024 A 
HETATM   13  C   UNL     3     -45.462 -54.095  13.594  1.00  0.00     0.088 A 
HETATM   14  N   UNL     3     -45.554 -53.850  14.928  1.00  0.00    -0.375 N 
HETATM   15  C   UNL     3     -44.449 -53.738  15.711  1.00  0.00     0.088 A 
ATOM     16  HN  UNL     3     -46.477 -53.748  15.353  1.00  0.00     0.164 HD
HETATM   17  C   UNL     3     -43.177 -53.872  15.150  1.00  0.00     0.024 A 
ENDBRANCH  10  11
ENDBRANCH   1  10
TORSDOF 3
ENDMDL
MODEL 5
REMARK VINA RESULT:      -4.6      2.449      3.640
REMARK  3 active torsions:
REMARK  status: ('A' for Active; 'I' for Inactive)
REMARK    1  A    between atoms: O_5  and  C_6 
REMARK    2  A    between atoms: C_6  and  C_7 
REMARK    3  A    between atoms: C_7  and  C_8 
ROOT
HETATM    1  C   UNL     3     -42.781 -52.894  12.651  1.00  0.00     0.065 C 
HETATM    2  C   UNL     3     -42.638 -51.707  13.641  1.00  0.00     0.068 C 
HETATM    3  C   UNL     3     -41.156 -51.395  13.896  1.00  0.00     0.272 C 
HETATM    4  N   UNL     3     -40.456 -52.573  14.430  1.00  0.00     0.083 N 
HETATM    5  C   UNL     3     -40.542 -53.714  13.505  1.00  0.00     0.272 C 
HETATM    6  C   UNL     3     -42.007 -54.095  13.236  1.00  0.00     0.068 C 
HETATM    7  H   UNL     3     -40.876 -52.840  15.353  1.00  0.00     0.315 HD
ENDROOT
BRANCH   1   8
HETATM    8  O   UNL     3     -42.188 -52.558  11.417  1.00  0.00    -0.389 OA
HETATM    9  H   UNL     3     -41.222 -52.783  11.465  1.00  0.00     0.210 HD
ENDBRANCH   1   8
BRANCH   1  10
HETATM   10  C   UNL     3     -44.274 -53.261  12.393  1.00  0.00     0.076 C 
BRANCH  10  11
HETATM   11  C   UNL     3     -45.210 -52.914  13.529  1.00  0.00    -0.053 A 
HETATM   12  C   UNL     3     -45.342 -53.777  14.628  1.00  0.00     0.024 A 
HETATM   13  C   UNL     3     -46.215 -53.442  15.665  1.00  0.00     0.088 A 
HETATM   14  N   UNL     3     -46.929 -52.286  15.608  1.00  0.00    -0.375 N 
HETATM   15  C   UNL     3     -46.816 -51.429  14.560  1.00  0.00     0.088 A 
ATOM     16  HN  UNL     3     -47.565 -52.056  16.372  1.00  0.00     0.164 HD
HETATM   17  C   UNL     3     -45.953 -51.724  13.503  1.00  0.00     0.024 A 
ENDBRANCH  10  11
ENDBRANCH   1  10
TORSDOF 3
ENDMDL
MODEL 6
REMARK VINA RESULT:      -4.6      2.643      4.983
REMARK  3 active torsions:
REMARK  status: ('A' for Active; 'I' for Inactive)
REMARK    1  A    between atoms: O_5  and  C_6 
REMARK    2  A    between atoms: C_6  and  C_7 
REMARK    3  A    between atoms: C_7  and  C_8 
ROOT
HETATM    1  C   UNL     3     -45.004 -54.197  14.027  1.00  0.00     0.065 C 
HETATM    2  C   UNL     3     -45.641 -53.447  15.227  1.00  0.00     0.068 C 
HETATM    3  C   UNL     3     -46.911 -52.705  14.785  1.00  0.00     0.272 C 
HETATM    4  N   UNL     3     -46.613 -51.751  13.706  1.00  0.00     0.083 N 
HETATM    5  C   UNL     3     -46.034 -52.429  12.535  1.00  0.00     0.272 C 
HETATM    6  C   UNL     3     -44.737 -53.165  12.910  1.00  0.00     0.068 C 
HETATM    7  H   UNL     3     -45.941 -51.027  14.056  1.00  0.00     0.315 HD
ENDROOT
BRANCH   1   8
HETATM    8  O   UNL     3     -45.912 -55.150  13.526  1.00  0.00    -0.389 OA
HETATM    9  H   UNL     3     -46.149 -55.772  14.263  1.00  0.00     0.210 HD
ENDBRANCH   1   8
BRANCH   1  10
HETATM   10  C   UNL     3     -43.692 -54.936  14.432  1.00  0.00     0.076 C 
BRANCH  10  11
HETATM   11  C   UNL     3     -42.440 -54.095  14.327  1.00  0.00    -0.053 A 
HETATM   12  C   UNL     3     -42.089 -53.212  15.360  1.00  0.00     0.024 A 
HETATM   13  C   UNL     3     -40.932 -52.440  15.242  1.00  0.00     0.088 A 
HETATM   14  N   UNL     3     -40.150 -52.548  14.134  1.00  0.00    -0.375 N 
HETATM   15  C   UNL     3     -40.461 -53.400  13.122  1.00  0.00     0.088 A 
ATOM     16  HN  UNL     3     -39.309 -51.975  14.061  1.00  0.00     0.164 HD
HETATM   17  C   UNL     3     -41.609 -54.191  13.200  1.00  0.00     0.024 A 
ENDBRANCH  10  11
ENDBRANCH   1  10
TORSDOF 3
ENDMDL
MODEL 7
REMARK VINA RESULT:      -4.6      2.814      5.251
REMARK  3 active torsions:
REMARK  status: ('A' for Active; 'I' for Inactive)
REMARK    1  A    between atoms: O_5  and  C_6 
REMARK    2  A    between atoms: C_6  and  C_7 
REMARK    3  A    between atoms: C_7  and  C_8 
ROOT
HETATM    1  C   UNL     3     -44.412 -53.097  13.490  1.00  0.00     0.065 C 
HETATM    2  C   UNL     3     -45.562 -52.077  13.277  1.00  0.00     0.068 C 
HETATM    3  C   UNL     3     -46.651 -52.264  14.344  1.00  0.00     0.272 C 
HETATM    4  N   UNL     3     -47.190 -53.631  14.311  1.00  0.00     0.083 N 
HETATM    5  C   UNL     3     -46.133 -54.630  14.538  1.00  0.00     0.272 C 
HETATM    6  C   UNL     3     -45.026 -54.513  13.478  1.00  0.00     0.068 C 
HETATM    7  H   UNL     3     -47.639 -53.807  13.380  1.00  0.00     0.315 HD
ENDROOT
BRANCH   1   8
HETATM    8  O   UNL     3     -43.823 -52.893  14.754  1.00  0.00    -0.389 OA
HETATM    9  H   UNL     3     -43.644 -51.922  14.861  1.00  0.00     0.210 HD
ENDBRANCH   1   8
BRANCH   1  10
HETATM   10  C   UNL     3     -43.302 -52.959  12.404  1.00  0.00     0.076 C 
BRANCH  10  11
HETATM   11  C   UNL     3     -41.890 -52.990  12.943  1.00  0.00    -0.053 A 
HETATM   12  C   UNL     3     -41.197 -51.793  13.190  1.00  0.00     0.024 A 
HETATM   13  C   UNL     3     -39.892 -51.843  13.682  1.00  0.00     0.088 A 
HETATM   14  N   UNL     3     -39.299 -53.043  13.923  1.00  0.00    -0.375 N 
HETATM   15  C   UNL     3     -39.948 -54.217  13.700  1.00  0.00     0.088 A 
ATOM     16  HN  UNL     3     -38.344 -53.063  14.280  1.00  0.00     0.164 HD
HETATM   17  C   UNL     3     -41.255 -54.212  13.209  1.00  0.00     0.024 A 
ENDBRANCH  10  11
ENDBRANCH   1  10
TORSDOF 3
ENDMDL
MODEL 8
REMARK VINA RESULT:      -4.4      2.193      5.174
REMARK  3 active torsions:
REMARK  status: ('A' for Active; 'I' for Inactive)
REMARK    1  A    between atoms: O_5  and  C_6 
REMARK    2  A    between atoms: C_6  and  C_7 
REMARK    3  A    between atoms: C_7  and  C_8 
ROOT
HETATM    1  C   UNL     3     -45.330 -53.656  14.837  1.00  0.00     0.065 C 
HETATM    2  C   UNL     3     -44.367 -52.874  15.770  1.00  0.00     0.068 C 
HETATM    3  C   UNL     3     -45.161 -52.040  16.786  1.00  0.00     0.272 C 
HETATM    4  N   UNL     3     -46.062 -51.100  16.104  1.00  0.00     0.083 N 
HETATM    5  C   UNL     3     -47.013 -51.805  15.230  1.00  0.00     0.272 C 
HETATM    6  C   UNL     3     -46.274 -52.635  14.167  1.00  0.00     0.068 C 
HETATM    7  H   UNL     3     -45.497 -50.428  15.531  1.00  0.00     0.315 HD
ENDROOT
BRANCH   1   8
HETATM    8  O   UNL     3     -46.120 -54.538  15.601  1.00  0.00    -0.389 OA
HETATM    9  H   UNL     3     -45.663 -55.420  15.630  1.00  0.00     0.210 HD
ENDBRANCH   1   8
BRANCH   1  10
HETATM   10  C   UNL     3     -44.558 -54.489  13.770  1.00  0.00     0.076 C 
BRANCH  10  11
HETATM   11  C   UNL     3     -43.226 -53.903  13.359  1.00  0.00    -0.053 A 
HETATM   12  C   UNL     3     -43.170 -52.836  12.448  1.00  0.00     0.024 A 
HETATM   13  C   UNL     3     -41.931 -52.312  12.078  1.00  0.00     0.088 A 
HETATM   14  N   UNL     3     -40.787 -52.831  12.600  1.00  0.00    -0.375 N 
HETATM   15  C   UNL     3     -40.811 -53.858  13.489  1.00  0.00     0.088 A 
ATOM     16  HN  UNL     3     -39.889 -52.439  12.317  1.00  0.00     0.164 HD
HETATM   17  C   UNL     3     -42.030 -54.412  13.887  1.00  0.00     0.024 A 
ENDBRANCH  10  11
ENDBRANCH   1  10
TORSDOF 3
ENDMDL
MODEL 9
REMARK VINA RESULT:      -4.4      3.892      5.451
REMARK  3 active torsions:
REMARK  status: ('A' for Active; 'I' for Inactive)
REMARK    1  A    between atoms: O_5  and  C_6 
REMARK    2  A    between atoms: C_6  and  C_7 
REMARK    3  A    between atoms: C_7  and  C_8 
ROOT
HETATM    1  C   UNL     3     -41.890 -50.518  12.646  1.00  0.00     0.065 C 
HETATM    2  C   UNL     3     -42.372 -49.136  12.128  1.00  0.00     0.068 C 
HETATM    3  C   UNL     3     -41.549 -48.703  10.906  1.00  0.00     0.272 C 
HETATM    4  N   UNL     3     -40.117 -48.638  11.233  1.00  0.00     0.083 N 
HETATM    5  C   UNL     3     -39.613 -49.939  11.701  1.00  0.00     0.272 C 
HETATM    6  C   UNL     3     -40.380 -50.411  12.947  1.00  0.00     0.068 C 
HETATM    7  H   UNL     3     -39.961 -47.917  11.978  1.00  0.00     0.315 HD
ENDROOT
BRANCH   1   8
HETATM    8  O   UNL     3     -42.063 -51.489  11.640  1.00  0.00    -0.389 OA
HETATM    9  H   UNL     3     -41.828 -52.376  12.020  1.00  0.00     0.210 HD
ENDBRANCH   1   8
BRANCH   1  10
HETATM   10  C   UNL     3     -42.682 -50.974  13.909  1.00  0.00     0.076 C 
BRANCH  10  11
HETATM   11  C   UNL     3     -43.932 -51.771  13.611  1.00  0.00    -0.053 A 
HETATM   12  C   UNL     3     -45.137 -51.116  13.308  1.00  0.00     0.024 A 
HETATM   13  C   UNL     3     -46.281 -51.870  13.041  1.00  0.00     0.088 A 
HETATM   14  N   UNL     3     -46.226 -53.228  13.072  1.00  0.00    -0.375 N 
HETATM   15  C   UNL     3     -45.072 -53.889  13.355  1.00  0.00     0.088 A 
ATOM     16  HN  UNL     3     -47.072 -53.765  12.877  1.00  0.00     0.164 HD
HETATM   17  C   UNL     3     -43.904 -53.174  13.626  1.00  0.00     0.024 A 
ENDBRANCH  10  11
ENDBRANCH   1  10
TORSDOF 3
ENDMDL
