MODEL 1
REMARK VINA RESULT:      -5.8      0.000      0.000
REMARK  5 active torsions:
REMARK  status: ('A' for Active; 'I' for Inactive)
REMARK    1  A    between atoms: C_2  and  N_3 
REMARK    2  A    between atoms: C_2  and  C_12 
REMARK    3  A    between atoms: N_3  and  C_4 
REMARK    4  A    between atoms: C_4  and  C_5 
REMARK    5  A    between atoms: C_5  and  N_6 
REMARK       I    between atoms: C_12  and  N_14 
ROOT
HETATM    1  N   UNL     1     -41.806 -48.319   9.796  1.00  0.00     0.098 N 
HETATM    2  H   UNL     1     -42.142 -49.099   9.230  1.00  0.00     0.317 HD
ENDROOT
BRANCH   1   3
HETATM    3  C   UNL     1     -41.620 -48.808  11.182  1.00  0.00     0.307 C 
HETATM    4  C   UNL     1     -42.529 -48.085  12.183  1.00  0.00     0.053 C 
BRANCH   3   5
HETATM    5  C   UNL     1     -40.131 -48.570  11.555  1.00  0.00     0.252 C 
HETATM    6  O   UNL     1     -39.632 -47.443  11.562  1.00  0.00    -0.271 OA
HETATM    7  N   UNL     1     -39.364 -49.700  11.803  1.00  0.00    -0.350 N 
HETATM    8  C   UNL     1     -37.926 -49.576  11.978  1.00  0.00     0.126 C 
HETATM    9  C   UNL     1     -39.839 -50.971  12.316  1.00  0.00     0.126 C 
HETATM   10  C   UNL     1     -37.497 -50.839  12.715  1.00  0.00     0.021 C 
HETATM   11  C   UNL     1     -38.788 -51.341  13.349  1.00  0.00     0.021 C 
ENDBRANCH   3   5
ENDBRANCH   1   3
BRANCH   1  12
HETATM   12  C   UNL     1     -42.733 -47.188   9.693  1.00  0.00     0.292 C 
BRANCH  12  13
HETATM   13  C   UNL     1     -43.429 -47.189   8.328  1.00  0.00     0.178 C 
BRANCH  13  14
HETATM   14  N   UNL     1     -44.762 -47.757   8.405  1.00  0.00    -0.302 N 
HETATM   15  C   UNL     1     -45.652 -47.628   9.432  1.00  0.00     0.111 A 
HETATM   16  C   UNL     1     -46.763 -48.348   9.064  1.00  0.00     0.037 A 
HETATM   17  C   UNL     1     -46.448 -48.863   7.794  1.00  0.00     0.108 A 
HETATM   18  N   UNL     1     -45.234 -48.497   7.381  1.00  0.00    -0.310 N 
ATOM     19  HN  UNL     1     -44.772 -48.723   6.500  1.00  0.00     0.186 HD
ENDBRANCH  13  14
ENDBRANCH  12  13
ENDBRANCH   1  12
TORSDOF 5
ENDMDL
MODEL 2
REMARK VINA RESULT:      -5.6      4.021      5.853
REMARK  5 active torsions:
REMARK  status: ('A' for Active; 'I' for Inactive)
REMARK    1  A    between atoms: C_2  and  N_3 
REMARK    2  A    between atoms: C_2  and  C_12 
REMARK    3  A    between atoms: N_3  and  C_4 
REMARK    4  A    between atoms: C_4  and  C_5 
REMARK    5  A    between atoms: C_5  and  N_6 
REMARK       I    between atoms: C_12  and  N_14 
ROOT
HETATM    1  N   UNL     1     -41.956 -51.792  11.895  1.00  0.00     0.098 N 
HETATM    2  H   UNL     1     -42.814 -51.378  11.532  1.00  0.00     0.317 HD
ENDROOT
BRANCH   1   3
HETATM    3  C   UNL     1     -42.327 -52.741  12.972  1.00  0.00     0.307 C 
HETATM    4  C   UNL     1     -41.517 -54.040  12.909  1.00  0.00     0.053 C 
BRANCH   3   5
HETATM    5  C   UNL     1     -43.840 -53.053  12.804  1.00  0.00     0.252 C 
HETATM    6  O   UNL     1     -44.237 -54.051  12.201  1.00  0.00    -0.271 OA
HETATM    7  N   UNL     1     -44.728 -52.109  13.300  1.00  0.00    -0.350 N 
HETATM    8  C   UNL     1     -46.150 -52.235  13.023  1.00  0.00     0.126 C 
HETATM    9  C   UNL     1     -44.496 -51.203  14.409  1.00  0.00     0.126 C 
HETATM   10  C   UNL     1     -46.846 -51.395  14.087  1.00  0.00     0.021 C 
HETATM   11  C   UNL     1     -45.800 -51.270  15.187  1.00  0.00     0.021 C 
ENDBRANCH   3   5
ENDBRANCH   1   3
BRANCH   1  12
HETATM   12  C   UNL     1     -41.035 -50.739  12.334  1.00  0.00     0.292 C 
BRANCH  12  13
HETATM   13  C   UNL     1     -40.668 -49.826  11.159  1.00  0.00     0.178 C 
BRANCH  13  14
HETATM   14  N   UNL     1     -41.709 -48.852  10.890  1.00  0.00    -0.302 N 
HETATM   15  C   UNL     1     -42.622 -48.360  11.778  1.00  0.00     0.111 A 
HETATM   16  C   UNL     1     -43.408 -47.484  11.066  1.00  0.00     0.037 A 
HETATM   17  C   UNL     1     -42.879 -47.510   9.764  1.00  0.00     0.108 A 
HETATM   18  N   UNL     1     -41.835 -48.333   9.652  1.00  0.00    -0.310 N 
ATOM     19  HN  UNL     1     -41.268 -48.525   8.826  1.00  0.00     0.186 HD
ENDBRANCH  13  14
ENDBRANCH  12  13
ENDBRANCH   1  12
TORSDOF 5
ENDMDL
MODEL 3
REMARK VINA RESULT:      -5.5      4.183      7.122
REMARK  5 active torsions:
REMARK  status: ('A' for Active; 'I' for Inactive)
REMARK    1  A    between atoms: C_2  and  N_3 
REMARK    2  A    between atoms: C_2  and  C_12 
REMARK    3  A    between atoms: N_3  and  C_4 
REMARK    4  A    between atoms: C_4  and  C_5 
REMARK    5  A    between atoms: C_5  and  N_6 
REMARK       I    between atoms: C_12  and  N_14 
ROOT
HETATM    1  N   UNL     1     -42.103 -51.609  11.818  1.00  0.00     0.098 N 
HETATM    2  H   UNL     1     -42.899 -51.626  11.181  1.00  0.00     0.317 HD
ENDROOT
BRANCH   1   3
HETATM    3  C   UNL     1     -42.416 -52.495  12.964  1.00  0.00     0.307 C 
HETATM    4  C   UNL     1     -41.575 -53.776  12.958  1.00  0.00     0.053 C 
BRANCH   3   5
HETATM    5  C   UNL     1     -43.924 -52.854  12.866  1.00  0.00     0.252 C 
HETATM    6  O   UNL     1     -44.322 -53.831  12.229  1.00  0.00    -0.271 OA
HETATM    7  N   UNL     1     -44.813 -51.973  13.466  1.00  0.00    -0.350 N 
HETATM    8  C   UNL     1     -46.244 -52.137  13.264  1.00  0.00     0.126 C 
HETATM    9  C   UNL     1     -44.547 -51.123  14.611  1.00  0.00     0.126 C 
HETATM   10  C   UNL     1     -46.903 -51.385  14.414  1.00  0.00     0.021 C 
HETATM   11  C   UNL     1     -45.799 -51.283  15.457  1.00  0.00     0.021 C 
ENDBRANCH   3   5
ENDBRANCH   1   3
BRANCH   1  12
HETATM   12  C   UNL     1     -41.801 -50.229  12.211  1.00  0.00     0.292 C 
BRANCH  12  13
HETATM   13  C   UNL     1     -40.730 -49.633  11.291  1.00  0.00     0.178 C 
BRANCH  13  14
HETATM   14  N   UNL     1     -39.393 -50.022  11.701  1.00  0.00    -0.302 N 
HETATM   15  C   UNL     1     -38.992 -50.388  12.954  1.00  0.00     0.111 A 
HETATM   16  C   UNL     1     -37.646 -50.650  12.859  1.00  0.00     0.037 A 
HETATM   17  C   UNL     1     -37.334 -50.423  11.507  1.00  0.00     0.108 A 
HETATM   18  N   UNL     1     -38.397 -50.051  10.793  1.00  0.00    -0.310 N 
ATOM     19  HN  UNL     1     -38.445 -49.839   9.796  1.00  0.00     0.186 HD
ENDBRANCH  13  14
ENDBRANCH  12  13
ENDBRANCH   1  12
TORSDOF 5
ENDMDL
MODEL 4
REMARK VINA RESULT:      -5.4      3.650      5.045
REMARK  5 active torsions:
REMARK  status: ('A' for Active; 'I' for Inactive)
REMARK    1  A    between atoms: C_2  and  N_3 
REMARK    2  A    between atoms: C_2  and  C_12 
REMARK    3  A    between atoms: N_3  and  C_4 
REMARK    4  A    between atoms: C_4  and  C_5 
REMARK    5  A    between atoms: C_5  and  N_6 
REMARK       I    between atoms: C_12  and  N_14 
ROOT
HETATM    1  N   UNL     1     -41.939 -50.460  11.771  1.00  0.00     0.098 N 
HETATM    2  H   UNL     1     -42.544 -50.838  11.042  1.00  0.00     0.317 HD
ENDROOT
BRANCH   1   3
HETATM    3  C   UNL     1     -42.093 -51.308  12.976  1.00  0.00     0.307 C 
HETATM    4  C   UNL     1     -40.970 -52.343  13.109  1.00  0.00     0.053 C 
BRANCH   3   5
HETATM    5  C   UNL     1     -43.463 -52.030  12.855  1.00  0.00     0.252 C 
HETATM    6  O   UNL     1     -43.611 -53.038  12.162  1.00  0.00    -0.271 OA
HETATM    7  N   UNL     1     -44.537 -51.438  13.505  1.00  0.00    -0.350 N 
HETATM    8  C   UNL     1     -45.883 -51.946  13.293  1.00  0.00     0.126 C 
HETATM    9  C   UNL     1     -44.478 -50.615  14.698  1.00  0.00     0.126 C 
HETATM   10  C   UNL     1     -46.695 -51.452  14.483  1.00  0.00     0.021 C 
HETATM   11  C   UNL     1     -45.638 -51.133  15.532  1.00  0.00     0.021 C 
ENDBRANCH   3   5
ENDBRANCH   1   3
BRANCH   1  12
HETATM   12  C   UNL     1     -42.253 -49.047  12.005  1.00  0.00     0.292 C 
BRANCH  12  13
HETATM   13  C   UNL     1     -41.760 -48.189  10.835  1.00  0.00     0.178 C 
BRANCH  13  14
HETATM   14  N   UNL     1     -42.832 -47.876   9.908  1.00  0.00    -0.302 N 
HETATM   15  C   UNL     1     -44.073 -47.398  10.219  1.00  0.00     0.111 A 
HETATM   16  C   UNL     1     -44.741 -47.273   9.024  1.00  0.00     0.037 A 
HETATM   17  C   UNL     1     -43.813 -47.690   8.054  1.00  0.00     0.108 A 
HETATM   18  N   UNL     1     -42.643 -48.048   8.585  1.00  0.00    -0.310 N 
ATOM     19  HN  UNL     1     -41.805 -48.374   8.104  1.00  0.00     0.186 HD
ENDBRANCH  13  14
ENDBRANCH  12  13
ENDBRANCH   1  12
TORSDOF 5
ENDMDL
MODEL 5
REMARK VINA RESULT:      -5.3      4.821      7.655
REMARK  5 active torsions:
REMARK  status: ('A' for Active; 'I' for Inactive)
REMARK    1  A    between atoms: C_2  and  N_3 
REMARK    2  A    between atoms: C_2  and  C_12 
REMARK    3  A    between atoms: N_3  and  C_4 
REMARK    4  A    between atoms: C_4  and  C_5 
REMARK    5  A    between atoms: C_5  and  N_6 
REMARK       I    between atoms: C_12  and  N_14 
ROOT
HETATM    1  N   UNL     1     -41.969 -54.175  12.638  1.00  0.00     0.098 N 
HETATM    2  H   UNL     1     -42.539 -53.988  11.812  1.00  0.00     0.317 HD
ENDROOT
BRANCH   1   3
HETATM    3  C   UNL     1     -42.792 -53.886  13.835  1.00  0.00     0.307 C 
HETATM    4  C   UNL     1     -42.709 -55.000  14.884  1.00  0.00     0.053 C 
BRANCH   3   5
HETATM    5  C   UNL     1     -44.260 -53.724  13.353  1.00  0.00     0.252 C 
HETATM    6  O   UNL     1     -44.785 -54.527  12.579  1.00  0.00    -0.271 OA
HETATM    7  N   UNL     1     -44.931 -52.585  13.773  1.00  0.00    -0.350 N 
HETATM    8  C   UNL     1     -46.238 -52.267  13.222  1.00  0.00     0.126 C 
HETATM    9  C   UNL     1     -44.695 -51.845  14.999  1.00  0.00     0.126 C 
HETATM   10  C   UNL     1     -46.879 -51.312  14.221  1.00  0.00     0.021 C 
HETATM   11  C   UNL     1     -46.099 -51.559  15.505  1.00  0.00     0.021 C 
ENDBRANCH   3   5
ENDBRANCH   1   3
BRANCH   1  12
HETATM   12  C   UNL     1     -40.727 -53.399  12.579  1.00  0.00     0.292 C 
BRANCH  12  13
HETATM   13  C   UNL     1     -41.014 -51.964  12.121  1.00  0.00     0.178 C 
BRANCH  13  14
HETATM   14  N   UNL     1     -39.820 -51.140  12.155  1.00  0.00    -0.302 N 
HETATM   15  C   UNL     1     -38.869 -51.113  13.134  1.00  0.00     0.111 A 
HETATM   16  C   UNL     1     -37.946 -50.173  12.739  1.00  0.00     0.037 A 
HETATM   17  C   UNL     1     -38.426 -49.701  11.505  1.00  0.00     0.108 A 
HETATM   18  N   UNL     1     -39.563 -50.295  11.137  1.00  0.00    -0.310 N 
ATOM     19  HN  UNL     1     -40.107 -50.144  10.288  1.00  0.00     0.186 HD
ENDBRANCH  13  14
ENDBRANCH  12  13
ENDBRANCH   1  12
TORSDOF 5
ENDMDL
MODEL 6
REMARK VINA RESULT:      -5.1      3.171      4.528
REMARK  5 active torsions:
REMARK  status: ('A' for Active; 'I' for Inactive)
REMARK    1  A    between atoms: C_2  and  N_3 
REMARK    2  A    between atoms: C_2  and  C_12 
REMARK    3  A    between atoms: N_3  and  C_4 
REMARK    4  A    between atoms: C_4  and  C_5 
REMARK    5  A    between atoms: C_5  and  N_6 
REMARK       I    between atoms: C_12  and  N_14 
ROOT
HETATM    1  N   UNL     1     -39.796 -49.814  10.864  1.00  0.00     0.098 N 
HETATM    2  H   UNL     1     -39.996 -50.801  10.701  1.00  0.00     0.317 HD
ENDROOT
BRANCH   1   3
HETATM    3  C   UNL     1     -38.590 -49.728  11.720  1.00  0.00     0.307 C 
HETATM    4  C   UNL     1     -37.298 -49.980  10.935  1.00  0.00     0.053 C 
BRANCH   3   5
HETATM    5  C   UNL     1     -38.745 -50.797  12.837  1.00  0.00     0.252 C 
HETATM    6  O   UNL     1     -39.167 -51.931  12.601  1.00  0.00    -0.271 OA
HETATM    7  N   UNL     1     -38.462 -50.388  14.132  1.00  0.00    -0.350 N 
HETATM    8  C   UNL     1     -38.756 -51.268  15.252  1.00  0.00     0.126 C 
HETATM    9  C   UNL     1     -37.532 -49.345  14.526  1.00  0.00     0.126 C 
HETATM   10  C   UNL     1     -37.888 -50.767  16.400  1.00  0.00     0.021 C 
HETATM   11  C   UNL     1     -36.798 -49.964  15.703  1.00  0.00     0.021 C 
ENDBRANCH   3   5
ENDBRANCH   1   3
BRANCH   1  12
HETATM   12  C   UNL     1     -40.971 -49.150  11.437  1.00  0.00     0.292 C 
BRANCH  12  13
HETATM   13  C   UNL     1     -41.616 -48.219  10.405  1.00  0.00     0.178 C 
BRANCH  13  14
HETATM   14  N   UNL     1     -41.230 -46.836  10.612  1.00  0.00    -0.302 N 
HETATM   15  C   UNL     1     -42.050 -45.796  10.943  1.00  0.00     0.111 A 
HETATM   16  C   UNL     1     -41.242 -44.685  11.012  1.00  0.00     0.037 A 
HETATM   17  C   UNL     1     -39.953 -45.164  10.719  1.00  0.00     0.108 A 
HETATM   18  N   UNL     1     -39.937 -46.477  10.485  1.00  0.00    -0.310 N 
ATOM     19  HN  UNL     1     -39.136 -47.068  10.263  1.00  0.00     0.186 HD
ENDBRANCH  13  14
ENDBRANCH  12  13
ENDBRANCH   1  12
TORSDOF 5
ENDMDL
MODEL 7
REMARK VINA RESULT:      -5.0      4.203      5.429
REMARK  5 active torsions:
REMARK  status: ('A' for Active; 'I' for Inactive)
REMARK    1  A    between atoms: C_2  and  N_3 
REMARK    2  A    between atoms: C_2  and  C_12 
REMARK    3  A    between atoms: N_3  and  C_4 
REMARK    4  A    between atoms: C_4  and  C_5 
REMARK    5  A    between atoms: C_5  and  N_6 
REMARK       I    between atoms: C_12  and  N_14 
ROOT
HETATM    1  N   UNL     1     -42.550 -53.227  12.138  1.00  0.00     0.098 N 
HETATM    2  H   UNL     1     -42.164 -53.845  11.423  1.00  0.00     0.317 HD
ENDROOT
BRANCH   1   3
HETATM    3  C   UNL     1     -41.494 -52.265  12.529  1.00  0.00     0.307 C 
HETATM    4  C   UNL     1     -40.978 -52.510  13.951  1.00  0.00     0.053 C 
BRANCH   3   5
HETATM    5  C   UNL     1     -42.111 -50.843  12.429  1.00  0.00     0.252 C 
HETATM    6  O   UNL     1     -43.229 -50.584  12.879  1.00  0.00    -0.271 OA
HETATM    7  N   UNL     1     -41.375 -49.892  11.736  1.00  0.00    -0.350 N 
HETATM    8  C   UNL     1     -41.961 -48.595  11.440  1.00  0.00     0.126 C 
HETATM    9  C   UNL     1     -39.932 -49.851  11.595  1.00  0.00     0.126 C 
HETATM   10  C   UNL     1     -40.781 -47.671  11.163  1.00  0.00     0.021 C 
HETATM   11  C   UNL     1     -39.605 -48.384  11.817  1.00  0.00     0.021 C 
ENDBRANCH   3   5
ENDBRANCH   1   3
BRANCH   1  12
HETATM   12  C   UNL     1     -43.068 -54.017  13.259  1.00  0.00     0.292 C 
BRANCH  12  13
HETATM   13  C   UNL     1     -44.553 -54.331  13.052  1.00  0.00     0.178 C 
BRANCH  13  14
HETATM   14  N   UNL     1     -45.380 -53.148  13.208  1.00  0.00    -0.302 N 
HETATM   15  C   UNL     1     -45.798 -52.589  14.381  1.00  0.00     0.111 A 
HETATM   16  C   UNL     1     -46.566 -51.503  14.030  1.00  0.00     0.037 A 
HETATM   17  C   UNL     1     -46.538 -51.488  12.624  1.00  0.00     0.108 A 
HETATM   18  N   UNL     1     -45.807 -52.482  12.117  1.00  0.00    -0.310 N 
ATOM     19  HN  UNL     1     -45.617 -52.688  11.136  1.00  0.00     0.186 HD
ENDBRANCH  13  14
ENDBRANCH  12  13
ENDBRANCH   1  12
TORSDOF 5
ENDMDL
MODEL 8
REMARK VINA RESULT:      -5.0      5.150      5.929
REMARK  5 active torsions:
REMARK  status: ('A' for Active; 'I' for Inactive)
REMARK    1  A    between atoms: C_2  and  N_3 
REMARK    2  A    between atoms: C_2  and  C_12 
REMARK    3  A    between atoms: N_3  and  C_4 
REMARK    4  A    between atoms: C_4  and  C_5 
REMARK    5  A    between atoms: C_5  and  N_6 
REMARK       I    between atoms: C_12  and  N_14 
ROOT
HETATM    1  N   UNL     1     -43.027 -52.889  11.956  1.00  0.00     0.098 N 
HETATM    2  H   UNL     1     -42.361 -53.530  11.526  1.00  0.00     0.317 HD
ENDROOT
BRANCH   1   3
HETATM    3  C   UNL     1     -42.291 -52.055  12.935  1.00  0.00     0.307 C 
HETATM    4  C   UNL     1     -42.210 -50.586  12.507  1.00  0.00     0.053 C 
BRANCH   3   5
HETATM    5  C   UNL     1     -40.860 -52.648  13.056  1.00  0.00     0.252 C 
HETATM    6  O   UNL     1     -39.938 -52.284  12.323  1.00  0.00    -0.271 OA
HETATM    7  N   UNL     1     -40.686 -53.669  13.980  1.00  0.00    -0.350 N 
HETATM    8  C   UNL     1     -39.430 -54.400  14.026  1.00  0.00     0.126 C 
HETATM    9  C   UNL     1     -41.444 -53.869  15.200  1.00  0.00     0.126 C 
HETATM   10  C   UNL     1     -39.384 -55.041  15.407  1.00  0.00     0.021 C 
HETATM   11  C   UNL     1     -40.372 -54.214  16.220  1.00  0.00     0.021 C 
ENDBRANCH   3   5
ENDBRANCH   1   3
BRANCH   1  12
HETATM   12  C   UNL     1     -44.140 -53.639  12.545  1.00  0.00     0.292 C 
BRANCH  12  13
HETATM   13  C   UNL     1     -45.464 -52.902  12.314  1.00  0.00     0.178 C 
BRANCH  13  14
HETATM   14  N   UNL     1     -46.101 -52.534  13.565  1.00  0.00    -0.302 N 
HETATM   15  C   UNL     1     -46.099 -51.303  14.156  1.00  0.00     0.111 A 
HETATM   16  C   UNL     1     -46.811 -51.444  15.323  1.00  0.00     0.037 A 
HETATM   17  C   UNL     1     -47.209 -52.792  15.337  1.00  0.00     0.108 A 
HETATM   18  N   UNL     1     -46.789 -53.460  14.262  1.00  0.00    -0.310 N 
ATOM     19  HN  UNL     1     -46.949 -54.439  14.025  1.00  0.00     0.186 HD
ENDBRANCH  13  14
ENDBRANCH  12  13
ENDBRANCH   1  12
TORSDOF 5
ENDMDL
MODEL 9
REMARK VINA RESULT:      -5.0      5.671      6.645
REMARK  5 active torsions:
REMARK  status: ('A' for Active; 'I' for Inactive)
REMARK    1  A    between atoms: C_2  and  N_3 
REMARK    2  A    between atoms: C_2  and  C_12 
REMARK    3  A    between atoms: N_3  and  C_4 
REMARK    4  A    between atoms: C_4  and  C_5 
REMARK    5  A    between atoms: C_5  and  N_6 
REMARK       I    between atoms: C_12  and  N_14 
ROOT
HETATM    1  N   UNL     1     -44.400 -53.122  12.295  1.00  0.00     0.098 N 
HETATM    2  H   UNL     1     -44.343 -53.431  11.324  1.00  0.00     0.317 HD
ENDROOT
BRANCH   1   3
HETATM    3  C   UNL     1     -44.025 -54.265  13.160  1.00  0.00     0.307 C 
HETATM    4  C   UNL     1     -45.247 -54.984  13.740  1.00  0.00     0.053 C 
BRANCH   3   5
HETATM    5  C   UNL     1     -43.150 -53.698  14.312  1.00  0.00     0.252 C 
HETATM    6  O   UNL     1     -43.628 -53.405  15.410  1.00  0.00    -0.271 OA
HETATM    7  N   UNL     1     -41.814 -53.462  14.021  1.00  0.00    -0.350 N 
HETATM    8  C   UNL     1     -40.974 -52.765  14.981  1.00  0.00     0.126 C 
HETATM    9  C   UNL     1     -41.006 -54.164  13.042  1.00  0.00     0.126 C 
HETATM   10  C   UNL     1     -39.543 -53.124  14.603  1.00  0.00     0.021 C 
HETATM   11  C   UNL     1     -39.696 -54.394  13.778  1.00  0.00     0.021 C 
ENDBRANCH   3   5
ENDBRANCH   1   3
BRANCH   1  12
HETATM   12  C   UNL     1     -45.736 -52.588  12.576  1.00  0.00     0.292 C 
BRANCH  12  13
HETATM   13  C   UNL     1     -45.632 -51.207  13.232  1.00  0.00     0.178 C 
BRANCH  13  14
HETATM   14  N   UNL     1     -45.977 -51.253  14.641  1.00  0.00    -0.302 N 
HETATM   15  C   UNL     1     -47.095 -51.809  15.194  1.00  0.00     0.111 A 
HETATM   16  C   UNL     1     -46.992 -51.596  16.549  1.00  0.00     0.037 A 
HETATM   17  C   UNL     1     -45.773 -50.915  16.710  1.00  0.00     0.108 A 
HETATM   18  N   UNL     1     -45.143 -50.713  15.552  1.00  0.00    -0.310 N 
ATOM     19  HN  UNL     1     -44.245 -50.257  15.393  1.00  0.00     0.186 HD
ENDBRANCH  13  14
ENDBRANCH  12  13
ENDBRANCH   1  12
TORSDOF 5
ENDMDL
