MODEL 1
REMARK VINA RESULT:      -6.5      0.000      0.000
REMARK  6 active torsions:
REMARK  status: ('A' for Active; 'I' for Inactive)
REMARK    1  A    between atoms: N_8  and  C_9 
REMARK    2  A    between atoms: C_9  and  C_10 
REMARK    3  A    between atoms: C_10  and  O_11 
REMARK    4  A    between atoms: C_10  and  C_12 
REMARK    5  A    between atoms: C_12  and  N_13 
REMARK    6  A    between atoms: C_16  and  O_17 
ROOT
HETATM    1  C   UNL     1     -39.952 -51.517  12.803  1.00  0.00     0.163 C 
ENDROOT
BRANCH   1   2
HETATM    2  N   UNL     1     -40.070 -50.175  12.254  1.00  0.00    -0.339 N 
HETATM    3  C   UNL     1     -40.596 -49.878  11.027  1.00  0.00     0.184 A 
HETATM    4  N   UNL     1     -40.602 -48.587  10.798  1.00  0.00    -0.350 N 
HETATM    5  C   UNL     1     -40.058 -48.023  11.923  1.00  0.00     0.060 A 
ATOM      6  HN  UNL     1     -40.938 -48.105   9.964  1.00  0.00     0.166 HD
HETATM    7  C   UNL     1     -39.853 -46.673  12.225  1.00  0.00     0.039 A 
HETATM    8  C   UNL     1     -39.690 -48.996  12.849  1.00  0.00     0.062 A 
HETATM    9  C   UNL     1     -39.282 -46.310  13.462  1.00  0.00    -0.054 A 
HETATM   10  C   UNL     1     -39.116 -44.847  13.782  1.00  0.00     0.049 C 
HETATM   11  C   UNL     1     -38.894 -47.314  14.377  1.00  0.00    -0.054 A 
HETATM   12  C   UNL     1     -39.087 -48.678  14.072  1.00  0.00     0.039 A 
HETATM   13  C   UNL     1     -38.279 -46.950  15.705  1.00  0.00     0.049 C 
ENDBRANCH   1   2
BRANCH   1  14
HETATM   14  C   UNL     1     -41.088 -52.445  12.337  1.00  0.00     0.164 C 
BRANCH  14  15
HETATM   15  O   UNL     1     -40.593 -53.444  11.431  1.00  0.00    -0.392 OA
HETATM   16  H   UNL     1     -41.335 -53.795  10.911  1.00  0.00     0.210 HD
ENDBRANCH  14  15
BRANCH  14  17
HETATM   17  C   UNL     1     -41.778 -53.172  13.523  1.00  0.00     0.305 C 
BRANCH  17  18
HETATM   18  N   UNL     1     -43.229 -52.977  13.593  1.00  0.00     0.091 N 
HETATM   19  C   UNL     1     -43.677 -51.726  12.966  1.00  0.00     0.275 C 
HETATM   20  C   UNL     1     -45.116 -51.461  13.401  1.00  0.00     0.062 C 
HETATM   21  C   UNL     1     -46.048 -52.621  13.058  1.00  0.00     0.121 C 
HETATM   22  C   UNL     1     -45.447 -53.987  13.400  1.00  0.00     0.062 C 
HETATM   23  C   UNL     1     -43.972 -54.103  13.007  1.00  0.00     0.275 C 
BRANCH  21  24
HETATM   24  O   UNL     1     -46.400 -52.572  11.675  1.00  0.00    -0.395 OA
HETATM   25  H   UNL     1     -47.253 -52.119  11.583  1.00  0.00     0.210 HD
ENDBRANCH  21  24
ENDBRANCH  17  18
ENDBRANCH  14  17
ENDBRANCH   1  14
TORSDOF 6
ENDMDL
MODEL 2
REMARK VINA RESULT:      -6.4      2.337      7.444
REMARK  6 active torsions:
REMARK  status: ('A' for Active; 'I' for Inactive)
REMARK    1  A    between atoms: N_8  and  C_9 
REMARK    2  A    between atoms: C_9  and  C_10 
REMARK    3  A    between atoms: C_10  and  O_11 
REMARK    4  A    between atoms: C_10  and  C_12 
REMARK    5  A    between atoms: C_12  and  N_13 
REMARK    6  A    between atoms: C_16  and  O_17 
ROOT
HETATM    1  C   UNL     1     -41.736 -50.016  12.198  1.00  0.00     0.163 C 
ENDROOT
BRANCH   1   2
HETATM    2  N   UNL     1     -42.113 -51.407  12.401  1.00  0.00    -0.339 N 
HETATM    3  C   UNL     1     -41.326 -52.481  12.088  1.00  0.00     0.184 A 
HETATM    4  N   UNL     1     -41.905 -53.616  12.399  1.00  0.00    -0.350 N 
HETATM    5  C   UNL     1     -43.115 -53.264  12.936  1.00  0.00     0.060 A 
ATOM      6  HN  UNL     1     -41.534 -54.558  12.269  1.00  0.00     0.166 HD
HETATM    7  C   UNL     1     -44.123 -54.081  13.460  1.00  0.00     0.039 A 
HETATM    8  C   UNL     1     -43.288 -51.883  12.930  1.00  0.00     0.062 A 
HETATM    9  C   UNL     1     -45.297 -53.501  13.980  1.00  0.00    -0.054 A 
HETATM   10  C   UNL     1     -46.345 -54.401  14.581  1.00  0.00     0.049 C 
HETATM   11  C   UNL     1     -45.462 -52.098  13.942  1.00  0.00    -0.054 A 
HETATM   12  C   UNL     1     -44.455 -51.270  13.403  1.00  0.00     0.039 A 
HETATM   13  C   UNL     1     -46.712 -51.456  14.490  1.00  0.00     0.049 C 
ENDBRANCH   1   2
BRANCH   1  14
HETATM   14  C   UNL     1     -40.355 -49.872  11.533  1.00  0.00     0.164 C 
BRANCH  14  15
HETATM   15  O   UNL     1     -40.474 -49.881  10.102  1.00  0.00    -0.392 OA
HETATM   16  H   UNL     1     -41.332 -50.266   9.859  1.00  0.00     0.210 HD
ENDBRANCH  14  15
BRANCH  14  17
HETATM   17  C   UNL     1     -39.637 -48.559  11.948  1.00  0.00     0.305 C 
BRANCH  17  18
HETATM   18  N   UNL     1     -39.027 -48.596  13.280  1.00  0.00     0.091 N 
HETATM   19  C   UNL     1     -37.789 -49.385  13.331  1.00  0.00     0.275 C 
HETATM   20  C   UNL     1     -37.447 -49.646  14.795  1.00  0.00     0.062 C 
HETATM   21  C   UNL     1     -37.317 -48.353  15.599  1.00  0.00     0.121 C 
HETATM   22  C   UNL     1     -38.438 -47.355  15.303  1.00  0.00     0.062 C 
HETATM   23  C   UNL     1     -38.763 -47.250  13.810  1.00  0.00     0.275 C 
BRANCH  21  24
HETATM   24  O   UNL     1     -36.046 -47.751  15.352  1.00  0.00    -0.395 OA
HETATM   25  H   UNL     1     -36.128 -46.790  15.456  1.00  0.00     0.210 HD
ENDBRANCH  21  24
ENDBRANCH  17  18
ENDBRANCH  14  17
ENDBRANCH   1  14
TORSDOF 6
ENDMDL
MODEL 3
REMARK VINA RESULT:      -6.3      1.595      1.793
REMARK  6 active torsions:
REMARK  status: ('A' for Active; 'I' for Inactive)
REMARK    1  A    between atoms: N_8  and  C_9 
REMARK    2  A    between atoms: C_9  and  C_10 
REMARK    3  A    between atoms: C_10  and  O_11 
REMARK    4  A    between atoms: C_10  and  C_12 
REMARK    5  A    between atoms: C_12  and  N_13 
REMARK    6  A    between atoms: C_16  and  O_17 
ROOT
HETATM    1  C   UNL     1     -39.899 -51.834  13.287  1.00  0.00     0.163 C 
ENDROOT
BRANCH   1   2
HETATM    2  N   UNL     1     -39.491 -50.595  12.643  1.00  0.00    -0.339 N 
HETATM    3  C   UNL     1     -38.364 -50.447  11.883  1.00  0.00     0.184 A 
HETATM    4  N   UNL     1     -38.256 -49.230  11.405  1.00  0.00    -0.350 N 
HETATM    5  C   UNL     1     -39.358 -48.564  11.873  1.00  0.00     0.060 A 
ATOM      6  HN  UNL     1     -37.512 -48.860  10.813  1.00  0.00     0.166 HD
HETATM    7  C   UNL     1     -39.757 -47.242  11.643  1.00  0.00     0.039 A 
HETATM    8  C   UNL     1     -40.144 -49.386  12.675  1.00  0.00     0.062 A 
HETATM    9  C   UNL     1     -40.949 -46.759  12.220  1.00  0.00    -0.054 A 
HETATM   10  C   UNL     1     -41.379 -45.348  11.918  1.00  0.00     0.049 C 
HETATM   11  C   UNL     1     -41.719 -47.604  13.050  1.00  0.00    -0.054 A 
HETATM   12  C   UNL     1     -41.315 -48.934  13.296  1.00  0.00     0.039 A 
HETATM   13  C   UNL     1     -42.996 -47.109  13.680  1.00  0.00     0.049 C 
ENDBRANCH   1   2
BRANCH   1  14
HETATM   14  C   UNL     1     -41.030 -52.550  12.525  1.00  0.00     0.164 C 
BRANCH  14  15
HETATM   15  O   UNL     1     -40.500 -53.333  11.445  1.00  0.00    -0.392 OA
HETATM   16  H   UNL     1     -39.541 -53.186  11.387  1.00  0.00     0.210 HD
ENDBRANCH  14  15
BRANCH  14  17
HETATM   17  C   UNL     1     -41.854 -53.492  13.444  1.00  0.00     0.305 C 
BRANCH  17  18
HETATM   18  N   UNL     1     -43.275 -53.148  13.546  1.00  0.00     0.091 N 
HETATM   19  C   UNL     1     -43.624 -51.907  12.841  1.00  0.00     0.275 C 
HETATM   20  C   UNL     1     -45.012 -51.469  13.302  1.00  0.00     0.062 C 
HETATM   21  C   UNL     1     -46.066 -52.552  13.078  1.00  0.00     0.121 C 
HETATM   22  C   UNL     1     -45.587 -53.942  13.502  1.00  0.00     0.062 C 
HETATM   23  C   UNL     1     -44.147 -54.233  13.071  1.00  0.00     0.275 C 
BRANCH  21  24
HETATM   24  O   UNL     1     -46.466 -52.567  11.707  1.00  0.00    -0.395 OA
HETATM   25  H   UNL     1     -46.278 -51.700  11.315  1.00  0.00     0.210 HD
ENDBRANCH  21  24
ENDBRANCH  17  18
ENDBRANCH  14  17
ENDBRANCH   1  14
TORSDOF 6
ENDMDL
MODEL 4
REMARK VINA RESULT:      -6.2      2.605      7.245
REMARK  6 active torsions:
REMARK  status: ('A' for Active; 'I' for Inactive)
REMARK    1  A    between atoms: N_8  and  C_9 
REMARK    2  A    between atoms: C_9  and  C_10 
REMARK    3  A    between atoms: C_10  and  O_11 
REMARK    4  A    between atoms: C_10  and  C_12 
REMARK    5  A    between atoms: C_12  and  N_13 
REMARK    6  A    between atoms: C_16  and  O_17 
ROOT
HETATM    1  C   UNL     1     -41.703 -50.118  12.170  1.00  0.00     0.163 C 
ENDROOT
BRANCH   1   2
HETATM    2  N   UNL     1     -42.093 -51.500  12.406  1.00  0.00    -0.339 N 
HETATM    3  C   UNL     1     -41.313 -52.589  12.128  1.00  0.00     0.184 A 
HETATM    4  N   UNL     1     -41.905 -53.710  12.464  1.00  0.00    -0.350 N 
HETATM    5  C   UNL     1     -43.116 -53.333  12.982  1.00  0.00     0.060 A 
ATOM      6  HN  UNL     1     -41.542 -54.658  12.362  1.00  0.00     0.166 HD
HETATM    7  C   UNL     1     -44.135 -54.128  13.518  1.00  0.00     0.039 A 
HETATM    8  C   UNL     1     -43.277 -51.951  12.938  1.00  0.00     0.062 A 
HETATM    9  C   UNL     1     -45.309 -53.524  14.013  1.00  0.00    -0.054 A 
HETATM   10  C   UNL     1     -46.369 -54.399  14.628  1.00  0.00     0.049 C 
HETATM   11  C   UNL     1     -45.461 -52.122  13.937  1.00  0.00    -0.054 A 
HETATM   12  C   UNL     1     -44.443 -51.316  13.385  1.00  0.00     0.039 A 
HETATM   13  C   UNL     1     -46.709 -51.454  14.457  1.00  0.00     0.049 C 
ENDBRANCH   1   2
BRANCH   1  14
HETATM   14  C   UNL     1     -40.333 -50.005  11.476  1.00  0.00     0.164 C 
BRANCH  14  15
HETATM   15  O   UNL     1     -40.490 -49.899  10.053  1.00  0.00    -0.392 OA
HETATM   16  H   UNL     1     -41.030 -50.644   9.738  1.00  0.00     0.210 HD
ENDBRANCH  14  15
BRANCH  14  17
HETATM   17  C   UNL     1     -39.527 -48.770  11.964  1.00  0.00     0.305 C 
BRANCH  17  18
HETATM   18  N   UNL     1     -40.327 -47.555  12.140  1.00  0.00     0.091 N 
HETATM   19  C   UNL     1     -40.111 -46.901  13.437  1.00  0.00     0.275 C 
HETATM   20  C   UNL     1     -41.226 -45.880  13.650  1.00  0.00     0.062 C 
HETATM   21  C   UNL     1     -41.302 -44.859  12.517  1.00  0.00     0.121 C 
HETATM   22  C   UNL     1     -41.186 -45.499  11.132  1.00  0.00     0.062 C 
HETATM   23  C   UNL     1     -40.101 -46.578  11.064  1.00  0.00     0.275 C 
BRANCH  21  24
HETATM   24  O   UNL     1     -40.287 -43.868  12.686  1.00  0.00    -0.395 OA
HETATM   25  H   UNL     1     -39.429 -44.310  12.784  1.00  0.00     0.210 HD
ENDBRANCH  21  24
ENDBRANCH  17  18
ENDBRANCH  14  17
ENDBRANCH   1  14
TORSDOF 6
ENDMDL
MODEL 5
REMARK VINA RESULT:      -6.2      2.374      7.039
REMARK  6 active torsions:
REMARK  status: ('A' for Active; 'I' for Inactive)
REMARK    1  A    between atoms: N_8  and  C_9 
REMARK    2  A    between atoms: C_9  and  C_10 
REMARK    3  A    between atoms: C_10  and  O_11 
REMARK    4  A    between atoms: C_10  and  C_12 
REMARK    5  A    between atoms: C_12  and  N_13 
REMARK    6  A    between atoms: C_16  and  O_17 
ROOT
HETATM    1  C   UNL     1     -42.399 -53.481  13.863  1.00  0.00     0.163 C 
ENDROOT
BRANCH   1   2
HETATM    2  N   UNL     1     -43.851 -53.514  13.947  1.00  0.00    -0.339 N 
HETATM    3  C   UNL     1     -44.652 -54.381  13.256  1.00  0.00     0.184 A 
HETATM    4  N   UNL     1     -45.920 -54.205  13.540  1.00  0.00    -0.350 N 
HETATM    5  C   UNL     1     -45.942 -53.183  14.454  1.00  0.00     0.060 A 
ATOM      6  HN  UNL     1     -46.717 -54.718  13.164  1.00  0.00     0.166 HD
HETATM    7  C   UNL     1     -47.034 -52.609  15.113  1.00  0.00     0.039 A 
HETATM    8  C   UNL     1     -44.659 -52.709  14.713  1.00  0.00     0.062 A 
HETATM    9  C   UNL     1     -46.827 -51.564  16.035  1.00  0.00    -0.054 A 
HETATM   10  C   UNL     1     -48.015 -50.995  16.766  1.00  0.00     0.049 C 
HETATM   11  C   UNL     1     -45.518 -51.082  16.265  1.00  0.00    -0.054 A 
HETATM   12  C   UNL     1     -44.414 -51.648  15.593  1.00  0.00     0.039 A 
HETATM   13  C   UNL     1     -45.272 -49.962  17.245  1.00  0.00     0.049 C 
ENDBRANCH   1   2
BRANCH   1  14
HETATM   14  C   UNL     1     -41.895 -52.540  12.753  1.00  0.00     0.164 C 
BRANCH  14  15
HETATM   15  O   UNL     1     -42.789 -52.552  11.629  1.00  0.00    -0.392 OA
HETATM   16  H   UNL     1     -43.678 -52.298  11.930  1.00  0.00     0.210 HD
ENDBRANCH  14  15
BRANCH  14  17
HETATM   17  C   UNL     1     -41.756 -51.073  13.242  1.00  0.00     0.305 C 
BRANCH  17  18
HETATM   18  N   UNL     1     -40.455 -50.460  12.960  1.00  0.00     0.091 N 
HETATM   19  C   UNL     1     -39.375 -51.442  12.790  1.00  0.00     0.275 C 
HETATM   20  C   UNL     1     -38.041 -50.704  12.858  1.00  0.00     0.062 C 
HETATM   21  C   UNL     1     -37.945 -49.585  11.822  1.00  0.00     0.121 C 
HETATM   22  C   UNL     1     -39.218 -48.739  11.743  1.00  0.00     0.062 C 
HETATM   23  C   UNL     1     -40.496 -49.581  11.783  1.00  0.00     0.275 C 
BRANCH  21  24
HETATM   24  O   UNL     1     -37.640 -50.133  10.539  1.00  0.00    -0.395 OA
HETATM   25  H   UNL     1     -36.740 -50.497  10.559  1.00  0.00     0.210 HD
ENDBRANCH  21  24
ENDBRANCH  17  18
ENDBRANCH  14  17
ENDBRANCH   1  14
TORSDOF 6
ENDMDL
MODEL 6
REMARK VINA RESULT:      -6.2      4.216      6.256
REMARK  6 active torsions:
REMARK  status: ('A' for Active; 'I' for Inactive)
REMARK    1  A    between atoms: N_8  and  C_9 
REMARK    2  A    between atoms: C_9  and  C_10 
REMARK    3  A    between atoms: C_10  and  O_11 
REMARK    4  A    between atoms: C_10  and  C_12 
REMARK    5  A    between atoms: C_12  and  N_13 
REMARK    6  A    between atoms: C_16  and  O_17 
ROOT
HETATM    1  C   UNL     1     -42.837 -51.605  12.788  1.00  0.00     0.163 C 
ENDROOT
BRANCH   1   2
HETATM    2  N   UNL     1     -44.202 -51.973  13.130  1.00  0.00    -0.339 N 
HETATM    3  C   UNL     1     -45.000 -52.791  12.378  1.00  0.00     0.184 A 
HETATM    4  N   UNL     1     -46.174 -52.972  12.935  1.00  0.00    -0.350 N 
HETATM    5  C   UNL     1     -46.134 -52.244  14.096  1.00  0.00     0.060 A 
ATOM      6  HN  UNL     1     -46.949 -53.534  12.582  1.00  0.00     0.166 HD
HETATM    7  C   UNL     1     -47.111 -52.106  15.088  1.00  0.00     0.039 A 
HETATM    8  C   UNL     1     -44.917 -51.583  14.237  1.00  0.00     0.062 A 
HETATM    9  C   UNL     1     -46.854 -51.307  16.220  1.00  0.00    -0.054 A 
HETATM   10  C   UNL     1     -47.904 -51.213  17.295  1.00  0.00     0.049 C 
HETATM   11  C   UNL     1     -45.620 -50.626  16.331  1.00  0.00    -0.054 A 
HETATM   12  C   UNL     1     -44.636 -50.751  15.328  1.00  0.00     0.039 A 
HETATM   13  C   UNL     1     -45.323 -49.764  17.532  1.00  0.00     0.049 C 
ENDBRANCH   1   2
BRANCH   1  14
HETATM   14  C   UNL     1     -41.990 -52.817  12.359  1.00  0.00     0.164 C 
BRANCH  14  15
HETATM   15  O   UNL     1     -41.286 -52.541  11.138  1.00  0.00    -0.392 OA
HETATM   16  H   UNL     1     -40.349 -52.380  11.343  1.00  0.00     0.210 HD
ENDBRANCH  14  15
BRANCH  14  17
HETATM   17  C   UNL     1     -40.947 -53.218  13.436  1.00  0.00     0.305 C 
BRANCH  17  18
HETATM   18  N   UNL     1     -41.527 -53.749  14.674  1.00  0.00     0.091 N 
HETATM   19  C   UNL     1     -42.670 -54.643  14.442  1.00  0.00     0.275 C 
HETATM   20  C   UNL     1     -43.397 -54.844  15.770  1.00  0.00     0.062 C 
HETATM   21  C   UNL     1     -42.475 -55.387  16.859  1.00  0.00     0.121 C 
HETATM   22  C   UNL     1     -41.118 -54.680  16.897  1.00  0.00     0.062 C 
HETATM   23  C   UNL     1     -40.531 -54.444  15.503  1.00  0.00     0.275 C 
BRANCH  21  24
HETATM   24  O   UNL     1     -42.290 -56.793  16.685  1.00  0.00    -0.395 OA
HETATM   25  H   UNL     1     -42.781 -57.263  17.377  1.00  0.00     0.210 HD
ENDBRANCH  21  24
ENDBRANCH  17  18
ENDBRANCH  14  17
ENDBRANCH   1  14
TORSDOF 6
ENDMDL
MODEL 7
REMARK VINA RESULT:      -6.1      2.873      3.964
REMARK  6 active torsions:
REMARK  status: ('A' for Active; 'I' for Inactive)
REMARK    1  A    between atoms: N_8  and  C_9 
REMARK    2  A    between atoms: C_9  and  C_10 
REMARK    3  A    between atoms: C_10  and  O_11 
REMARK    4  A    between atoms: C_10  and  C_12 
REMARK    5  A    between atoms: C_12  and  N_13 
REMARK    6  A    between atoms: C_16  and  O_17 
ROOT
HETATM    1  C   UNL     1     -42.207 -49.311  11.815  1.00  0.00     0.163 C 
ENDROOT
BRANCH   1   2
HETATM    2  N   UNL     1     -41.893 -48.008  11.251  1.00  0.00    -0.339 N 
HETATM    3  C   UNL     1     -42.287 -47.579  10.013  1.00  0.00     0.184 A 
HETATM    4  N   UNL     1     -41.885 -46.354   9.771  1.00  0.00    -0.350 N 
HETATM    5  C   UNL     1     -41.205 -45.972  10.899  1.00  0.00     0.060 A 
ATOM      6  HN  UNL     1     -42.045 -45.803   8.927  1.00  0.00     0.166 HD
HETATM    7  C   UNL     1     -40.591 -44.750  11.190  1.00  0.00     0.039 A 
HETATM    8  C   UNL     1     -41.170 -46.998  11.839  1.00  0.00     0.062 A 
HETATM    9  C   UNL     1     -39.950 -44.565  12.432  1.00  0.00    -0.054 A 
HETATM   10  C   UNL     1     -39.338 -43.224  12.739  1.00  0.00     0.049 C 
HETATM   11  C   UNL     1     -39.906 -45.628  13.362  1.00  0.00    -0.054 A 
HETATM   12  C   UNL     1     -40.512 -46.868  13.068  1.00  0.00     0.039 A 
HETATM   13  C   UNL     1     -39.223 -45.455  14.695  1.00  0.00     0.049 C 
ENDBRANCH   1   2
BRANCH   1  14
HETATM   14  C   UNL     1     -41.103 -50.351  11.545  1.00  0.00     0.164 C 
BRANCH  14  15
HETATM   15  O   UNL     1     -40.342 -49.996  10.381  1.00  0.00    -0.392 OA
HETATM   16  H   UNL     1     -39.405 -50.199  10.541  1.00  0.00     0.210 HD
ENDBRANCH  14  15
BRANCH  14  17
HETATM   17  C   UNL     1     -40.120 -50.487  12.739  1.00  0.00     0.305 C 
BRANCH  17  18
HETATM   18  N   UNL     1     -40.126 -51.805  13.382  1.00  0.00     0.091 N 
HETATM   19  C   UNL     1     -40.569 -52.884  12.489  1.00  0.00     0.275 C 
HETATM   20  C   UNL     1     -40.872 -54.115  13.339  1.00  0.00     0.062 C 
HETATM   21  C   UNL     1     -39.674 -54.546  14.183  1.00  0.00     0.121 C 
HETATM   22  C   UNL     1     -38.976 -53.369  14.869  1.00  0.00     0.062 C 
HETATM   23  C   UNL     1     -38.815 -52.155  13.949  1.00  0.00     0.275 C 
BRANCH  21  24
HETATM   24  O   UNL     1     -38.742 -55.266  13.376  1.00  0.00    -0.395 OA
HETATM   25  H   UNL     1     -39.129 -55.403  12.496  1.00  0.00     0.210 HD
ENDBRANCH  21  24
ENDBRANCH  17  18
ENDBRANCH  14  17
ENDBRANCH   1  14
TORSDOF 6
ENDMDL
MODEL 8
REMARK VINA RESULT:      -6.1      2.451      3.010
REMARK  6 active torsions:
REMARK  status: ('A' for Active; 'I' for Inactive)
REMARK    1  A    between atoms: N_8  and  C_9 
REMARK    2  A    between atoms: C_9  and  C_10 
REMARK    3  A    between atoms: C_10  and  O_11 
REMARK    4  A    between atoms: C_10  and  C_12 
REMARK    5  A    between atoms: C_12  and  N_13 
REMARK    6  A    between atoms: C_16  and  O_17 
ROOT
HETATM    1  C   UNL     1     -39.024 -52.579  14.503  1.00  0.00     0.163 C 
ENDROOT
BRANCH   1   2
HETATM    2  N   UNL     1     -38.775 -51.478  13.586  1.00  0.00    -0.339 N 
HETATM    3  C   UNL     1     -37.550 -51.154  13.070  1.00  0.00     0.184 A 
HETATM    4  N   UNL     1     -37.621 -50.132  12.252  1.00  0.00    -0.350 N 
HETATM    5  C   UNL     1     -38.946 -49.779  12.235  1.00  0.00     0.060 A 
ATOM      6  HN  UNL     1     -36.857 -49.694  11.738  1.00  0.00     0.166 HD
HETATM    7  C   UNL     1     -39.583 -48.769  11.507  1.00  0.00     0.039 A 
HETATM    8  C   UNL     1     -39.695 -50.590  13.083  1.00  0.00     0.062 A 
HETATM    9  C   UNL     1     -40.975 -48.585  11.632  1.00  0.00    -0.054 A 
HETATM   10  C   UNL     1     -41.644 -47.522  10.801  1.00  0.00     0.049 C 
HETATM   11  C   UNL     1     -41.713 -49.404  12.517  1.00  0.00    -0.054 A 
HETATM   12  C   UNL     1     -41.073 -50.416  13.264  1.00  0.00     0.039 A 
HETATM   13  C   UNL     1     -43.202 -49.225  12.670  1.00  0.00     0.049 C 
ENDBRANCH   1   2
BRANCH   1  14
HETATM   14  C   UNL     1     -39.737 -53.762  13.823  1.00  0.00     0.164 C 
BRANCH  14  15
HETATM   15  O   UNL     1     -38.792 -54.769  13.429  1.00  0.00    -0.392 OA
HETATM   16  H   UNL     1     -39.209 -55.355  12.775  1.00  0.00     0.210 HD
ENDBRANCH  14  15
BRANCH  14  17
HETATM   17  C   UNL     1     -40.790 -54.427  14.750  1.00  0.00     0.305 C 
BRANCH  17  18
HETATM   18  N   UNL     1     -42.169 -53.995  14.509  1.00  0.00     0.091 N 
HETATM   19  C   UNL     1     -42.498 -53.873  13.082  1.00  0.00     0.275 C 
HETATM   20  C   UNL     1     -43.805 -53.095  12.956  1.00  0.00     0.062 C 
HETATM   21  C   UNL     1     -44.945 -53.747  13.737  1.00  0.00     0.121 C 
HETATM   22  C   UNL     1     -44.523 -54.199  15.137  1.00  0.00     0.062 C 
HETATM   23  C   UNL     1     -43.151 -54.879  15.156  1.00  0.00     0.275 C 
BRANCH  21  24
HETATM   24  O   UNL     1     -45.469 -54.854  13.002  1.00  0.00    -0.395 OA
HETATM   25  H   UNL     1     -45.420 -54.653  12.054  1.00  0.00     0.210 HD
ENDBRANCH  21  24
ENDBRANCH  17  18
ENDBRANCH  14  17
ENDBRANCH   1  14
TORSDOF 6
ENDMDL
MODEL 9
REMARK VINA RESULT:      -5.9      2.765      6.916
REMARK  6 active torsions:
REMARK  status: ('A' for Active; 'I' for Inactive)
REMARK    1  A    between atoms: N_8  and  C_9 
REMARK    2  A    between atoms: C_9  and  C_10 
REMARK    3  A    between atoms: C_10  and  O_11 
REMARK    4  A    between atoms: C_10  and  C_12 
REMARK    5  A    between atoms: C_12  and  N_13 
REMARK    6  A    between atoms: C_16  and  O_17 
ROOT
HETATM    1  C   UNL     1     -41.116 -51.322  12.192  1.00  0.00     0.163 C 
ENDROOT
BRANCH   1   2
HETATM    2  N   UNL     1     -41.750 -51.222  13.497  1.00  0.00    -0.339 N 
HETATM    3  C   UNL     1     -41.084 -51.006  14.673  1.00  0.00     0.184 A 
HETATM    4  N   UNL     1     -41.906 -50.936  15.693  1.00  0.00    -0.350 N 
HETATM    5  C   UNL     1     -43.155 -51.114  15.157  1.00  0.00     0.060 A 
ATOM      6  HN  UNL     1     -41.667 -50.783  16.673  1.00  0.00     0.166 HD
HETATM    7  C   UNL     1     -44.400 -51.104  15.794  1.00  0.00     0.039 A 
HETATM    8  C   UNL     1     -43.091 -51.321  13.782  1.00  0.00     0.062 A 
HETATM    9  C   UNL     1     -45.576 -51.297  15.040  1.00  0.00    -0.054 A 
HETATM   10  C   UNL     1     -46.906 -51.235  15.744  1.00  0.00     0.049 C 
HETATM   11  C   UNL     1     -45.486 -51.529  13.650  1.00  0.00    -0.054 A 
HETATM   12  C   UNL     1     -44.231 -51.554  13.004  1.00  0.00     0.039 A 
HETATM   13  C   UNL     1     -46.729 -51.742  12.823  1.00  0.00     0.049 C 
ENDBRANCH   1   2
BRANCH   1  14
HETATM   14  C   UNL     1     -40.804 -49.943  11.583  1.00  0.00     0.164 C 
BRANCH  14  15
HETATM   15  O   UNL     1     -40.493 -50.061  10.186  1.00  0.00    -0.392 OA
HETATM   16  H   UNL     1     -40.982 -49.380   9.694  1.00  0.00     0.210 HD
ENDBRANCH  14  15
BRANCH  14  17
HETATM   17  C   UNL     1     -41.990 -48.952  11.729  1.00  0.00     0.305 C 
BRANCH  17  18
HETATM   18  N   UNL     1     -41.625 -47.541  11.573  1.00  0.00     0.091 N 
HETATM   19  C   UNL     1     -40.175 -47.310  11.606  1.00  0.00     0.275 C 
HETATM   20  C   UNL     1     -39.932 -45.814  11.791  1.00  0.00     0.062 C 
HETATM   21  C   UNL     1     -40.605 -44.979  10.703  1.00  0.00     0.121 C 
HETATM   22  C   UNL     1     -42.037 -45.432  10.408  1.00  0.00     0.062 C 
HETATM   23  C   UNL     1     -42.179 -46.955  10.343  1.00  0.00     0.275 C 
BRANCH  21  24
HETATM   24  O   UNL     1     -39.824 -45.014   9.509  1.00  0.00    -0.395 OA
HETATM   25  H   UNL     1     -40.420 -45.069   8.744  1.00  0.00     0.210 HD
ENDBRANCH  21  24
ENDBRANCH  17  18
ENDBRANCH  14  17
ENDBRANCH   1  14
TORSDOF 6
ENDMDL
