MODEL 1
REMARK VINA RESULT:      -5.5      0.000      0.000
REMARK  4 active torsions:
REMARK  status: ('A' for Active; 'I' for Inactive)
REMARK       I    between atoms: C_2  and  N_3 
REMARK    1  A    between atoms: C_2  and  C_13 
REMARK    2  A    between atoms: N_3  and  C_4 
REMARK    3  A    between atoms: C_4  and  C_5 
REMARK    4  A    between atoms: C_5  and  C_6 
ROOT
HETATM    1  O   UNL     1     -44.304 -50.490  14.969  1.00  0.00    -0.273 OA
HETATM    2  C   UNL     1     -44.511 -50.828  13.807  1.00  0.00     0.222 C 
HETATM    3  N   UNL     1     -43.541 -50.765  12.834  1.00  0.00    -0.360 N 
HETATM    4  H   UNL     1     -43.775 -51.034  11.888  1.00  0.00     0.162 HD
ENDROOT
BRANCH   3   5
HETATM    5  C   UNL     1     -42.161 -50.400  13.132  1.00  0.00     0.128 C 
BRANCH   5   6
HETATM    6  C   UNL     1     -41.358 -50.231  11.846  1.00  0.00     0.076 C 
BRANCH   6   7
HETATM    7  C   UNL     1     -39.886 -50.475  12.023  1.00  0.00     0.010 A 
HETATM    8  C   UNL     1     -39.412 -51.183  13.125  1.00  0.00     0.025 A 
HETATM    9  C   UNL     1     -38.036 -51.320  13.293  1.00  0.00     0.003 A 
HETATM   10  C   UNL     1     -37.176 -50.760  12.358  1.00  0.00     0.017 A 
HETATM   11  C   UNL     1     -37.731 -50.090  11.279  1.00  0.00     0.088 A 
HETATM   12  N   UNL     1     -39.060 -49.938  11.094  1.00  0.00    -0.369 N 
ATOM     13  HN  UNL     1     -39.428 -49.437  10.286  1.00  0.00     0.165 HD
ENDBRANCH   6   7
ENDBRANCH   5   6
ENDBRANCH   3   5
BRANCH   2  14
HETATM   14  C   UNL     1     -45.867 -51.329  13.300  1.00  0.00     0.082 C 
HETATM   15  C   UNL     1     -46.881 -51.484  14.442  1.00  0.00     0.040 C 
HETATM   16  C   UNL     1     -46.579 -52.708  15.300  1.00  0.00     0.168 C 
HETATM   17  O   UNL     1     -46.503 -53.884  14.492  1.00  0.00    -0.391 OA
HETATM   18  C   UNL     1     -45.465 -53.804  13.518  1.00  0.00     0.168 C 
HETATM   19  C   UNL     1     -45.744 -52.662  12.549  1.00  0.00     0.040 C 
ENDBRANCH   2  14
TORSDOF 4
ENDMDL
MODEL 2
REMARK VINA RESULT:      -5.4      1.637      2.086
REMARK  4 active torsions:
REMARK  status: ('A' for Active; 'I' for Inactive)
REMARK       I    between atoms: C_2  and  N_3 
REMARK    1  A    between atoms: C_2  and  C_13 
REMARK    2  A    between atoms: N_3  and  C_4 
REMARK    3  A    between atoms: C_4  and  C_5 
REMARK    4  A    between atoms: C_5  and  C_6 
ROOT
HETATM    1  O   UNL     1     -43.622 -51.203  13.086  1.00  0.00    -0.273 OA
HETATM    2  C   UNL     1     -43.954 -52.384  13.122  1.00  0.00     0.222 C 
HETATM    3  N   UNL     1     -43.076 -53.391  13.447  1.00  0.00    -0.360 N 
HETATM    4  H   UNL     1     -43.400 -54.349  13.437  1.00  0.00     0.162 HD
ENDROOT
BRANCH   3   5
HETATM    5  C   UNL     1     -41.712 -53.124  13.885  1.00  0.00     0.128 C 
BRANCH   5   6
HETATM    6  C   UNL     1     -40.755 -53.112  12.697  1.00  0.00     0.076 C 
BRANCH   6   7
HETATM    7  C   UNL     1     -40.229 -51.745  12.366  1.00  0.00     0.010 A 
HETATM    8  C   UNL     1     -39.134 -51.221  13.050  1.00  0.00     0.025 A 
HETATM    9  C   UNL     1     -38.726 -49.920  12.765  1.00  0.00     0.003 A 
HETATM   10  C   UNL     1     -39.409 -49.184  11.807  1.00  0.00     0.017 A 
HETATM   11  C   UNL     1     -40.474 -49.789  11.157  1.00  0.00     0.088 A 
HETATM   12  N   UNL     1     -40.894 -51.047  11.415  1.00  0.00    -0.369 N 
ATOM     13  HN  UNL     1     -41.683 -51.455  10.914  1.00  0.00     0.165 HD
ENDBRANCH   6   7
ENDBRANCH   5   6
ENDBRANCH   3   5
BRANCH   2  14
HETATM   14  C   UNL     1     -45.366 -52.875  12.786  1.00  0.00     0.082 C 
HETATM   15  C   UNL     1     -46.407 -51.755  12.917  1.00  0.00     0.040 C 
HETATM   16  C   UNL     1     -46.704 -51.432  14.377  1.00  0.00     0.168 C 
HETATM   17  O   UNL     1     -47.097 -52.609  15.085  1.00  0.00    -0.391 OA
HETATM   18  C   UNL     1     -46.075 -53.604  15.088  1.00  0.00     0.168 C 
HETATM   19  C   UNL     1     -45.787 -54.061  13.664  1.00  0.00     0.040 C 
ENDBRANCH   2  14
TORSDOF 4
ENDMDL
MODEL 3
REMARK VINA RESULT:      -5.4      2.154      3.415
REMARK  4 active torsions:
REMARK  status: ('A' for Active; 'I' for Inactive)
REMARK       I    between atoms: C_2  and  N_3 
REMARK    1  A    between atoms: C_2  and  C_13 
REMARK    2  A    between atoms: N_3  and  C_4 
REMARK    3  A    between atoms: C_4  and  C_5 
REMARK    4  A    between atoms: C_5  and  C_6 
ROOT
HETATM    1  O   UNL     1     -42.585 -54.086  13.663  1.00  0.00    -0.273 OA
HETATM    2  C   UNL     1     -43.306 -53.578  12.809  1.00  0.00     0.222 C 
HETATM    3  N   UNL     1     -42.846 -52.646  11.909  1.00  0.00    -0.360 N 
HETATM    4  H   UNL     1     -43.492 -52.243  11.244  1.00  0.00     0.162 HD
ENDROOT
BRANCH   3   5
HETATM    5  C   UNL     1     -41.439 -52.273  11.825  1.00  0.00     0.128 C 
BRANCH   5   6
HETATM    6  C   UNL     1     -41.164 -51.015  12.642  1.00  0.00     0.076 C 
BRANCH   6   7
HETATM    7  C   UNL     1     -41.744 -49.769  12.036  1.00  0.00     0.010 A 
HETATM    8  C   UNL     1     -42.818 -49.119  12.641  1.00  0.00     0.025 A 
HETATM    9  C   UNL     1     -43.376 -48.012  12.006  1.00  0.00     0.003 A 
HETATM   10  C   UNL     1     -42.846 -47.579  10.799  1.00  0.00     0.017 A 
HETATM   11  C   UNL     1     -41.763 -48.269  10.276  1.00  0.00     0.088 A 
HETATM   12  N   UNL     1     -41.205 -49.348  10.867  1.00  0.00    -0.369 N 
ATOM     13  HN  UNL     1     -40.408 -49.828  10.450  1.00  0.00     0.165 HD
ENDBRANCH   6   7
ENDBRANCH   5   6
ENDBRANCH   3   5
BRANCH   2  14
HETATM   14  C   UNL     1     -44.798 -53.898  12.664  1.00  0.00     0.082 C 
HETATM   15  C   UNL     1     -45.653 -52.624  12.617  1.00  0.00     0.040 C 
HETATM   16  C   UNL     1     -45.772 -51.976  13.993  1.00  0.00     0.168 C 
HETATM   17  O   UNL     1     -46.265 -52.914  14.952  1.00  0.00    -0.391 OA
HETATM   18  C   UNL     1     -45.398 -54.036  15.104  1.00  0.00     0.168 C 
HETATM   19  C   UNL     1     -45.305 -54.806  13.793  1.00  0.00     0.040 C 
ENDBRANCH   2  14
TORSDOF 4
ENDMDL
MODEL 4
REMARK VINA RESULT:      -5.3      1.729      2.214
REMARK  4 active torsions:
REMARK  status: ('A' for Active; 'I' for Inactive)
REMARK       I    between atoms: C_2  and  N_3 
REMARK    1  A    between atoms: C_2  and  C_13 
REMARK    2  A    between atoms: N_3  and  C_4 
REMARK    3  A    between atoms: C_4  and  C_5 
REMARK    4  A    between atoms: C_5  and  C_6 
ROOT
HETATM    1  O   UNL     1     -44.335 -50.552  15.069  1.00  0.00    -0.273 OA
HETATM    2  C   UNL     1     -44.672 -50.793  13.914  1.00  0.00     0.222 C 
HETATM    3  N   UNL     1     -43.863 -50.527  12.835  1.00  0.00    -0.360 N 
HETATM    4  H   UNL     1     -44.204 -50.723  11.903  1.00  0.00     0.162 HD
ENDROOT
BRANCH   3   5
HETATM    5  C   UNL     1     -42.496 -50.043  12.987  1.00  0.00     0.128 C 
BRANCH   5   6
HETATM    6  C   UNL     1     -41.544 -50.819  12.081  1.00  0.00     0.076 C 
BRANCH   6   7
HETATM    7  C   UNL     1     -40.950 -52.033  12.737  1.00  0.00     0.010 A 
HETATM    8  C   UNL     1     -39.847 -51.915  13.582  1.00  0.00     0.025 A 
HETATM    9  C   UNL     1     -39.279 -53.073  14.108  1.00  0.00     0.003 A 
HETATM   10  C   UNL     1     -39.828 -54.308  13.789  1.00  0.00     0.017 A 
HETATM   11  C   UNL     1     -40.938 -54.335  12.960  1.00  0.00     0.088 A 
HETATM   12  N   UNL     1     -41.506 -53.229  12.431  1.00  0.00    -0.369 N 
ATOM     13  HN  UNL     1     -42.323 -53.292  11.825  1.00  0.00     0.165 HD
ENDBRANCH   6   7
ENDBRANCH   5   6
ENDBRANCH   3   5
BRANCH   2  14
HETATM   14  C   UNL     1     -46.033 -51.388  13.537  1.00  0.00     0.082 C 
HETATM   15  C   UNL     1     -46.841 -51.795  14.777  1.00  0.00     0.040 C 
HETATM   16  C   UNL     1     -46.292 -53.068  15.413  1.00  0.00     0.168 C 
HETATM   17  O   UNL     1     -46.223 -54.123  14.452  1.00  0.00    -0.391 OA
HETATM   18  C   UNL     1     -45.358 -53.806  13.364  1.00  0.00     0.168 C 
HETATM   19  C   UNL     1     -45.894 -52.599  12.605  1.00  0.00     0.040 C 
ENDBRANCH   2  14
TORSDOF 4
ENDMDL
MODEL 5
REMARK VINA RESULT:      -5.3      3.246      6.636
REMARK  4 active torsions:
REMARK  status: ('A' for Active; 'I' for Inactive)
REMARK       I    between atoms: C_2  and  N_3 
REMARK    1  A    between atoms: C_2  and  C_13 
REMARK    2  A    between atoms: N_3  and  C_4 
REMARK    3  A    between atoms: C_4  and  C_5 
REMARK    4  A    between atoms: C_5  and  C_6 
ROOT
HETATM    1  O   UNL     1     -41.036 -48.196  12.738  1.00  0.00    -0.273 OA
HETATM    2  C   UNL     1     -42.123 -48.390  12.201  1.00  0.00     0.222 C 
HETATM    3  N   UNL     1     -42.544 -49.639  11.812  1.00  0.00    -0.360 N 
HETATM    4  H   UNL     1     -43.439 -49.735  11.350  1.00  0.00     0.162 HD
ENDROOT
BRANCH   3   5
HETATM    5  C   UNL     1     -41.784 -50.846  12.110  1.00  0.00     0.128 C 
BRANCH   5   6
HETATM    6  C   UNL     1     -42.316 -51.523  13.369  1.00  0.00     0.076 C 
BRANCH   6   7
HETATM    7  C   UNL     1     -43.810 -51.684  13.377  1.00  0.00     0.010 A 
HETATM    8  C   UNL     1     -44.588 -51.041  14.337  1.00  0.00     0.025 A 
HETATM    9  C   UNL     1     -45.961 -51.278  14.356  1.00  0.00     0.003 A 
HETATM   10  C   UNL     1     -46.518 -52.136  13.417  1.00  0.00     0.017 A 
HETATM   11  C   UNL     1     -45.676 -52.717  12.483  1.00  0.00     0.088 A 
HETATM   12  N   UNL     1     -44.341 -52.509  12.444  1.00  0.00    -0.369 N 
ATOM     13  HN  UNL     1     -43.756 -52.956  11.739  1.00  0.00     0.165 HD
ENDBRANCH   6   7
ENDBRANCH   5   6
ENDBRANCH   3   5
BRANCH   2  14
HETATM   14  C   UNL     1     -43.117 -47.270  11.877  1.00  0.00     0.082 C 
HETATM   15  C   UNL     1     -43.858 -47.528  10.558  1.00  0.00     0.040 C 
HETATM   16  C   UNL     1     -42.958 -47.283   9.350  1.00  0.00     0.168 C 
HETATM   17  O   UNL     1     -42.396 -45.971   9.397  1.00  0.00    -0.391 OA
HETATM   18  C   UNL     1     -41.587 -45.771  10.555  1.00  0.00     0.168 C 
HETATM   19  C   UNL     1     -42.436 -45.896  11.814  1.00  0.00     0.040 C 
ENDBRANCH   2  14
TORSDOF 4
ENDMDL
MODEL 6
REMARK VINA RESULT:      -5.2      2.864      6.946
REMARK  4 active torsions:
REMARK  status: ('A' for Active; 'I' for Inactive)
REMARK       I    between atoms: C_2  and  N_3 
REMARK    1  A    between atoms: C_2  and  C_13 
REMARK    2  A    between atoms: N_3  and  C_4 
REMARK    3  A    between atoms: C_4  and  C_5 
REMARK    4  A    between atoms: C_5  and  C_6 
ROOT
HETATM    1  O   UNL     1     -41.195 -49.846  13.141  1.00  0.00    -0.273 OA
HETATM    2  C   UNL     1     -40.242 -50.146  12.429  1.00  0.00     0.222 C 
HETATM    3  N   UNL     1     -40.185 -51.324  11.724  1.00  0.00    -0.360 N 
HETATM    4  H   UNL     1     -39.362 -51.529  11.173  1.00  0.00     0.162 HD
ENDROOT
BRANCH   3   5
HETATM    5  C   UNL     1     -41.303 -52.258  11.676  1.00  0.00     0.128 C 
BRANCH   5   6
HETATM    6  C   UNL     1     -41.123 -53.371  12.705  1.00  0.00     0.076 C 
BRANCH   6   7
HETATM    7  C   UNL     1     -42.419 -53.899  13.249  1.00  0.00     0.010 A 
HETATM    8  C   UNL     1     -42.453 -54.585  14.462  1.00  0.00     0.025 A 
HETATM    9  C   UNL     1     -43.663 -55.125  14.893  1.00  0.00     0.003 A 
HETATM   10  C   UNL     1     -44.800 -54.959  14.114  1.00  0.00     0.017 A 
HETATM   11  C   UNL     1     -44.684 -54.244  12.933  1.00  0.00     0.088 A 
HETATM   12  N   UNL     1     -43.524 -53.714  12.488  1.00  0.00    -0.369 N 
ATOM     13  HN  UNL     1     -43.481 -53.194  11.612  1.00  0.00     0.165 HD
ENDBRANCH   6   7
ENDBRANCH   5   6
ENDBRANCH   3   5
BRANCH   2  14
HETATM   14  C   UNL     1     -38.999 -49.263  12.265  1.00  0.00     0.082 C 
HETATM   15  C   UNL     1     -37.709 -50.094  12.238  1.00  0.00     0.040 C 
HETATM   16  C   UNL     1     -37.344 -50.610  13.626  1.00  0.00     0.168 C 
HETATM   17  O   UNL     1     -37.264 -49.532  14.561  1.00  0.00    -0.391 OA
HETATM   18  C   UNL     1     -38.506 -48.843  14.697  1.00  0.00     0.168 C 
HETATM   19  C   UNL     1     -38.896 -48.204  13.370  1.00  0.00     0.040 C 
ENDBRANCH   2  14
TORSDOF 4
ENDMDL
MODEL 7
REMARK VINA RESULT:      -4.9      3.411      6.367
REMARK  4 active torsions:
REMARK  status: ('A' for Active; 'I' for Inactive)
REMARK       I    between atoms: C_2  and  N_3 
REMARK    1  A    between atoms: C_2  and  C_13 
REMARK    2  A    between atoms: N_3  and  C_4 
REMARK    3  A    between atoms: C_4  and  C_5 
REMARK    4  A    between atoms: C_5  and  C_6 
ROOT
HETATM    1  O   UNL     1     -39.725 -48.967  11.803  1.00  0.00    -0.273 OA
HETATM    2  C   UNL     1     -40.842 -49.059  11.303  1.00  0.00     0.222 C 
HETATM    3  N   UNL     1     -41.573 -50.223  11.331  1.00  0.00    -0.360 N 
HETATM    4  H   UNL     1     -42.478 -50.247  10.880  1.00  0.00     0.162 HD
ENDROOT
BRANCH   3   5
HETATM    5  C   UNL     1     -41.126 -51.406  12.056  1.00  0.00     0.128 C 
BRANCH   5   6
HETATM    6  C   UNL     1     -41.816 -51.500  13.413  1.00  0.00     0.076 C 
BRANCH   6   7
HETATM    7  C   UNL     1     -42.907 -52.532  13.460  1.00  0.00     0.010 A 
HETATM    8  C   UNL     1     -42.788 -53.655  14.277  1.00  0.00     0.025 A 
HETATM    9  C   UNL     1     -43.786 -54.625  14.232  1.00  0.00     0.003 A 
HETATM   10  C   UNL     1     -44.873 -54.448  13.387  1.00  0.00     0.017 A 
HETATM   11  C   UNL     1     -44.925 -53.292  12.624  1.00  0.00     0.088 A 
HETATM   12  N   UNL     1     -43.970 -52.337  12.644  1.00  0.00    -0.369 N 
ATOM     13  HN  UNL     1     -44.046 -51.500  12.066  1.00  0.00     0.165 HD
ENDBRANCH   6   7
ENDBRANCH   5   6
ENDBRANCH   3   5
BRANCH   2  14
HETATM   14  C   UNL     1     -41.537 -47.906  10.571  1.00  0.00     0.082 C 
HETATM   15  C   UNL     1     -40.786 -46.580  10.751  1.00  0.00     0.040 C 
HETATM   16  C   UNL     1     -40.983 -46.008  12.152  1.00  0.00     0.168 C 
HETATM   17  O   UNL     1     -42.374 -45.878  12.453  1.00  0.00    -0.391 OA
HETATM   18  C   UNL     1     -43.051 -47.133  12.427  1.00  0.00     0.168 C 
HETATM   19  C   UNL     1     -42.992 -47.729  11.026  1.00  0.00     0.040 C 
ENDBRANCH   2  14
TORSDOF 4
ENDMDL
MODEL 8
REMARK VINA RESULT:      -4.9      3.264      7.025
REMARK  4 active torsions:
REMARK  status: ('A' for Active; 'I' for Inactive)
REMARK       I    between atoms: C_2  and  N_3 
REMARK    1  A    between atoms: C_2  and  C_13 
REMARK    2  A    between atoms: N_3  and  C_4 
REMARK    3  A    between atoms: C_4  and  C_5 
REMARK    4  A    between atoms: C_5  and  C_6 
ROOT
HETATM    1  O   UNL     1     -38.754 -50.996  15.507  1.00  0.00    -0.273 OA
HETATM    2  C   UNL     1     -38.485 -50.919  14.312  1.00  0.00     0.222 C 
HETATM    3  N   UNL     1     -38.979 -51.805  13.383  1.00  0.00    -0.360 N 
HETATM    4  H   UNL     1     -38.703 -51.708  12.415  1.00  0.00     0.162 HD
ENDROOT
BRANCH   3   5
HETATM    5  C   UNL     1     -39.951 -52.835  13.729  1.00  0.00     0.128 C 
BRANCH   5   6
HETATM    6  C   UNL     1     -40.846 -53.155  12.536  1.00  0.00     0.076 C 
BRANCH   6   7
HETATM    7  C   UNL     1     -42.258 -53.497  12.922  1.00  0.00     0.010 A 
HETATM    8  C   UNL     1     -42.515 -54.323  14.014  1.00  0.00     0.025 A 
HETATM    9  C   UNL     1     -43.834 -54.677  14.291  1.00  0.00     0.003 A 
HETATM   10  C   UNL     1     -44.854 -54.194  13.483  1.00  0.00     0.017 A 
HETATM   11  C   UNL     1     -44.513 -53.360  12.430  1.00  0.00     0.088 A 
HETATM   12  N   UNL     1     -43.244 -53.004  12.135  1.00  0.00    -0.369 N 
ATOM     13  HN  UNL     1     -43.035 -52.387  11.350  1.00  0.00     0.165 HD
ENDBRANCH   6   7
ENDBRANCH   5   6
ENDBRANCH   3   5
BRANCH   2  14
HETATM   14  C   UNL     1     -37.554 -49.855  13.721  1.00  0.00     0.082 C 
HETATM   15  C   UNL     1     -37.554 -48.569  14.558  1.00  0.00     0.040 C 
HETATM   16  C   UNL     1     -38.839 -47.770  14.362  1.00  0.00     0.168 C 
HETATM   17  O   UNL     1     -39.061 -47.503  12.977  1.00  0.00    -0.391 OA
HETATM   18  C   UNL     1     -39.205 -48.699  12.213  1.00  0.00     0.168 C 
HETATM   19  C   UNL     1     -37.919 -49.513  12.270  1.00  0.00     0.040 C 
ENDBRANCH   2  14
TORSDOF 4
ENDMDL
MODEL 9
REMARK VINA RESULT:      -4.9      2.632      3.419
REMARK  4 active torsions:
REMARK  status: ('A' for Active; 'I' for Inactive)
REMARK       I    between atoms: C_2  and  N_3 
REMARK    1  A    between atoms: C_2  and  C_13 
REMARK    2  A    between atoms: N_3  and  C_4 
REMARK    3  A    between atoms: C_4  and  C_5 
REMARK    4  A    between atoms: C_5  and  C_6 
ROOT
HETATM    1  O   UNL     1     -45.589 -50.882  15.828  1.00  0.00    -0.273 OA
HETATM    2  C   UNL     1     -45.491 -51.112  14.626  1.00  0.00     0.222 C 
HETATM    3  N   UNL     1     -44.461 -50.622  13.860  1.00  0.00    -0.360 N 
HETATM    4  H   UNL     1     -44.446 -50.823  12.869  1.00  0.00     0.162 HD
ENDROOT
BRANCH   3   5
HETATM    5  C   UNL     1     -43.343 -49.885  14.437  1.00  0.00     0.128 C 
BRANCH   5   6
HETATM    6  C   UNL     1     -42.189 -49.788  13.443  1.00  0.00     0.076 C 
BRANCH   6   7
HETATM    7  C   UNL     1     -42.345 -48.669  12.452  1.00  0.00     0.010 A 
HETATM    8  C   UNL     1     -42.608 -47.371  12.884  1.00  0.00     0.025 A 
HETATM    9  C   UNL     1     -42.822 -46.378  11.930  1.00  0.00     0.003 A 
HETATM   10  C   UNL     1     -42.760 -46.702  10.582  1.00  0.00     0.017 A 
HETATM   11  C   UNL     1     -42.471 -48.013  10.238  1.00  0.00     0.088 A 
HETATM   12  N   UNL     1     -42.264 -48.997  11.141  1.00  0.00    -0.369 N 
ATOM     13  HN  UNL     1     -42.053 -49.950  10.846  1.00  0.00     0.165 HD
ENDBRANCH   6   7
ENDBRANCH   5   6
ENDBRANCH   3   5
BRANCH   2  14
HETATM   14  C   UNL     1     -46.511 -51.942  13.839  1.00  0.00     0.082 C 
HETATM   15  C   UNL     1     -46.919 -53.213  14.596  1.00  0.00     0.040 C 
HETATM   16  C   UNL     1     -45.815 -54.265  14.567  1.00  0.00     0.168 C 
HETATM   17  O   UNL     1     -45.423 -54.549  13.223  1.00  0.00    -0.391 OA
HETATM   18  C   UNL     1     -44.907 -53.398  12.557  1.00  0.00     0.168 C 
HETATM   19  C   UNL     1     -45.987 -52.329  12.449  1.00  0.00     0.040 C 
ENDBRANCH   2  14
TORSDOF 4
ENDMDL
