MODEL 1
REMARK VINA RESULT:      -5.9      0.000      0.000
REMARK  5 active torsions:
REMARK  status: ('A' for Active; 'I' for Inactive)
REMARK    1  A    between atoms: O_2  and  C_3 
REMARK    2  A    between atoms: C_3  and  C_4 
REMARK    3  A    between atoms: C_4  and  O_5 
REMARK    4  A    between atoms: O_5  and  C_6 
REMARK    5  A    between atoms: C_9  and  N_10 
REMARK       I    between atoms: N_10  and  C_11 
REMARK       I    between atoms: C_11  and  N_13 
ROOT
HETATM    1  C   UNL     1     -42.210 -45.826  10.785  1.00  0.00     0.141 A 
HETATM    2  C   UNL     1     -42.528 -46.114  12.098  1.00  0.00     0.058 A 
HETATM    3  C   UNL     1     -42.631 -47.448  12.480  1.00  0.00     0.035 A 
HETATM    4  C   UNL     1     -42.410 -48.466  11.553  1.00  0.00     0.051 A 
HETATM    5  C   UNL     1     -42.059 -48.063  10.263  1.00  0.00     0.119 A 
HETATM    6  N   UNL     1     -41.959 -46.769   9.852  1.00  0.00    -0.345 N 
ATOM      7  HN  UNL     1     -41.709 -46.527   8.894  1.00  0.00     0.167 HD
ENDROOT
BRANCH   4   8
HETATM    8  N   UNL     1     -42.508 -49.850  11.867  1.00  0.00    -0.307 N 
HETATM    9  C   UNL     1     -41.431 -50.684  12.058  1.00  0.00     0.323 C 
HETATM   10  O   UNL     1     -40.268 -50.287  12.067  1.00  0.00    -0.247 OA
HETATM   11  N   UNL     1     -41.698 -52.025  12.252  1.00  0.00    -0.330 N 
HETATM   12  C   UNL     1     -42.986 -52.725  12.323  1.00  0.00     0.153 C 
HETATM   13  C   UNL     1     -40.557 -52.922  12.470  1.00  0.00     0.159 C 
HETATM   14  C   UNL     1     -43.080 -53.536  13.628  1.00  0.00     0.188 C 
HETATM   15  O   UNL     1     -41.944 -54.398  13.814  1.00  0.00    -0.383 OA
HETATM   16  C   UNL     1     -40.717 -53.639  13.816  1.00  0.00     0.135 C 
HETATM   17  C   UNL     1     -39.554 -54.584  14.072  1.00  0.00     0.041 C 
HETATM   18  H   UNL     1     -43.410 -50.176  12.170  1.00  0.00     0.170 HD
ENDBRANCH   4   8
BRANCH   1  19
HETATM   19  O   UNL     1     -42.079 -44.488  10.483  1.00  0.00    -0.334 OA
BRANCH  19  20
HETATM   20  C   UNL     1     -40.989 -43.855  11.152  1.00  0.00     0.203 C 
BRANCH  20  21
HETATM   21  C   UNL     1     -39.699 -44.492  10.639  1.00  0.00     0.193 C 
BRANCH  21  22
HETATM   22  O   UNL     1     -39.699 -44.514   9.212  1.00  0.00    -0.394 OA
HETATM   23  C   UNL     1     -38.376 -44.538   8.690  1.00  0.00     0.201 C 
ENDBRANCH  21  22
ENDBRANCH  20  21
ENDBRANCH  19  20
ENDBRANCH   1  19
TORSDOF 5
ENDMDL
MODEL 2
REMARK VINA RESULT:      -5.7      2.703      8.225
REMARK  5 active torsions:
REMARK  status: ('A' for Active; 'I' for Inactive)
REMARK    1  A    between atoms: O_2  and  C_3 
REMARK    2  A    between atoms: C_3  and  C_4 
REMARK    3  A    between atoms: C_4  and  O_5 
REMARK    4  A    between atoms: O_5  and  C_6 
REMARK    5  A    between atoms: C_9  and  N_10 
REMARK       I    between atoms: N_10  and  C_11 
REMARK       I    between atoms: C_11  and  N_13 
ROOT
HETATM    1  C   UNL     1     -44.407 -52.817  12.718  1.00  0.00     0.141 A 
HETATM    2  C   UNL     1     -44.819 -51.633  13.298  1.00  0.00     0.058 A 
HETATM    3  C   UNL     1     -43.914 -50.578  13.373  1.00  0.00     0.035 A 
HETATM    4  C   UNL     1     -42.623 -50.720  12.865  1.00  0.00     0.051 A 
HETATM    5  C   UNL     1     -42.324 -51.946  12.269  1.00  0.00     0.119 A 
HETATM    6  N   UNL     1     -43.179 -53.002  12.187  1.00  0.00    -0.345 N 
ATOM      7  HN  UNL     1     -42.909 -53.882  11.750  1.00  0.00     0.167 HD
ENDROOT
BRANCH   4   8
HETATM    8  N   UNL     1     -41.642 -49.692  12.916  1.00  0.00    -0.307 N 
HETATM    9  C   UNL     1     -41.501 -48.702  11.972  1.00  0.00     0.323 C 
HETATM   10  O   UNL     1     -42.278 -48.556  11.030  1.00  0.00    -0.247 OA
HETATM   11  N   UNL     1     -40.430 -47.842  12.114  1.00  0.00    -0.330 N 
HETATM   12  C   UNL     1     -39.401 -47.788  13.159  1.00  0.00     0.153 C 
HETATM   13  C   UNL     1     -40.276 -46.774  11.119  1.00  0.00     0.159 C 
HETATM   14  C   UNL     1     -39.340 -46.378  13.774  1.00  0.00     0.188 C 
HETATM   15  O   UNL     1     -39.198 -45.356  12.771  1.00  0.00    -0.383 OA
HETATM   16  C   UNL     1     -40.283 -45.411  11.823  1.00  0.00     0.135 C 
HETATM   17  C   UNL     1     -40.119 -44.280  10.820  1.00  0.00     0.041 C 
HETATM   18  H   UNL     1     -41.170 -49.567  13.795  1.00  0.00     0.170 HD
ENDBRANCH   4   8
BRANCH   1  19
HETATM   19  O   UNL     1     -45.364 -53.805  12.635  1.00  0.00    -0.334 OA
BRANCH  19  20
HETATM   20  C   UNL     1     -45.242 -54.805  13.646  1.00  0.00     0.203 C 
BRANCH  20  21
HETATM   21  C   UNL     1     -46.382 -54.599  14.641  1.00  0.00     0.193 C 
BRANCH  21  22
HETATM   22  O   UNL     1     -45.875 -54.616  15.975  1.00  0.00    -0.394 OA
HETATM   23  C   UNL     1     -45.719 -53.300  16.491  1.00  0.00     0.201 C 
ENDBRANCH  21  22
ENDBRANCH  20  21
ENDBRANCH  19  20
ENDBRANCH   1  19
TORSDOF 5
ENDMDL
MODEL 3
REMARK VINA RESULT:      -5.7      1.984      2.843
REMARK  5 active torsions:
REMARK  status: ('A' for Active; 'I' for Inactive)
REMARK    1  A    between atoms: O_2  and  C_3 
REMARK    2  A    between atoms: C_3  and  C_4 
REMARK    3  A    between atoms: C_4  and  O_5 
REMARK    4  A    between atoms: O_5  and  C_6 
REMARK    5  A    between atoms: C_9  and  N_10 
REMARK       I    between atoms: N_10  and  C_11 
REMARK       I    between atoms: C_11  and  N_13 
ROOT
HETATM    1  C   UNL     1     -41.295 -46.114  10.356  1.00  0.00     0.141 A 
HETATM    2  C   UNL     1     -42.648 -46.375  10.461  1.00  0.00     0.058 A 
HETATM    3  C   UNL     1     -43.050 -47.624  10.925  1.00  0.00     0.035 A 
HETATM    4  C   UNL     1     -42.102 -48.583  11.281  1.00  0.00     0.051 A 
HETATM    5  C   UNL     1     -40.764 -48.201  11.170  1.00  0.00     0.119 A 
HETATM    6  N   UNL     1     -40.334 -46.994  10.711  1.00  0.00    -0.345 N 
ATOM      7  HN  UNL     1     -39.343 -46.767  10.638  1.00  0.00     0.167 HD
ENDROOT
BRANCH   4   8
HETATM    8  N   UNL     1     -42.438 -49.882  11.752  1.00  0.00    -0.307 N 
HETATM    9  C   UNL     1     -42.916 -50.154  13.012  1.00  0.00     0.323 C 
HETATM   10  O   UNL     1     -43.190 -49.278  13.831  1.00  0.00    -0.247 OA
HETATM   11  N   UNL     1     -43.093 -51.482  13.347  1.00  0.00    -0.330 N 
HETATM   12  C   UNL     1     -42.879 -52.690  12.542  1.00  0.00     0.153 C 
HETATM   13  C   UNL     1     -43.615 -51.784  14.685  1.00  0.00     0.159 C 
HETATM   14  C   UNL     1     -44.154 -53.553  12.525  1.00  0.00     0.188 C 
HETATM   15  O   UNL     1     -44.642 -53.823  13.851  1.00  0.00    -0.383 OA
HETATM   16  C   UNL     1     -44.911 -52.596  14.560  1.00  0.00     0.135 C 
HETATM   17  C   UNL     1     -45.477 -52.933  15.931  1.00  0.00     0.041 C 
HETATM   18  H   UNL     1     -42.527 -50.601  11.055  1.00  0.00     0.170 HD
ENDBRANCH   4   8
BRANCH   1  19
HETATM   19  O   UNL     1     -40.964 -44.845   9.933  1.00  0.00    -0.334 OA
BRANCH  19  20
HETATM   20  C   UNL     1     -40.133 -44.136  10.852  1.00  0.00     0.203 C 
BRANCH  20  21
HETATM   21  C   UNL     1     -40.980 -43.033  11.484  1.00  0.00     0.193 C 
BRANCH  21  22
HETATM   22  O   UNL     1     -41.948 -42.563  10.547  1.00  0.00    -0.394 OA
HETATM   23  C   UNL     1     -43.244 -42.487  11.128  1.00  0.00     0.201 C 
ENDBRANCH  21  22
ENDBRANCH  20  21
ENDBRANCH  19  20
ENDBRANCH   1  19
TORSDOF 5
ENDMDL
MODEL 4
REMARK VINA RESULT:      -5.6      1.337      1.426
REMARK  5 active torsions:
REMARK  status: ('A' for Active; 'I' for Inactive)
REMARK    1  A    between atoms: O_2  and  C_3 
REMARK    2  A    between atoms: C_3  and  C_4 
REMARK    3  A    between atoms: C_4  and  O_5 
REMARK    4  A    between atoms: O_5  and  C_6 
REMARK    5  A    between atoms: C_9  and  N_10 
REMARK       I    between atoms: N_10  and  C_11 
REMARK       I    between atoms: C_11  and  N_13 
ROOT
HETATM    1  C   UNL     1     -42.262 -45.775  10.620  1.00  0.00     0.141 A 
HETATM    2  C   UNL     1     -42.379 -46.036  11.971  1.00  0.00     0.058 A 
HETATM    3  C   UNL     1     -42.463 -47.362  12.387  1.00  0.00     0.035 A 
HETATM    4  C   UNL     1     -42.423 -48.398  11.455  1.00  0.00     0.051 A 
HETATM    5  C   UNL     1     -42.266 -48.022  10.120  1.00  0.00     0.119 A 
HETATM    6  N   UNL     1     -42.191 -46.738   9.676  1.00  0.00    -0.345 N 
ATOM      7  HN  UNL     1     -42.087 -46.515   8.686  1.00  0.00     0.167 HD
ENDROOT
BRANCH   4   8
HETATM    8  N   UNL     1     -42.514 -49.773  11.805  1.00  0.00    -0.307 N 
HETATM    9  C   UNL     1     -41.434 -50.607  11.976  1.00  0.00     0.323 C 
HETATM   10  O   UNL     1     -40.269 -50.214  11.935  1.00  0.00    -0.247 OA
HETATM   11  N   UNL     1     -41.698 -51.942  12.211  1.00  0.00    -0.330 N 
HETATM   12  C   UNL     1     -42.984 -52.635  12.343  1.00  0.00     0.153 C 
HETATM   13  C   UNL     1     -40.553 -52.839  12.409  1.00  0.00     0.159 C 
HETATM   14  C   UNL     1     -43.035 -53.416  13.669  1.00  0.00     0.188 C 
HETATM   15  O   UNL     1     -41.895 -54.278  13.835  1.00  0.00    -0.383 OA
HETATM   16  C   UNL     1     -40.667 -53.524  13.776  1.00  0.00     0.135 C 
HETATM   17  C   UNL     1     -39.498 -54.467  14.012  1.00  0.00     0.041 C 
HETATM   18  H   UNL     1     -43.405 -50.089  12.146  1.00  0.00     0.170 HD
ENDBRANCH   4   8
BRANCH   1  19
HETATM   19  O   UNL     1     -42.138 -44.446  10.278  1.00  0.00    -0.334 OA
BRANCH  19  20
HETATM   20  C   UNL     1     -42.606 -43.551  11.287  1.00  0.00     0.203 C 
BRANCH  20  21
HETATM   21  C   UNL     1     -41.697 -42.324  11.275  1.00  0.00     0.193 C 
BRANCH  21  22
HETATM   22  O   UNL     1     -40.337 -42.722  11.437  1.00  0.00    -0.394 OA
HETATM   23  C   UNL     1     -40.043 -43.037  12.792  1.00  0.00     0.201 C 
ENDBRANCH  21  22
ENDBRANCH  20  21
ENDBRANCH  19  20
ENDBRANCH   1  19
TORSDOF 5
ENDMDL
MODEL 5
REMARK VINA RESULT:      -5.4      1.916      2.512
REMARK  5 active torsions:
REMARK  status: ('A' for Active; 'I' for Inactive)
REMARK    1  A    between atoms: O_2  and  C_3 
REMARK    2  A    between atoms: C_3  and  C_4 
REMARK    3  A    between atoms: C_4  and  O_5 
REMARK    4  A    between atoms: O_5  and  C_6 
REMARK    5  A    between atoms: C_9  and  N_10 
REMARK       I    between atoms: N_10  and  C_11 
REMARK       I    between atoms: C_11  and  N_13 
ROOT
HETATM    1  C   UNL     1     -40.512 -47.772  11.326  1.00  0.00     0.141 A 
HETATM    2  C   UNL     1     -41.721 -47.673  11.988  1.00  0.00     0.058 A 
HETATM    3  C   UNL     1     -42.385 -48.845  12.339  1.00  0.00     0.035 A 
HETATM    4  C   UNL     1     -41.832 -50.087  12.032  1.00  0.00     0.051 A 
HETATM    5  C   UNL     1     -40.591 -50.072  11.394  1.00  0.00     0.119 A 
HETATM    6  N   UNL     1     -39.918 -48.947  11.027  1.00  0.00    -0.345 N 
ATOM      7  HN  UNL     1     -39.016 -48.989  10.553  1.00  0.00     0.167 HD
ENDROOT
BRANCH   4   8
HETATM    8  N   UNL     1     -42.458 -51.325  12.349  1.00  0.00    -0.307 N 
HETATM    9  C   UNL     1     -41.919 -52.280  13.178  1.00  0.00     0.323 C 
HETATM   10  O   UNL     1     -40.875 -52.113  13.806  1.00  0.00    -0.247 OA
HETATM   11  N   UNL     1     -42.606 -53.472  13.298  1.00  0.00    -0.330 N 
HETATM   12  C   UNL     1     -43.874 -53.889  12.690  1.00  0.00     0.153 C 
HETATM   13  C   UNL     1     -42.047 -54.494  14.191  1.00  0.00     0.159 C 
HETATM   14  C   UNL     1     -44.857 -54.360  13.779  1.00  0.00     0.188 C 
HETATM   15  O   UNL     1     -44.275 -55.355  14.640  1.00  0.00    -0.383 OA
HETATM   16  C   UNL     1     -43.077 -54.853  15.269  1.00  0.00     0.135 C 
HETATM   17  C   UNL     1     -42.533 -55.917  16.210  1.00  0.00     0.041 C 
HETATM   18  H   UNL     1     -43.433 -51.404  12.118  1.00  0.00     0.170 HD
ENDBRANCH   4   8
BRANCH   1  19
HETATM   19  O   UNL     1     -39.885 -46.577  11.047  1.00  0.00    -0.334 OA
BRANCH  19  20
HETATM   20  C   UNL     1     -40.764 -45.578  10.533  1.00  0.00     0.203 C 
BRANCH  20  21
HETATM   21  C   UNL     1     -39.968 -44.280  10.409  1.00  0.00     0.193 C 
BRANCH  21  22
HETATM   22  O   UNL     1     -40.822 -43.159  10.634  1.00  0.00    -0.394 OA
HETATM   23  C   UNL     1     -40.544 -42.532  11.879  1.00  0.00     0.201 C 
ENDBRANCH  21  22
ENDBRANCH  20  21
ENDBRANCH  19  20
ENDBRANCH   1  19
TORSDOF 5
ENDMDL
MODEL 6
REMARK VINA RESULT:      -5.3      2.340      3.334
REMARK  5 active torsions:
REMARK  status: ('A' for Active; 'I' for Inactive)
REMARK    1  A    between atoms: O_2  and  C_3 
REMARK    2  A    between atoms: C_3  and  C_4 
REMARK    3  A    between atoms: C_4  and  O_5 
REMARK    4  A    between atoms: O_5  and  C_6 
REMARK    5  A    between atoms: C_9  and  N_10 
REMARK       I    between atoms: N_10  and  C_11 
REMARK       I    between atoms: C_11  and  N_13 
ROOT
HETATM    1  C   UNL     1     -41.346 -47.149  10.734  1.00  0.00     0.141 A 
HETATM    2  C   UNL     1     -40.899 -46.920  12.021  1.00  0.00     0.058 A 
HETATM    3  C   UNL     1     -40.504 -48.010  12.791  1.00  0.00     0.035 A 
HETATM    4  C   UNL     1     -40.555 -49.300  12.266  1.00  0.00     0.051 A 
HETATM    5  C   UNL     1     -40.989 -49.413  10.944  1.00  0.00     0.119 A 
HETATM    6  N   UNL     1     -41.392 -48.372  10.165  1.00  0.00    -0.345 N 
ATOM      7  HN  UNL     1     -41.710 -48.509   9.206  1.00  0.00     0.167 HD
ENDROOT
BRANCH   4   8
HETATM    8  N   UNL     1     -40.180 -50.461  12.997  1.00  0.00    -0.307 N 
HETATM    9  C   UNL     1     -41.021 -51.167  13.824  1.00  0.00     0.323 C 
HETATM   10  O   UNL     1     -42.219 -50.913  13.939  1.00  0.00    -0.247 OA
HETATM   11  N   UNL     1     -40.471 -52.209  14.544  1.00  0.00    -0.330 N 
HETATM   12  C   UNL     1     -39.097 -52.724  14.549  1.00  0.00     0.153 C 
HETATM   13  C   UNL     1     -41.362 -52.978  15.421  1.00  0.00     0.159 C 
HETATM   14  C   UNL     1     -39.094 -54.236  14.257  1.00  0.00     0.188 C 
HETATM   15  O   UNL     1     -39.984 -54.958  15.127  1.00  0.00    -0.383 OA
HETATM   16  C   UNL     1     -41.332 -54.457  15.015  1.00  0.00     0.135 C 
HETATM   17  C   UNL     1     -42.241 -55.286  15.908  1.00  0.00     0.041 C 
HETATM   18  H   UNL     1     -39.317 -50.900  12.726  1.00  0.00     0.170 HD
ENDBRANCH   4   8
BRANCH   1  19
HETATM   19  O   UNL     1     -41.679 -46.025  10.010  1.00  0.00    -0.334 OA
BRANCH  19  20
HETATM   20  C   UNL     1     -43.086 -45.822   9.885  1.00  0.00     0.203 C 
BRANCH  20  21
HETATM   21  C   UNL     1     -43.504 -46.314   8.501  1.00  0.00     0.193 C 
BRANCH  21  22
HETATM   22  O   UNL     1     -44.135 -47.589   8.606  1.00  0.00    -0.394 OA
HETATM   23  C   UNL     1     -45.180 -47.576   9.570  1.00  0.00     0.201 C 
ENDBRANCH  21  22
ENDBRANCH  20  21
ENDBRANCH  19  20
ENDBRANCH   1  19
TORSDOF 5
ENDMDL
MODEL 7
REMARK VINA RESULT:      -5.1      1.894      8.523
REMARK  5 active torsions:
REMARK  status: ('A' for Active; 'I' for Inactive)
REMARK    1  A    between atoms: O_2  and  C_3 
REMARK    2  A    between atoms: C_3  and  C_4 
REMARK    3  A    between atoms: C_4  and  O_5 
REMARK    4  A    between atoms: O_5  and  C_6 
REMARK    5  A    between atoms: C_9  and  N_10 
REMARK       I    between atoms: N_10  and  C_11 
REMARK       I    between atoms: C_11  and  N_13 
ROOT
HETATM    1  C   UNL     1     -41.436 -53.499  13.811  1.00  0.00     0.141 A 
HETATM    2  C   UNL     1     -40.885 -53.275  12.565  1.00  0.00     0.058 A 
HETATM    3  C   UNL     1     -41.181 -52.082  11.911  1.00  0.00     0.035 A 
HETATM    4  C   UNL     1     -42.012 -51.137  12.512  1.00  0.00     0.051 A 
HETATM    5  C   UNL     1     -42.485 -51.451  13.787  1.00  0.00     0.119 A 
HETATM    6  N   UNL     1     -42.225 -52.610  14.451  1.00  0.00    -0.345 N 
ATOM      7  HN  UNL     1     -42.604 -52.796  15.379  1.00  0.00     0.167 HD
ENDROOT
BRANCH   4   8
HETATM    8  N   UNL     1     -42.367 -49.903  11.900  1.00  0.00    -0.307 N 
HETATM    9  C   UNL     1     -41.733 -48.706  12.136  1.00  0.00     0.323 C 
HETATM   10  O   UNL     1     -40.726 -48.606  12.834  1.00  0.00    -0.247 OA
HETATM   11  N   UNL     1     -42.269 -47.580  11.542  1.00  0.00    -0.330 N 
HETATM   12  C   UNL     1     -43.424 -47.451  10.647  1.00  0.00     0.153 C 
HETATM   13  C   UNL     1     -41.592 -46.299  11.776  1.00  0.00     0.159 C 
HETATM   14  C   UNL     1     -43.015 -46.725   9.352  1.00  0.00     0.188 C 
HETATM   15  O   UNL     1     -42.348 -45.478   9.617  1.00  0.00    -0.383 OA
HETATM   16  C   UNL     1     -41.177 -45.685  10.433  1.00  0.00     0.135 C 
HETATM   17  C   UNL     1     -40.477 -44.350  10.638  1.00  0.00     0.041 C 
HETATM   18  H   UNL     1     -42.976 -49.959  11.102  1.00  0.00     0.170 HD
ENDBRANCH   4   8
BRANCH   1  19
HETATM   19  O   UNL     1     -41.068 -54.678  14.423  1.00  0.00    -0.334 OA
BRANCH  19  20
HETATM   20  C   UNL     1     -39.698 -54.711  14.821  1.00  0.00     0.203 C 
BRANCH  20  21
HETATM   21  C   UNL     1     -39.648 -55.184  16.272  1.00  0.00     0.193 C 
BRANCH  21  22
HETATM   22  O   UNL     1     -39.012 -56.459  16.349  1.00  0.00    -0.394 OA
HETATM   23  C   UNL     1     -39.611 -57.283  17.342  1.00  0.00     0.201 C 
ENDBRANCH  21  22
ENDBRANCH  20  21
ENDBRANCH  19  20
ENDBRANCH   1  19
TORSDOF 5
ENDMDL
MODEL 8
REMARK VINA RESULT:      -5.1      4.508      7.914
REMARK  5 active torsions:
REMARK  status: ('A' for Active; 'I' for Inactive)
REMARK    1  A    between atoms: O_2  and  C_3 
REMARK    2  A    between atoms: C_3  and  C_4 
REMARK    3  A    between atoms: C_4  and  O_5 
REMARK    4  A    between atoms: O_5  and  C_6 
REMARK    5  A    between atoms: C_9  and  N_10 
REMARK       I    between atoms: N_10  and  C_11 
REMARK       I    between atoms: C_11  and  N_13 
ROOT
HETATM    1  C   UNL     1     -43.815 -53.902  12.941  1.00  0.00     0.141 A 
HETATM    2  C   UNL     1     -43.137 -54.174  14.114  1.00  0.00     0.058 A 
HETATM    3  C   UNL     1     -41.983 -53.450  14.398  1.00  0.00     0.035 A 
HETATM    4  C   UNL     1     -41.531 -52.469  13.515  1.00  0.00     0.051 A 
HETATM    5  C   UNL     1     -42.312 -52.252  12.379  1.00  0.00     0.119 A 
HETATM    6  N   UNL     1     -43.439 -52.947  12.064  1.00  0.00    -0.345 N 
ATOM      7  HN  UNL     1     -43.969 -52.757  11.214  1.00  0.00     0.167 HD
ENDROOT
BRANCH   4   8
HETATM    8  N   UNL     1     -40.356 -51.698  13.733  1.00  0.00    -0.307 N 
HETATM    9  C   UNL     1     -40.346 -50.415  14.226  1.00  0.00     0.323 C 
HETATM   10  O   UNL     1     -41.359 -49.838  14.618  1.00  0.00    -0.247 OA
HETATM   11  N   UNL     1     -39.127 -49.768  14.277  1.00  0.00    -0.330 N 
HETATM   12  C   UNL     1     -37.791 -50.251  13.911  1.00  0.00     0.153 C 
HETATM   13  C   UNL     1     -39.103 -48.401  14.814  1.00  0.00     0.159 C 
HETATM   14  C   UNL     1     -36.817 -50.069  15.089  1.00  0.00     0.188 C 
HETATM   15  O   UNL     1     -36.824 -48.723  15.595  1.00  0.00    -0.383 OA
HETATM   16  C   UNL     1     -38.149 -48.338  16.014  1.00  0.00     0.135 C 
HETATM   17  C   UNL     1     -38.094 -46.932  16.591  1.00  0.00     0.041 C 
HETATM   18  H   UNL     1     -39.484 -52.200  13.722  1.00  0.00     0.170 HD
ENDBRANCH   4   8
BRANCH   1  19
HETATM   19  O   UNL     1     -44.974 -54.621  12.742  1.00  0.00    -0.334 OA
BRANCH  19  20
HETATM   20  C   UNL     1     -45.695 -54.887  13.945  1.00  0.00     0.203 C 
BRANCH  20  21
HETATM   21  C   UNL     1     -46.703 -53.755  14.139  1.00  0.00     0.193 C 
BRANCH  21  22
HETATM   22  O   UNL     1     -46.295 -52.918  15.220  1.00  0.00    -0.394 OA
HETATM   23  C   UNL     1     -46.499 -51.543  14.923  1.00  0.00     0.201 C 
ENDBRANCH  21  22
ENDBRANCH  20  21
ENDBRANCH  19  20
ENDBRANCH   1  19
TORSDOF 5
ENDMDL
MODEL 9
REMARK VINA RESULT:      -5.1      2.904      3.787
REMARK  5 active torsions:
REMARK  status: ('A' for Active; 'I' for Inactive)
REMARK    1  A    between atoms: O_2  and  C_3 
REMARK    2  A    between atoms: C_3  and  C_4 
REMARK    3  A    between atoms: C_4  and  O_5 
REMARK    4  A    between atoms: O_5  and  C_6 
REMARK    5  A    between atoms: C_9  and  N_10 
REMARK       I    between atoms: N_10  and  C_11 
REMARK       I    between atoms: C_11  and  N_13 
ROOT
HETATM    1  C   UNL     1     -40.341 -46.984  11.019  1.00  0.00     0.141 A 
HETATM    2  C   UNL     1     -41.673 -46.836  10.683  1.00  0.00     0.058 A 
HETATM    3  C   UNL     1     -42.570 -47.828  11.070  1.00  0.00     0.035 A 
HETATM    4  C   UNL     1     -42.127 -48.939  11.785  1.00  0.00     0.051 A 
HETATM    5  C   UNL     1     -40.768 -48.970  12.101  1.00  0.00     0.119 A 
HETATM    6  N   UNL     1     -39.861 -48.025  11.732  1.00  0.00    -0.345 N 
ATOM      7  HN  UNL     1     -38.874 -48.099  11.980  1.00  0.00     0.167 HD
ENDROOT
BRANCH   4   8
HETATM    8  N   UNL     1     -42.982 -49.996  12.203  1.00  0.00    -0.307 N 
HETATM    9  C   UNL     1     -43.611 -50.052  13.425  1.00  0.00     0.323 C 
HETATM   10  O   UNL     1     -43.568 -49.137  14.245  1.00  0.00    -0.247 OA
HETATM   11  N   UNL     1     -44.324 -51.198  13.716  1.00  0.00    -0.330 N 
HETATM   12  C   UNL     1     -44.554 -52.394  12.897  1.00  0.00     0.153 C 
HETATM   13  C   UNL     1     -45.010 -51.263  15.012  1.00  0.00     0.159 C 
HETATM   14  C   UNL     1     -46.063 -52.678  12.781  1.00  0.00     0.188 C 
HETATM   15  O   UNL     1     -46.705 -52.727  14.068  1.00  0.00    -0.383 OA
HETATM   16  C   UNL     1     -46.510 -51.492  14.788  1.00  0.00     0.135 C 
HETATM   17  C   UNL     1     -47.253 -51.572  16.112  1.00  0.00     0.041 C 
HETATM   18  H   UNL     1     -43.303 -50.622  11.485  1.00  0.00     0.170 HD
ENDBRANCH   4   8
BRANCH   1  19
HETATM   19  O   UNL     1     -39.514 -45.947  10.646  1.00  0.00    -0.334 OA
BRANCH  19  20
HETATM   20  C   UNL     1     -40.088 -44.657  10.852  1.00  0.00     0.203 C 
BRANCH  20  21
HETATM   21  C   UNL     1     -39.462 -44.067  12.114  1.00  0.00     0.193 C 
BRANCH  21  22
HETATM   22  O   UNL     1     -40.276 -44.365  13.248  1.00  0.00    -0.394 OA
HETATM   23  C   UNL     1     -39.560 -45.111  14.224  1.00  0.00     0.201 C 
ENDBRANCH  21  22
ENDBRANCH  20  21
ENDBRANCH  19  20
ENDBRANCH   1  19
TORSDOF 5
ENDMDL
