MODEL 1
REMARK VINA RESULT:      -6.7      0.000      0.000
REMARK  3 active torsions:
REMARK  status: ('A' for Active; 'I' for Inactive)
REMARK    1  A    between atoms: C_2  and  C_3 
REMARK       I    between atoms: C_3  and  N_5 
REMARK    2  A    between atoms: C_8  and  N_10 
REMARK       I    between atoms: N_10  and  C_11 
REMARK       I    between atoms: C_11  and  N_13 
REMARK    3  A    between atoms: N_13  and  C_14 
ROOT
HETATM    1  N   UNL     1     -41.232 -51.187  11.920  1.00  0.00    -0.337 N 
HETATM    2  C   UNL     1     -41.350 -49.815  11.892  1.00  0.00     0.322 C 
HETATM    3  O   UNL     1     -41.315 -49.135  12.914  1.00  0.00    -0.247 OA
HETATM    4  N   UNL     1     -41.569 -49.343  10.621  1.00  0.00    -0.295 N 
HETATM    5  H   UNL     1     -40.961 -51.661  11.068  1.00  0.00     0.164 HD
HETATM    6  H   UNL     1     -42.151 -49.927  10.039  1.00  0.00     0.172 HD
ENDROOT
BRANCH   1   7
HETATM    7  C   UNL     1     -41.144 -51.868  13.209  1.00  0.00     0.105 C 
HETATM    8  C   UNL     1     -40.859 -53.363  13.069  1.00  0.00     0.047 C 
HETATM    9  C   UNL     1     -42.230 -54.025  12.946  1.00  0.00     0.128 C 
HETATM   10  N   UNL     1     -43.186 -53.013  13.353  1.00  0.00    -0.350 N 
HETATM   11  C   UNL     1     -44.534 -53.155  13.096  1.00  0.00     0.219 C 
HETATM   12  C   UNL     1     -42.505 -51.859  13.924  1.00  0.00     0.150 C 
HETATM   13  O   UNL     1     -44.993 -54.179  12.592  1.00  0.00    -0.273 OA
BRANCH  11  14
HETATM   14  C   UNL     1     -45.407 -51.963  13.453  1.00  0.00     0.098 C 
HETATM   15  C   UNL     1     -46.501 -51.699  12.433  1.00  0.00     0.014 C 
ENDBRANCH  11  14
ENDBRANCH   1   7
BRANCH   4  16
HETATM   16  C   UNL     1     -41.795 -47.982  10.375  1.00  0.00     0.109 A 
HETATM   17  C   UNL     1     -42.994 -47.520   9.845  1.00  0.00     0.055 A 
HETATM   18  C   UNL     1     -43.138 -46.157   9.587  1.00  0.00    -0.057 A 
HETATM   19  C   UNL     1     -44.415 -45.599   9.035  1.00  0.00     0.048 C 
HETATM   20  C   UNL     1     -42.048 -45.320   9.827  1.00  0.00     0.031 A 
HETATM   21  C   UNL     1     -40.883 -45.861  10.364  1.00  0.00     0.007 A 
HETATM   22  C   UNL     1     -39.660 -45.015  10.550  1.00  0.00     0.068 C 
HETATM   23  N   UNL     1     -40.764 -47.172  10.686  1.00  0.00    -0.346 N 
ATOM     24  HN  UNL     1     -39.927 -47.531  11.146  1.00  0.00     0.167 HD
ENDBRANCH   4  16
TORSDOF 3
ENDMDL
MODEL 2
REMARK VINA RESULT:      -6.6      0.895      2.012
REMARK  3 active torsions:
REMARK  status: ('A' for Active; 'I' for Inactive)
REMARK    1  A    between atoms: C_2  and  C_3 
REMARK       I    between atoms: C_3  and  N_5 
REMARK    2  A    between atoms: C_8  and  N_10 
REMARK       I    between atoms: N_10  and  C_11 
REMARK       I    between atoms: C_11  and  N_13 
REMARK    3  A    between atoms: N_13  and  C_14 
ROOT
HETATM    1  N   UNL     1     -41.377 -51.472  12.453  1.00  0.00    -0.337 N 
HETATM    2  C   UNL     1     -41.547 -50.111  12.325  1.00  0.00     0.322 C 
HETATM    3  O   UNL     1     -41.806 -49.391  13.285  1.00  0.00    -0.247 OA
HETATM    4  N   UNL     1     -41.456 -49.702  11.017  1.00  0.00    -0.295 N 
HETATM    5  H   UNL     1     -40.875 -51.962  11.723  1.00  0.00     0.164 HD
HETATM    6  H   UNL     1     -41.843 -50.341  10.338  1.00  0.00     0.172 HD
ENDROOT
BRANCH   1   7
HETATM    7  C   UNL     1     -41.589 -52.096  13.756  1.00  0.00     0.105 C 
HETATM    8  C   UNL     1     -41.535 -53.623  13.695  1.00  0.00     0.047 C 
HETATM    9  C   UNL     1     -42.963 -54.064  13.382  1.00  0.00     0.128 C 
HETATM   10  N   UNL     1     -43.790 -52.896  13.617  1.00  0.00    -0.350 N 
HETATM   11  C   UNL     1     -45.091 -52.834  13.164  1.00  0.00     0.219 C 
HETATM   12  C   UNL     1     -43.019 -51.839  14.257  1.00  0.00     0.150 C 
HETATM   13  O   UNL     1     -45.634 -53.795  12.619  1.00  0.00    -0.273 OA
BRANCH  11  14
HETATM   14  C   UNL     1     -45.799 -51.503  13.357  1.00  0.00     0.098 C 
HETATM   15  C   UNL     1     -46.759 -51.505  14.534  1.00  0.00     0.014 C 
ENDBRANCH  11  14
ENDBRANCH   1   7
BRANCH   4  16
HETATM   16  C   UNL     1     -41.676 -48.367  10.651  1.00  0.00     0.109 A 
HETATM   17  C   UNL     1     -40.778 -47.358  10.979  1.00  0.00     0.055 A 
HETATM   18  C   UNL     1     -41.078 -46.044  10.619  1.00  0.00    -0.057 A 
HETATM   19  C   UNL     1     -40.139 -44.918  10.929  1.00  0.00     0.048 C 
HETATM   20  C   UNL     1     -42.296 -45.793   9.988  1.00  0.00     0.031 A 
HETATM   21  C   UNL     1     -43.138 -46.861   9.690  1.00  0.00     0.007 A 
HETATM   22  C   UNL     1     -44.494 -46.625   9.096  1.00  0.00     0.068 C 
HETATM   23  N   UNL     1     -42.818 -48.148   9.969  1.00  0.00    -0.346 N 
ATOM     24  HN  UNL     1     -43.417 -48.919   9.676  1.00  0.00     0.167 HD
ENDBRANCH   4  16
TORSDOF 3
ENDMDL
MODEL 3
REMARK VINA RESULT:      -6.4      1.874      7.765
REMARK  3 active torsions:
REMARK  status: ('A' for Active; 'I' for Inactive)
REMARK    1  A    between atoms: C_2  and  C_3 
REMARK       I    between atoms: C_3  and  N_5 
REMARK    2  A    between atoms: C_8  and  N_10 
REMARK       I    between atoms: N_10  and  C_11 
REMARK       I    between atoms: C_11  and  N_13 
REMARK    3  A    between atoms: N_13  and  C_14 
ROOT
HETATM    1  N   UNL     1     -42.525 -48.820  11.203  1.00  0.00    -0.337 N 
HETATM    2  C   UNL     1     -42.660 -49.890  12.060  1.00  0.00     0.322 C 
HETATM    3  O   UNL     1     -43.450 -49.879  13.001  1.00  0.00    -0.247 OA
HETATM    4  N   UNL     1     -41.777 -50.901  11.766  1.00  0.00    -0.295 N 
HETATM    5  H   UNL     1     -42.110 -48.985  10.295  1.00  0.00     0.164 HD
HETATM    6  H   UNL     1     -40.867 -50.599  11.450  1.00  0.00     0.172 HD
ENDROOT
BRANCH   1   7
HETATM    7  C   UNL     1     -43.283 -47.599  11.464  1.00  0.00     0.105 C 
HETATM    8  C   UNL     1     -43.761 -46.917  10.182  1.00  0.00     0.047 C 
HETATM    9  C   UNL     1     -42.623 -45.984   9.774  1.00  0.00     0.128 C 
HETATM   10  N   UNL     1     -41.758 -45.897  10.934  1.00  0.00    -0.350 N 
HETATM   11  C   UNL     1     -40.484 -45.376  10.844  1.00  0.00     0.219 C 
HETATM   12  C   UNL     1     -42.384 -46.523  12.092  1.00  0.00     0.150 C 
HETATM   13  O   UNL     1     -40.059 -44.884   9.799  1.00  0.00    -0.273 OA
BRANCH  11  14
HETATM   14  C   UNL     1     -39.637 -45.469  12.102  1.00  0.00     0.098 C 
HETATM   15  C   UNL     1     -39.290 -44.112  12.688  1.00  0.00     0.014 C 
ENDBRANCH  11  14
ENDBRANCH   1   7
BRANCH   4  16
HETATM   16  C   UNL     1     -41.691 -52.052  12.561  1.00  0.00     0.109 A 
HETATM   17  C   UNL     1     -40.471 -52.563  12.984  1.00  0.00     0.055 A 
HETATM   18  C   UNL     1     -40.455 -53.736  13.740  1.00  0.00    -0.057 A 
HETATM   19  C   UNL     1     -39.171 -54.322  14.241  1.00  0.00     0.048 C 
HETATM   20  C   UNL     1     -41.669 -54.374  13.995  1.00  0.00     0.031 A 
HETATM   21  C   UNL     1     -42.850 -53.792  13.540  1.00  0.00     0.007 A 
HETATM   22  C   UNL     1     -44.163 -54.491  13.713  1.00  0.00     0.068 C 
HETATM   23  N   UNL     1     -42.877 -52.615  12.870  1.00  0.00    -0.346 N 
ATOM     24  HN  UNL     1     -43.758 -52.172  12.610  1.00  0.00     0.167 HD
ENDBRANCH   4  16
TORSDOF 3
ENDMDL
MODEL 4
REMARK VINA RESULT:      -6.1      2.606      4.025
REMARK  3 active torsions:
REMARK  status: ('A' for Active; 'I' for Inactive)
REMARK    1  A    between atoms: C_2  and  C_3 
REMARK       I    between atoms: C_3  and  N_5 
REMARK    2  A    between atoms: C_8  and  N_10 
REMARK       I    between atoms: N_10  and  C_11 
REMARK       I    between atoms: C_11  and  N_13 
REMARK    3  A    between atoms: N_13  and  C_14 
ROOT
HETATM    1  N   UNL     1     -43.254 -53.270  12.696  1.00  0.00    -0.337 N 
HETATM    2  C   UNL     1     -42.143 -52.476  12.882  1.00  0.00     0.322 C 
HETATM    3  O   UNL     1     -41.480 -52.512  13.916  1.00  0.00    -0.247 OA
HETATM    4  N   UNL     1     -41.932 -51.629  11.822  1.00  0.00    -0.295 N 
HETATM    5  H   UNL     1     -43.572 -53.432  11.749  1.00  0.00     0.164 HD
HETATM    6  H   UNL     1     -42.768 -51.262  11.392  1.00  0.00     0.172 HD
ENDROOT
BRANCH   1   7
HETATM    7  C   UNL     1     -43.709 -54.126  13.789  1.00  0.00     0.105 C 
HETATM    8  C   UNL     1     -45.066 -54.770  13.507  1.00  0.00     0.047 C 
HETATM    9  C   UNL     1     -46.101 -53.768  14.016  1.00  0.00     0.128 C 
HETATM   10  N   UNL     1     -45.361 -52.828  14.834  1.00  0.00    -0.350 N 
HETATM   11  C   UNL     1     -45.911 -51.624  15.222  1.00  0.00     0.219 C 
HETATM   12  C   UNL     1     -43.997 -53.293  15.048  1.00  0.00     0.150 C 
HETATM   13  O   UNL     1     -47.080 -51.335  14.967  1.00  0.00    -0.273 OA
BRANCH  11  14
HETATM   14  C   UNL     1     -44.982 -50.675  15.960  1.00  0.00     0.098 C 
HETATM   15  C   UNL     1     -45.591 -50.113  17.232  1.00  0.00     0.014 C 
ENDBRANCH  11  14
ENDBRANCH   1   7
BRANCH   4  16
HETATM   16  C   UNL     1     -40.902 -50.680  11.839  1.00  0.00     0.109 A 
HETATM   17  C   UNL     1     -41.133 -49.338  11.561  1.00  0.00     0.055 A 
HETATM   18  C   UNL     1     -40.054 -48.454  11.555  1.00  0.00    -0.057 A 
HETATM   19  C   UNL     1     -40.247 -46.993  11.281  1.00  0.00     0.048 C 
HETATM   20  C   UNL     1     -38.777 -48.967  11.779  1.00  0.00     0.031 A 
HETATM   21  C   UNL     1     -38.631 -50.324  12.056  1.00  0.00     0.007 A 
HETATM   22  C   UNL     1     -37.270 -50.931  12.212  1.00  0.00     0.068 C 
HETATM   23  N   UNL     1     -39.683 -51.174  12.137  1.00  0.00    -0.346 N 
ATOM     24  HN  UNL     1     -39.558 -52.148  12.413  1.00  0.00     0.167 HD
ENDBRANCH   4  16
TORSDOF 3
ENDMDL
MODEL 5
REMARK VINA RESULT:      -6.0      1.410      1.635
REMARK  3 active torsions:
REMARK  status: ('A' for Active; 'I' for Inactive)
REMARK    1  A    between atoms: C_2  and  C_3 
REMARK       I    between atoms: C_3  and  N_5 
REMARK    2  A    between atoms: C_8  and  N_10 
REMARK       I    between atoms: N_10  and  C_11 
REMARK       I    between atoms: C_11  and  N_13 
REMARK    3  A    between atoms: N_13  and  C_14 
ROOT
HETATM    1  N   UNL     1     -41.499 -50.164  12.060  1.00  0.00    -0.337 N 
HETATM    2  C   UNL     1     -41.041 -48.868  12.149  1.00  0.00     0.322 C 
HETATM    3  O   UNL     1     -40.301 -48.496  13.056  1.00  0.00    -0.247 OA
HETATM    4  N   UNL     1     -41.562 -48.069  11.160  1.00  0.00    -0.295 N 
HETATM    5  H   UNL     1     -41.835 -50.492  11.164  1.00  0.00     0.164 HD
HETATM    6  H   UNL     1     -42.519 -48.267  10.906  1.00  0.00     0.172 HD
ENDROOT
BRANCH   1   7
HETATM    7  C   UNL     1     -41.162 -51.112  13.119  1.00  0.00     0.105 C 
HETATM    8  C   UNL     1     -40.712 -52.468  12.576  1.00  0.00     0.047 C 
HETATM    9  C   UNL     1     -41.993 -53.283  12.415  1.00  0.00     0.128 C 
HETATM   10  N   UNL     1     -43.009 -52.558  13.153  1.00  0.00    -0.350 N 
HETATM   11  C   UNL     1     -44.350 -52.839  12.995  1.00  0.00     0.219 C 
HETATM   12  C   UNL     1     -42.411 -51.484  13.935  1.00  0.00     0.150 C 
HETATM   13  O   UNL     1     -44.738 -53.770  12.289  1.00  0.00    -0.273 OA
BRANCH  11  14
HETATM   14  C   UNL     1     -45.313 -51.915  13.723  1.00  0.00     0.098 C 
HETATM   15  C   UNL     1     -46.531 -51.551  12.893  1.00  0.00     0.014 C 
ENDBRANCH  11  14
ENDBRANCH   1   7
BRANCH   4  16
HETATM   16  C   UNL     1     -41.289 -46.695  11.110  1.00  0.00     0.109 A 
HETATM   17  C   UNL     1     -42.112 -45.760  11.726  1.00  0.00     0.055 A 
HETATM   18  C   UNL     1     -41.804 -44.404  11.602  1.00  0.00    -0.057 A 
HETATM   19  C   UNL     1     -42.643 -43.352  12.261  1.00  0.00     0.048 C 
HETATM   20  C   UNL     1     -40.707 -44.045  10.820  1.00  0.00     0.031 A 
HETATM   21  C   UNL     1     -39.929 -45.045  10.241  1.00  0.00     0.007 A 
HETATM   22  C   UNL     1     -38.799 -44.699   9.320  1.00  0.00     0.068 C 
HETATM   23  N   UNL     1     -40.180 -46.364  10.419  1.00  0.00    -0.346 N 
ATOM     24  HN  UNL     1     -39.554 -47.078  10.046  1.00  0.00     0.167 HD
ENDBRANCH   4  16
TORSDOF 3
ENDMDL
MODEL 6
REMARK VINA RESULT:      -5.9      2.229      7.061
REMARK  3 active torsions:
REMARK  status: ('A' for Active; 'I' for Inactive)
REMARK    1  A    between atoms: C_2  and  C_3 
REMARK       I    between atoms: C_3  and  N_5 
REMARK    2  A    between atoms: C_8  and  N_10 
REMARK       I    between atoms: N_10  and  C_11 
REMARK       I    between atoms: C_11  and  N_13 
REMARK    3  A    between atoms: N_13  and  C_14 
ROOT
HETATM    1  N   UNL     1     -42.169 -48.333  12.300  1.00  0.00    -0.337 N 
HETATM    2  C   UNL     1     -42.457 -49.613  12.720  1.00  0.00     0.322 C 
HETATM    3  O   UNL     1     -41.933 -50.601  12.212  1.00  0.00    -0.247 OA
HETATM    4  N   UNL     1     -43.419 -49.630  13.700  1.00  0.00    -0.295 N 
HETATM    5  H   UNL     1     -42.374 -47.567  12.928  1.00  0.00     0.164 HD
HETATM    6  H   UNL     1     -44.149 -48.939  13.598  1.00  0.00     0.172 HD
ENDROOT
BRANCH   1   7
HETATM    7  C   UNL     1     -41.275 -48.142  11.161  1.00  0.00     0.105 C 
HETATM    8  C   UNL     1     -40.590 -46.775  11.172  1.00  0.00     0.047 C 
HETATM    9  C   UNL     1     -41.544 -45.840  10.432  1.00  0.00     0.128 C 
HETATM   10  N   UNL     1     -42.492 -46.706   9.760  1.00  0.00    -0.350 N 
HETATM   11  C   UNL     1     -43.667 -46.213   9.232  1.00  0.00     0.219 C 
HETATM   12  C   UNL     1     -42.071 -48.098   9.846  1.00  0.00     0.150 C 
HETATM   13  O   UNL     1     -43.921 -45.008   9.231  1.00  0.00    -0.273 OA
BRANCH  11  14
HETATM   14  C   UNL     1     -44.632 -47.247   8.677  1.00  0.00     0.098 C 
HETATM   15  C   UNL     1     -46.025 -47.143   9.274  1.00  0.00     0.014 C 
ENDBRANCH  11  14
ENDBRANCH   1   7
BRANCH   4  16
HETATM   16  C   UNL     1     -43.917 -50.834  14.215  1.00  0.00     0.109 A 
HETATM   17  C   UNL     1     -45.280 -51.061  14.366  1.00  0.00     0.055 A 
HETATM   18  C   UNL     1     -45.706 -52.267  14.924  1.00  0.00    -0.057 A 
HETATM   19  C   UNL     1     -47.163 -52.575  15.092  1.00  0.00     0.048 C 
HETATM   20  C   UNL     1     -44.739 -53.175  15.354  1.00  0.00     0.031 A 
HETATM   21  C   UNL     1     -43.393 -52.874  15.161  1.00  0.00     0.007 A 
HETATM   22  C   UNL     1     -42.322 -53.778  15.691  1.00  0.00     0.068 C 
HETATM   23  N   UNL     1     -42.975 -51.738  14.552  1.00  0.00    -0.346 N 
ATOM     24  HN  UNL     1     -41.988 -51.573  14.357  1.00  0.00     0.167 HD
ENDBRANCH   4  16
TORSDOF 3
ENDMDL
MODEL 7
REMARK VINA RESULT:      -5.8      3.340      6.945
REMARK  3 active torsions:
REMARK  status: ('A' for Active; 'I' for Inactive)
REMARK    1  A    between atoms: C_2  and  C_3 
REMARK       I    between atoms: C_3  and  N_5 
REMARK    2  A    between atoms: C_8  and  N_10 
REMARK       I    between atoms: N_10  and  C_11 
REMARK       I    between atoms: C_11  and  N_13 
REMARK    3  A    between atoms: N_13  and  C_14 
ROOT
HETATM    1  N   UNL     1     -40.862 -50.184  12.847  1.00  0.00    -0.337 N 
HETATM    2  C   UNL     1     -42.239 -50.149  12.812  1.00  0.00     0.322 C 
HETATM    3  O   UNL     1     -42.855 -49.321  12.145  1.00  0.00    -0.247 OA
HETATM    4  N   UNL     1     -42.799 -51.087  13.644  1.00  0.00    -0.295 N 
HETATM    5  H   UNL     1     -40.413 -51.040  13.145  1.00  0.00     0.164 HD
HETATM    6  H   UNL     1     -42.304 -51.245  14.510  1.00  0.00     0.172 HD
ENDROOT
BRANCH   1   7
HETATM    7  C   UNL     1     -40.105 -49.157  12.135  1.00  0.00     0.105 C 
HETATM    8  C   UNL     1     -38.671 -49.587  11.829  1.00  0.00     0.047 C 
HETATM    9  C   UNL     1     -37.856 -49.174  13.053  1.00  0.00     0.128 C 
HETATM   10  N   UNL     1     -38.709 -48.269  13.799  1.00  0.00    -0.350 N 
HETATM   11  C   UNL     1     -38.422 -47.922  15.103  1.00  0.00     0.219 C 
HETATM   12  C   UNL     1     -39.894 -47.921  13.025  1.00  0.00     0.150 C 
HETATM   13  O   UNL     1     -37.388 -48.292  15.658  1.00  0.00    -0.273 OA
BRANCH  11  14
HETATM   14  C   UNL     1     -39.468 -47.077  15.811  1.00  0.00     0.098 C 
HETATM   15  C   UNL     1     -39.144 -45.594  15.798  1.00  0.00     0.014 C 
ENDBRANCH  11  14
ENDBRANCH   1   7
BRANCH   4  16
HETATM   16  C   UNL     1     -44.187 -51.173  13.820  1.00  0.00     0.109 A 
HETATM   17  C   UNL     1     -44.773 -51.110  15.078  1.00  0.00     0.055 A 
HETATM   18  C   UNL     1     -46.158 -51.243  15.185  1.00  0.00    -0.057 A 
HETATM   19  C   UNL     1     -46.847 -51.164  16.513  1.00  0.00     0.048 C 
HETATM   20  C   UNL     1     -46.891 -51.484  14.023  1.00  0.00     0.031 A 
HETATM   21  C   UNL     1     -46.227 -51.527  12.799  1.00  0.00     0.007 A 
HETATM   22  C   UNL     1     -46.962 -51.874  11.541  1.00  0.00     0.068 C 
HETATM   23  N   UNL     1     -44.892 -51.324  12.681  1.00  0.00    -0.346 N 
ATOM     24  HN  UNL     1     -44.440 -51.287  11.768  1.00  0.00     0.167 HD
ENDBRANCH   4  16
TORSDOF 3
ENDMDL
MODEL 8
REMARK VINA RESULT:      -5.8      2.021      2.519
REMARK  3 active torsions:
REMARK  status: ('A' for Active; 'I' for Inactive)
REMARK    1  A    between atoms: C_2  and  C_3 
REMARK       I    between atoms: C_3  and  N_5 
REMARK    2  A    between atoms: C_8  and  N_10 
REMARK       I    between atoms: N_10  and  C_11 
REMARK       I    between atoms: C_11  and  N_13 
REMARK    3  A    between atoms: N_13  and  C_14 
ROOT
HETATM    1  N   UNL     1     -42.320 -51.133  13.321  1.00  0.00    -0.337 N 
HETATM    2  C   UNL     1     -42.017 -50.145  12.411  1.00  0.00     0.322 C 
HETATM    3  O   UNL     1     -40.905 -50.046  11.899  1.00  0.00    -0.247 OA
HETATM    4  N   UNL     1     -43.069 -49.283  12.218  1.00  0.00    -0.295 N 
HETATM    5  H   UNL     1     -43.294 -51.361  13.473  1.00  0.00     0.164 HD
HETATM    6  H   UNL     1     -43.619 -49.083  13.041  1.00  0.00     0.172 HD
ENDROOT
BRANCH   1   7
HETATM    7  C   UNL     1     -41.267 -52.048  13.756  1.00  0.00     0.105 C 
HETATM    8  C   UNL     1     -41.068 -53.219  12.793  1.00  0.00     0.047 C 
HETATM    9  C   UNL     1     -42.040 -54.299  13.265  1.00  0.00     0.128 C 
HETATM   10  N   UNL     1     -42.464 -53.886  14.589  1.00  0.00    -0.350 N 
HETATM   11  C   UNL     1     -43.555 -54.462  15.206  1.00  0.00     0.219 C 
HETATM   12  C   UNL     1     -41.668 -52.760  15.058  1.00  0.00     0.150 C 
HETATM   13  O   UNL     1     -44.161 -55.406  14.699  1.00  0.00    -0.273 OA
BRANCH  11  14
HETATM   14  C   UNL     1     -43.972 -53.845  16.530  1.00  0.00     0.098 C 
HETATM   15  C   UNL     1     -45.357 -53.223  16.487  1.00  0.00     0.014 C 
ENDBRANCH  11  14
ENDBRANCH   1   7
BRANCH   4  16
HETATM   16  C   UNL     1     -42.951 -48.158  11.390  1.00  0.00     0.109 A 
HETATM   17  C   UNL     1     -42.698 -46.892  11.904  1.00  0.00     0.055 A 
HETATM   18  C   UNL     1     -42.633 -45.808  11.027  1.00  0.00    -0.057 A 
HETATM   19  C   UNL     1     -42.343 -44.424  11.521  1.00  0.00     0.048 C 
HETATM   20  C   UNL     1     -42.874 -46.038   9.673  1.00  0.00     0.031 A 
HETATM   21  C   UNL     1     -43.115 -47.339   9.238  1.00  0.00     0.007 A 
HETATM   22  C   UNL     1     -43.470 -47.616   7.809  1.00  0.00     0.068 C 
HETATM   23  N   UNL     1     -43.106 -48.406  10.074  1.00  0.00    -0.346 N 
ATOM     24  HN  UNL     1     -43.212 -49.357   9.722  1.00  0.00     0.167 HD
ENDBRANCH   4  16
TORSDOF 3
ENDMDL
MODEL 9
REMARK VINA RESULT:      -5.7      1.600      2.154
REMARK  3 active torsions:
REMARK  status: ('A' for Active; 'I' for Inactive)
REMARK    1  A    between atoms: C_2  and  C_3 
REMARK       I    between atoms: C_3  and  N_5 
REMARK    2  A    between atoms: C_8  and  N_10 
REMARK       I    between atoms: N_10  and  C_11 
REMARK       I    between atoms: C_11  and  N_13 
REMARK    3  A    between atoms: N_13  and  C_14 
ROOT
HETATM    1  N   UNL     1     -41.637 -50.848  12.459  1.00  0.00    -0.337 N 
HETATM    2  C   UNL     1     -41.371 -49.514  12.676  1.00  0.00     0.322 C 
HETATM    3  O   UNL     1     -41.112 -49.072  13.792  1.00  0.00    -0.247 OA
HETATM    4  N   UNL     1     -41.498 -48.770  11.528  1.00  0.00    -0.295 N 
HETATM    5  H   UNL     1     -41.539 -51.208  11.519  1.00  0.00     0.164 HD
HETATM    6  H   UNL     1     -42.240 -49.059  10.908  1.00  0.00     0.172 HD
ENDROOT
BRANCH   1   7
HETATM    7  C   UNL     1     -41.692 -51.757  13.601  1.00  0.00     0.105 C 
HETATM    8  C   UNL     1     -41.561 -53.225  13.193  1.00  0.00     0.047 C 
HETATM    9  C   UNL     1     -42.986 -53.691  12.902  1.00  0.00     0.128 C 
HETATM   10  N   UNL     1     -43.850 -52.668  13.458  1.00  0.00    -0.350 N 
HETATM   11  C   UNL     1     -45.189 -52.604  13.133  1.00  0.00     0.219 C 
HETATM   12  C   UNL     1     -43.082 -51.723  14.258  1.00  0.00     0.150 C 
HETATM   13  O   UNL     1     -45.726 -53.459  12.431  1.00  0.00    -0.273 OA
BRANCH  11  14
HETATM   14  C   UNL     1     -45.948 -51.404  13.676  1.00  0.00     0.098 C 
HETATM   15  C   UNL     1     -46.839 -51.748  14.857  1.00  0.00     0.014 C 
ENDBRANCH  11  14
ENDBRANCH   1   7
BRANCH   4  16
HETATM   16  C   UNL     1     -41.348 -47.377  11.539  1.00  0.00     0.109 A 
HETATM   17  C   UNL     1     -40.430 -46.730  10.720  1.00  0.00     0.055 A 
HETATM   18  C   UNL     1     -40.304 -45.344  10.811  1.00  0.00    -0.057 A 
HETATM   19  C   UNL     1     -39.346 -44.591   9.939  1.00  0.00     0.048 C 
HETATM   20  C   UNL     1     -41.073 -44.670  11.759  1.00  0.00     0.031 A 
HETATM   21  C   UNL     1     -41.975 -45.392  12.538  1.00  0.00     0.007 A 
HETATM   22  C   UNL     1     -42.752 -44.722  13.629  1.00  0.00     0.068 C 
HETATM   23  N   UNL     1     -42.155 -46.728  12.402  1.00  0.00    -0.346 N 
ATOM     24  HN  UNL     1     -42.873 -47.223  12.932  1.00  0.00     0.167 HD
ENDBRANCH   4  16
TORSDOF 3
ENDMDL
