MODEL 1
REMARK VINA RESULT:      -6.3      0.000      0.000
REMARK  5 active torsions:
REMARK  status: ('A' for Active; 'I' for Inactive)
REMARK       I    between atoms: C_2  and  N_4 
REMARK    1  A    between atoms: N_4  and  C_5 
REMARK    2  A    between atoms: C_5  and  C_6 
REMARK       I    between atoms: C_6  and  N_8 
REMARK    3  A    between atoms: N_8  and  C_9 
REMARK    4  A    between atoms: C_9  and  C_10 
REMARK    5  A    between atoms: C_10  and  C_16 
ROOT
HETATM    1  C   UNL     1     -41.844 -52.513  13.326  1.00  0.00     0.003 C 
HETATM    2  C   UNL     1     -41.141 -51.708  14.462  1.00  0.00     0.016 C 
HETATM    3  C   UNL     1     -39.647 -51.980  14.649  1.00  0.00     0.001 C 
HETATM    4  C   UNL     1     -39.323 -53.458  14.775  1.00  0.00     0.000 C 
HETATM    5  C   UNL     1     -39.952 -54.295  13.674  1.00  0.00     0.001 C 
HETATM    6  C   UNL     1     -41.442 -54.012  13.493  1.00  0.00     0.016 C 
ENDROOT
BRANCH   1   7
HETATM    7  C   UNL     1     -41.492 -51.960  11.900  1.00  0.00     0.137 C 
BRANCH   7   8
HETATM    8  N   UNL     1     -41.781 -50.562  11.657  1.00  0.00    -0.359 N 
HETATM    9  C   UNL     1     -40.814 -49.641  11.307  1.00  0.00     0.235 C 
HETATM   10  O   UNL     1     -39.613 -49.890  11.262  1.00  0.00    -0.272 OA
HETATM   11  H   UNL     1     -42.684 -50.186  11.947  1.00  0.00     0.162 HD
BRANCH   9  12
HETATM   12  C   UNL     1     -41.377 -48.259  10.974  1.00  0.00     0.225 C 
BRANCH  12  13
HETATM   13  N   UNL     1     -41.885 -48.205   9.620  1.00  0.00    -0.353 N 
HETATM   14  C   UNL     1     -43.135 -47.702   9.356  1.00  0.00     0.213 C 
HETATM   15  C   UNL     1     -43.493 -47.720   7.895  1.00  0.00     0.117 C 
HETATM   16  O   UNL     1     -43.877 -47.261  10.227  1.00  0.00    -0.274 OA
HETATM   17  H   UNL     1     -41.229 -48.336   8.859  1.00  0.00     0.162 HD
ENDBRANCH  12  13
ENDBRANCH   9  12
ENDBRANCH   7   8
ENDBRANCH   1   7
BRANCH   1  18
HETATM   18  C   UNL     1     -43.396 -52.353  13.424  1.00  0.00    -0.045 A 
HETATM   19  C   UNL     1     -44.271 -53.062  12.585  1.00  0.00     0.025 A 
HETATM   20  C   UNL     1     -45.637 -52.808  12.636  1.00  0.00     0.088 A 
HETATM   21  N   UNL     1     -46.203 -51.902  13.455  1.00  0.00    -0.375 N 
HETATM   22  C   UNL     1     -45.364 -51.222  14.259  1.00  0.00     0.088 A 
ATOM     23  HN  UNL     1     -47.210 -51.740  13.466  1.00  0.00     0.164 HD
HETATM   24  C   UNL     1     -43.985 -51.406  14.279  1.00  0.00     0.025 A 
ENDBRANCH   1  18
TORSDOF 5
ENDMDL
MODEL 2
REMARK VINA RESULT:      -6.2      2.421      5.864
REMARK  5 active torsions:
REMARK  status: ('A' for Active; 'I' for Inactive)
REMARK       I    between atoms: C_2  and  N_4 
REMARK    1  A    between atoms: N_4  and  C_5 
REMARK    2  A    between atoms: C_5  and  C_6 
REMARK       I    between atoms: C_6  and  N_8 
REMARK    3  A    between atoms: N_8  and  C_9 
REMARK    4  A    between atoms: C_9  and  C_10 
REMARK    5  A    between atoms: C_10  and  C_16 
ROOT
HETATM    1  C   UNL     1     -42.019 -47.534  11.261  1.00  0.00     0.003 C 
HETATM    2  C   UNL     1     -41.065 -46.341  10.940  1.00  0.00     0.016 C 
HETATM    3  C   UNL     1     -40.113 -45.926  12.064  1.00  0.00     0.001 C 
HETATM    4  C   UNL     1     -40.821 -45.692  13.387  1.00  0.00     0.000 C 
HETATM    5  C   UNL     1     -41.740 -46.837  13.773  1.00  0.00     0.001 C 
HETATM    6  C   UNL     1     -42.683 -47.247  12.643  1.00  0.00     0.016 C 
ENDROOT
BRANCH   1   7
HETATM    7  C   UNL     1     -41.272 -48.914  11.236  1.00  0.00     0.137 C 
BRANCH   7   8
HETATM    8  N   UNL     1     -42.062 -50.085  11.557  1.00  0.00    -0.359 N 
HETATM    9  C   UNL     1     -41.539 -51.198  12.185  1.00  0.00     0.235 C 
HETATM   10  O   UNL     1     -40.348 -51.345  12.443  1.00  0.00    -0.272 OA
HETATM   11  H   UNL     1     -42.983 -50.192  11.133  1.00  0.00     0.162 HD
BRANCH   9  12
HETATM   12  C   UNL     1     -42.590 -52.251  12.538  1.00  0.00     0.225 C 
BRANCH  12  13
HETATM   13  N   UNL     1     -43.882 -51.648  12.789  1.00  0.00    -0.353 N 
HETATM   14  C   UNL     1     -45.036 -52.383  12.680  1.00  0.00     0.213 C 
HETATM   15  C   UNL     1     -46.281 -51.595  12.981  1.00  0.00     0.117 C 
HETATM   16  O   UNL     1     -45.047 -53.573  12.384  1.00  0.00    -0.274 OA
HETATM   17  H   UNL     1     -43.906 -50.749  13.255  1.00  0.00     0.162 HD
ENDBRANCH  12  13
ENDBRANCH   9  12
ENDBRANCH   7   8
ENDBRANCH   1   7
BRANCH   1  18
HETATM   18  C   UNL     1     -43.111 -47.672  10.151  1.00  0.00    -0.045 A 
HETATM   19  C   UNL     1     -42.778 -47.793   8.791  1.00  0.00     0.025 A 
HETATM   20  C   UNL     1     -43.783 -47.807   7.832  1.00  0.00     0.088 A 
HETATM   21  N   UNL     1     -45.095 -47.707   8.115  1.00  0.00    -0.375 N 
HETATM   22  C   UNL     1     -45.414 -47.591   9.418  1.00  0.00     0.088 A 
ATOM     23  HN  UNL     1     -45.807 -47.720   7.385  1.00  0.00     0.164 HD
HETATM   24  C   UNL     1     -44.480 -47.568  10.449  1.00  0.00     0.025 A 
ENDBRANCH   1  18
TORSDOF 5
ENDMDL
MODEL 3
REMARK VINA RESULT:      -6.1      1.644      3.921
REMARK  5 active torsions:
REMARK  status: ('A' for Active; 'I' for Inactive)
REMARK       I    between atoms: C_2  and  N_4 
REMARK    1  A    between atoms: N_4  and  C_5 
REMARK    2  A    between atoms: C_5  and  C_6 
REMARK       I    between atoms: C_6  and  N_8 
REMARK    3  A    between atoms: N_8  and  C_9 
REMARK    4  A    between atoms: C_9  and  C_10 
REMARK    5  A    between atoms: C_10  and  C_16 
ROOT
HETATM    1  C   UNL     1     -42.665 -52.810  13.274  1.00  0.00     0.003 C 
HETATM    2  C   UNL     1     -43.921 -53.682  12.961  1.00  0.00     0.016 C 
HETATM    3  C   UNL     1     -45.169 -52.919  12.512  1.00  0.00     0.001 C 
HETATM    4  C   UNL     1     -45.540 -51.781  13.445  1.00  0.00     0.000 C 
HETATM    5  C   UNL     1     -44.364 -50.872  13.761  1.00  0.00     0.001 C 
HETATM    6  C   UNL     1     -43.121 -51.643  14.204  1.00  0.00     0.016 C 
ENDROOT
BRANCH   1   7
HETATM    7  C   UNL     1     -41.965 -52.289  11.969  1.00  0.00     0.137 C 
BRANCH   7   8
HETATM    8  N   UNL     1     -41.945 -50.854  11.772  1.00  0.00    -0.359 N 
HETATM    9  C   UNL     1     -40.779 -50.129  11.626  1.00  0.00     0.235 C 
HETATM   10  O   UNL     1     -39.655 -50.605  11.744  1.00  0.00    -0.272 OA
HETATM   11  H   UNL     1     -42.795 -50.318  11.948  1.00  0.00     0.162 HD
BRANCH   9  12
HETATM   12  C   UNL     1     -41.014 -48.654  11.299  1.00  0.00     0.225 C 
BRANCH  12  13
HETATM   13  N   UNL     1     -41.642 -48.490  10.005  1.00  0.00    -0.353 N 
HETATM   14  C   UNL     1     -42.791 -47.751   9.868  1.00  0.00     0.213 C 
HETATM   15  C   UNL     1     -43.298 -47.687   8.453  1.00  0.00     0.117 C 
HETATM   16  O   UNL     1     -43.338 -47.182  10.806  1.00  0.00    -0.274 OA
HETATM   17  H   UNL     1     -41.108 -48.740   9.181  1.00  0.00     0.162 HD
ENDBRANCH  12  13
ENDBRANCH   9  12
ENDBRANCH   7   8
ENDBRANCH   1   7
BRANCH   1  18
HETATM   18  C   UNL     1     -41.567 -53.669  13.978  1.00  0.00    -0.045 A 
HETATM   19  C   UNL     1     -41.773 -54.251  15.240  1.00  0.00     0.025 A 
HETATM   20  C   UNL     1     -40.731 -54.918  15.873  1.00  0.00     0.088 A 
HETATM   21  N   UNL     1     -39.497 -55.052  15.353  1.00  0.00    -0.375 N 
HETATM   22  C   UNL     1     -39.299 -54.494  14.143  1.00  0.00     0.088 A 
ATOM     23  HN  UNL     1     -38.754 -55.547  15.846  1.00  0.00     0.164 HD
HETATM   24  C   UNL     1     -40.279 -53.808  13.433  1.00  0.00     0.025 A 
ENDBRANCH   1  18
TORSDOF 5
ENDMDL
MODEL 4
REMARK VINA RESULT:      -6.0      1.979      4.143
REMARK  5 active torsions:
REMARK  status: ('A' for Active; 'I' for Inactive)
REMARK       I    between atoms: C_2  and  N_4 
REMARK    1  A    between atoms: N_4  and  C_5 
REMARK    2  A    between atoms: C_5  and  C_6 
REMARK       I    between atoms: C_6  and  N_8 
REMARK    3  A    between atoms: N_8  and  C_9 
REMARK    4  A    between atoms: C_9  and  C_10 
REMARK    5  A    between atoms: C_10  and  C_16 
ROOT
HETATM    1  C   UNL     1     -43.926 -51.541  13.962  1.00  0.00     0.003 C 
HETATM    2  C   UNL     1     -45.087 -51.883  12.977  1.00  0.00     0.016 C 
HETATM    3  C   UNL     1     -46.461 -51.317  13.341  1.00  0.00     0.001 C 
HETATM    4  C   UNL     1     -46.874 -51.629  14.769  1.00  0.00     0.000 C 
HETATM    5  C   UNL     1     -45.796 -51.285  15.782  1.00  0.00     0.001 C 
HETATM    6  C   UNL     1     -44.427 -51.850  15.407  1.00  0.00     0.016 C 
ENDROOT
BRANCH   1   7
HETATM    7  C   UNL     1     -43.435 -50.058  13.809  1.00  0.00     0.137 C 
BRANCH   7   8
HETATM    8  N   UNL     1     -43.578 -49.460  12.498  1.00  0.00    -0.359 N 
HETATM    9  C   UNL     1     -42.784 -48.421  12.052  1.00  0.00     0.235 C 
HETATM   10  O   UNL     1     -41.955 -47.843  12.749  1.00  0.00    -0.272 OA
HETATM   11  H   UNL     1     -44.415 -49.660  11.951  1.00  0.00     0.162 HD
BRANCH   9  12
HETATM   12  C   UNL     1     -43.032 -48.045  10.591  1.00  0.00     0.225 C 
BRANCH  12  13
HETATM   13  N   UNL     1     -44.431 -47.769  10.344  1.00  0.00    -0.353 N 
HETATM   14  C   UNL     1     -44.903 -47.608   9.065  1.00  0.00     0.213 C 
HETATM   15  C   UNL     1     -46.380 -47.332   9.000  1.00  0.00     0.117 C 
HETATM   16  O   UNL     1     -44.190 -47.700   8.072  1.00  0.00    -0.274 OA
HETATM   17  H   UNL     1     -45.087 -47.915  11.103  1.00  0.00     0.162 HD
ENDBRANCH  12  13
ENDBRANCH   9  12
ENDBRANCH   7   8
ENDBRANCH   1   7
BRANCH   1  18
HETATM   18  C   UNL     1     -42.661 -52.397  13.631  1.00  0.00    -0.045 A 
HETATM   19  C   UNL     1     -41.953 -52.243  12.426  1.00  0.00     0.025 A 
HETATM   20  C   UNL     1     -40.898 -53.099  12.130  1.00  0.00     0.088 A 
HETATM   21  N   UNL     1     -40.491 -54.097  12.935  1.00  0.00    -0.375 N 
HETATM   22  C   UNL     1     -41.169 -54.244  14.089  1.00  0.00     0.088 A 
ATOM     23  HN  UNL     1     -39.712 -54.707  12.685  1.00  0.00     0.164 HD
HETATM   24  C   UNL     1     -42.236 -53.439  14.472  1.00  0.00     0.025 A 
ENDBRANCH   1  18
TORSDOF 5
ENDMDL
MODEL 5
REMARK VINA RESULT:      -5.9      2.452      5.422
REMARK  5 active torsions:
REMARK  status: ('A' for Active; 'I' for Inactive)
REMARK       I    between atoms: C_2  and  N_4 
REMARK    1  A    between atoms: N_4  and  C_5 
REMARK    2  A    between atoms: C_5  and  C_6 
REMARK       I    between atoms: C_6  and  N_8 
REMARK    3  A    between atoms: N_8  and  C_9 
REMARK    4  A    between atoms: C_9  and  C_10 
REMARK    5  A    between atoms: C_10  and  C_16 
ROOT
HETATM    1  C   UNL     1     -40.118 -49.212  12.122  1.00  0.00     0.003 C 
HETATM    2  C   UNL     1     -38.561 -49.105  12.150  1.00  0.00     0.016 C 
HETATM    3  C   UNL     1     -37.839 -50.109  13.051  1.00  0.00     0.001 C 
HETATM    4  C   UNL     1     -38.388 -50.141  14.466  1.00  0.00     0.000 C 
HETATM    5  C   UNL     1     -39.900 -50.280  14.507  1.00  0.00     0.001 C 
HETATM    6  C   UNL     1     -40.612 -49.277  13.601  1.00  0.00     0.016 C 
ENDROOT
BRANCH   1   7
HETATM    7  C   UNL     1     -40.614 -50.438  11.277  1.00  0.00     0.137 C 
BRANCH   7   8
HETATM    8  N   UNL     1     -41.715 -51.201  11.825  1.00  0.00    -0.359 N 
HETATM    9  C   UNL     1     -41.602 -52.526  12.198  1.00  0.00     0.235 C 
HETATM   10  O   UNL     1     -40.599 -53.209  12.013  1.00  0.00    -0.272 OA
HETATM   11  H   UNL     1     -42.661 -50.828  11.752  1.00  0.00     0.162 HD
BRANCH   9  12
HETATM   12  C   UNL     1     -42.858 -53.081  12.871  1.00  0.00     0.225 C 
BRANCH  12  13
HETATM   13  N   UNL     1     -43.991 -52.199  12.690  1.00  0.00    -0.353 N 
HETATM   14  C   UNL     1     -45.272 -52.692  12.673  1.00  0.00     0.213 C 
HETATM   15  C   UNL     1     -46.321 -51.631  12.479  1.00  0.00     0.117 C 
HETATM   16  O   UNL     1     -45.535 -53.880  12.823  1.00  0.00    -0.274 OA
HETATM   17  H   UNL     1     -43.841 -51.203  12.797  1.00  0.00     0.162 HD
ENDBRANCH  12  13
ENDBRANCH   9  12
ENDBRANCH   7   8
ENDBRANCH   1   7
BRANCH   1  18
HETATM   18  C   UNL     1     -40.736 -47.973  11.396  1.00  0.00    -0.045 A 
HETATM   19  C   UNL     1     -41.963 -48.047  10.716  1.00  0.00     0.025 A 
HETATM   20  C   UNL     1     -42.421 -46.949   9.996  1.00  0.00     0.088 A 
HETATM   21  N   UNL     1     -41.755 -45.783   9.897  1.00  0.00    -0.375 N 
HETATM   22  C   UNL     1     -40.580 -45.714  10.549  1.00  0.00     0.088 A 
ATOM     23  HN  UNL     1     -42.121 -44.998   9.359  1.00  0.00     0.164 HD
HETATM   24  C   UNL     1     -40.039 -46.757  11.294  1.00  0.00     0.025 A 
ENDBRANCH   1  18
TORSDOF 5
ENDMDL
MODEL 6
REMARK VINA RESULT:      -5.9      1.972      4.273
REMARK  5 active torsions:
REMARK  status: ('A' for Active; 'I' for Inactive)
REMARK       I    between atoms: C_2  and  N_4 
REMARK    1  A    between atoms: N_4  and  C_5 
REMARK    2  A    between atoms: C_5  and  C_6 
REMARK       I    between atoms: C_6  and  N_8 
REMARK    3  A    between atoms: N_8  and  C_9 
REMARK    4  A    between atoms: C_9  and  C_10 
REMARK    5  A    between atoms: C_10  and  C_16 
ROOT
HETATM    1  C   UNL     1     -43.849 -51.374  13.912  1.00  0.00     0.003 C 
HETATM    2  C   UNL     1     -44.888 -51.932  12.890  1.00  0.00     0.016 C 
HETATM    3  C   UNL     1     -46.337 -51.490  13.101  1.00  0.00     0.001 C 
HETATM    4  C   UNL     1     -46.826 -51.712  14.522  1.00  0.00     0.000 C 
HETATM    5  C   UNL     1     -45.872 -51.158  15.566  1.00  0.00     0.001 C 
HETATM    6  C   UNL     1     -44.427 -51.602  15.343  1.00  0.00     0.016 C 
ENDROOT
BRANCH   1   7
HETATM    7  C   UNL     1     -43.503 -49.867  13.644  1.00  0.00     0.137 C 
BRANCH   7   8
HETATM    8  N   UNL     1     -42.993 -49.542  12.329  1.00  0.00    -0.359 N 
HETATM    9  C   UNL     1     -42.785 -48.246  11.899  1.00  0.00     0.235 C 
HETATM   10  O   UNL     1     -43.099 -47.250  12.544  1.00  0.00    -0.272 OA
HETATM   11  H   UNL     1     -42.973 -50.268  11.612  1.00  0.00     0.162 HD
BRANCH   9  12
HETATM   12  C   UNL     1     -42.118 -48.157  10.526  1.00  0.00     0.225 C 
BRANCH  12  13
HETATM   13  N   UNL     1     -40.963 -47.284  10.553  1.00  0.00    -0.353 N 
HETATM   14  C   UNL     1     -41.071 -45.961  10.203  1.00  0.00     0.213 C 
HETATM   15  C   UNL     1     -39.772 -45.208  10.294  1.00  0.00     0.117 C 
HETATM   16  O   UNL     1     -42.130 -45.441   9.868  1.00  0.00    -0.274 OA
HETATM   17  H   UNL     1     -40.134 -47.605  11.039  1.00  0.00     0.162 HD
ENDBRANCH  12  13
ENDBRANCH   9  12
ENDBRANCH   7   8
ENDBRANCH   1   7
BRANCH   1  18
HETATM   18  C   UNL     1     -42.480 -52.112  13.755  1.00  0.00    -0.045 A 
HETATM   19  C   UNL     1     -42.297 -53.151  12.827  1.00  0.00     0.025 A 
HETATM   20  C   UNL     1     -41.095 -53.848  12.796  1.00  0.00     0.088 A 
HETATM   21  N   UNL     1     -40.059 -53.596  13.618  1.00  0.00    -0.375 N 
HETATM   22  C   UNL     1     -40.234 -52.601  14.507  1.00  0.00     0.088 A 
ATOM     23  HN  UNL     1     -39.190 -54.129  13.568  1.00  0.00     0.164 HD
HETATM   24  C   UNL     1     -41.399 -51.848  14.613  1.00  0.00     0.025 A 
ENDBRANCH   1  18
TORSDOF 5
ENDMDL
MODEL 7
REMARK VINA RESULT:      -5.8      1.818      4.572
REMARK  5 active torsions:
REMARK  status: ('A' for Active; 'I' for Inactive)
REMARK       I    between atoms: C_2  and  N_4 
REMARK    1  A    between atoms: N_4  and  C_5 
REMARK    2  A    between atoms: C_5  and  C_6 
REMARK       I    between atoms: C_6  and  N_8 
REMARK    3  A    between atoms: N_8  and  C_9 
REMARK    4  A    between atoms: C_9  and  C_10 
REMARK    5  A    between atoms: C_10  and  C_16 
ROOT
HETATM    1  C   UNL     1     -43.966 -51.436  14.076  1.00  0.00     0.003 C 
HETATM    2  C   UNL     1     -45.057 -52.028  13.130  1.00  0.00     0.016 C 
HETATM    3  C   UNL     1     -46.485 -51.534  13.366  1.00  0.00     0.001 C 
HETATM    4  C   UNL     1     -46.925 -51.653  14.814  1.00  0.00     0.000 C 
HETATM    5  C   UNL     1     -45.918 -51.061  15.785  1.00  0.00     0.001 C 
HETATM    6  C   UNL     1     -44.495 -51.557  15.539  1.00  0.00     0.016 C 
ENDROOT
BRANCH   1   7
HETATM    7  C   UNL     1     -43.593 -49.958  13.700  1.00  0.00     0.137 C 
BRANCH   7   8
HETATM    8  N   UNL     1     -42.890 -49.765  12.450  1.00  0.00    -0.359 N 
HETATM    9  C   UNL     1     -42.403 -48.539  12.040  1.00  0.00     0.235 C 
HETATM   10  O   UNL     1     -42.600 -47.487  12.640  1.00  0.00    -0.272 OA
HETATM   11  H   UNL     1     -42.924 -50.500  11.743  1.00  0.00     0.162 HD
BRANCH   9  12
HETATM   12  C   UNL     1     -41.583 -48.606  10.751  1.00  0.00     0.225 C 
BRANCH  12  13
HETATM   13  N   UNL     1     -40.162 -48.611  11.026  1.00  0.00    -0.353 N 
HETATM   14  C   UNL     1     -39.536 -49.743  11.484  1.00  0.00     0.213 C 
HETATM   15  C   UNL     1     -38.059 -49.564  11.710  1.00  0.00     0.117 C 
HETATM   16  O   UNL     1     -40.122 -50.803  11.672  1.00  0.00    -0.274 OA
HETATM   17  H   UNL     1     -39.605 -47.843  10.669  1.00  0.00     0.162 HD
ENDBRANCH  12  13
ENDBRANCH   9  12
ENDBRANCH   7   8
ENDBRANCH   1   7
BRANCH   1  18
HETATM   18  C   UNL     1     -42.623 -52.220  13.917  1.00  0.00    -0.045 A 
HETATM   19  C   UNL     1     -42.488 -53.288  13.014  1.00  0.00     0.025 A 
HETATM   20  C   UNL     1     -41.308 -54.022  12.983  1.00  0.00     0.088 A 
HETATM   21  N   UNL     1     -40.250 -53.780  13.779  1.00  0.00    -0.375 N 
HETATM   22  C   UNL     1     -40.380 -52.757  14.644  1.00  0.00     0.088 A 
ATOM     23  HN  UNL     1     -39.399 -54.340  13.730  1.00  0.00     0.164 HD
HETATM   24  C   UNL     1     -41.520 -51.966  14.750  1.00  0.00     0.025 A 
ENDBRANCH   1  18
TORSDOF 5
ENDMDL
MODEL 8
REMARK VINA RESULT:      -5.7      2.720      6.003
REMARK  5 active torsions:
REMARK  status: ('A' for Active; 'I' for Inactive)
REMARK       I    between atoms: C_2  and  N_4 
REMARK    1  A    between atoms: N_4  and  C_5 
REMARK    2  A    between atoms: C_5  and  C_6 
REMARK       I    between atoms: C_6  and  N_8 
REMARK    3  A    between atoms: N_8  and  C_9 
REMARK    4  A    between atoms: C_9  and  C_10 
REMARK    5  A    between atoms: C_10  and  C_16 
ROOT
HETATM    1  C   UNL     1     -40.634 -48.644  12.347  1.00  0.00     0.003 C 
HETATM    2  C   UNL     1     -41.981 -48.233  13.019  1.00  0.00     0.016 C 
HETATM    3  C   UNL     1     -42.955 -47.448  12.139  1.00  0.00     0.001 C 
HETATM    4  C   UNL     1     -42.315 -46.245  11.469  1.00  0.00     0.000 C 
HETATM    5  C   UNL     1     -41.013 -46.588  10.765  1.00  0.00     0.001 C 
HETATM    6  C   UNL     1     -40.049 -47.376  11.650  1.00  0.00     0.016 C 
ENDROOT
BRANCH   1   7
HETATM    7  C   UNL     1     -40.810 -49.842  11.347  1.00  0.00     0.137 C 
BRANCH   7   8
HETATM    8  N   UNL     1     -41.814 -50.828  11.688  1.00  0.00    -0.359 N 
HETATM    9  C   UNL     1     -41.504 -52.091  12.151  1.00  0.00     0.235 C 
HETATM   10  O   UNL     1     -40.362 -52.533  12.228  1.00  0.00    -0.272 OA
HETATM   11  H   UNL     1     -42.778 -50.677  11.390  1.00  0.00     0.162 HD
BRANCH   9  12
HETATM   12  C   UNL     1     -42.728 -52.908  12.568  1.00  0.00     0.225 C 
BRANCH  12  13
HETATM   13  N   UNL     1     -43.914 -52.082  12.649  1.00  0.00    -0.353 N 
HETATM   14  C   UNL     1     -45.165 -52.646  12.672  1.00  0.00     0.213 C 
HETATM   15  C   UNL     1     -46.278 -51.637  12.762  1.00  0.00     0.117 C 
HETATM   16  O   UNL     1     -45.355 -53.857  12.642  1.00  0.00    -0.274 OA
HETATM   17  H   UNL     1     -43.801 -51.110  12.908  1.00  0.00     0.162 HD
ENDBRANCH  12  13
ENDBRANCH   9  12
ENDBRANCH   7   8
ENDBRANCH   1   7
BRANCH   1  18
HETATM   18  C   UNL     1     -39.633 -49.186  13.418  1.00  0.00    -0.045 A 
HETATM   19  C   UNL     1     -38.349 -49.639  13.073  1.00  0.00     0.025 A 
HETATM   20  C   UNL     1     -37.533 -50.210  14.044  1.00  0.00     0.088 A 
HETATM   21  N   UNL     1     -37.894 -50.369  15.331  1.00  0.00    -0.375 N 
HETATM   22  C   UNL     1     -39.125 -49.935  15.660  1.00  0.00     0.088 A 
ATOM     23  HN  UNL     1     -37.270 -50.794  16.017  1.00  0.00     0.164 HD
HETATM   24  C   UNL     1     -40.012 -49.351  14.761  1.00  0.00     0.025 A 
ENDBRANCH   1  18
TORSDOF 5
ENDMDL
MODEL 9
REMARK VINA RESULT:      -5.6      2.241      3.684
REMARK  5 active torsions:
REMARK  status: ('A' for Active; 'I' for Inactive)
REMARK       I    between atoms: C_2  and  N_4 
REMARK    1  A    between atoms: N_4  and  C_5 
REMARK    2  A    between atoms: C_5  and  C_6 
REMARK       I    between atoms: C_6  and  N_8 
REMARK    3  A    between atoms: N_8  and  C_9 
REMARK    4  A    between atoms: C_9  and  C_10 
REMARK    5  A    between atoms: C_10  and  C_16 
ROOT
HETATM    1  C   UNL     1     -42.134 -53.011  13.507  1.00  0.00     0.003 C 
HETATM    2  C   UNL     1     -41.663 -52.172  14.736  1.00  0.00     0.016 C 
HETATM    3  C   UNL     1     -40.150 -52.039  14.915  1.00  0.00     0.001 C 
HETATM    4  C   UNL     1     -39.428 -53.375  14.883  1.00  0.00     0.000 C 
HETATM    5  C   UNL     1     -39.818 -54.226  13.687  1.00  0.00     0.001 C 
HETATM    6  C   UNL     1     -41.331 -54.348  13.514  1.00  0.00     0.016 C 
ENDROOT
BRANCH   1   7
HETATM    7  C   UNL     1     -41.970 -52.228  12.157  1.00  0.00     0.137 C 
BRANCH   7   8
HETATM    8  N   UNL     1     -40.668 -51.651  11.895  1.00  0.00    -0.359 N 
HETATM    9  C   UNL     1     -40.480 -50.316  11.598  1.00  0.00     0.235 C 
HETATM   10  O   UNL     1     -41.394 -49.514  11.432  1.00  0.00    -0.272 OA
HETATM   11  H   UNL     1     -39.878 -52.272  11.718  1.00  0.00     0.162 HD
BRANCH   9  12
HETATM   12  C   UNL     1     -39.009 -49.914  11.490  1.00  0.00     0.225 C 
BRANCH  12  13
HETATM   13  N   UNL     1     -38.407 -49.749  12.796  1.00  0.00    -0.353 N 
HETATM   14  C   UNL     1     -37.429 -50.606  13.236  1.00  0.00     0.213 C 
HETATM   15  C   UNL     1     -36.918 -50.279  14.612  1.00  0.00     0.117 C 
HETATM   16  O   UNL     1     -37.001 -51.537  12.562  1.00  0.00    -0.274 OA
HETATM   17  H   UNL     1     -38.558 -48.873  13.282  1.00  0.00     0.162 HD
ENDBRANCH  12  13
ENDBRANCH   9  12
ENDBRANCH   7   8
ENDBRANCH   1   7
BRANCH   1  18
HETATM   18  C   UNL     1     -43.668 -53.297  13.598  1.00  0.00    -0.045 A 
HETATM   19  C   UNL     1     -44.169 -54.533  14.039  1.00  0.00     0.025 A 
HETATM   20  C   UNL     1     -45.537 -54.778  14.002  1.00  0.00     0.088 A 
HETATM   21  N   UNL     1     -46.448 -53.892  13.560  1.00  0.00    -0.375 N 
HETATM   22  C   UNL     1     -45.967 -52.707  13.138  1.00  0.00     0.088 A 
ATOM     23  HN  UNL     1     -47.445 -54.106  13.546  1.00  0.00     0.164 HD
HETATM   24  C   UNL     1     -44.618 -52.370  13.136  1.00  0.00     0.025 A 
ENDBRANCH   1  18
TORSDOF 5
ENDMDL
