MODEL 1
REMARK VINA RESULT:      -4.8      0.000      0.000
REMARK  1 active torsions:
REMARK  status: ('A' for Active; 'I' for Inactive)
REMARK    1  A    between atoms: C_3  and  C_6 
ROOT
HETATM    1  C   UNL     1     -43.533 -53.663  12.904  1.00  0.00     0.015 A 
HETATM    2  C   UNL     1     -42.697 -54.305  13.815  1.00  0.00     0.025 A 
HETATM    3  C   UNL     1     -41.336 -54.010  13.807  1.00  0.00     0.003 A 
HETATM    4  C   UNL     1     -40.844 -53.088  12.893  1.00  0.00     0.017 A 
HETATM    5  C   UNL     1     -41.736 -52.504  12.013  1.00  0.00     0.088 A 
HETATM    6  N   UNL     1     -43.060 -52.772  11.997  1.00  0.00    -0.369 N 
ATOM      7  HN  UNL     1     -43.682 -52.321  11.326  1.00  0.00     0.165 HD
ENDROOT
BRANCH   1   8
HETATM    8  C   UNL     1     -45.018 -53.931  12.917  1.00  0.00     0.065 C 
HETATM    9  C   UNL     1     -45.860 -52.744  13.402  1.00  0.00     0.042 C 
HETATM   10  C   UNL     1     -46.604 -53.268  14.621  1.00  0.00     0.270 C 
HETATM   11  N   UNL     1     -46.717 -54.707  14.371  1.00  0.00     0.084 N 
HETATM   12  C   UNL     1     -45.392 -55.077  13.860  1.00  0.00     0.280 C 
HETATM   13  H   UNL     1     -46.905 -55.200  15.244  1.00  0.00     0.315 HD
ENDBRANCH   1   8
TORSDOF 1
ENDMDL
MODEL 2
REMARK VINA RESULT:      -4.6      7.434      8.147
REMARK  1 active torsions:
REMARK  status: ('A' for Active; 'I' for Inactive)
REMARK    1  A    between atoms: C_3  and  C_6 
ROOT
HETATM    1  C   UNL     1     -43.055 -46.300   9.792  1.00  0.00     0.015 A 
HETATM    2  C   UNL     1     -42.177 -47.308  10.184  1.00  0.00     0.025 A 
HETATM    3  C   UNL     1     -41.322 -47.080  11.259  1.00  0.00     0.003 A 
HETATM    4  C   UNL     1     -41.362 -45.855  11.913  1.00  0.00     0.017 A 
HETATM    5  C   UNL     1     -42.253 -44.902  11.456  1.00  0.00     0.088 A 
HETATM    6  N   UNL     1     -43.092 -45.095  10.414  1.00  0.00    -0.369 N 
ATOM      7  HN  UNL     1     -43.729 -44.360  10.108  1.00  0.00     0.165 HD
ENDROOT
BRANCH   1   8
HETATM    8  C   UNL     1     -44.022 -46.533   8.657  1.00  0.00     0.065 C 
HETATM    9  C   UNL     1     -45.477 -46.716   9.106  1.00  0.00     0.042 C 
HETATM   10  C   UNL     1     -45.866 -48.100   8.611  1.00  0.00     0.270 C 
HETATM   11  N   UNL     1     -45.010 -48.307   7.440  1.00  0.00     0.084 N 
HETATM   12  C   UNL     1     -43.699 -47.808   7.874  1.00  0.00     0.280 C 
HETATM   13  H   UNL     1     -44.950 -49.301   7.222  1.00  0.00     0.315 HD
ENDBRANCH   1   8
TORSDOF 1
ENDMDL
MODEL 3
REMARK VINA RESULT:      -4.5      7.236      8.668
REMARK  1 active torsions:
REMARK  status: ('A' for Active; 'I' for Inactive)
REMARK    1  A    between atoms: C_3  and  C_6 
ROOT
HETATM    1  C   UNL     1     -41.829 -45.934  10.245  1.00  0.00     0.015 A 
HETATM    2  C   UNL     1     -42.410 -44.836  10.874  1.00  0.00     0.025 A 
HETATM    3  C   UNL     1     -41.590 -43.805  11.327  1.00  0.00     0.003 A 
HETATM    4  C   UNL     1     -40.217 -43.895  11.144  1.00  0.00     0.017 A 
HETATM    5  C   UNL     1     -39.717 -45.024  10.522  1.00  0.00     0.088 A 
HETATM    6  N   UNL     1     -40.487 -46.040  10.074  1.00  0.00    -0.369 N 
ATOM      7  HN  UNL     1     -40.074 -46.857   9.624  1.00  0.00     0.165 HD
ENDROOT
BRANCH   1   8
HETATM    8  C   UNL     1     -42.695 -47.047   9.706  1.00  0.00     0.065 C 
HETATM    9  C   UNL     1     -43.571 -46.634   8.517  1.00  0.00     0.042 C 
HETATM   10  C   UNL     1     -44.998 -46.882   8.981  1.00  0.00     0.270 C 
HETATM   11  N   UNL     1     -44.864 -47.957   9.967  1.00  0.00     0.084 N 
HETATM   12  C   UNL     1     -43.685 -47.567  10.750  1.00  0.00     0.280 C 
HETATM   13  H   UNL     1     -45.687 -47.986  10.567  1.00  0.00     0.315 HD
ENDBRANCH   1   8
TORSDOF 1
ENDMDL
MODEL 4
REMARK VINA RESULT:      -4.5      1.707      4.671
REMARK  1 active torsions:
REMARK  status: ('A' for Active; 'I' for Inactive)
REMARK    1  A    between atoms: C_3  and  C_6 
ROOT
HETATM    1  C   UNL     1     -42.305 -53.909  13.186  1.00  0.00     0.015 A 
HETATM    2  C   UNL     1     -42.336 -54.556  14.420  1.00  0.00     0.025 A 
HETATM    3  C   UNL     1     -43.550 -55.042  14.898  1.00  0.00     0.003 A 
HETATM    4  C   UNL     1     -44.700 -54.869  14.139  1.00  0.00     0.017 A 
HETATM    5  C   UNL     1     -44.588 -54.205  12.931  1.00  0.00     0.088 A 
HETATM    6  N   UNL     1     -43.424 -53.722  12.443  1.00  0.00    -0.369 N 
ATOM      7  HN  UNL     1     -43.390 -53.234  11.548  1.00  0.00     0.165 HD
ENDROOT
BRANCH   1   8
HETATM    8  C   UNL     1     -40.997 -53.410  12.622  1.00  0.00     0.065 C 
HETATM    9  C   UNL     1     -39.943 -53.085  13.688  1.00  0.00     0.042 C 
HETATM   10  C   UNL     1     -39.628 -51.611  13.487  1.00  0.00     0.270 C 
HETATM   11  N   UNL     1     -39.907 -51.384  12.066  1.00  0.00     0.084 N 
HETATM   12  C   UNL     1     -41.164 -52.106  11.838  1.00  0.00     0.280 C 
HETATM   13  H   UNL     1     -40.040 -50.389  11.891  1.00  0.00     0.315 HD
ENDBRANCH   1   8
TORSDOF 1
ENDMDL
MODEL 5
REMARK VINA RESULT:      -4.4      1.443      4.634
REMARK  1 active torsions:
REMARK  status: ('A' for Active; 'I' for Inactive)
REMARK    1  A    between atoms: C_3  and  C_6 
ROOT
HETATM    1  C   UNL     1     -45.333 -53.241  14.356  1.00  0.00     0.015 A 
HETATM    2  C   UNL     1     -45.937 -52.181  13.683  1.00  0.00     0.025 A 
HETATM    3  C   UNL     1     -46.823 -51.359  14.375  1.00  0.00     0.003 A 
HETATM    4  C   UNL     1     -47.087 -51.615  15.714  1.00  0.00     0.017 A 
HETATM    5  C   UNL     1     -46.457 -52.694  16.306  1.00  0.00     0.088 A 
HETATM    6  N   UNL     1     -45.594 -53.509  15.660  1.00  0.00    -0.369 N 
ATOM      7  HN  UNL     1     -45.156 -54.297  16.136  1.00  0.00     0.165 HD
ENDROOT
BRANCH   1   8
HETATM    8  C   UNL     1     -44.336 -54.123  13.644  1.00  0.00     0.065 C 
HETATM    9  C   UNL     1     -43.304 -54.772  14.574  1.00  0.00     0.042 C 
HETATM   10  C   UNL     1     -41.959 -54.274  14.070  1.00  0.00     0.270 C 
HETATM   11  N   UNL     1     -42.192 -54.013  12.647  1.00  0.00     0.084 N 
HETATM   12  C   UNL     1     -43.499 -53.345  12.625  1.00  0.00     0.280 C 
HETATM   13  H   UNL     1     -41.474 -53.387  12.284  1.00  0.00     0.315 HD
ENDBRANCH   1   8
TORSDOF 1
ENDMDL
MODEL 6
REMARK VINA RESULT:      -4.4      1.776      4.437
REMARK  1 active torsions:
REMARK  status: ('A' for Active; 'I' for Inactive)
REMARK    1  A    between atoms: C_3  and  C_6 
ROOT
HETATM    1  C   UNL     1     -44.352 -52.600  13.093  1.00  0.00     0.015 A 
HETATM    2  C   UNL     1     -44.430 -52.122  14.400  1.00  0.00     0.025 A 
HETATM    3  C   UNL     1     -45.608 -51.516  14.829  1.00  0.00     0.003 A 
HETATM    4  C   UNL     1     -46.675 -51.400  13.947  1.00  0.00     0.017 A 
HETATM    5  C   UNL     1     -46.514 -51.888  12.664  1.00  0.00     0.088 A 
HETATM    6  N   UNL     1     -45.383 -52.478  12.220  1.00  0.00    -0.369 N 
ATOM      7  HN  UNL     1     -45.307 -52.819  11.262  1.00  0.00     0.165 HD
ENDROOT
BRANCH   1   8
HETATM    8  C   UNL     1     -43.104 -53.299  12.613  1.00  0.00     0.065 C 
HETATM    9  C   UNL     1     -42.411 -54.145  13.689  1.00  0.00     0.042 C 
HETATM   10  C   UNL     1     -41.018 -53.548  13.814  1.00  0.00     0.270 C 
HETATM   11  N   UNL     1     -40.763 -52.970  12.492  1.00  0.00     0.084 N 
HETATM   12  C   UNL     1     -42.029 -52.312  12.149  1.00  0.00     0.280 C 
HETATM   13  H   UNL     1     -40.016 -52.279  12.550  1.00  0.00     0.315 HD
ENDBRANCH   1   8
TORSDOF 1
ENDMDL
MODEL 7
REMARK VINA RESULT:      -4.2      2.600      4.971
REMARK  1 active torsions:
REMARK  status: ('A' for Active; 'I' for Inactive)
REMARK    1  A    between atoms: C_3  and  C_6 
ROOT
HETATM    1  C   UNL     1     -45.655 -51.181  14.758  1.00  0.00     0.015 A 
HETATM    2  C   UNL     1     -46.980 -51.510  15.036  1.00  0.00     0.025 A 
HETATM    3  C   UNL     1     -47.477 -51.286  16.317  1.00  0.00     0.003 A 
HETATM    4  C   UNL     1     -46.644 -50.744  17.287  1.00  0.00     0.017 A 
HETATM    5  C   UNL     1     -45.338 -50.457  16.935  1.00  0.00     0.088 A 
HETATM    6  N   UNL     1     -44.828 -50.665  15.702  1.00  0.00    -0.369 N 
ATOM      7  HN  UNL     1     -43.856 -50.442  15.488  1.00  0.00     0.165 HD
ENDROOT
BRANCH   1   8
HETATM    8  C   UNL     1     -45.100 -51.373  13.368  1.00  0.00     0.065 C 
HETATM    9  C   UNL     1     -45.506 -52.698  12.712  1.00  0.00     0.042 C 
HETATM   10  C   UNL     1     -44.193 -53.410  12.427  1.00  0.00     0.270 C 
HETATM   11  N   UNL     1     -43.230 -52.318  12.266  1.00  0.00     0.084 N 
HETATM   12  C   UNL     1     -43.569 -51.391  13.353  1.00  0.00     0.280 C 
HETATM   13  H   UNL     1     -42.280 -52.668  12.390  1.00  0.00     0.315 HD
ENDBRANCH   1   8
TORSDOF 1
ENDMDL
MODEL 8
REMARK VINA RESULT:      -4.1      2.843      5.245
REMARK  1 active torsions:
REMARK  status: ('A' for Active; 'I' for Inactive)
REMARK    1  A    between atoms: C_3  and  C_6 
ROOT
HETATM    1  C   UNL     1     -44.184 -50.770  13.768  1.00  0.00     0.015 A 
HETATM    2  C   UNL     1     -44.630 -50.782  15.087  1.00  0.00     0.025 A 
HETATM    3  C   UNL     1     -45.930 -51.201  15.357  1.00  0.00     0.003 A 
HETATM    4  C   UNL     1     -46.751 -51.593  14.309  1.00  0.00     0.017 A 
HETATM    5  C   UNL     1     -46.238 -51.541  13.026  1.00  0.00     0.088 A 
HETATM    6  N   UNL     1     -44.982 -51.137  12.734  1.00  0.00    -0.369 N 
ATOM      7  HN  UNL     1     -44.647 -51.110  11.771  1.00  0.00     0.165 HD
ENDROOT
BRANCH   1   8
HETATM    8  C   UNL     1     -42.766 -50.362  13.448  1.00  0.00     0.065 C 
HETATM    9  C   UNL     1     -42.634 -48.929  12.918  1.00  0.00     0.042 C 
HETATM   10  C   UNL     1     -42.012 -49.080  11.539  1.00  0.00     0.270 C 
HETATM   11  N   UNL     1     -41.245 -50.325  11.635  1.00  0.00     0.084 N 
HETATM   12  C   UNL     1     -42.145 -51.235  12.354  1.00  0.00     0.280 C 
HETATM   13  H   UNL     1     -41.052 -50.690  10.703  1.00  0.00     0.315 HD
ENDBRANCH   1   8
TORSDOF 1
ENDMDL
MODEL 9
REMARK VINA RESULT:      -4.0      5.754      7.650
REMARK  1 active torsions:
REMARK  status: ('A' for Active; 'I' for Inactive)
REMARK    1  A    between atoms: C_3  and  C_6 
ROOT
HETATM    1  C   UNL     1     -41.283 -47.943  11.082  1.00  0.00     0.015 A 
HETATM    2  C   UNL     1     -41.026 -46.574  11.095  1.00  0.00     0.025 A 
HETATM    3  C   UNL     1     -41.800 -45.733  10.300  1.00  0.00     0.003 A 
HETATM    4  C   UNL     1     -42.807 -46.276   9.513  1.00  0.00     0.017 A 
HETATM    5  C   UNL     1     -42.991 -47.646   9.546  1.00  0.00     0.088 A 
HETATM    6  N   UNL     1     -42.254 -48.486  10.305  1.00  0.00    -0.369 N 
ATOM      7  HN  UNL     1     -42.422 -49.492  10.294  1.00  0.00     0.165 HD
ENDROOT
BRANCH   1   8
HETATM    8  C   UNL     1     -40.489 -48.875  11.965  1.00  0.00     0.065 C 
HETATM    9  C   UNL     1     -39.007 -48.500  12.093  1.00  0.00     0.042 C 
HETATM   10  C   UNL     1     -38.253 -49.710  11.566  1.00  0.00     0.270 C 
HETATM   11  N   UNL     1     -39.162 -50.830  11.825  1.00  0.00     0.084 N 
HETATM   12  C   UNL     1     -40.477 -50.309  11.432  1.00  0.00     0.280 C 
HETATM   13  H   UNL     1     -38.913 -51.626  11.239  1.00  0.00     0.315 HD
ENDBRANCH   1   8
TORSDOF 1
ENDMDL
