MODEL 1
REMARK VINA RESULT:      -7.3      0.000      0.000
REMARK  5 active torsions:
REMARK  status: ('A' for Active; 'I' for Inactive)
REMARK    1  A    between atoms: C_5  and  C_7 
REMARK    2  A    between atoms: N_12  and  C_13 
REMARK    3  A    between atoms: C_13  and  C_14 
REMARK    4  A    between atoms: C_14  and  O_15 
REMARK    5  A    between atoms: C_14  and  C_16 
ROOT
HETATM    1  C   UNL     1     -39.821 -48.910  11.707  1.00  0.00     0.065 C 
HETATM    2  C   UNL     1     -38.348 -48.963  11.543  1.00  0.00     0.038 C 
HETATM    3  C   UNL     1     -37.689 -49.979  12.102  1.00  0.00     0.078 C 
HETATM    4  C   UNL     1     -38.421 -51.035  12.826  1.00  0.00     0.262 C 
HETATM    5  O   UNL     1     -37.789 -51.941  13.362  1.00  0.00    -0.267 OA
HETATM    6  N   UNL     1     -39.804 -50.940  12.800  1.00  0.00    -0.254 N 
HETATM    7  N   UNL     1     -40.500 -49.859  12.287  1.00  0.00    -0.294 N 
ATOM      8  HN  UNL     1     -41.517 -49.807  12.362  1.00  0.00     0.187 HD
ENDROOT
BRANCH   6   9
HETATM    9  C   UNL     1     -40.603 -52.034  13.355  1.00  0.00     0.189 C 
BRANCH   9  10
HETATM   10  C   UNL     1     -41.495 -52.714  12.301  1.00  0.00     0.171 C 
BRANCH  10  11
HETATM   11  O   UNL     1     -40.706 -53.532  11.427  1.00  0.00    -0.389 OA
HETATM   12  H   UNL     1     -39.818 -53.125  11.400  1.00  0.00     0.210 HD
ENDBRANCH  10  11
BRANCH  10  13
HETATM   13  C   UNL     1     -42.524 -53.591  12.991  1.00  0.00    -0.025 A 
HETATM   14  C   UNL     1     -43.866 -53.587  12.572  1.00  0.00     0.010 A 
HETATM   15  C   UNL     1     -44.833 -54.327  13.264  1.00  0.00     0.004 A 
HETATM   16  C   UNL     1     -44.471 -55.077  14.381  1.00  0.00     0.042 A 
HETATM   17  C   UNL     1     -43.145 -55.091  14.794  1.00  0.00     0.117 A 
HETATM   18  F   UNL     1     -42.795 -55.805  15.872  1.00  0.00    -0.206 F 
HETATM   19  C   UNL     1     -42.177 -54.360  14.114  1.00  0.00     0.052 A 
ENDBRANCH  10  13
ENDBRANCH   9  10
ENDBRANCH   6   9
BRANCH   1  20
HETATM   20  C   UNL     1     -40.551 -47.764  11.176  1.00  0.00     0.033 A 
HETATM   21  C   UNL     1     -40.153 -46.439  11.150  1.00  0.00     0.022 A 
HETATM   22  C   UNL     1     -41.126 -45.582  10.554  1.00  0.00     0.015 A 
HETATM   23  C   UNL     1     -42.232 -46.277  10.116  1.00  0.00    -0.021 A 
HETATM   24  C   UNL     1     -43.459 -45.760   9.446  1.00  0.00     0.056 C 
HETATM   25  S   UNL     1     -42.082 -47.949  10.423  1.00  0.00    -0.093 SA
ENDBRANCH   1  20
TORSDOF 5
ENDMDL
MODEL 2
REMARK VINA RESULT:      -6.9      3.783      5.788
REMARK  5 active torsions:
REMARK  status: ('A' for Active; 'I' for Inactive)
REMARK    1  A    between atoms: C_5  and  C_7 
REMARK    2  A    between atoms: N_12  and  C_13 
REMARK    3  A    between atoms: C_13  and  C_14 
REMARK    4  A    between atoms: C_14  and  O_15 
REMARK    5  A    between atoms: C_14  and  C_16 
ROOT
HETATM    1  C   UNL     1     -41.442 -53.090  13.814  1.00  0.00     0.065 C 
HETATM    2  C   UNL     1     -41.286 -54.270  14.698  1.00  0.00     0.038 C 
HETATM    3  C   UNL     1     -42.382 -54.943  15.049  1.00  0.00     0.078 C 
HETATM    4  C   UNL     1     -43.703 -54.539  14.533  1.00  0.00     0.262 C 
HETATM    5  O   UNL     1     -44.702 -55.152  14.898  1.00  0.00    -0.267 OA
HETATM    6  N   UNL     1     -43.702 -53.500  13.614  1.00  0.00    -0.254 N 
HETATM    7  N   UNL     1     -42.586 -52.746  13.293  1.00  0.00    -0.294 N 
ATOM      8  HN  UNL     1     -42.658 -51.944  12.666  1.00  0.00     0.187 HD
ENDROOT
BRANCH   6   9
HETATM    9  C   UNL     1     -44.951 -53.148  12.936  1.00  0.00     0.189 C 
BRANCH   9  10
HETATM   10  C   UNL     1     -45.257 -51.641  12.997  1.00  0.00     0.171 C 
BRANCH  10  11
HETATM   11  O   UNL     1     -46.351 -51.315  12.129  1.00  0.00    -0.389 OA
HETATM   12  H   UNL     1     -46.368 -52.007  11.439  1.00  0.00     0.210 HD
ENDBRANCH  10  11
BRANCH  10  13
HETATM   13  C   UNL     1     -45.629 -51.251  14.416  1.00  0.00    -0.025 A 
HETATM   14  C   UNL     1     -44.669 -50.694  15.280  1.00  0.00     0.010 A 
HETATM   15  C   UNL     1     -44.986 -50.417  16.616  1.00  0.00     0.004 A 
HETATM   16  C   UNL     1     -46.262 -50.693  17.103  1.00  0.00     0.042 A 
HETATM   17  C   UNL     1     -47.215 -51.235  16.250  1.00  0.00     0.117 A 
HETATM   18  F   UNL     1     -48.441 -51.509  16.717  1.00  0.00    -0.206 F 
HETATM   19  C   UNL     1     -46.911 -51.514  14.922  1.00  0.00     0.052 A 
ENDBRANCH  10  13
ENDBRANCH   9  10
ENDBRANCH   6   9
BRANCH   1  20
HETATM   20  C   UNL     1     -40.266 -52.291  13.487  1.00  0.00     0.033 A 
HETATM   21  C   UNL     1     -39.006 -52.359  14.053  1.00  0.00     0.022 A 
HETATM   22  C   UNL     1     -38.094 -51.420  13.486  1.00  0.00     0.015 A 
HETATM   23  C   UNL     1     -38.673 -50.674  12.482  1.00  0.00    -0.021 A 
HETATM   24  C   UNL     1     -38.070 -49.598  11.647  1.00  0.00     0.056 C 
HETATM   25  S   UNL     1     -40.302 -51.119  12.234  1.00  0.00    -0.093 SA
ENDBRANCH   1  20
TORSDOF 5
ENDMDL
MODEL 3
REMARK VINA RESULT:      -6.9      2.967      3.884
REMARK  5 active torsions:
REMARK  status: ('A' for Active; 'I' for Inactive)
REMARK    1  A    between atoms: C_5  and  C_7 
REMARK    2  A    between atoms: N_12  and  C_13 
REMARK    3  A    between atoms: C_13  and  C_14 
REMARK    4  A    between atoms: C_14  and  O_15 
REMARK    5  A    between atoms: C_14  and  C_16 
ROOT
HETATM    1  C   UNL     1     -41.544 -50.660  12.112  1.00  0.00     0.065 C 
HETATM    2  C   UNL     1     -40.293 -51.335  12.536  1.00  0.00     0.038 C 
HETATM    3  C   UNL     1     -40.380 -52.576  13.017  1.00  0.00     0.078 C 
HETATM    4  C   UNL     1     -41.684 -53.262  13.084  1.00  0.00     0.262 C 
HETATM    5  O   UNL     1     -41.743 -54.390  13.563  1.00  0.00    -0.267 OA
HETATM    6  N   UNL     1     -42.758 -52.573  12.539  1.00  0.00    -0.254 N 
HETATM    7  N   UNL     1     -42.701 -51.262  12.102  1.00  0.00    -0.294 N 
ATOM      8  HN  UNL     1     -43.540 -50.780  11.779  1.00  0.00     0.187 HD
ENDROOT
BRANCH   6   9
HETATM    9  C   UNL     1     -44.050 -53.251  12.421  1.00  0.00     0.189 C 
BRANCH   9  10
HETATM   10  C   UNL     1     -45.243 -52.302  12.647  1.00  0.00     0.171 C 
BRANCH  10  11
HETATM   11  O   UNL     1     -46.347 -52.677  11.813  1.00  0.00    -0.389 OA
HETATM   12  H   UNL     1     -46.478 -53.637  11.947  1.00  0.00     0.210 HD
ENDBRANCH  10  11
BRANCH  10  13
HETATM   13  C   UNL     1     -45.682 -52.369  14.097  1.00  0.00    -0.025 A 
HETATM   14  C   UNL     1     -45.165 -53.354  14.958  1.00  0.00     0.010 A 
HETATM   15  C   UNL     1     -45.636 -53.473  16.272  1.00  0.00     0.004 A 
HETATM   16  C   UNL     1     -46.627 -52.613  16.739  1.00  0.00     0.042 A 
HETATM   17  C   UNL     1     -47.134 -51.633  15.895  1.00  0.00     0.117 A 
HETATM   18  F   UNL     1     -48.092 -50.809  16.340  1.00  0.00    -0.206 F 
HETATM   19  C   UNL     1     -46.674 -51.506  14.589  1.00  0.00     0.052 A 
ENDBRANCH  10  13
ENDBRANCH   9  10
ENDBRANCH   6   9
BRANCH   1  20
HETATM   20  C   UNL     1     -41.482 -49.274  11.663  1.00  0.00     0.033 A 
HETATM   21  C   UNL     1     -42.520 -48.478  11.211  1.00  0.00     0.022 A 
HETATM   22  C   UNL     1     -42.092 -47.166  10.849  1.00  0.00     0.015 A 
HETATM   23  C   UNL     1     -40.743 -46.984  11.057  1.00  0.00    -0.021 A 
HETATM   24  C   UNL     1     -39.911 -45.772  10.809  1.00  0.00     0.056 C 
HETATM   25  S   UNL     1     -40.012 -48.390  11.689  1.00  0.00    -0.093 SA
ENDBRANCH   1  20
TORSDOF 5
ENDMDL
MODEL 4
REMARK VINA RESULT:      -6.7      2.253      2.518
REMARK  5 active torsions:
REMARK  status: ('A' for Active; 'I' for Inactive)
REMARK    1  A    between atoms: C_5  and  C_7 
REMARK    2  A    between atoms: N_12  and  C_13 
REMARK    3  A    between atoms: C_13  and  C_14 
REMARK    4  A    between atoms: C_14  and  O_15 
REMARK    5  A    between atoms: C_14  and  C_16 
ROOT
HETATM    1  C   UNL     1     -40.800 -49.096  11.374  1.00  0.00     0.065 C 
HETATM    2  C   UNL     1     -39.334 -49.203  11.576  1.00  0.00     0.038 C 
HETATM    3  C   UNL     1     -38.853 -50.325  12.112  1.00  0.00     0.078 C 
HETATM    4  C   UNL     1     -39.760 -51.437  12.455  1.00  0.00     0.262 C 
HETATM    5  O   UNL     1     -39.298 -52.446  12.980  1.00  0.00    -0.267 OA
HETATM    6  N   UNL     1     -41.089 -51.265  12.100  1.00  0.00    -0.254 N 
HETATM    7  N   UNL     1     -41.617 -50.084  11.608  1.00  0.00    -0.294 N 
ATOM      8  HN  UNL     1     -42.618 -49.990  11.434  1.00  0.00     0.187 HD
ENDROOT
BRANCH   6   9
HETATM    9  C   UNL     1     -42.018 -52.386  12.259  1.00  0.00     0.189 C 
BRANCH   9  10
HETATM   10  C   UNL     1     -42.578 -52.497  13.689  1.00  0.00     0.171 C 
BRANCH  10  11
HETATM   11  O   UNL     1     -41.972 -51.517  14.543  1.00  0.00    -0.389 OA
HETATM   12  H   UNL     1     -41.183 -51.944  14.931  1.00  0.00     0.210 HD
ENDBRANCH  10  11
BRANCH  10  13
HETATM   13  C   UNL     1     -44.077 -52.267  13.670  1.00  0.00    -0.025 A 
HETATM   14  C   UNL     1     -44.839 -52.597  12.535  1.00  0.00     0.010 A 
HETATM   15  C   UNL     1     -46.207 -52.302  12.482  1.00  0.00     0.004 A 
HETATM   16  C   UNL     1     -46.829 -51.677  13.560  1.00  0.00     0.042 A 
HETATM   17  C   UNL     1     -46.083 -51.358  14.688  1.00  0.00     0.117 A 
HETATM   18  F   UNL     1     -46.676 -50.750  15.723  1.00  0.00    -0.206 F 
HETATM   19  C   UNL     1     -44.724 -51.645  14.751  1.00  0.00     0.052 A 
ENDBRANCH  10  13
ENDBRANCH   9  10
ENDBRANCH   6   9
BRANCH   1  20
HETATM   20  C   UNL     1     -41.354 -47.846  10.866  1.00  0.00     0.033 A 
HETATM   21  C   UNL     1     -40.811 -46.577  10.952  1.00  0.00     0.022 A 
HETATM   22  C   UNL     1     -41.633 -45.582  10.344  1.00  0.00     0.015 A 
HETATM   23  C   UNL     1     -42.773 -46.119   9.787  1.00  0.00    -0.021 A 
HETATM   24  C   UNL     1     -43.880 -45.429   9.067  1.00  0.00     0.056 C 
HETATM   25  S   UNL     1     -42.834 -47.812   9.998  1.00  0.00    -0.093 SA
ENDBRANCH   1  20
TORSDOF 5
ENDMDL
MODEL 5
REMARK VINA RESULT:      -6.6      3.546      6.811
REMARK  5 active torsions:
REMARK  status: ('A' for Active; 'I' for Inactive)
REMARK    1  A    between atoms: C_5  and  C_7 
REMARK    2  A    between atoms: N_12  and  C_13 
REMARK    3  A    between atoms: C_13  and  C_14 
REMARK    4  A    between atoms: C_14  and  O_15 
REMARK    5  A    between atoms: C_14  and  C_16 
ROOT
HETATM    1  C   UNL     1     -42.843 -52.251  14.220  1.00  0.00     0.065 C 
HETATM    2  C   UNL     1     -42.342 -53.606  14.558  1.00  0.00     0.038 C 
HETATM    3  C   UNL     1     -41.067 -53.891  14.289  1.00  0.00     0.078 C 
HETATM    4  C   UNL     1     -40.180 -52.866  13.707  1.00  0.00     0.262 C 
HETATM    5  O   UNL     1     -39.020 -53.162  13.436  1.00  0.00    -0.267 OA
HETATM    6  N   UNL     1     -40.732 -51.602  13.556  1.00  0.00    -0.254 N 
HETATM    7  N   UNL     1     -42.068 -51.307  13.763  1.00  0.00    -0.294 N 
ATOM      8  HN  UNL     1     -42.436 -50.376  13.565  1.00  0.00     0.187 HD
ENDROOT
BRANCH   6   9
HETATM    9  C   UNL     1     -39.870 -50.495  13.139  1.00  0.00     0.189 C 
BRANCH   9  10
HETATM   10  C   UNL     1     -39.990 -50.181  11.636  1.00  0.00     0.171 C 
BRANCH  10  11
HETATM   11  O   UNL     1     -40.959 -51.039  11.019  1.00  0.00    -0.389 OA
HETATM   12  H   UNL     1     -40.562 -51.340  10.179  1.00  0.00     0.210 HD
ENDBRANCH  10  11
BRANCH  10  13
HETATM   13  C   UNL     1     -40.426 -48.740  11.448  1.00  0.00    -0.025 A 
HETATM   14  C   UNL     1     -41.544 -48.427  10.655  1.00  0.00     0.010 A 
HETATM   15  C   UNL     1     -41.894 -47.094  10.408  1.00  0.00     0.004 A 
HETATM   16  C   UNL     1     -41.133 -46.060  10.948  1.00  0.00     0.042 A 
HETATM   17  C   UNL     1     -40.033 -46.365  11.740  1.00  0.00     0.117 A 
HETATM   18  F   UNL     1     -39.295 -45.373  12.255  1.00  0.00    -0.206 F 
HETATM   19  C   UNL     1     -39.676 -47.685  11.991  1.00  0.00     0.052 A 
ENDBRANCH  10  13
ENDBRANCH   9  10
ENDBRANCH   6   9
BRANCH   1  20
HETATM   20  C   UNL     1     -44.254 -51.947  14.428  1.00  0.00     0.033 A 
HETATM   21  C   UNL     1     -45.209 -51.643  13.475  1.00  0.00     0.022 A 
HETATM   22  C   UNL     1     -46.496 -51.397  14.041  1.00  0.00     0.015 A 
HETATM   23  C   UNL     1     -46.497 -51.543  15.411  1.00  0.00    -0.021 A 
HETATM   24  C   UNL     1     -47.624 -51.375  16.371  1.00  0.00     0.056 C 
HETATM   25  S   UNL     1     -44.954 -51.979  15.995  1.00  0.00    -0.093 SA
ENDBRANCH   1  20
TORSDOF 5
ENDMDL
MODEL 6
REMARK VINA RESULT:      -6.5      1.954      2.386
REMARK  5 active torsions:
REMARK  status: ('A' for Active; 'I' for Inactive)
REMARK    1  A    between atoms: C_5  and  C_7 
REMARK    2  A    between atoms: N_12  and  C_13 
REMARK    3  A    between atoms: C_13  and  C_14 
REMARK    4  A    between atoms: C_14  and  O_15 
REMARK    5  A    between atoms: C_14  and  C_16 
ROOT
HETATM    1  C   UNL     1     -39.982 -49.068  12.680  1.00  0.00     0.065 C 
HETATM    2  C   UNL     1     -38.847 -48.865  11.747  1.00  0.00     0.038 C 
HETATM    3  C   UNL     1     -37.855 -49.756  11.760  1.00  0.00     0.078 C 
HETATM    4  C   UNL     1     -37.915 -50.927  12.655  1.00  0.00     0.262 C 
HETATM    5  O   UNL     1     -36.973 -51.715  12.675  1.00  0.00    -0.267 OA
HETATM    6  N   UNL     1     -39.086 -51.072  13.384  1.00  0.00    -0.254 N 
HETATM    7  N   UNL     1     -40.092 -50.124  13.436  1.00  0.00    -0.294 N 
ATOM      8  HN  UNL     1     -40.899 -50.248  14.049  1.00  0.00     0.187 HD
ENDROOT
BRANCH   6   9
HETATM    9  C   UNL     1     -39.288 -52.290  14.170  1.00  0.00     0.189 C 
BRANCH   9  10
HETATM   10  C   UNL     1     -39.809 -53.465  13.322  1.00  0.00     0.171 C 
BRANCH  10  11
HETATM   11  O   UNL     1     -38.885 -54.561  13.360  1.00  0.00    -0.389 OA
HETATM   12  H   UNL     1     -38.382 -54.465  14.192  1.00  0.00     0.210 HD
ENDBRANCH  10  11
BRANCH  10  13
HETATM   13  C   UNL     1     -41.145 -53.936  13.867  1.00  0.00    -0.025 A 
HETATM   14  C   UNL     1     -41.223 -54.580  15.114  1.00  0.00     0.010 A 
HETATM   15  C   UNL     1     -42.441 -55.095  15.578  1.00  0.00     0.004 A 
HETATM   16  C   UNL     1     -43.592 -54.972  14.802  1.00  0.00     0.042 A 
HETATM   17  C   UNL     1     -43.521 -54.328  13.574  1.00  0.00     0.117 A 
HETATM   18  F   UNL     1     -44.624 -54.214  12.822  1.00  0.00    -0.206 F 
HETATM   19  C   UNL     1     -42.317 -53.814  13.103  1.00  0.00     0.052 A 
ENDBRANCH  10  13
ENDBRANCH   9  10
ENDBRANCH   6   9
BRANCH   1  20
HETATM   20  C   UNL     1     -41.035 -48.061  12.740  1.00  0.00     0.033 A 
HETATM   21  C   UNL     1     -42.356 -48.186  12.347  1.00  0.00     0.022 A 
HETATM   22  C   UNL     1     -43.108 -46.990  12.550  1.00  0.00     0.015 A 
HETATM   23  C   UNL     1     -42.349 -45.989  13.116  1.00  0.00    -0.021 A 
HETATM   24  C   UNL     1     -42.751 -44.602  13.483  1.00  0.00     0.056 C 
HETATM   25  S   UNL     1     -40.747 -46.503  13.400  1.00  0.00    -0.093 SA
ENDBRANCH   1  20
TORSDOF 5
ENDMDL
MODEL 7
REMARK VINA RESULT:      -6.4      5.275      7.808
REMARK  5 active torsions:
REMARK  status: ('A' for Active; 'I' for Inactive)
REMARK    1  A    between atoms: C_5  and  C_7 
REMARK    2  A    between atoms: N_12  and  C_13 
REMARK    3  A    between atoms: C_13  and  C_14 
REMARK    4  A    between atoms: C_14  and  O_15 
REMARK    5  A    between atoms: C_14  and  C_16 
ROOT
HETATM    1  C   UNL     1     -46.424 -52.281  15.592  1.00  0.00     0.065 C 
HETATM    2  C   UNL     1     -46.863 -51.577  14.363  1.00  0.00     0.038 C 
HETATM    3  C   UNL     1     -46.297 -51.919  13.205  1.00  0.00     0.078 C 
HETATM    4  C   UNL     1     -45.292 -52.998  13.156  1.00  0.00     0.262 C 
HETATM    5  O   UNL     1     -44.759 -53.272  12.084  1.00  0.00    -0.267 OA
HETATM    6  N   UNL     1     -45.061 -53.665  14.350  1.00  0.00    -0.254 N 
HETATM    7  N   UNL     1     -45.585 -53.279  15.571  1.00  0.00    -0.294 N 
ATOM      8  HN  UNL     1     -45.322 -53.762  16.431  1.00  0.00     0.187 HD
ENDROOT
BRANCH   6   9
HETATM    9  C   UNL     1     -44.201 -54.850  14.348  1.00  0.00     0.189 C 
BRANCH   9  10
HETATM   10  C   UNL     1     -43.155 -54.828  15.478  1.00  0.00     0.171 C 
BRANCH  10  11
HETATM   11  O   UNL     1     -43.075 -56.111  16.113  1.00  0.00    -0.389 OA
HETATM   12  H   UNL     1     -43.066 -55.940  17.075  1.00  0.00     0.210 HD
ENDBRANCH  10  11
BRANCH  10  13
HETATM   13  C   UNL     1     -41.793 -54.481  14.907  1.00  0.00    -0.025 A 
HETATM   14  C   UNL     1     -40.617 -54.849  15.585  1.00  0.00     0.010 A 
HETATM   15  C   UNL     1     -39.362 -54.452  15.107  1.00  0.00     0.004 A 
HETATM   16  C   UNL     1     -39.268 -53.684  13.948  1.00  0.00     0.042 A 
HETATM   17  C   UNL     1     -40.426 -53.326  13.270  1.00  0.00     0.117 A 
HETATM   18  F   UNL     1     -40.339 -52.581  12.160  1.00  0.00    -0.206 F 
HETATM   19  C   UNL     1     -41.677 -53.714  13.737  1.00  0.00     0.052 A 
ENDBRANCH  10  13
ENDBRANCH   9  10
ENDBRANCH   6   9
BRANCH   1  20
HETATM   20  C   UNL     1     -46.969 -51.864  16.879  1.00  0.00     0.033 A 
HETATM   21  C   UNL     1     -48.011 -50.986  17.118  1.00  0.00     0.022 A 
HETATM   22  C   UNL     1     -48.275 -50.808  18.509  1.00  0.00     0.015 A 
HETATM   23  C   UNL     1     -47.444 -51.574  19.298  1.00  0.00    -0.021 A 
HETATM   24  C   UNL     1     -47.395 -51.676  20.784  1.00  0.00     0.056 C 
HETATM   25  S   UNL     1     -46.364 -52.498  18.355  1.00  0.00    -0.093 SA
ENDBRANCH   1  20
TORSDOF 5
ENDMDL
MODEL 8
REMARK VINA RESULT:      -6.2      2.888      3.994
REMARK  5 active torsions:
REMARK  status: ('A' for Active; 'I' for Inactive)
REMARK    1  A    between atoms: C_5  and  C_7 
REMARK    2  A    between atoms: N_12  and  C_13 
REMARK    3  A    between atoms: C_13  and  C_14 
REMARK    4  A    between atoms: C_14  and  O_15 
REMARK    5  A    between atoms: C_14  and  C_16 
ROOT
HETATM    1  C   UNL     1     -43.306 -49.621  13.399  1.00  0.00     0.065 C 
HETATM    2  C   UNL     1     -43.205 -49.365  14.856  1.00  0.00     0.038 C 
HETATM    3  C   UNL     1     -43.859 -50.180  15.685  1.00  0.00     0.078 C 
HETATM    4  C   UNL     1     -44.625 -51.324  15.156  1.00  0.00     0.262 C 
HETATM    5  O   UNL     1     -45.247 -52.039  15.936  1.00  0.00    -0.267 OA
HETATM    6  N   UNL     1     -44.537 -51.531  13.788  1.00  0.00    -0.254 N 
HETATM    7  N   UNL     1     -43.924 -50.658  12.907  1.00  0.00    -0.294 N 
ATOM      8  HN  UNL     1     -43.954 -50.822  11.900  1.00  0.00     0.187 HD
ENDROOT
BRANCH   6   9
HETATM    9  C   UNL     1     -45.136 -52.736  13.211  1.00  0.00     0.189 C 
BRANCH   9  10
HETATM   10  C   UNL     1     -44.090 -53.682  12.593  1.00  0.00     0.171 C 
BRANCH  10  11
HETATM   11  O   UNL     1     -43.330 -53.002  11.585  1.00  0.00    -0.389 OA
HETATM   12  H   UNL     1     -42.926 -52.228  12.024  1.00  0.00     0.210 HD
ENDBRANCH  10  11
BRANCH  10  13
HETATM   13  C   UNL     1     -43.142 -54.171  13.671  1.00  0.00    -0.025 A 
HETATM   14  C   UNL     1     -43.615 -54.948  14.744  1.00  0.00     0.010 A 
HETATM   15  C   UNL     1     -42.759 -55.324  15.786  1.00  0.00     0.004 A 
HETATM   16  C   UNL     1     -41.423 -54.929  15.770  1.00  0.00     0.042 A 
HETATM   17  C   UNL     1     -40.949 -54.170  14.708  1.00  0.00     0.117 A 
HETATM   18  F   UNL     1     -39.666 -53.782  14.692  1.00  0.00    -0.206 F 
HETATM   19  C   UNL     1     -41.790 -53.790  13.668  1.00  0.00     0.052 A 
ENDBRANCH  10  13
ENDBRANCH   9  10
ENDBRANCH   6   9
BRANCH   1  20
HETATM   20  C   UNL     1     -42.668 -48.693  12.472  1.00  0.00     0.033 A 
HETATM   21  C   UNL     1     -41.838 -48.990  11.405  1.00  0.00     0.022 A 
HETATM   22  C   UNL     1     -41.391 -47.825  10.712  1.00  0.00     0.015 A 
HETATM   23  C   UNL     1     -41.911 -46.668  11.251  1.00  0.00    -0.021 A 
HETATM   24  C   UNL     1     -41.694 -45.256  10.826  1.00  0.00     0.056 C 
HETATM   25  S   UNL     1     -42.932 -47.000  12.577  1.00  0.00    -0.093 SA
ENDBRANCH   1  20
TORSDOF 5
ENDMDL
MODEL 9
REMARK VINA RESULT:      -6.2      2.639      3.004
REMARK  5 active torsions:
REMARK  status: ('A' for Active; 'I' for Inactive)
REMARK    1  A    between atoms: C_5  and  C_7 
REMARK    2  A    between atoms: N_12  and  C_13 
REMARK    3  A    between atoms: C_13  and  C_14 
REMARK    4  A    between atoms: C_14  and  O_15 
REMARK    5  A    between atoms: C_14  and  C_16 
ROOT
HETATM    1  C   UNL     1     -39.713 -48.423  12.284  1.00  0.00     0.065 C 
HETATM    2  C   UNL     1     -38.576 -49.190  11.719  1.00  0.00     0.038 C 
HETATM    3  C   UNL     1     -38.504 -50.495  11.985  1.00  0.00     0.078 C 
HETATM    4  C   UNL     1     -39.554 -51.153  12.785  1.00  0.00     0.262 C 
HETATM    5  O   UNL     1     -39.447 -52.348  13.046  1.00  0.00    -0.267 OA
HETATM    6  N   UNL     1     -40.629 -50.355  13.147  1.00  0.00    -0.254 N 
HETATM    7  N   UNL     1     -40.687 -48.988  12.942  1.00  0.00    -0.294 N 
ATOM      8  HN  UNL     1     -41.470 -48.438  13.295  1.00  0.00     0.187 HD
ENDROOT
BRANCH   6   9
HETATM    9  C   UNL     1     -41.784 -50.972  13.801  1.00  0.00     0.189 C 
BRANCH   9  10
HETATM   10  C   UNL     1     -42.867 -51.416  12.801  1.00  0.00     0.171 C 
BRANCH  10  11
HETATM   11  O   UNL     1     -42.569 -52.719  12.283  1.00  0.00    -0.389 OA
HETATM   12  H   UNL     1     -42.533 -52.625  11.311  1.00  0.00     0.210 HD
ENDBRANCH  10  11
BRANCH  10  13
HETATM   13  C   UNL     1     -44.215 -51.466  13.497  1.00  0.00    -0.025 A 
HETATM   14  C   UNL     1     -45.376 -51.819  12.786  1.00  0.00     0.010 A 
HETATM   15  C   UNL     1     -46.632 -51.778  13.404  1.00  0.00     0.004 A 
HETATM   16  C   UNL     1     -46.743 -51.385  14.736  1.00  0.00     0.042 A 
HETATM   17  C   UNL     1     -45.598 -51.045  15.445  1.00  0.00     0.117 A 
HETATM   18  F   UNL     1     -45.702 -50.660  16.724  1.00  0.00    -0.206 F 
HETATM   19  C   UNL     1     -44.346 -51.081  14.841  1.00  0.00     0.052 A 
ENDBRANCH  10  13
ENDBRANCH   9  10
ENDBRANCH   6   9
BRANCH   1  20
HETATM   20  C   UNL     1     -39.766 -46.981  12.076  1.00  0.00     0.033 A 
HETATM   21  C   UNL     1     -40.005 -46.298  10.896  1.00  0.00     0.022 A 
HETATM   22  C   UNL     1     -39.980 -44.881  11.062  1.00  0.00     0.015 A 
HETATM   23  C   UNL     1     -39.748 -44.516  12.371  1.00  0.00    -0.021 A 
HETATM   24  C   UNL     1     -39.647 -43.151  12.959  1.00  0.00     0.056 C 
HETATM   25  S   UNL     1     -39.569 -45.881  13.379  1.00  0.00    -0.093 SA
ENDBRANCH   1  20
TORSDOF 5
ENDMDL
