MODEL 1
REMARK VINA RESULT:      -6.0      0.000      0.000
REMARK  6 active torsions:
REMARK  status: ('A' for Active; 'I' for Inactive)
REMARK    1  A    between atoms: C_2  and  C_4 
REMARK    2  A    between atoms: C_4  and  C_5 
REMARK    3  A    between atoms: C_4  and  N_19 
REMARK    4  A    between atoms: C_5  and  N_6 
REMARK       I    between atoms: N_6  and  C_7 
REMARK    5  A    between atoms: C_7  and  C_9 
REMARK    6  A    between atoms: C_9  and  N_10 
ROOT
HETATM    1  N   UNL     1     -42.147 -50.943  13.679  1.00  0.00    -0.358 N 
HETATM    2  C   UNL     1     -41.679 -49.727  13.267  1.00  0.00     0.236 C 
HETATM    3  O   UNL     1     -41.602 -48.816  14.093  1.00  0.00    -0.272 OA
HETATM    4  H   UNL     1     -42.453 -50.857  14.632  1.00  0.00     0.162 HD
ENDROOT
BRANCH   1   5
HETATM    5  C   UNL     1     -42.741 -51.972  12.832  1.00  0.00     0.159 C 
BRANCH   5   6
HETATM    6  C   UNL     1     -43.425 -53.177  13.574  1.00  0.00     0.244 C 
BRANCH   6   7
HETATM    7  C   UNL     1     -42.334 -54.307  13.814  1.00  0.00     0.012 C 
HETATM    8  C   UNL     1     -41.082 -54.162  12.937  1.00  0.00     0.012 C 
HETATM    9  C   UNL     1     -41.885 -54.444  15.280  1.00  0.00     0.012 C 
ENDBRANCH   6   7
BRANCH   6  10
HETATM   10  N   UNL     1     -44.648 -53.720  12.879  1.00  0.00     0.099 N 
HETATM   11  C   UNL     1     -45.729 -52.742  12.584  1.00  0.00     0.299 C 
HETATM   12  C   UNL     1     -46.402 -52.183  13.851  1.00  0.00     0.198 C 
HETATM   13  O   UNL     1     -47.032 -53.243  14.582  1.00  0.00    -0.388 OA
HETATM   14  C   UNL     1     -46.099 -54.288  14.893  1.00  0.00     0.198 C 
HETATM   15  C   UNL     1     -45.347 -54.792  13.643  1.00  0.00     0.299 C 
ENDBRANCH   6  10
ENDBRANCH   5   6
ENDBRANCH   1   5
BRANCH   2  16
HETATM   16  C   UNL     1     -41.157 -49.575  11.847  1.00  0.00     0.235 C 
BRANCH  16  17
HETATM   17  N   UNL     1     -41.604 -48.304  11.260  1.00  0.00    -0.301 N 
HETATM   18  C   UNL     1     -42.923 -48.149  10.885  1.00  0.00     0.102 A 
HETATM   19  C   UNL     1     -43.397 -46.989  10.445  1.00  0.00     0.092 A 
HETATM   20  C   UNL     1     -42.488 -45.841  10.307  1.00  0.00     0.252 A 
HETATM   21  O   UNL     1     -42.950 -44.761   9.952  1.00  0.00    -0.268 OA
HETATM   22  N   UNL     1     -41.159 -46.082  10.607  1.00  0.00    -0.271 N 
HETATM   23  C   UNL     1     -40.204 -45.004  10.453  1.00  0.00     0.164 C 
HETATM   24  C   UNL     1     -40.672 -47.279  11.126  1.00  0.00     0.331 A 
HETATM   25  O   UNL     1     -39.496 -47.419  11.466  1.00  0.00    -0.246 OA
ENDBRANCH  16  17
ENDBRANCH   2  16
TORSDOF 6
ENDMDL
MODEL 2
REMARK VINA RESULT:      -5.9      1.793      3.011
REMARK  6 active torsions:
REMARK  status: ('A' for Active; 'I' for Inactive)
REMARK    1  A    between atoms: C_2  and  C_4 
REMARK    2  A    between atoms: C_4  and  C_5 
REMARK    3  A    between atoms: C_4  and  N_19 
REMARK    4  A    between atoms: C_5  and  N_6 
REMARK       I    between atoms: N_6  and  C_7 
REMARK    5  A    between atoms: C_7  and  C_9 
REMARK    6  A    between atoms: C_9  and  N_10 
ROOT
HETATM    1  N   UNL     1     -42.882 -51.210  12.407  1.00  0.00    -0.358 N 
HETATM    2  C   UNL     1     -41.687 -50.551  12.335  1.00  0.00     0.236 C 
HETATM    3  O   UNL     1     -40.773 -51.060  11.685  1.00  0.00    -0.272 OA
HETATM    4  H   UNL     1     -42.778 -52.103  11.958  1.00  0.00     0.162 HD
ENDROOT
BRANCH   1   5
HETATM    5  C   UNL     1     -43.896 -51.050  13.444  1.00  0.00     0.159 C 
BRANCH   5   6
HETATM    6  C   UNL     1     -44.567 -52.369  13.974  1.00  0.00     0.244 C 
BRANCH   6   7
HETATM    7  C   UNL     1     -46.141 -52.238  13.803  1.00  0.00     0.012 C 
HETATM    8  C   UNL     1     -46.820 -51.407  14.899  1.00  0.00     0.012 C 
HETATM    9  C   UNL     1     -46.579 -51.686  12.434  1.00  0.00     0.012 C 
ENDBRANCH   6   7
BRANCH   6  10
HETATM   10  N   UNL     1     -44.187 -52.735  15.386  1.00  0.00     0.099 N 
HETATM   11  C   UNL     1     -42.779 -52.466  15.783  1.00  0.00     0.299 C 
HETATM   12  C   UNL     1     -41.759 -53.337  15.027  1.00  0.00     0.198 C 
HETATM   13  O   UNL     1     -41.982 -54.722  15.321  1.00  0.00    -0.388 OA
HETATM   14  C   UNL     1     -43.333 -55.107  15.026  1.00  0.00     0.198 C 
HETATM   15  C   UNL     1     -44.366 -54.181  15.702  1.00  0.00     0.299 C 
ENDBRANCH   6  10
ENDBRANCH   5   6
ENDBRANCH   1   5
BRANCH   2  16
HETATM   16  C   UNL     1     -41.565 -49.166  12.951  1.00  0.00     0.235 C 
BRANCH  16  17
HETATM   17  N   UNL     1     -41.850 -48.124  11.954  1.00  0.00    -0.301 N 
HETATM   18  C   UNL     1     -43.109 -48.036  11.396  1.00  0.00     0.102 A 
HETATM   19  C   UNL     1     -43.445 -47.054  10.569  1.00  0.00     0.092 A 
HETATM   20  C   UNL     1     -42.439 -46.047  10.196  1.00  0.00     0.252 A 
HETATM   21  O   UNL     1     -42.777 -45.114   9.474  1.00  0.00    -0.268 OA
HETATM   22  N   UNL     1     -41.170 -46.240  10.710  1.00  0.00    -0.271 N 
HETATM   23  C   UNL     1     -40.123 -45.308  10.348  1.00  0.00     0.164 C 
HETATM   24  C   UNL     1     -40.832 -47.235  11.625  1.00  0.00     0.331 A 
HETATM   25  O   UNL     1     -39.710 -47.313  12.128  1.00  0.00    -0.246 OA
ENDBRANCH  16  17
ENDBRANCH   2  16
TORSDOF 6
ENDMDL
MODEL 3
REMARK VINA RESULT:      -5.7      2.755      4.188
REMARK  6 active torsions:
REMARK  status: ('A' for Active; 'I' for Inactive)
REMARK    1  A    between atoms: C_2  and  C_4 
REMARK    2  A    between atoms: C_4  and  C_5 
REMARK    3  A    between atoms: C_4  and  N_19 
REMARK    4  A    between atoms: C_5  and  N_6 
REMARK       I    between atoms: N_6  and  C_7 
REMARK    5  A    between atoms: C_7  and  C_9 
REMARK    6  A    between atoms: C_9  and  N_10 
ROOT
HETATM    1  N   UNL     1     -41.447 -49.335  10.884  1.00  0.00    -0.358 N 
HETATM    2  C   UNL     1     -41.591 -48.048  10.448  1.00  0.00     0.236 C 
HETATM    3  O   UNL     1     -42.534 -47.781   9.702  1.00  0.00    -0.272 OA
HETATM    4  H   UNL     1     -42.134 -49.904  10.421  1.00  0.00     0.162 HD
ENDROOT
BRANCH   1   5
HETATM    5  C   UNL     1     -40.214 -49.954  11.359  1.00  0.00     0.159 C 
BRANCH   5   6
HETATM    6  C   UNL     1     -40.221 -50.476  12.841  1.00  0.00     0.244 C 
BRANCH   6   7
HETATM    7  C   UNL     1     -39.094 -49.704  13.653  1.00  0.00     0.012 C 
HETATM    8  C   UNL     1     -37.907 -49.249  12.793  1.00  0.00     0.012 C 
HETATM    9  C   UNL     1     -39.612 -48.489  14.445  1.00  0.00     0.012 C 
ENDBRANCH   6   7
BRANCH   6  10
HETATM   10  N   UNL     1     -40.080 -51.971  12.973  1.00  0.00     0.099 N 
HETATM   11  C   UNL     1     -40.996 -52.798  12.142  1.00  0.00     0.299 C 
HETATM   12  C   UNL     1     -42.474 -52.660  12.550  1.00  0.00     0.198 C 
HETATM   13  O   UNL     1     -42.658 -53.118  13.896  1.00  0.00    -0.388 OA
HETATM   14  C   UNL     1     -41.788 -52.428  14.806  1.00  0.00     0.198 C 
HETATM   15  C   UNL     1     -40.313 -52.477  14.356  1.00  0.00     0.299 C 
ENDBRANCH   6  10
ENDBRANCH   5   6
ENDBRANCH   1   5
BRANCH   2  16
HETATM   16  C   UNL     1     -40.662 -46.972  10.990  1.00  0.00     0.235 C 
BRANCH  16  17
HETATM   17  N   UNL     1     -41.426 -45.918  11.672  1.00  0.00    -0.301 N 
HETATM   18  C   UNL     1     -42.134 -46.217  12.818  1.00  0.00     0.102 A 
HETATM   19  C   UNL     1     -42.756 -45.281  13.525  1.00  0.00     0.092 A 
HETATM   20  C   UNL     1     -42.732 -43.886  13.057  1.00  0.00     0.252 A 
HETATM   21  O   UNL     1     -43.264 -43.023  13.748  1.00  0.00    -0.268 OA
HETATM   22  N   UNL     1     -42.087 -43.662  11.854  1.00  0.00    -0.271 N 
HETATM   23  C   UNL     1     -42.063 -42.318  11.317  1.00  0.00     0.164 C 
HETATM   24  C   UNL     1     -41.384 -44.632  11.143  1.00  0.00     0.331 A 
HETATM   25  O   UNL     1     -40.747 -44.366  10.122  1.00  0.00    -0.246 OA
ENDBRANCH  16  17
ENDBRANCH   2  16
TORSDOF 6
ENDMDL
MODEL 4
REMARK VINA RESULT:      -5.7      2.403      4.002
REMARK  6 active torsions:
REMARK  status: ('A' for Active; 'I' for Inactive)
REMARK    1  A    between atoms: C_2  and  C_4 
REMARK    2  A    between atoms: C_4  and  C_5 
REMARK    3  A    between atoms: C_4  and  N_19 
REMARK    4  A    between atoms: C_5  and  N_6 
REMARK       I    between atoms: N_6  and  C_7 
REMARK    5  A    between atoms: C_7  and  C_9 
REMARK    6  A    between atoms: C_9  and  N_10 
ROOT
HETATM    1  N   UNL     1     -43.180 -49.012  12.110  1.00  0.00    -0.358 N 
HETATM    2  C   UNL     1     -42.986 -48.135  11.081  1.00  0.00     0.236 C 
HETATM    3  O   UNL     1     -43.952 -47.495  10.663  1.00  0.00    -0.272 OA
HETATM    4  H   UNL     1     -44.163 -49.053  12.309  1.00  0.00     0.162 HD
ENDROOT
BRANCH   1   5
HETATM    5  C   UNL     1     -42.340 -50.159  12.438  1.00  0.00     0.159 C 
BRANCH   5   6
HETATM    6  C   UNL     1     -43.059 -51.379  13.119  1.00  0.00     0.244 C 
BRANCH   6   7
HETATM    7  C   UNL     1     -44.496 -50.908  13.609  1.00  0.00     0.012 C 
HETATM    8  C   UNL     1     -45.651 -51.754  13.057  1.00  0.00     0.012 C 
HETATM    9  C   UNL     1     -44.641 -50.829  15.139  1.00  0.00     0.012 C 
ENDBRANCH   6   7
BRANCH   6  10
HETATM   10  N   UNL     1     -42.272 -52.020  14.234  1.00  0.00     0.099 N 
HETATM   11  C   UNL     1     -40.839 -51.636  14.337  1.00  0.00     0.299 C 
HETATM   12  C   UNL     1     -39.995 -52.115  13.140  1.00  0.00     0.198 C 
HETATM   13  O   UNL     1     -40.005 -53.546  13.074  1.00  0.00    -0.388 OA
HETATM   14  C   UNL     1     -41.344 -54.058  13.019  1.00  0.00     0.198 C 
HETATM   15  C   UNL     1     -42.228 -53.508  14.159  1.00  0.00     0.299 C 
ENDBRANCH   6  10
ENDBRANCH   5   6
ENDBRANCH   1   5
BRANCH   2  16
HETATM   16  C   UNL     1     -41.574 -47.889  10.571  1.00  0.00     0.235 C 
BRANCH  16  17
HETATM   17  N   UNL     1     -40.921 -46.818  11.338  1.00  0.00    -0.301 N 
HETATM   18  C   UNL     1     -40.199 -47.131  12.471  1.00  0.00     0.102 A 
HETATM   19  C   UNL     1     -39.508 -46.215  13.140  1.00  0.00     0.092 A 
HETATM   20  C   UNL     1     -39.543 -44.813  12.693  1.00  0.00     0.252 A 
HETATM   21  O   UNL     1     -38.858 -43.987  13.287  1.00  0.00    -0.268 OA
HETATM   22  N   UNL     1     -40.359 -44.544  11.609  1.00  0.00    -0.271 N 
HETATM   23  C   UNL     1     -40.470 -43.178  11.144  1.00  0.00     0.164 C 
HETATM   24  C   UNL     1     -41.035 -45.513  10.870  1.00  0.00     0.331 A 
HETATM   25  O   UNL     1     -41.677 -45.237   9.856  1.00  0.00    -0.246 OA
ENDBRANCH  16  17
ENDBRANCH   2  16
TORSDOF 6
ENDMDL
MODEL 5
REMARK VINA RESULT:      -5.6      2.432      7.259
REMARK  6 active torsions:
REMARK  status: ('A' for Active; 'I' for Inactive)
REMARK    1  A    between atoms: C_2  and  C_4 
REMARK    2  A    between atoms: C_4  and  C_5 
REMARK    3  A    between atoms: C_4  and  N_19 
REMARK    4  A    between atoms: C_5  and  N_6 
REMARK       I    between atoms: N_6  and  C_7 
REMARK    5  A    between atoms: C_7  and  C_9 
REMARK    6  A    between atoms: C_9  and  N_10 
ROOT
HETATM    1  N   UNL     1     -39.999 -51.950  13.924  1.00  0.00    -0.358 N 
HETATM    2  C   UNL     1     -39.901 -53.233  13.464  1.00  0.00     0.236 C 
HETATM    3  O   UNL     1     -38.898 -53.887  13.754  1.00  0.00    -0.272 OA
HETATM    4  H   UNL     1     -39.136 -51.711  14.380  1.00  0.00     0.162 HD
ENDROOT
BRANCH   1   5
HETATM    5  C   UNL     1     -40.817 -50.887  13.350  1.00  0.00     0.159 C 
BRANCH   5   6
HETATM    6  C   UNL     1     -40.070 -49.842  12.445  1.00  0.00     0.244 C 
BRANCH   6   7
HETATM    7  C   UNL     1     -38.509 -49.963  12.717  1.00  0.00     0.012 C 
HETATM    8  C   UNL     1     -37.653 -49.970  11.444  1.00  0.00     0.012 C 
HETATM    9  C   UNL     1     -37.953 -48.889  13.669  1.00  0.00     0.012 C 
ENDBRANCH   6   7
BRANCH   6  10
HETATM   10  N   UNL     1     -40.556 -48.423  12.605  1.00  0.00     0.099 N 
HETATM   11  C   UNL     1     -41.921 -48.252  13.169  1.00  0.00     0.299 C 
HETATM   12  C   UNL     1     -43.031 -48.783  12.243  1.00  0.00     0.198 C 
HETATM   13  O   UNL     1     -43.031 -48.054  11.008  1.00  0.00    -0.388 OA
HETATM   14  C   UNL     1     -41.744 -48.098  10.375  1.00  0.00     0.198 C 
HETATM   15  C   UNL     1     -40.610 -47.660  11.326  1.00  0.00     0.299 C 
ENDBRANCH   6  10
ENDBRANCH   5   6
ENDBRANCH   1   5
BRANCH   2  16
HETATM   16  C   UNL     1     -41.077 -53.847  12.721  1.00  0.00     0.235 C 
BRANCH  16  17
HETATM   17  N   UNL     1     -42.206 -54.082  13.632  1.00  0.00    -0.301 N 
HETATM   18  C   UNL     1     -41.990 -54.708  14.843  1.00  0.00     0.102 A 
HETATM   19  C   UNL     1     -42.956 -54.853  15.742  1.00  0.00     0.092 A 
HETATM   20  C   UNL     1     -44.312 -54.373  15.431  1.00  0.00     0.252 A 
HETATM   21  O   UNL     1     -45.181 -54.464  16.292  1.00  0.00    -0.268 OA
HETATM   22  N   UNL     1     -44.490 -53.840  14.167  1.00  0.00    -0.271 N 
HETATM   23  C   UNL     1     -45.810 -53.388  13.783  1.00  0.00     0.164 C 
HETATM   24  C   UNL     1     -43.465 -53.633  13.247  1.00  0.00     0.331 A 
HETATM   25  O   UNL     1     -43.655 -53.070  12.168  1.00  0.00    -0.246 OA
ENDBRANCH  16  17
ENDBRANCH   2  16
TORSDOF 6
ENDMDL
MODEL 6
REMARK VINA RESULT:      -5.5      2.423      3.777
REMARK  6 active torsions:
REMARK  status: ('A' for Active; 'I' for Inactive)
REMARK    1  A    between atoms: C_2  and  C_4 
REMARK    2  A    between atoms: C_4  and  C_5 
REMARK    3  A    between atoms: C_4  and  N_19 
REMARK    4  A    between atoms: C_5  and  N_6 
REMARK       I    between atoms: N_6  and  C_7 
REMARK    5  A    between atoms: C_7  and  C_9 
REMARK    6  A    between atoms: C_9  and  N_10 
ROOT
HETATM    1  N   UNL     1     -42.794 -50.687  13.263  1.00  0.00    -0.358 N 
HETATM    2  C   UNL     1     -42.088 -49.598  12.836  1.00  0.00     0.236 C 
HETATM    3  O   UNL     1     -42.511 -48.476  13.118  1.00  0.00    -0.272 OA
HETATM    4  H   UNL     1     -43.643 -50.365  13.692  1.00  0.00     0.162 HD
ENDROOT
BRANCH   1   5
HETATM    5  C   UNL     1     -42.753 -52.025  12.683  1.00  0.00     0.159 C 
BRANCH   5   6
HETATM    6  C   UNL     1     -43.450 -53.166  13.509  1.00  0.00     0.244 C 
BRANCH   6   7
HETATM    7  C   UNL     1     -42.378 -54.300  13.806  1.00  0.00     0.012 C 
HETATM    8  C   UNL     1     -41.100 -54.188  12.963  1.00  0.00     0.012 C 
HETATM    9  C   UNL     1     -41.973 -54.407  15.288  1.00  0.00     0.012 C 
ENDBRANCH   6   7
BRANCH   6  10
HETATM   10  N   UNL     1     -44.693 -53.726  12.866  1.00  0.00     0.099 N 
HETATM   11  C   UNL     1     -45.789 -52.759  12.591  1.00  0.00     0.299 C 
HETATM   12  C   UNL     1     -46.421 -52.179  13.870  1.00  0.00     0.198 C 
HETATM   13  O   UNL     1     -47.020 -53.228  14.641  1.00  0.00    -0.388 OA
HETATM   14  C   UNL     1     -46.072 -54.263  14.940  1.00  0.00     0.198 C 
HETATM   15  C   UNL     1     -45.360 -54.787  13.674  1.00  0.00     0.299 C 
ENDBRANCH   6  10
ENDBRANCH   5   6
ENDBRANCH   1   5
BRANCH   2  16
HETATM   16  C   UNL     1     -40.753 -49.805  12.138  1.00  0.00     0.235 C 
BRANCH  16  17
HETATM   17  N   UNL     1     -39.655 -49.847  13.114  1.00  0.00    -0.301 N 
HETATM   18  C   UNL     1     -39.334 -51.038  13.733  1.00  0.00     0.102 A 
HETATM   19  C   UNL     1     -38.289 -51.150  14.545  1.00  0.00     0.092 A 
HETATM   20  C   UNL     1     -37.467 -49.964  14.833  1.00  0.00     0.252 A 
HETATM   21  O   UNL     1     -36.473 -50.093  15.540  1.00  0.00    -0.268 OA
HETATM   22  N   UNL     1     -37.892 -48.779  14.260  1.00  0.00    -0.271 N 
HETATM   23  C   UNL     1     -37.150 -47.566  14.537  1.00  0.00     0.164 C 
HETATM   24  C   UNL     1     -38.951 -48.673  13.361  1.00  0.00     0.331 A 
HETATM   25  O   UNL     1     -39.236 -47.612  12.804  1.00  0.00    -0.246 OA
ENDBRANCH  16  17
ENDBRANCH   2  16
TORSDOF 6
ENDMDL
MODEL 7
REMARK VINA RESULT:      -5.3      2.175      7.210
REMARK  6 active torsions:
REMARK  status: ('A' for Active; 'I' for Inactive)
REMARK    1  A    between atoms: C_2  and  C_4 
REMARK    2  A    between atoms: C_4  and  C_5 
REMARK    3  A    between atoms: C_4  and  N_19 
REMARK    4  A    between atoms: C_5  and  N_6 
REMARK       I    between atoms: N_6  and  C_7 
REMARK    5  A    between atoms: C_7  and  C_9 
REMARK    6  A    between atoms: C_9  and  N_10 
ROOT
HETATM    1  N   UNL     1     -40.539 -51.495  13.886  1.00  0.00    -0.358 N 
HETATM    2  C   UNL     1     -40.898 -52.321  12.858  1.00  0.00     0.236 C 
HETATM    3  O   UNL     1     -40.117 -53.210  12.518  1.00  0.00    -0.272 OA
HETATM    4  H   UNL     1     -39.596 -51.714  14.153  1.00  0.00     0.162 HD
ENDROOT
BRANCH   1   5
HETATM    5  C   UNL     1     -41.055 -50.154  14.138  1.00  0.00     0.159 C 
BRANCH   5   6
HETATM    6  C   UNL     1     -40.517 -49.012  13.203  1.00  0.00     0.244 C 
BRANCH   6   7
HETATM    7  C   UNL     1     -39.071 -48.586  13.707  1.00  0.00     0.012 C 
HETATM    8  C   UNL     1     -38.866 -48.745  15.220  1.00  0.00     0.012 C 
HETATM    9  C   UNL     1     -37.918 -49.307  12.984  1.00  0.00     0.012 C 
ENDBRANCH   6   7
BRANCH   6  10
HETATM   10  N   UNL     1     -41.438 -47.824  13.081  1.00  0.00     0.099 N 
HETATM   11  C   UNL     1     -42.636 -48.002  12.219  1.00  0.00     0.299 C 
HETATM   12  C   UNL     1     -42.289 -48.191  10.730  1.00  0.00     0.198 C 
HETATM   13  O   UNL     1     -41.626 -47.024  10.229  1.00  0.00    -0.388 OA
HETATM   14  C   UNL     1     -40.464 -46.707  11.010  1.00  0.00     0.198 C 
HETATM   15  C   UNL     1     -40.781 -46.611  12.517  1.00  0.00     0.299 C 
ENDBRANCH   6  10
ENDBRANCH   5   6
ENDBRANCH   1   5
BRANCH   2  16
HETATM   16  C   UNL     1     -42.288 -52.193  12.254  1.00  0.00     0.235 C 
BRANCH  16  17
HETATM   17  N   UNL     1     -43.291 -52.838  13.113  1.00  0.00    -0.301 N 
HETATM   18  C   UNL     1     -43.143 -54.164  13.462  1.00  0.00     0.102 A 
HETATM   19  C   UNL     1     -43.966 -54.763  14.315  1.00  0.00     0.092 A 
HETATM   20  C   UNL     1     -45.099 -54.010  14.878  1.00  0.00     0.252 A 
HETATM   21  O   UNL     1     -45.819 -54.558  15.706  1.00  0.00    -0.268 OA
HETATM   22  N   UNL     1     -45.251 -52.714  14.419  1.00  0.00    -0.271 N 
HETATM   23  C   UNL     1     -46.370 -51.932  14.901  1.00  0.00     0.164 C 
HETATM   24  C   UNL     1     -44.355 -52.067  13.571  1.00  0.00     0.331 A 
HETATM   25  O   UNL     1     -44.482 -50.881  13.262  1.00  0.00    -0.246 OA
ENDBRANCH  16  17
ENDBRANCH   2  16
TORSDOF 6
ENDMDL
MODEL 8
REMARK VINA RESULT:      -5.3      3.262      7.484
REMARK  6 active torsions:
REMARK  status: ('A' for Active; 'I' for Inactive)
REMARK    1  A    between atoms: C_2  and  C_4 
REMARK    2  A    between atoms: C_4  and  C_5 
REMARK    3  A    between atoms: C_4  and  N_19 
REMARK    4  A    between atoms: C_5  and  N_6 
REMARK       I    between atoms: N_6  and  C_7 
REMARK    5  A    between atoms: C_7  and  C_9 
REMARK    6  A    between atoms: C_9  and  N_10 
ROOT
HETATM    1  N   UNL     1     -42.707 -52.915  12.714  1.00  0.00    -0.358 N 
HETATM    2  C   UNL     1     -43.775 -53.688  13.070  1.00  0.00     0.236 C 
HETATM    3  O   UNL     1     -44.498 -54.138  12.180  1.00  0.00    -0.272 OA
HETATM    4  H   UNL     1     -42.744 -52.762  11.722  1.00  0.00     0.162 HD
ENDROOT
BRANCH   1   5
HETATM    5  C   UNL     1     -42.028 -51.938  13.559  1.00  0.00     0.159 C 
BRANCH   5   6
HETATM    6  C   UNL     1     -40.459 -51.910  13.472  1.00  0.00     0.244 C 
BRANCH   6   7
HETATM    7  C   UNL     1     -39.881 -53.044  14.423  1.00  0.00     0.012 C 
HETATM    8  C   UNL     1     -40.622 -53.174  15.761  1.00  0.00     0.012 C 
HETATM    9  C   UNL     1     -39.813 -54.436  13.769  1.00  0.00     0.012 C 
ENDBRANCH   6   7
BRANCH   6  10
HETATM   10  N   UNL     1     -39.845 -50.565  13.768  1.00  0.00     0.099 N 
HETATM   11  C   UNL     1     -40.205 -49.456  12.846  1.00  0.00     0.299 C 
HETATM   12  C   UNL     1     -39.667 -49.656  11.417  1.00  0.00     0.198 C 
HETATM   13  O   UNL     1     -38.234 -49.692  11.433  1.00  0.00    -0.388 OA
HETATM   14  C   UNL     1     -37.746 -50.699  12.331  1.00  0.00     0.198 C 
HETATM   15  C   UNL     1     -38.355 -50.568  13.743  1.00  0.00     0.299 C 
ENDBRANCH   6  10
ENDBRANCH   5   6
ENDBRANCH   1   5
BRANCH   2  16
HETATM   16  C   UNL     1     -43.965 -54.066  14.531  1.00  0.00     0.235 C 
BRANCH  16  17
HETATM   17  N   UNL     1     -44.992 -53.223  15.160  1.00  0.00    -0.301 N 
HETATM   18  C   UNL     1     -45.590 -52.216  14.431  1.00  0.00     0.102 A 
HETATM   19  C   UNL     1     -46.592 -51.494  14.920  1.00  0.00     0.092 A 
HETATM   20  C   UNL     1     -47.056 -51.739  16.295  1.00  0.00     0.252 A 
HETATM   21  O   UNL     1     -48.017 -51.103  16.715  1.00  0.00    -0.268 OA
HETATM   22  N   UNL     1     -46.356 -52.695  17.009  1.00  0.00    -0.271 N 
HETATM   23  C   UNL     1     -46.736 -52.955  18.381  1.00  0.00     0.164 C 
HETATM   24  C   UNL     1     -45.346 -53.494  16.477  1.00  0.00     0.331 A 
HETATM   25  O   UNL     1     -44.813 -54.397  17.124  1.00  0.00    -0.246 OA
ENDBRANCH  16  17
ENDBRANCH   2  16
TORSDOF 6
ENDMDL
MODEL 9
REMARK VINA RESULT:      -5.3      2.008      7.891
REMARK  6 active torsions:
REMARK  status: ('A' for Active; 'I' for Inactive)
REMARK    1  A    between atoms: C_2  and  C_4 
REMARK    2  A    between atoms: C_4  and  C_5 
REMARK    3  A    between atoms: C_4  and  N_19 
REMARK    4  A    between atoms: C_5  and  N_6 
REMARK       I    between atoms: N_6  and  C_7 
REMARK    5  A    between atoms: C_7  and  C_9 
REMARK    6  A    between atoms: C_9  and  N_10 
ROOT
HETATM    1  N   UNL     1     -42.172 -49.665  11.703  1.00  0.00    -0.358 N 
HETATM    2  C   UNL     1     -42.693 -50.631  12.518  1.00  0.00     0.236 C 
HETATM    3  O   UNL     1     -43.671 -50.351  13.211  1.00  0.00    -0.272 OA
HETATM    4  H   UNL     1     -42.657 -48.804  11.885  1.00  0.00     0.162 HD
ENDROOT
BRANCH   1   5
HETATM    5  C   UNL     1     -40.812 -49.619  11.179  1.00  0.00     0.159 C 
BRANCH   5   6
HETATM    6  C   UNL     1     -39.982 -48.324  11.505  1.00  0.00     0.244 C 
BRANCH   6   7
HETATM    7  C   UNL     1     -38.725 -48.738  12.384  1.00  0.00     0.012 C 
HETATM    8  C   UNL     1     -39.088 -49.399  13.720  1.00  0.00     0.012 C 
HETATM    9  C   UNL     1     -37.720 -49.646  11.651  1.00  0.00     0.012 C 
ENDBRANCH   6   7
BRANCH   6  10
HETATM   10  N   UNL     1     -40.782 -47.224  12.156  1.00  0.00     0.099 N 
HETATM   11  C   UNL     1     -42.014 -46.791  11.445  1.00  0.00     0.299 C 
HETATM   12  C   UNL     1     -41.728 -46.112  10.094  1.00  0.00     0.198 C 
HETATM   13  O   UNL     1     -40.963 -44.917  10.297  1.00  0.00    -0.388 OA
HETATM   14  C   UNL     1     -39.755 -45.186  11.023  1.00  0.00     0.198 C 
HETATM   15  C   UNL     1     -40.021 -45.954  12.336  1.00  0.00     0.299 C 
ENDBRANCH   6  10
ENDBRANCH   5   6
ENDBRANCH   1   5
BRANCH   2  16
HETATM   16  C   UNL     1     -42.128 -52.042  12.451  1.00  0.00     0.235 C 
BRANCH  16  17
HETATM   17  N   UNL     1     -42.706 -52.886  13.507  1.00  0.00    -0.301 N 
HETATM   18  C   UNL     1     -42.135 -52.896  14.763  1.00  0.00     0.102 A 
HETATM   19  C   UNL     1     -42.678 -53.562  15.776  1.00  0.00     0.092 A 
HETATM   20  C   UNL     1     -43.899 -54.351  15.552  1.00  0.00     0.252 A 
HETATM   21  O   UNL     1     -44.420 -54.917  16.508  1.00  0.00    -0.268 OA
HETATM   22  N   UNL     1     -44.371 -54.380  14.252  1.00  0.00    -0.271 N 
HETATM   23  C   UNL     1     -45.546 -55.172  13.956  1.00  0.00     0.164 C 
HETATM   24  C   UNL     1     -43.838 -53.634  13.203  1.00  0.00     0.331 A 
HETATM   25  O   UNL     1     -44.348 -53.620  12.082  1.00  0.00    -0.246 OA
ENDBRANCH  16  17
ENDBRANCH   2  16
TORSDOF 6
ENDMDL
