MODEL 1
REMARK VINA RESULT:      -6.4      0.000      0.000
REMARK  7 active torsions:
REMARK  status: ('A' for Active; 'I' for Inactive)
REMARK    1  A    between atoms: N_6  and  C_7 
REMARK    2  A    between atoms: C_7  and  C_8 
REMARK    3  A    between atoms: C_8  and  O_9 
REMARK    4  A    between atoms: C_8  and  C_10 
REMARK    5  A    between atoms: C_10  and  O_11 
REMARK    6  A    between atoms: O_11  and  C_12 
REMARK    7  A    between atoms: C_12  and  C_13 
ROOT
HETATM    1  C   UNL     1     -41.085 -52.381  12.031  1.00  0.00     0.160 C 
ENDROOT
BRANCH   1   2
HETATM    2  C   UNL     1     -40.012 -51.583  12.802  1.00  0.00     0.166 C 
BRANCH   2   3
HETATM    3  N   UNL     1     -39.961 -50.175  12.425  1.00  0.00    -0.307 N 
HETATM    4  C   UNL     1     -40.435 -49.771  11.203  1.00  0.00     0.186 A 
HETATM    5  N   UNL     1     -40.462 -48.552  10.787  1.00  0.00    -0.355 N 
HETATM    6  C   UNL     1     -39.974 -47.588  11.636  1.00  0.00     0.017 A 
ATOM      7  HN  UNL     1     -40.830 -48.313   9.867  1.00  0.00     0.166 HD
HETATM    8  C   UNL     1     -40.069 -46.182  11.092  1.00  0.00     0.069 C 
HETATM    9  C   UNL     1     -39.453 -47.842  12.849  1.00  0.00     0.028 A 
HETATM   10  C   UNL     1     -39.407 -49.261  13.296  1.00  0.00     0.256 A 
HETATM   11  C   UNL     1     -38.928 -46.793  13.780  1.00  0.00     0.056 C 
HETATM   12  O   UNL     1     -38.906 -49.585  14.373  1.00  0.00    -0.267 OA
ENDBRANCH   2   3
ENDBRANCH   1   2
BRANCH   1  13
HETATM   13  O   UNL     1     -40.578 -53.605  11.492  1.00  0.00    -0.392 OA
HETATM   14  H   UNL     1     -41.181 -54.333  11.741  1.00  0.00     0.210 HD
ENDBRANCH   1  13
BRANCH   1  15
HETATM   15  C   UNL     1     -42.270 -52.712  12.947  1.00  0.00     0.201 C 
BRANCH  15  16
HETATM   16  O   UNL     1     -43.455 -52.824  12.167  1.00  0.00    -0.384 OA
BRANCH  16  17
HETATM   17  C   UNL     1     -44.329 -53.840  12.658  1.00  0.00     0.206 C 
BRANCH  17  18
HETATM   18  C   UNL     1     -45.245 -53.201  13.668  1.00  0.00    -0.035 A 
HETATM   19  C   UNL     1     -45.915 -52.007  13.352  1.00  0.00     0.011 A 
HETATM   20  C   UNL     1     -46.746 -51.389  14.286  1.00  0.00     0.024 A 
HETATM   21  C   UNL     1     -46.917 -51.964  15.544  1.00  0.00     0.034 A 
HETATM   22 CL   UNL     1     -47.929 -51.196  16.704  1.00  0.00    -0.084 Cl
HETATM   23  C   UNL     1     -46.268 -53.153  15.870  1.00  0.00     0.024 A 
HETATM   24  C   UNL     1     -45.434 -53.771  14.935  1.00  0.00     0.011 A 
ENDBRANCH  17  18
ENDBRANCH  16  17
ENDBRANCH  15  16
ENDBRANCH   1  15
TORSDOF 7
ENDMDL
MODEL 2
REMARK VINA RESULT:      -6.3      3.162      5.894
REMARK  7 active torsions:
REMARK  status: ('A' for Active; 'I' for Inactive)
REMARK    1  A    between atoms: N_6  and  C_7 
REMARK    2  A    between atoms: C_7  and  C_8 
REMARK    3  A    between atoms: C_8  and  O_9 
REMARK    4  A    between atoms: C_8  and  C_10 
REMARK    5  A    between atoms: C_10  and  O_11 
REMARK    6  A    between atoms: O_11  and  C_12 
REMARK    7  A    between atoms: C_12  and  C_13 
ROOT
HETATM    1  C   UNL     1     -40.672 -53.236  13.509  1.00  0.00     0.160 C 
ENDROOT
BRANCH   1   2
HETATM    2  C   UNL     1     -41.903 -54.069  13.093  1.00  0.00     0.166 C 
BRANCH   2   3
HETATM    3  N   UNL     1     -42.911 -54.171  14.142  1.00  0.00    -0.307 N 
HETATM    4  C   UNL     1     -42.560 -53.991  15.455  1.00  0.00     0.186 A 
HETATM    5  N   UNL     1     -43.377 -54.031  16.450  1.00  0.00    -0.355 N 
HETATM    6  C   UNL     1     -44.699 -54.277  16.169  1.00  0.00     0.017 A 
ATOM      7  HN  UNL     1     -43.055 -53.886  17.407  1.00  0.00     0.166 HD
HETATM    8  C   UNL     1     -45.599 -54.276  17.382  1.00  0.00     0.069 C 
HETATM    9  C   UNL     1     -45.180 -54.501  14.933  1.00  0.00     0.028 A 
HETATM   10  C   UNL     1     -44.212 -54.477  13.802  1.00  0.00     0.256 A 
HETATM   11  C   UNL     1     -46.621 -54.761  14.621  1.00  0.00     0.056 C 
HETATM   12  O   UNL     1     -44.561 -54.717  12.646  1.00  0.00    -0.267 OA
ENDBRANCH   2   3
ENDBRANCH   1   2
BRANCH   1  13
HETATM   13  O   UNL     1     -39.439 -53.840  13.110  1.00  0.00    -0.392 OA
HETATM   14  H   UNL     1     -38.700 -53.268  13.397  1.00  0.00     0.210 HD
ENDBRANCH   1  13
BRANCH   1  15
HETATM   15  C   UNL     1     -40.742 -51.832  12.899  1.00  0.00     0.201 C 
BRANCH  15  16
HETATM   16  O   UNL     1     -41.605 -51.015  13.683  1.00  0.00    -0.384 OA
BRANCH  16  17
HETATM   17  C   UNL     1     -42.709 -50.517  12.929  1.00  0.00     0.206 C 
BRANCH  17  18
HETATM   18  C   UNL     1     -43.947 -50.696  13.766  1.00  0.00    -0.035 A 
HETATM   19  C   UNL     1     -43.894 -50.486  15.153  1.00  0.00     0.011 A 
HETATM   20  C   UNL     1     -45.026 -50.673  15.947  1.00  0.00     0.024 A 
HETATM   21  C   UNL     1     -46.223 -51.069  15.355  1.00  0.00     0.034 A 
HETATM   22 CL   UNL     1     -47.618 -51.316  16.332  1.00  0.00    -0.084 Cl
HETATM   23  C   UNL     1     -46.297 -51.273  13.978  1.00  0.00     0.024 A 
HETATM   24  C   UNL     1     -45.163 -51.086  13.185  1.00  0.00     0.011 A 
ENDBRANCH  17  18
ENDBRANCH  16  17
ENDBRANCH  15  16
ENDBRANCH   1  15
TORSDOF 7
ENDMDL
MODEL 3
REMARK VINA RESULT:      -6.3      2.836      5.780
REMARK  7 active torsions:
REMARK  status: ('A' for Active; 'I' for Inactive)
REMARK    1  A    between atoms: N_6  and  C_7 
REMARK    2  A    between atoms: C_7  and  C_8 
REMARK    3  A    between atoms: C_8  and  O_9 
REMARK    4  A    between atoms: C_8  and  C_10 
REMARK    5  A    between atoms: C_10  and  O_11 
REMARK    6  A    between atoms: O_11  and  C_12 
REMARK    7  A    between atoms: C_12  and  C_13 
ROOT
HETATM    1  C   UNL     1     -40.336 -50.503  11.486  1.00  0.00     0.160 C 
ENDROOT
BRANCH   1   2
HETATM    2  C   UNL     1     -41.514 -50.057  12.377  1.00  0.00     0.166 C 
BRANCH   2   3
HETATM    3  N   UNL     1     -42.456 -51.133  12.668  1.00  0.00    -0.307 N 
HETATM    4  C   UNL     1     -42.291 -52.366  12.093  1.00  0.00     0.186 A 
HETATM    5  N   UNL     1     -43.047 -53.387  12.306  1.00  0.00    -0.355 N 
HETATM    6  C   UNL     1     -44.099 -53.220  13.174  1.00  0.00     0.017 A 
ATOM      7  HN  UNL     1     -42.872 -54.282  11.849  1.00  0.00     0.166 HD
HETATM    8  C   UNL     1     -44.919 -54.469  13.397  1.00  0.00     0.069 C 
HETATM    9  C   UNL     1     -44.397 -52.061  13.786  1.00  0.00     0.028 A 
HETATM   10  C   UNL     1     -43.525 -50.887  13.503  1.00  0.00     0.256 A 
HETATM   11  C   UNL     1     -45.537 -51.877  14.739  1.00  0.00     0.056 C 
HETATM   12  O   UNL     1     -43.754 -49.779  13.986  1.00  0.00    -0.267 OA
ENDBRANCH   2   3
ENDBRANCH   1   2
BRANCH   1  13
HETATM   13  O   UNL     1     -40.372 -49.906  10.187  1.00  0.00    -0.392 OA
HETATM   14  H   UNL     1     -40.862 -50.499   9.582  1.00  0.00     0.210 HD
ENDBRANCH   1  13
BRANCH   1  15
HETATM   15  C   UNL     1     -38.998 -50.145  12.144  1.00  0.00     0.201 C 
BRANCH  15  16
HETATM   16  O   UNL     1     -38.392 -51.324  12.661  1.00  0.00    -0.384 OA
BRANCH  16  17
HETATM   17  C   UNL     1     -38.399 -51.353  14.087  1.00  0.00     0.206 C 
BRANCH  17  18
HETATM   18  C   UNL     1     -39.426 -52.367  14.515  1.00  0.00    -0.035 A 
HETATM   19  C   UNL     1     -40.427 -52.009  15.433  1.00  0.00     0.011 A 
HETATM   20  C   UNL     1     -41.370 -52.944  15.860  1.00  0.00     0.024 A 
HETATM   21  C   UNL     1     -41.319 -54.246  15.369  1.00  0.00     0.034 A 
HETATM   22 CL   UNL     1     -42.471 -55.407  15.906  1.00  0.00    -0.084 Cl
HETATM   23  C   UNL     1     -40.339 -54.617  14.451  1.00  0.00     0.024 A 
HETATM   24  C   UNL     1     -39.394 -53.680  14.025  1.00  0.00     0.011 A 
ENDBRANCH  17  18
ENDBRANCH  16  17
ENDBRANCH  15  16
ENDBRANCH   1  15
TORSDOF 7
ENDMDL
MODEL 4
REMARK VINA RESULT:      -6.3      2.584      4.526
REMARK  7 active torsions:
REMARK  status: ('A' for Active; 'I' for Inactive)
REMARK    1  A    between atoms: N_6  and  C_7 
REMARK    2  A    between atoms: C_7  and  C_8 
REMARK    3  A    between atoms: C_8  and  O_9 
REMARK    4  A    between atoms: C_8  and  C_10 
REMARK    5  A    between atoms: C_10  and  O_11 
REMARK    6  A    between atoms: O_11  and  C_12 
REMARK    7  A    between atoms: C_12  and  C_13 
ROOT
HETATM    1  C   UNL     1     -40.707 -50.717  11.770  1.00  0.00     0.160 C 
ENDROOT
BRANCH   1   2
HETATM    2  C   UNL     1     -41.348 -49.676  12.712  1.00  0.00     0.166 C 
BRANCH   2   3
HETATM    3  N   UNL     1     -42.583 -50.145  13.331  1.00  0.00    -0.307 N 
HETATM    4  C   UNL     1     -43.747 -50.177  12.607  1.00  0.00     0.186 A 
HETATM    5  N   UNL     1     -44.881 -50.599  13.049  1.00  0.00    -0.355 N 
HETATM    6  C   UNL     1     -44.922 -51.045  14.348  1.00  0.00     0.017 A 
ATOM      7  HN  UNL     1     -45.713 -50.601  12.460  1.00  0.00     0.166 HD
HETATM    8  C   UNL     1     -46.276 -51.553  14.784  1.00  0.00     0.069 C 
HETATM    9  C   UNL     1     -43.867 -51.044  15.181  1.00  0.00     0.028 A 
HETATM   10  C   UNL     1     -42.573 -50.526  14.656  1.00  0.00     0.256 A 
HETATM   11  C   UNL     1     -43.905 -51.537  16.595  1.00  0.00     0.056 C 
HETATM   12  O   UNL     1     -41.570 -50.448  15.365  1.00  0.00    -0.267 OA
ENDBRANCH   2   3
ENDBRANCH   1   2
BRANCH   1  13
HETATM   13  O   UNL     1     -39.979 -50.112  10.697  1.00  0.00    -0.392 OA
HETATM   14  H   UNL     1     -39.304 -50.743  10.378  1.00  0.00     0.210 HD
ENDBRANCH   1  13
BRANCH   1  15
HETATM   15  C   UNL     1     -39.750 -51.629  12.547  1.00  0.00     0.201 C 
BRANCH  15  16
HETATM   16  O   UNL     1     -40.174 -52.981  12.419  1.00  0.00    -0.384 OA
BRANCH  16  17
HETATM   17  C   UNL     1     -40.336 -53.618  13.685  1.00  0.00     0.206 C 
BRANCH  17  18
HETATM   18  C   UNL     1     -41.780 -54.025  13.808  1.00  0.00    -0.035 A 
HETATM   19  C   UNL     1     -42.674 -53.770  12.755  1.00  0.00     0.011 A 
HETATM   20  C   UNL     1     -44.021 -54.116  12.864  1.00  0.00     0.024 A 
HETATM   21  C   UNL     1     -44.483 -54.724  14.029  1.00  0.00     0.034 A 
HETATM   22 CL   UNL     1     -46.147 -55.139  14.173  1.00  0.00    -0.084 Cl
HETATM   23  C   UNL     1     -43.609 -54.993  15.080  1.00  0.00     0.024 A 
HETATM   24  C   UNL     1     -42.261 -54.645  14.970  1.00  0.00     0.011 A 
ENDBRANCH  17  18
ENDBRANCH  16  17
ENDBRANCH  15  16
ENDBRANCH   1  15
TORSDOF 7
ENDMDL
MODEL 5
REMARK VINA RESULT:      -6.1      1.616      1.663
REMARK  7 active torsions:
REMARK  status: ('A' for Active; 'I' for Inactive)
REMARK    1  A    between atoms: N_6  and  C_7 
REMARK    2  A    between atoms: C_7  and  C_8 
REMARK    3  A    between atoms: C_8  and  O_9 
REMARK    4  A    between atoms: C_8  and  C_10 
REMARK    5  A    between atoms: C_10  and  O_11 
REMARK    6  A    between atoms: O_11  and  C_12 
REMARK    7  A    between atoms: C_12  and  C_13 
ROOT
HETATM    1  C   UNL     1     -41.327 -52.844  12.347  1.00  0.00     0.160 C 
ENDROOT
BRANCH   1   2
HETATM    2  C   UNL     1     -40.569 -51.640  12.945  1.00  0.00     0.166 C 
BRANCH   2   3
HETATM    3  N   UNL     1     -40.972 -50.362  12.370  1.00  0.00    -0.307 N 
HETATM    4  C   UNL     1     -40.598 -50.032  11.094  1.00  0.00     0.186 A 
HETATM    5  N   UNL     1     -40.925 -48.945  10.485  1.00  0.00    -0.355 N 
HETATM    6  C   UNL     1     -41.706 -48.050  11.175  1.00  0.00     0.017 A 
ATOM      7  HN  UNL     1     -40.618 -48.757   9.531  1.00  0.00     0.166 HD
HETATM    8  C   UNL     1     -42.075 -46.816  10.386  1.00  0.00     0.069 C 
HETATM    9  C   UNL     1     -42.122 -48.228  12.441  1.00  0.00     0.028 A 
HETATM   10  C   UNL     1     -41.707 -49.480  13.133  1.00  0.00     0.256 A 
HETATM   11  C   UNL     1     -42.980 -47.259  13.194  1.00  0.00     0.056 C 
HETATM   12  O   UNL     1     -42.006 -49.701  14.307  1.00  0.00    -0.267 OA
ENDBRANCH   2   3
ENDBRANCH   1   2
BRANCH   1  13
HETATM   13  O   UNL     1     -40.545 -53.566  11.391  1.00  0.00    -0.392 OA
HETATM   14  H   UNL     1     -40.137 -52.928  10.772  1.00  0.00     0.210 HD
ENDBRANCH   1  13
BRANCH   1  15
HETATM   15  C   UNL     1     -41.754 -53.815  13.454  1.00  0.00     0.201 C 
BRANCH  15  16
HETATM   16  O   UNL     1     -43.083 -54.261  13.208  1.00  0.00    -0.384 OA
BRANCH  16  17
HETATM   17  C   UNL     1     -43.874 -53.267  12.560  1.00  0.00     0.206 C 
BRANCH  17  18
HETATM   18  C   UNL     1     -44.922 -52.811  13.540  1.00  0.00    -0.035 A 
HETATM   19  C   UNL     1     -44.955 -51.471  13.960  1.00  0.00     0.011 A 
HETATM   20  C   UNL     1     -45.902 -51.038  14.889  1.00  0.00     0.024 A 
HETATM   21  C   UNL     1     -46.827 -51.944  15.401  1.00  0.00     0.034 A 
HETATM   22 CL   UNL     1     -47.988 -51.418  16.558  1.00  0.00    -0.084 Cl
HETATM   23  C   UNL     1     -46.815 -53.275  14.989  1.00  0.00     0.024 A 
HETATM   24  C   UNL     1     -45.866 -53.708  14.060  1.00  0.00     0.011 A 
ENDBRANCH  17  18
ENDBRANCH  16  17
ENDBRANCH  15  16
ENDBRANCH   1  15
TORSDOF 7
ENDMDL
MODEL 6
REMARK VINA RESULT:      -6.0      3.820      5.920
REMARK  7 active torsions:
REMARK  status: ('A' for Active; 'I' for Inactive)
REMARK    1  A    between atoms: N_6  and  C_7 
REMARK    2  A    between atoms: C_7  and  C_8 
REMARK    3  A    between atoms: C_8  and  O_9 
REMARK    4  A    between atoms: C_8  and  C_10 
REMARK    5  A    between atoms: C_10  and  O_11 
REMARK    6  A    between atoms: O_11  and  C_12 
REMARK    7  A    between atoms: C_12  and  C_13 
ROOT
HETATM    1  C   UNL     1     -46.513 -53.788  14.712  1.00  0.00     0.160 C 
ENDROOT
BRANCH   1   2
HETATM    2  C   UNL     1     -45.634 -54.840  14.002  1.00  0.00     0.166 C 
BRANCH   2   3
HETATM    3  N   UNL     1     -44.343 -54.315  13.571  1.00  0.00    -0.307 N 
HETATM    4  C   UNL     1     -44.260 -53.517  12.460  1.00  0.00     0.186 A 
HETATM    5  N   UNL     1     -43.177 -52.982  12.014  1.00  0.00    -0.355 N 
HETATM    6  C   UNL     1     -42.018 -53.237  12.707  1.00  0.00     0.017 A 
ATOM      7  HN  UNL     1     -43.179 -52.393  11.181  1.00  0.00     0.166 HD
HETATM    8  C   UNL     1     -40.797 -52.549  12.144  1.00  0.00     0.069 C 
HETATM    9  C   UNL     1     -41.946 -54.023  13.796  1.00  0.00     0.028 A 
HETATM   10  C   UNL     1     -43.208 -54.653  14.276  1.00  0.00     0.256 A 
HETATM   11  C   UNL     1     -40.688 -54.297  14.559  1.00  0.00     0.056 C 
HETATM   12  O   UNL     1     -43.222 -55.422  15.237  1.00  0.00    -0.267 OA
ENDBRANCH   2   3
ENDBRANCH   1   2
BRANCH   1  13
HETATM   13  O   UNL     1     -47.911 -54.038  14.546  1.00  0.00    -0.392 OA
HETATM   14  H   UNL     1     -48.403 -53.213  14.734  1.00  0.00     0.210 HD
ENDBRANCH   1  13
BRANCH   1  15
HETATM   15  C   UNL     1     -46.203 -53.753  16.213  1.00  0.00     0.201 C 
BRANCH  15  16
HETATM   16  O   UNL     1     -45.242 -52.737  16.477  1.00  0.00    -0.384 OA
BRANCH  16  17
HETATM   17  C   UNL     1     -45.434 -51.587  15.655  1.00  0.00     0.206 C 
BRANCH  17  18
HETATM   18  C   UNL     1     -44.073 -51.035  15.323  1.00  0.00    -0.035 A 
HETATM   19  C   UNL     1     -43.902 -50.226  14.188  1.00  0.00     0.011 A 
HETATM   20  C   UNL     1     -42.642 -49.728  13.851  1.00  0.00     0.024 A 
HETATM   21  C   UNL     1     -41.545 -50.035  14.652  1.00  0.00     0.034 A 
HETATM   22 CL   UNL     1     -39.987 -49.436  14.232  1.00  0.00    -0.084 Cl
HETATM   23  C   UNL     1     -41.698 -50.828  15.788  1.00  0.00     0.024 A 
HETATM   24  C   UNL     1     -42.959 -51.327  16.123  1.00  0.00     0.011 A 
ENDBRANCH  17  18
ENDBRANCH  16  17
ENDBRANCH  15  16
ENDBRANCH   1  15
TORSDOF 7
ENDMDL
MODEL 7
REMARK VINA RESULT:      -6.0      2.434      3.334
REMARK  7 active torsions:
REMARK  status: ('A' for Active; 'I' for Inactive)
REMARK    1  A    between atoms: N_6  and  C_7 
REMARK    2  A    between atoms: C_7  and  C_8 
REMARK    3  A    between atoms: C_8  and  O_9 
REMARK    4  A    between atoms: C_8  and  C_10 
REMARK    5  A    between atoms: C_10  and  O_11 
REMARK    6  A    between atoms: O_11  and  C_12 
REMARK    7  A    between atoms: C_12  and  C_13 
ROOT
HETATM    1  C   UNL     1     -40.796 -50.489  11.456  1.00  0.00     0.160 C 
ENDROOT
BRANCH   1   2
HETATM    2  C   UNL     1     -41.600 -49.370  12.151  1.00  0.00     0.166 C 
BRANCH   2   3
HETATM    3  N   UNL     1     -41.121 -48.031  11.827  1.00  0.00    -0.307 N 
HETATM    4  C   UNL     1     -41.469 -47.444  10.638  1.00  0.00     0.186 A 
HETATM    5  N   UNL     1     -41.125 -46.259  10.270  1.00  0.00    -0.355 N 
HETATM    6  C   UNL     1     -40.345 -45.533  11.138  1.00  0.00     0.017 A 
ATOM      7  HN  UNL     1     -41.418 -45.875   9.372  1.00  0.00     0.166 HD
HETATM    8  C   UNL     1     -40.009 -44.143  10.652  1.00  0.00     0.069 C 
HETATM    9  C   UNL     1     -39.906 -45.992  12.323  1.00  0.00     0.028 A 
HETATM   10  C   UNL     1     -40.294 -47.376  12.714  1.00  0.00     0.256 A 
HETATM   11  C   UNL     1     -39.063 -45.202  13.276  1.00  0.00     0.056 C 
HETATM   12  O   UNL     1     -39.897 -47.889  13.760  1.00  0.00    -0.267 OA
ENDBRANCH   2   3
ENDBRANCH   1   2
BRANCH   1  13
HETATM   13  O   UNL     1     -40.055 -50.014  10.328  1.00  0.00    -0.392 OA
HETATM   14  H   UNL     1     -40.682 -49.786   9.613  1.00  0.00     0.210 HD
ENDBRANCH   1  13
BRANCH   1  15
HETATM   15  C   UNL     1     -39.815 -51.137  12.440  1.00  0.00     0.201 C 
BRANCH  15  16
HETATM   16  O   UNL     1     -40.073 -52.535  12.517  1.00  0.00    -0.384 OA
BRANCH  16  17
HETATM   17  C   UNL     1     -40.355 -52.958  13.850  1.00  0.00     0.206 C 
BRANCH  17  18
HETATM   18  C   UNL     1     -41.735 -53.561  13.853  1.00  0.00    -0.035 A 
HETATM   19  C   UNL     1     -42.110 -54.452  14.872  1.00  0.00     0.011 A 
HETATM   20  C   UNL     1     -43.375 -55.040  14.874  1.00  0.00     0.024 A 
HETATM   21  C   UNL     1     -44.276 -54.738  13.856  1.00  0.00     0.034 A 
HETATM   22 CL   UNL     1     -45.832 -55.474  13.846  1.00  0.00    -0.084 Cl
HETATM   23  C   UNL     1     -43.924 -53.849  12.842  1.00  0.00     0.024 A 
HETATM   24  C   UNL     1     -42.657 -53.262  12.840  1.00  0.00     0.011 A 
ENDBRANCH  17  18
ENDBRANCH  16  17
ENDBRANCH  15  16
ENDBRANCH   1  15
TORSDOF 7
ENDMDL
MODEL 8
REMARK VINA RESULT:      -6.0      2.990      4.335
REMARK  7 active torsions:
REMARK  status: ('A' for Active; 'I' for Inactive)
REMARK    1  A    between atoms: N_6  and  C_7 
REMARK    2  A    between atoms: C_7  and  C_8 
REMARK    3  A    between atoms: C_8  and  O_9 
REMARK    4  A    between atoms: C_8  and  C_10 
REMARK    5  A    between atoms: C_10  and  O_11 
REMARK    6  A    between atoms: O_11  and  C_12 
REMARK    7  A    between atoms: C_12  and  C_13 
ROOT
HETATM    1  C   UNL     1     -38.640 -49.896  11.708  1.00  0.00     0.160 C 
ENDROOT
BRANCH   1   2
HETATM    2  C   UNL     1     -39.036 -48.448  12.068  1.00  0.00     0.166 C 
BRANCH   2   3
HETATM    3  N   UNL     1     -40.321 -48.047  11.506  1.00  0.00    -0.307 N 
HETATM    4  C   UNL     1     -41.203 -48.995  11.057  1.00  0.00     0.186 A 
HETATM    5  N   UNL     1     -42.370 -48.748  10.572  1.00  0.00    -0.355 N 
HETATM    6  C   UNL     1     -42.753 -47.430  10.497  1.00  0.00     0.017 A 
ATOM      7  HN  UNL     1     -42.984 -49.498  10.256  1.00  0.00     0.166 HD
HETATM    8  C   UNL     1     -44.145 -47.222   9.949  1.00  0.00     0.069 C 
HETATM    9  C   UNL     1     -41.981 -46.396  10.873  1.00  0.00     0.028 A 
HETATM   10  C   UNL     1     -40.625 -46.706  11.405  1.00  0.00     0.256 A 
HETATM   11  C   UNL     1     -42.398 -44.960  10.801  1.00  0.00     0.056 C 
HETATM   12  O   UNL     1     -39.837 -45.816  11.728  1.00  0.00    -0.267 OA
ENDBRANCH   2   3
ENDBRANCH   1   2
BRANCH   1  13
HETATM   13  O   UNL     1     -37.714 -49.957  10.619  1.00  0.00    -0.392 OA
HETATM   14  H   UNL     1     -37.326 -50.854  10.586  1.00  0.00     0.210 HD
ENDBRANCH   1  13
BRANCH   1  15
HETATM   15  C   UNL     1     -38.009 -50.597  12.917  1.00  0.00     0.201 C 
BRANCH  15  16
HETATM   16  O   UNL     1     -38.335 -51.982  12.887  1.00  0.00    -0.384 OA
BRANCH  16  17
HETATM   17  C   UNL     1     -38.913 -52.427  14.112  1.00  0.00     0.206 C 
BRANCH  17  18
HETATM   18  C   UNL     1     -40.302 -52.922  13.806  1.00  0.00    -0.035 A 
HETATM   19  C   UNL     1     -41.046 -52.332  12.771  1.00  0.00     0.011 A 
HETATM   20  C   UNL     1     -42.344 -52.761  12.492  1.00  0.00     0.024 A 
HETATM   21  C   UNL     1     -42.906 -53.788  13.247  1.00  0.00     0.034 A 
HETATM   22 CL   UNL     1     -44.512 -54.310  12.916  1.00  0.00    -0.084 Cl
HETATM   23  C   UNL     1     -42.179 -54.392  14.271  1.00  0.00     0.024 A 
HETATM   24  C   UNL     1     -40.880 -53.960  14.550  1.00  0.00     0.011 A 
ENDBRANCH  17  18
ENDBRANCH  16  17
ENDBRANCH  15  16
ENDBRANCH   1  15
TORSDOF 7
ENDMDL
MODEL 9
REMARK VINA RESULT:      -5.8      4.665      6.780
REMARK  7 active torsions:
REMARK  status: ('A' for Active; 'I' for Inactive)
REMARK    1  A    between atoms: N_6  and  C_7 
REMARK    2  A    between atoms: C_7  and  C_8 
REMARK    3  A    between atoms: C_8  and  O_9 
REMARK    4  A    between atoms: C_8  and  C_10 
REMARK    5  A    between atoms: C_10  and  O_11 
REMARK    6  A    between atoms: O_11  and  C_12 
REMARK    7  A    between atoms: C_12  and  C_13 
ROOT
HETATM    1  C   UNL     1     -45.347 -52.794  18.788  1.00  0.00     0.160 C 
ENDROOT
BRANCH   1   2
HETATM    2  C   UNL     1     -44.247 -53.842  18.516  1.00  0.00     0.166 C 
BRANCH   2   3
HETATM    3  N   UNL     1     -43.840 -53.899  17.117  1.00  0.00    -0.307 N 
HETATM    4  C   UNL     1     -42.584 -53.494  16.747  1.00  0.00     0.186 A 
HETATM    5  N   UNL     1     -42.118 -53.531  15.547  1.00  0.00    -0.355 N 
HETATM    6  C   UNL     1     -42.951 -54.011  14.565  1.00  0.00     0.017 A 
ATOM      7  HN  UNL     1     -41.171 -53.218  15.334  1.00  0.00     0.166 HD
HETATM    8  C   UNL     1     -42.324 -54.055  13.191  1.00  0.00     0.069 C 
HETATM    9  C   UNL     1     -44.215 -54.415  14.777  1.00  0.00     0.028 A 
HETATM   10  C   UNL     1     -44.740 -54.336  16.169  1.00  0.00     0.256 A 
HETATM   11  C   UNL     1     -45.123 -54.947  13.711  1.00  0.00     0.056 C 
HETATM   12  O   UNL     1     -45.901 -54.643  16.441  1.00  0.00    -0.267 OA
ENDBRANCH   2   3
ENDBRANCH   1   2
BRANCH   1  13
HETATM   13  O   UNL     1     -46.150 -53.123  19.925  1.00  0.00    -0.392 OA
HETATM   14  H   UNL     1     -45.641 -52.928  20.737  1.00  0.00     0.210 HD
ENDBRANCH   1  13
BRANCH   1  15
HETATM   15  C   UNL     1     -44.727 -51.411  19.019  1.00  0.00     0.201 C 
BRANCH  15  16
HETATM   16  O   UNL     1     -45.210 -50.504  18.035  1.00  0.00    -0.384 OA
BRANCH  16  17
HETATM   17  C   UNL     1     -44.256 -50.272  17.000  1.00  0.00     0.206 C 
BRANCH  17  18
HETATM   18  C   UNL     1     -44.896 -50.667  15.695  1.00  0.00    -0.035 A 
HETATM   19  C   UNL     1     -46.229 -51.108  15.672  1.00  0.00     0.011 A 
HETATM   20  C   UNL     1     -46.829 -51.503  14.476  1.00  0.00     0.024 A 
HETATM   21  C   UNL     1     -46.097 -51.456  13.291  1.00  0.00     0.034 A 
HETATM   22 CL   UNL     1     -46.827 -51.957  11.816  1.00  0.00    -0.084 Cl
HETATM   23  C   UNL     1     -44.776 -51.013  13.294  1.00  0.00     0.024 A 
HETATM   24  C   UNL     1     -44.176 -50.619  14.493  1.00  0.00     0.011 A 
ENDBRANCH  17  18
ENDBRANCH  16  17
ENDBRANCH  15  16
ENDBRANCH   1  15
TORSDOF 7
ENDMDL
