MODEL 1
REMARK VINA RESULT:      -7.3      0.000      0.000
REMARK  8 active torsions:
REMARK  status: ('A' for Active; 'I' for Inactive)
REMARK    1  A    between atoms: C_2  and  C_3 
REMARK    2  A    between atoms: C_2  and  N_10 
REMARK    3  A    between atoms: C_3  and  N_4 
REMARK    4  A    between atoms: N_10  and  C_11 
REMARK    5  A    between atoms: C_11  and  C_12 
REMARK    6  A    between atoms: C_12  and  O_13 
REMARK    7  A    between atoms: C_12  and  C_14 
REMARK    8  A    between atoms: C_14  and  N_15 
ROOT
HETATM    1  C   UNL     1     -41.244 -49.666  11.134  1.00  0.00     0.164 C 
ENDROOT
BRANCH   1   2
HETATM    2  C   UNL     1     -41.248 -48.130  11.255  1.00  0.00     0.303 C 
BRANCH   2   3
HETATM    3  N   UNL     1     -41.543 -47.508   9.961  1.00  0.00     0.091 N 
HETATM    4  H   UNL     1     -40.823 -46.807   9.766  1.00  0.00     0.316 HD
BRANCH   3   5
HETATM    5  C   UNL     1     -42.885 -46.890   9.899  1.00  0.00     0.236 C 
HETATM    6  C   UNL     1     -42.719 -45.416  10.285  1.00  0.00     0.044 C 
BRANCH   5   7
HETATM    7  C   UNL     1     -43.519 -47.030   8.498  1.00  0.00     0.183 C 
BRANCH   7   8
HETATM    8  N   UNL     1     -44.810 -47.687   8.499  1.00  0.00    -0.302 N 
HETATM    9  C   UNL     1     -45.785 -47.566   9.447  1.00  0.00     0.111 A 
HETATM   10  C   UNL     1     -46.823 -48.359   9.022  1.00  0.00     0.037 A 
HETATM   11  C   UNL     1     -46.385 -48.897   7.798  1.00  0.00     0.108 A 
HETATM   12  N   UNL     1     -45.163 -48.476   7.466  1.00  0.00    -0.310 N 
ATOM     13  HN  UNL     1     -44.624 -48.700   6.630  1.00  0.00     0.186 HD
ENDBRANCH   7   8
ENDBRANCH   5   7
ENDBRANCH   3   5
ENDBRANCH   2   3
ENDBRANCH   1   2
BRANCH   1  14
HETATM   14  O   UNL     1     -40.077 -50.075  10.402  1.00  0.00    -0.392 OA
HETATM   15  H   UNL     1     -39.915 -49.441   9.684  1.00  0.00     0.210 HD
ENDBRANCH   1  14
BRANCH   1  16
HETATM   16  C   UNL     1     -41.262 -50.278  12.537  1.00  0.00     0.163 C 
BRANCH  16  17
HETATM   17  N   UNL     1     -41.782 -51.628  12.563  1.00  0.00    -0.339 N 
HETATM   18  C   UNL     1     -41.077 -52.740  12.195  1.00  0.00     0.184 A 
HETATM   19  N   UNL     1     -41.748 -53.841  12.441  1.00  0.00    -0.350 N 
HETATM   20  C   UNL     1     -42.946 -53.419  12.965  1.00  0.00     0.060 A 
ATOM     21  HN  UNL     1     -41.447 -54.802  12.279  1.00  0.00     0.166 HD
HETATM   22  C   UNL     1     -44.037 -54.176  13.412  1.00  0.00     0.039 A 
HETATM   23  C   UNL     1     -43.003 -52.030  13.041  1.00  0.00     0.062 A 
HETATM   24  C   UNL     1     -45.177 -53.527  13.925  1.00  0.00    -0.054 A 
HETATM   25  C   UNL     1     -46.315 -54.383  14.416  1.00  0.00     0.049 C 
HETATM   26  C   UNL     1     -45.225 -52.119  13.970  1.00  0.00    -0.054 A 
HETATM   27  C   UNL     1     -46.424 -51.361  14.480  1.00  0.00     0.049 C 
HETATM   28  C   UNL     1     -44.126 -51.352  13.526  1.00  0.00     0.039 A 
ENDBRANCH  16  17
ENDBRANCH   1  16
TORSDOF 8
ENDMDL
MODEL 2
REMARK VINA RESULT:      -7.0      2.541      3.544
REMARK  8 active torsions:
REMARK  status: ('A' for Active; 'I' for Inactive)
REMARK    1  A    between atoms: C_2  and  C_3 
REMARK    2  A    between atoms: C_2  and  N_10 
REMARK    3  A    between atoms: C_3  and  N_4 
REMARK    4  A    between atoms: N_10  and  C_11 
REMARK    5  A    between atoms: C_11  and  C_12 
REMARK    6  A    between atoms: C_12  and  O_13 
REMARK    7  A    between atoms: C_12  and  C_14 
REMARK    8  A    between atoms: C_14  and  N_15 
ROOT
HETATM    1  C   UNL     1     -40.561 -49.956  11.237  1.00  0.00     0.164 C 
ENDROOT
BRANCH   1   2
HETATM    2  C   UNL     1     -41.055 -48.504  11.087  1.00  0.00     0.303 C 
BRANCH   2   3
HETATM    3  N   UNL     1     -41.678 -48.300   9.777  1.00  0.00     0.091 N 
HETATM    4  H   UNL     1     -40.952 -48.017   9.112  1.00  0.00     0.316 HD
BRANCH   3   5
HETATM    5  C   UNL     1     -42.769 -47.303   9.793  1.00  0.00     0.236 C 
HETATM    6  C   UNL     1     -42.138 -45.953  10.154  1.00  0.00     0.044 C 
BRANCH   5   7
HETATM    7  C   UNL     1     -43.504 -47.229   8.437  1.00  0.00     0.183 C 
BRANCH   7   8
HETATM    8  N   UNL     1     -44.850 -47.765   8.467  1.00  0.00    -0.302 N 
HETATM    9  C   UNL     1     -45.809 -47.507   9.404  1.00  0.00     0.111 A 
HETATM   10  C   UNL     1     -46.915 -48.222   9.015  1.00  0.00     0.037 A 
HETATM   11  C   UNL     1     -46.529 -48.861   7.823  1.00  0.00     0.108 A 
HETATM   12  N   UNL     1     -45.273 -48.571   7.475  1.00  0.00    -0.310 N 
ATOM     13  HN  UNL     1     -44.757 -48.886   6.654  1.00  0.00     0.186 HD
ENDBRANCH   7   8
ENDBRANCH   5   7
ENDBRANCH   3   5
ENDBRANCH   2   3
ENDBRANCH   1   2
BRANCH   1  14
HETATM   14  O   UNL     1     -39.167 -50.015  10.895  1.00  0.00    -0.392 OA
HETATM   15  H   UNL     1     -38.643 -50.079  11.711  1.00  0.00     0.210 HD
ENDBRANCH   1  14
BRANCH   1  16
HETATM   16  C   UNL     1     -40.799 -50.419  12.676  1.00  0.00     0.163 C 
BRANCH  16  17
HETATM   17  N   UNL     1     -40.701 -51.853  12.837  1.00  0.00    -0.339 N 
HETATM   18  C   UNL     1     -41.139 -52.770  11.923  1.00  0.00     0.184 A 
HETATM   19  N   UNL     1     -40.806 -53.993  12.268  1.00  0.00    -0.350 N 
HETATM   20  C   UNL     1     -40.148 -53.859  13.466  1.00  0.00     0.060 A 
ATOM     21  HN  UNL     1     -40.995 -54.856  11.757  1.00  0.00     0.166 HD
HETATM   22  C   UNL     1     -39.569 -54.844  14.277  1.00  0.00     0.039 A 
HETATM   23  C   UNL     1     -40.078 -52.525  13.859  1.00  0.00     0.062 A 
HETATM   24  C   UNL     1     -38.930 -54.476  15.478  1.00  0.00    -0.054 A 
HETATM   25  C   UNL     1     -38.301 -55.567  16.304  1.00  0.00     0.049 C 
HETATM   26  C   UNL     1     -38.892 -53.123  15.869  1.00  0.00    -0.054 A 
HETATM   27  C   UNL     1     -38.251 -52.665  17.155  1.00  0.00     0.049 C 
HETATM   28  C   UNL     1     -39.469 -52.126  15.053  1.00  0.00     0.039 A 
ENDBRANCH  16  17
ENDBRANCH   1  16
TORSDOF 8
ENDMDL
MODEL 3
REMARK VINA RESULT:      -6.9      2.964      4.363
REMARK  8 active torsions:
REMARK  status: ('A' for Active; 'I' for Inactive)
REMARK    1  A    between atoms: C_2  and  C_3 
REMARK    2  A    between atoms: C_2  and  N_10 
REMARK    3  A    between atoms: C_3  and  N_4 
REMARK    4  A    between atoms: N_10  and  C_11 
REMARK    5  A    between atoms: C_11  and  C_12 
REMARK    6  A    between atoms: C_12  and  O_13 
REMARK    7  A    between atoms: C_12  and  C_14 
REMARK    8  A    between atoms: C_14  and  N_15 
ROOT
HETATM    1  C   UNL     1     -41.677 -52.406  12.024  1.00  0.00     0.164 C 
ENDROOT
BRANCH   1   2
HETATM    2  C   UNL     1     -41.090 -51.002  12.271  1.00  0.00     0.303 C 
BRANCH   2   3
HETATM    3  N   UNL     1     -40.719 -50.365  11.006  1.00  0.00     0.091 N 
HETATM    4  H   UNL     1     -39.730 -50.558  10.821  1.00  0.00     0.316 HD
BRANCH   3   5
HETATM    5  C   UNL     1     -40.964 -48.906  10.988  1.00  0.00     0.236 C 
HETATM    6  C   UNL     1     -42.332 -48.673  11.640  1.00  0.00     0.044 C 
BRANCH   5   7
HETATM    7  C   UNL     1     -39.855 -48.127  11.727  1.00  0.00     0.183 C 
BRANCH   7   8
HETATM    8  N   UNL     1     -39.908 -46.693  11.523  1.00  0.00    -0.302 N 
HETATM    9  C   UNL     1     -39.996 -45.735  12.492  1.00  0.00     0.111 A 
HETATM   10  C   UNL     1     -40.005 -44.532  11.830  1.00  0.00     0.037 A 
HETATM   11  C   UNL     1     -39.899 -44.870  10.469  1.00  0.00     0.108 A 
HETATM   12  N   UNL     1     -39.822 -46.189  10.277  1.00  0.00    -0.310 N 
ATOM     13  HN  UNL     1     -39.722 -46.694   9.397  1.00  0.00     0.186 HD
ENDBRANCH   7   8
ENDBRANCH   5   7
ENDBRANCH   3   5
ENDBRANCH   2   3
ENDBRANCH   1   2
BRANCH   1  14
HETATM   14  O   UNL     1     -40.669 -53.238  11.431  1.00  0.00    -0.392 OA
HETATM   15  H   UNL     1     -39.880 -53.233  11.998  1.00  0.00     0.210 HD
ENDBRANCH   1  14
BRANCH   1  16
HETATM   16  C   UNL     1     -42.164 -52.985  13.355  1.00  0.00     0.163 C 
BRANCH  16  17
HETATM   17  N   UNL     1     -43.604 -53.081  13.442  1.00  0.00    -0.339 N 
HETATM   18  C   UNL     1     -44.372 -53.949  12.716  1.00  0.00     0.184 A 
HETATM   19  N   UNL     1     -45.630 -53.910  13.089  1.00  0.00    -0.350 N 
HETATM   20  C   UNL     1     -45.679 -52.960  14.080  1.00  0.00     0.060 A 
ATOM     21  HN  UNL     1     -46.404 -54.465  12.723  1.00  0.00     0.166 HD
HETATM   22  C   UNL     1     -46.773 -52.520  14.836  1.00  0.00     0.039 A 
HETATM   23  C   UNL     1     -44.422 -52.409  14.315  1.00  0.00     0.062 A 
HETATM   24  C   UNL     1     -46.592 -51.526  15.819  1.00  0.00    -0.054 A 
HETATM   25  C   UNL     1     -47.792 -51.103  16.623  1.00  0.00     0.049 C 
HETATM   26  C   UNL     1     -45.316 -50.964  16.024  1.00  0.00    -0.054 A 
HETATM   27  C   UNL     1     -45.059 -49.877  17.037  1.00  0.00     0.049 C 
HETATM   28  C   UNL     1     -44.209 -51.408  15.268  1.00  0.00     0.039 A 
ENDBRANCH  16  17
ENDBRANCH   1  16
TORSDOF 8
ENDMDL
MODEL 4
REMARK VINA RESULT:      -6.5      1.721      2.313
REMARK  8 active torsions:
REMARK  status: ('A' for Active; 'I' for Inactive)
REMARK    1  A    between atoms: C_2  and  C_3 
REMARK    2  A    between atoms: C_2  and  N_10 
REMARK    3  A    between atoms: C_3  and  N_4 
REMARK    4  A    between atoms: N_10  and  C_11 
REMARK    5  A    between atoms: C_11  and  C_12 
REMARK    6  A    between atoms: C_12  and  O_13 
REMARK    7  A    between atoms: C_12  and  C_14 
REMARK    8  A    between atoms: C_14  and  N_15 
ROOT
HETATM    1  C   UNL     1     -41.322 -49.182  11.889  1.00  0.00     0.164 C 
ENDROOT
BRANCH   1   2
HETATM    2  C   UNL     1     -40.882 -47.840  11.272  1.00  0.00     0.303 C 
BRANCH   2   3
HETATM    3  N   UNL     1     -41.615 -47.574  10.032  1.00  0.00     0.091 N 
HETATM    4  H   UNL     1     -40.940 -47.331   9.301  1.00  0.00     0.316 HD
BRANCH   3   5
HETATM    5  C   UNL     1     -42.627 -46.504  10.165  1.00  0.00     0.236 C 
HETATM    6  C   UNL     1     -41.886 -45.239  10.616  1.00  0.00     0.044 C 
BRANCH   5   7
HETATM    7  C   UNL     1     -43.388 -46.262   8.844  1.00  0.00     0.183 C 
BRANCH   7   8
HETATM    8  N   UNL     1     -44.689 -46.898   8.789  1.00  0.00    -0.302 N 
HETATM    9  C   UNL     1     -44.980 -48.107   8.226  1.00  0.00     0.111 A 
HETATM   10  C   UNL     1     -46.326 -48.298   8.423  1.00  0.00     0.037 A 
HETATM   11  C   UNL     1     -46.751 -47.159   9.130  1.00  0.00     0.108 A 
HETATM   12  N   UNL     1     -45.750 -46.308   9.371  1.00  0.00    -0.310 N 
ATOM     13  HN  UNL     1     -45.782 -45.423   9.875  1.00  0.00     0.186 HD
ENDBRANCH   7   8
ENDBRANCH   5   7
ENDBRANCH   3   5
ENDBRANCH   2   3
ENDBRANCH   1   2
BRANCH   1  14
HETATM   14  O   UNL     1     -42.669 -49.467  11.479  1.00  0.00    -0.392 OA
HETATM   15  H   UNL     1     -43.140 -49.895  12.214  1.00  0.00     0.210 HD
ENDBRANCH   1  14
BRANCH   1  16
HETATM   16  C   UNL     1     -40.359 -50.281  11.435  1.00  0.00     0.163 C 
BRANCH  16  17
HETATM   17  N   UNL     1     -40.112 -51.279  12.452  1.00  0.00    -0.339 N 
HETATM   18  C   UNL     1     -38.971 -51.360  13.201  1.00  0.00     0.184 A 
HETATM   19  N   UNL     1     -39.069 -52.278  14.135  1.00  0.00    -0.350 N 
HETATM   20  C   UNL     1     -40.316 -52.828  13.964  1.00  0.00     0.060 A 
ATOM     21  HN  UNL     1     -38.372 -52.529  14.836  1.00  0.00     0.166 HD
HETATM   22  C   UNL     1     -40.947 -53.845  14.692  1.00  0.00     0.039 A 
HETATM   23  C   UNL     1     -40.992 -52.230  12.903  1.00  0.00     0.062 A 
HETATM   24  C   UNL     1     -42.250 -54.253  14.342  1.00  0.00    -0.054 A 
HETATM   25  C   UNL     1     -42.896 -55.333  15.170  1.00  0.00     0.049 C 
HETATM   26  C   UNL     1     -42.906 -53.652  13.250  1.00  0.00    -0.054 A 
HETATM   27  C   UNL     1     -44.287 -54.062  12.804  1.00  0.00     0.049 C 
HETATM   28  C   UNL     1     -42.277 -52.623  12.516  1.00  0.00     0.039 A 
ENDBRANCH  16  17
ENDBRANCH   1  16
TORSDOF 8
ENDMDL
MODEL 5
REMARK VINA RESULT:      -6.5      2.257      3.882
REMARK  8 active torsions:
REMARK  status: ('A' for Active; 'I' for Inactive)
REMARK    1  A    between atoms: C_2  and  C_3 
REMARK    2  A    between atoms: C_2  and  N_10 
REMARK    3  A    between atoms: C_3  and  N_4 
REMARK    4  A    between atoms: N_10  and  C_11 
REMARK    5  A    between atoms: C_11  and  C_12 
REMARK    6  A    between atoms: C_12  and  O_13 
REMARK    7  A    between atoms: C_12  and  C_14 
REMARK    8  A    between atoms: C_14  and  N_15 
ROOT
HETATM    1  C   UNL     1     -42.039 -52.150  12.097  1.00  0.00     0.164 C 
ENDROOT
BRANCH   1   2
HETATM    2  C   UNL     1     -41.205 -50.971  12.638  1.00  0.00     0.303 C 
BRANCH   2   3
HETATM    3  N   UNL     1     -40.198 -50.556  11.659  1.00  0.00     0.091 N 
HETATM    4  H   UNL     1     -39.604 -51.361  11.441  1.00  0.00     0.316 HD
BRANCH   3   5
HETATM    5  C   UNL     1     -39.368 -49.421  12.116  1.00  0.00     0.236 C 
HETATM    6  C   UNL     1     -37.902 -49.831  11.925  1.00  0.00     0.044 C 
BRANCH   5   7
HETATM    7  C   UNL     1     -39.687 -48.123  11.342  1.00  0.00     0.183 C 
BRANCH   7   8
HETATM    8  N   UNL     1     -41.103 -47.895  11.135  1.00  0.00    -0.302 N 
HETATM    9  C   UNL     1     -41.984 -47.375  12.039  1.00  0.00     0.111 A 
HETATM   10  C   UNL     1     -43.199 -47.336  11.399  1.00  0.00     0.037 A 
HETATM   11  C   UNL     1     -42.941 -47.835  10.109  1.00  0.00     0.108 A 
HETATM   12  N   UNL     1     -41.658 -48.161   9.938  1.00  0.00    -0.310 N 
ATOM     13  HN  UNL     1     -41.206 -48.526   9.100  1.00  0.00     0.186 HD
ENDBRANCH   7   8
ENDBRANCH   5   7
ENDBRANCH   3   5
ENDBRANCH   2   3
ENDBRANCH   1   2
BRANCH   1  14
HETATM   14  O   UNL     1     -41.266 -52.860  11.118  1.00  0.00    -0.392 OA
HETATM   15  H   UNL     1     -41.781 -53.620  10.797  1.00  0.00     0.210 HD
ENDBRANCH   1  14
BRANCH   1  16
HETATM   16  C   UNL     1     -42.431 -53.061  13.263  1.00  0.00     0.163 C 
BRANCH  16  17
HETATM   17  N   UNL     1     -43.861 -53.148  13.461  1.00  0.00    -0.339 N 
HETATM   18  C   UNL     1     -44.681 -54.043  12.831  1.00  0.00     0.184 A 
HETATM   19  N   UNL     1     -45.908 -53.985  13.295  1.00  0.00    -0.350 N 
HETATM   20  C   UNL     1     -45.883 -52.994  14.246  1.00  0.00     0.060 A 
ATOM     21  HN  UNL     1     -46.707 -54.552  13.011  1.00  0.00     0.166 HD
HETATM   22  C   UNL     1     -46.917 -52.519  15.063  1.00  0.00     0.039 A 
HETATM   23  C   UNL     1     -44.612 -52.438  14.364  1.00  0.00     0.062 A 
HETATM   24  C   UNL     1     -46.663 -51.486  15.986  1.00  0.00    -0.054 A 
HETATM   25  C   UNL     1     -47.800 -51.026  16.860  1.00  0.00     0.049 C 
HETATM   26  C   UNL     1     -45.375 -50.920  16.072  1.00  0.00    -0.054 A 
HETATM   27  C   UNL     1     -45.044 -49.793  17.017  1.00  0.00     0.049 C 
HETATM   28  C   UNL     1     -44.328 -51.398  15.255  1.00  0.00     0.039 A 
ENDBRANCH  16  17
ENDBRANCH   1  16
TORSDOF 8
ENDMDL
MODEL 6
REMARK VINA RESULT:      -6.3      1.555      3.062
REMARK  8 active torsions:
REMARK  status: ('A' for Active; 'I' for Inactive)
REMARK    1  A    between atoms: C_2  and  C_3 
REMARK    2  A    between atoms: C_2  and  N_10 
REMARK    3  A    between atoms: C_3  and  N_4 
REMARK    4  A    between atoms: N_10  and  C_11 
REMARK    5  A    between atoms: C_11  and  C_12 
REMARK    6  A    between atoms: C_12  and  O_13 
REMARK    7  A    between atoms: C_12  and  C_14 
REMARK    8  A    between atoms: C_14  and  N_15 
ROOT
HETATM    1  C   UNL     1     -41.734 -49.156  11.310  1.00  0.00     0.164 C 
ENDROOT
BRANCH   1   2
HETATM    2  C   UNL     1     -42.858 -48.124  11.528  1.00  0.00     0.303 C 
BRANCH   2   3
HETATM    3  N   UNL     1     -43.708 -48.024  10.339  1.00  0.00     0.091 N 
HETATM    4  H   UNL     1     -43.863 -48.967   9.969  1.00  0.00     0.316 HD
BRANCH   3   5
HETATM    5  C   UNL     1     -43.145 -47.151   9.286  1.00  0.00     0.236 C 
HETATM    6  C   UNL     1     -43.555 -47.754   7.937  1.00  0.00     0.044 C 
BRANCH   5   7
HETATM    7  C   UNL     1     -43.641 -45.695   9.418  1.00  0.00     0.183 C 
BRANCH   7   8
HETATM    8  N   UNL     1     -42.794 -44.857  10.243  1.00  0.00    -0.302 N 
HETATM    9  C   UNL     1     -41.482 -45.076  10.547  1.00  0.00     0.111 A 
HETATM   10  C   UNL     1     -41.099 -44.021  11.340  1.00  0.00     0.037 A 
HETATM   11  C   UNL     1     -42.246 -43.212  11.438  1.00  0.00     0.108 A 
HETATM   12  N   UNL     1     -43.279 -43.710  10.755  1.00  0.00    -0.310 N 
ATOM     13  HN  UNL     1     -44.213 -43.316  10.647  1.00  0.00     0.186 HD
ENDBRANCH   7   8
ENDBRANCH   5   7
ENDBRANCH   3   5
ENDBRANCH   2   3
ENDBRANCH   1   2
BRANCH   1  14
HETATM   14  O   UNL     1     -40.539 -48.468  10.908  1.00  0.00    -0.392 OA
HETATM   15  H   UNL     1     -39.934 -49.104  10.489  1.00  0.00     0.210 HD
ENDBRANCH   1  14
BRANCH   1  16
HETATM   16  C   UNL     1     -41.515 -49.938  12.607  1.00  0.00     0.163 C 
BRANCH  16  17
HETATM   17  N   UNL     1     -41.967 -51.310  12.528  1.00  0.00    -0.339 N 
HETATM   18  C   UNL     1     -41.228 -52.345  12.028  1.00  0.00     0.184 A 
HETATM   19  N   UNL     1     -41.833 -53.498  12.197  1.00  0.00    -0.350 N 
HETATM   20  C   UNL     1     -43.023 -53.189  12.809  1.00  0.00     0.060 A 
ATOM     21  HN  UNL     1     -41.494 -54.423  11.932  1.00  0.00     0.166 HD
HETATM   22  C   UNL     1     -44.054 -54.040  13.229  1.00  0.00     0.039 A 
HETATM   23  C   UNL     1     -43.144 -51.818  13.018  1.00  0.00     0.062 A 
HETATM   24  C   UNL     1     -45.198 -53.502  13.850  1.00  0.00    -0.054 A 
HETATM   25  C   UNL     1     -46.269 -54.457  14.306  1.00  0.00     0.049 C 
HETATM   26  C   UNL     1     -45.312 -52.108  14.029  1.00  0.00    -0.054 A 
HETATM   27  C   UNL     1     -46.521 -51.465  14.659  1.00  0.00     0.049 C 
HETATM   28  C   UNL     1     -44.273 -51.247  13.613  1.00  0.00     0.039 A 
ENDBRANCH  16  17
ENDBRANCH   1  16
TORSDOF 8
ENDMDL
MODEL 7
REMARK VINA RESULT:      -6.2      1.689      2.565
REMARK  8 active torsions:
REMARK  status: ('A' for Active; 'I' for Inactive)
REMARK    1  A    between atoms: C_2  and  C_3 
REMARK    2  A    between atoms: C_2  and  N_10 
REMARK    3  A    between atoms: C_3  and  N_4 
REMARK    4  A    between atoms: N_10  and  C_11 
REMARK    5  A    between atoms: C_11  and  C_12 
REMARK    6  A    between atoms: C_12  and  O_13 
REMARK    7  A    between atoms: C_12  and  C_14 
REMARK    8  A    between atoms: C_14  and  N_15 
ROOT
HETATM    1  C   UNL     1     -41.072 -49.026  11.194  1.00  0.00     0.164 C 
ENDROOT
BRANCH   1   2
HETATM    2  C   UNL     1     -40.478 -47.604  11.181  1.00  0.00     0.303 C 
BRANCH   2   3
HETATM    3  N   UNL     1     -41.093 -46.794  10.127  1.00  0.00     0.091 N 
HETATM    4  H   UNL     1     -40.408 -46.104   9.805  1.00  0.00     0.316 HD
BRANCH   3   5
HETATM    5  C   UNL     1     -42.336 -46.116  10.556  1.00  0.00     0.236 C 
HETATM    6  C   UNL     1     -41.917 -44.889  11.375  1.00  0.00     0.044 C 
BRANCH   5   7
HETATM    7  C   UNL     1     -43.215 -45.708   9.354  1.00  0.00     0.183 C 
BRANCH   7   8
HETATM    8  N   UNL     1     -44.467 -46.433   9.268  1.00  0.00    -0.302 N 
HETATM    9  C   UNL     1     -44.685 -47.729   9.637  1.00  0.00     0.111 A 
HETATM   10  C   UNL     1     -46.013 -47.973   9.386  1.00  0.00     0.037 A 
HETATM   11  C   UNL     1     -46.513 -46.757   8.886  1.00  0.00     0.108 A 
HETATM   12  N   UNL     1     -45.576 -45.808   8.828  1.00  0.00    -0.310 N 
ATOM     13  HN  UNL     1     -45.676 -44.840   8.523  1.00  0.00     0.186 HD
ENDBRANCH   7   8
ENDBRANCH   5   7
ENDBRANCH   3   5
ENDBRANCH   2   3
ENDBRANCH   1   2
BRANCH   1  14
HETATM   14  O   UNL     1     -40.382 -49.831  10.225  1.00  0.00    -0.392 OA
HETATM   15  H   UNL     1     -39.788 -50.446  10.688  1.00  0.00     0.210 HD
ENDBRANCH   1  14
BRANCH   1  16
HETATM   16  C   UNL     1     -40.935 -49.613  12.601  1.00  0.00     0.163 C 
BRANCH  16  17
HETATM   17  N   UNL     1     -42.084 -50.392  13.007  1.00  0.00    -0.339 N 
HETATM   18  C   UNL     1     -43.384 -50.040  12.778  1.00  0.00     0.184 A 
HETATM   19  N   UNL     1     -44.214 -50.991  13.138  1.00  0.00    -0.350 N 
HETATM   20  C   UNL     1     -43.417 -51.988  13.643  1.00  0.00     0.060 A 
ATOM     21  HN  UNL     1     -45.232 -50.991  13.059  1.00  0.00     0.166 HD
HETATM   22  C   UNL     1     -43.776 -53.238  14.162  1.00  0.00     0.039 A 
HETATM   23  C   UNL     1     -42.070 -51.635  13.589  1.00  0.00     0.062 A 
HETATM   24  C   UNL     1     -42.779 -54.119  14.626  1.00  0.00    -0.054 A 
HETATM   25  C   UNL     1     -43.213 -55.462  15.152  1.00  0.00     0.049 C 
HETATM   26  C   UNL     1     -41.425 -53.732  14.584  1.00  0.00    -0.054 A 
HETATM   27  C   UNL     1     -40.311 -54.614  15.090  1.00  0.00     0.049 C 
HETATM   28  C   UNL     1     -41.056 -52.476  14.057  1.00  0.00     0.039 A 
ENDBRANCH  16  17
ENDBRANCH   1  16
TORSDOF 8
ENDMDL
MODEL 8
REMARK VINA RESULT:      -6.2      1.755      2.603
REMARK  8 active torsions:
REMARK  status: ('A' for Active; 'I' for Inactive)
REMARK    1  A    between atoms: C_2  and  C_3 
REMARK    2  A    between atoms: C_2  and  N_10 
REMARK    3  A    between atoms: C_3  and  N_4 
REMARK    4  A    between atoms: N_10  and  C_11 
REMARK    5  A    between atoms: C_11  and  C_12 
REMARK    6  A    between atoms: C_12  and  O_13 
REMARK    7  A    between atoms: C_12  and  C_14 
REMARK    8  A    between atoms: C_14  and  N_15 
ROOT
HETATM    1  C   UNL     1     -40.039 -50.747  12.373  1.00  0.00     0.164 C 
ENDROOT
BRANCH   1   2
HETATM    2  C   UNL     1     -39.874 -49.319  12.929  1.00  0.00     0.303 C 
BRANCH   2   3
HETATM    3  N   UNL     1     -41.175 -48.658  13.054  1.00  0.00     0.091 N 
HETATM    4  H   UNL     1     -41.907 -49.328  12.797  1.00  0.00     0.316 HD
BRANCH   3   5
HETATM    5  C   UNL     1     -41.294 -47.435  12.231  1.00  0.00     0.236 C 
HETATM    6  C   UNL     1     -40.200 -46.468  12.702  1.00  0.00     0.044 C 
BRANCH   5   7
HETATM    7  C   UNL     1     -41.155 -47.739  10.723  1.00  0.00     0.183 C 
BRANCH   7   8
HETATM    8  N   UNL     1     -42.287 -47.306   9.929  1.00  0.00    -0.302 N 
HETATM    9  C   UNL     1     -42.956 -46.122  10.043  1.00  0.00     0.111 A 
HETATM   10  C   UNL     1     -43.938 -46.152   9.082  1.00  0.00     0.037 A 
HETATM   11  C   UNL     1     -43.764 -47.385   8.429  1.00  0.00     0.108 A 
HETATM   12  N   UNL     1     -42.745 -48.087   8.932  1.00  0.00    -0.310 N 
ATOM     13  HN  UNL     1     -42.398 -48.997   8.632  1.00  0.00     0.186 HD
ENDBRANCH   7   8
ENDBRANCH   5   7
ENDBRANCH   3   5
ENDBRANCH   2   3
ENDBRANCH   1   2
BRANCH   1  14
HETATM   14  O   UNL     1     -38.748 -51.260  12.007  1.00  0.00    -0.392 OA
HETATM   15  H   UNL     1     -38.716 -51.378  11.042  1.00  0.00     0.210 HD
ENDBRANCH   1  14
BRANCH   1  16
HETATM   16  C   UNL     1     -40.704 -51.624  13.437  1.00  0.00     0.163 C 
BRANCH  16  17
HETATM   17  N   UNL     1     -42.077 -51.955  13.126  1.00  0.00    -0.339 N 
HETATM   18  C   UNL     1     -42.471 -52.730  12.071  1.00  0.00     0.184 A 
HETATM   19  N   UNL     1     -43.761 -52.972  12.104  1.00  0.00    -0.350 N 
HETATM   20  C   UNL     1     -44.221 -52.304  13.212  1.00  0.00     0.060 A 
ATOM     21  HN  UNL     1     -44.305 -53.534  11.448  1.00  0.00     0.166 HD
HETATM   22  C   UNL     1     -45.521 -52.227  13.729  1.00  0.00     0.039 A 
HETATM   23  C   UNL     1     -43.187 -51.641  13.869  1.00  0.00     0.062 A 
HETATM   24  C   UNL     1     -45.768 -51.481  14.898  1.00  0.00    -0.054 A 
HETATM   25  C   UNL     1     -47.177 -51.448  15.429  1.00  0.00     0.049 C 
HETATM   26  C   UNL     1     -44.712 -50.798  15.533  1.00  0.00    -0.054 A 
HETATM   27  C   UNL     1     -44.913 -49.958  16.769  1.00  0.00     0.049 C 
HETATM   28  C   UNL     1     -43.399 -50.876  15.020  1.00  0.00     0.039 A 
ENDBRANCH  16  17
ENDBRANCH   1  16
TORSDOF 8
ENDMDL
MODEL 9
REMARK VINA RESULT:      -6.1      2.678      4.283
REMARK  8 active torsions:
REMARK  status: ('A' for Active; 'I' for Inactive)
REMARK    1  A    between atoms: C_2  and  C_3 
REMARK    2  A    between atoms: C_2  and  N_10 
REMARK    3  A    between atoms: C_3  and  N_4 
REMARK    4  A    between atoms: N_10  and  C_11 
REMARK    5  A    between atoms: C_11  and  C_12 
REMARK    6  A    between atoms: C_12  and  O_13 
REMARK    7  A    between atoms: C_12  and  C_14 
REMARK    8  A    between atoms: C_14  and  N_15 
ROOT
HETATM    1  C   UNL     1     -40.979 -52.921  12.719  1.00  0.00     0.164 C 
ENDROOT
BRANCH   1   2
HETATM    2  C   UNL     1     -39.735 -52.537  13.544  1.00  0.00     0.303 C 
BRANCH   2   3
HETATM    3  N   UNL     1     -39.039 -51.401  12.934  1.00  0.00     0.091 N 
HETATM    4  H   UNL     1     -38.127 -51.295  13.389  1.00  0.00     0.316 HD
BRANCH   3   5
HETATM    5  C   UNL     1     -39.798 -50.134  13.016  1.00  0.00     0.236 C 
HETATM    6  C   UNL     1     -39.671 -49.627  14.458  1.00  0.00     0.044 C 
BRANCH   5   7
HETATM    7  C   UNL     1     -39.279 -49.085  12.009  1.00  0.00     0.183 C 
BRANCH   7   8
HETATM    8  N   UNL     1     -40.328 -48.345  11.337  1.00  0.00    -0.302 N 
HETATM    9  C   UNL     1     -40.505 -46.991  11.347  1.00  0.00     0.111 A 
HETATM   10  C   UNL     1     -41.612 -46.751  10.570  1.00  0.00     0.037 A 
HETATM   11  C   UNL     1     -42.017 -48.022  10.121  1.00  0.00     0.108 A 
HETATM   12  N   UNL     1     -41.226 -48.997  10.574  1.00  0.00    -0.310 N 
ATOM     13  HN  UNL     1     -41.287 -49.997  10.386  1.00  0.00     0.186 HD
ENDBRANCH   7   8
ENDBRANCH   5   7
ENDBRANCH   3   5
ENDBRANCH   2   3
ENDBRANCH   1   2
BRANCH   1  14
HETATM   14  O   UNL     1     -40.590 -53.132  11.353  1.00  0.00    -0.392 OA
HETATM   15  H   UNL     1     -40.010 -53.911  11.306  1.00  0.00     0.210 HD
ENDBRANCH   1  14
BRANCH   1  16
HETATM   16  C   UNL     1     -41.607 -54.181  13.319  1.00  0.00     0.163 C 
BRANCH  16  17
HETATM   17  N   UNL     1     -42.453 -53.909  14.460  1.00  0.00    -0.339 N 
HETATM   18  C   UNL     1     -42.116 -54.171  15.759  1.00  0.00     0.184 A 
HETATM   19  N   UNL     1     -43.015 -53.705  16.595  1.00  0.00    -0.350 N 
HETATM   20  C   UNL     1     -43.983 -53.141  15.801  1.00  0.00     0.060 A 
ATOM     21  HN  UNL     1     -42.998 -53.751  17.614  1.00  0.00     0.166 HD
HETATM   22  C   UNL     1     -45.167 -52.489  16.169  1.00  0.00     0.039 A 
HETATM   23  C   UNL     1     -43.666 -53.266  14.451  1.00  0.00     0.062 A 
HETATM   24  C   UNL     1     -46.022 -51.975  15.175  1.00  0.00    -0.054 A 
HETATM   25  C   UNL     1     -47.271 -51.261  15.620  1.00  0.00     0.049 C 
HETATM   26  C   UNL     1     -45.694 -52.134  13.813  1.00  0.00    -0.054 A 
HETATM   27  C   UNL     1     -46.579 -51.633  12.700  1.00  0.00     0.049 C 
HETATM   28  C   UNL     1     -44.500 -52.785  13.437  1.00  0.00     0.039 A 
ENDBRANCH  16  17
ENDBRANCH   1  16
TORSDOF 8
ENDMDL
