MODEL 1
REMARK VINA RESULT:      -5.3      0.000      0.000
REMARK  3 active torsions:
REMARK  status: ('A' for Active; 'I' for Inactive)
REMARK       I    between atoms: N_1  and  C_2 
REMARK    1  A    between atoms: C_2  and  C_4 
REMARK    2  A    between atoms: C_4  and  N_5 
REMARK    3  A    between atoms: N_12  and  C_13 
ROOT
HETATM    1  N   UNL     1     -43.899 -54.716  13.917  1.00  0.00    -0.256 N 
HETATM    2  C   UNL     1     -43.024 -55.029  14.944  1.00  0.00     0.274 C 
HETATM    3  O   UNL     1     -43.363 -55.618  15.970  1.00  0.00    -0.266 OA
HETATM    4  C   UNL     1     -41.632 -54.559  14.782  1.00  0.00     0.128 C 
HETATM    5  C   UNL     1     -40.632 -54.965  15.705  1.00  0.00     0.106 C 
HETATM    6  N   UNL     1     -39.772 -55.246  16.431  1.00  0.00    -0.191 NA
HETATM    7  C   UNL     1     -41.367 -53.685  13.809  1.00  0.00     0.124 C 
HETATM    8  N   UNL     1     -42.342 -53.226  12.951  1.00  0.00    -0.303 N 
HETATM    9  C   UNL     1     -43.634 -53.769  12.929  1.00  0.00     0.332 C 
HETATM   10  O   UNL     1     -44.492 -53.399  12.125  1.00  0.00    -0.246 OA
ENDROOT
BRANCH   1  11
HETATM   11  C   UNL     1     -45.251 -55.257  13.977  1.00  0.00     0.239 C 
BRANCH  11  12
HETATM   12  C   UNL     1     -46.178 -54.387  14.822  1.00  0.00     0.233 C 
HETATM   13  N   UNL     1     -46.930 -53.495  14.098  1.00  0.00    -0.369 N 
HETATM   14  H   UNL     1     -47.580 -52.902  14.599  1.00  0.00     0.159 HD
HETATM   15  H   UNL     1     -46.943 -53.470  13.087  1.00  0.00     0.159 HD
HETATM   16  O   UNL     1     -46.261 -54.427  16.045  1.00  0.00    -0.272 OA
ENDBRANCH  11  12
ENDBRANCH   1  11
BRANCH   8  17
HETATM   17  C   UNL     1     -42.019 -52.139  12.050  1.00  0.00     0.094 A 
HETATM   18  C   UNL     1     -40.790 -51.264  12.151  1.00  0.00     0.028 A 
HETATM   19  C   UNL     1     -42.120 -50.719  12.564  1.00  0.00     0.028 A 
ENDBRANCH   8  17
TORSDOF 3
ENDMDL
MODEL 2
REMARK VINA RESULT:      -5.2      2.771      4.712
REMARK  3 active torsions:
REMARK  status: ('A' for Active; 'I' for Inactive)
REMARK       I    between atoms: N_1  and  C_2 
REMARK    1  A    between atoms: C_2  and  C_4 
REMARK    2  A    between atoms: C_4  and  N_5 
REMARK    3  A    between atoms: N_12  and  C_13 
ROOT
HETATM    1  N   UNL     1     -41.956 -52.382  13.036  1.00  0.00    -0.256 N 
HETATM    2  C   UNL     1     -41.930 -53.671  13.542  1.00  0.00     0.274 C 
HETATM    3  O   UNL     1     -41.161 -54.543  13.141  1.00  0.00    -0.266 OA
HETATM    4  C   UNL     1     -42.937 -53.987  14.578  1.00  0.00     0.128 C 
HETATM    5  C   UNL     1     -42.886 -55.229  15.264  1.00  0.00     0.106 C 
HETATM    6  N   UNL     1     -42.912 -56.231  15.850  1.00  0.00    -0.191 NA
HETATM    7  C   UNL     1     -43.930 -53.119  14.782  1.00  0.00     0.124 C 
HETATM    8  N   UNL     1     -44.033 -51.944  14.073  1.00  0.00    -0.303 N 
HETATM    9  C   UNL     1     -43.017 -51.496  13.216  1.00  0.00     0.332 C 
HETATM   10  O   UNL     1     -43.081 -50.417  12.623  1.00  0.00    -0.246 OA
ENDROOT
BRANCH   1  11
HETATM   11  C   UNL     1     -40.911 -51.991  12.100  1.00  0.00     0.239 C 
BRANCH  11  12
HETATM   12  C   UNL     1     -39.709 -51.373  12.810  1.00  0.00     0.233 C 
HETATM   13  N   UNL     1     -39.841 -50.035  13.085  1.00  0.00    -0.369 N 
HETATM   14  H   UNL     1     -39.085 -49.571  13.573  1.00  0.00     0.159 HD
HETATM   15  H   UNL     1     -40.692 -49.515  12.918  1.00  0.00     0.159 HD
HETATM   16  O   UNL     1     -38.682 -51.975  13.107  1.00  0.00    -0.272 OA
ENDBRANCH  11  12
ENDBRANCH   1  11
BRANCH   8  17
HETATM   17  C   UNL     1     -45.236 -51.150  14.214  1.00  0.00     0.094 A 
HETATM   18  C   UNL     1     -46.525 -51.631  14.841  1.00  0.00     0.028 A 
HETATM   19  C   UNL     1     -46.435 -51.494  13.354  1.00  0.00     0.028 A 
ENDBRANCH   8  17
TORSDOF 3
ENDMDL
MODEL 3
REMARK VINA RESULT:      -5.2      4.108      6.658
REMARK  3 active torsions:
REMARK  status: ('A' for Active; 'I' for Inactive)
REMARK       I    between atoms: N_1  and  C_2 
REMARK    1  A    between atoms: C_2  and  C_4 
REMARK    2  A    between atoms: C_4  and  N_5 
REMARK    3  A    between atoms: N_12  and  C_13 
ROOT
HETATM    1  N   UNL     1     -39.585 -50.210  12.721  1.00  0.00    -0.256 N 
HETATM    2  C   UNL     1     -40.297 -51.398  12.699  1.00  0.00     0.274 C 
HETATM    3  O   UNL     1     -39.769 -52.507  12.763  1.00  0.00    -0.266 OA
HETATM    4  C   UNL     1     -41.761 -51.280  12.531  1.00  0.00     0.128 C 
HETATM    5  C   UNL     1     -42.587 -52.428  12.654  1.00  0.00     0.106 C 
HETATM    6  N   UNL     1     -43.315 -53.329  12.724  1.00  0.00    -0.191 NA
HETATM    7  C   UNL     1     -42.265 -50.095  12.179  1.00  0.00     0.124 C 
HETATM    8  N   UNL     1     -41.468 -48.988  11.986  1.00  0.00    -0.303 N 
HETATM    9  C   UNL     1     -40.104 -48.983  12.310  1.00  0.00     0.332 C 
HETATM   10  O   UNL     1     -39.401 -47.978  12.191  1.00  0.00    -0.246 OA
ENDROOT
BRANCH   1  11
HETATM   11  C   UNL     1     -38.157 -50.270  13.001  1.00  0.00     0.239 C 
BRANCH  11  12
HETATM   12  C   UNL     1     -37.361 -50.788  11.805  1.00  0.00     0.233 C 
HETATM   13  N   UNL     1     -37.452 -50.002  10.683  1.00  0.00    -0.369 N 
HETATM   14  H   UNL     1     -36.931 -50.282   9.861  1.00  0.00     0.159 HD
HETATM   15  H   UNL     1     -37.928 -49.110  10.666  1.00  0.00     0.159 HD
HETATM   16  O   UNL     1     -36.703 -51.823  11.793  1.00  0.00    -0.272 OA
ENDBRANCH  11  12
ENDBRANCH   1  11
BRANCH   8  17
HETATM   17  C   UNL     1     -42.063 -47.795  11.421  1.00  0.00     0.094 A 
HETATM   18  C   UNL     1     -43.495 -47.677  10.951  1.00  0.00     0.028 A 
HETATM   19  C   UNL     1     -42.395 -47.781   9.944  1.00  0.00     0.028 A 
ENDBRANCH   8  17
TORSDOF 3
ENDMDL
MODEL 4
REMARK VINA RESULT:      -5.2      2.780      5.558
REMARK  3 active torsions:
REMARK  status: ('A' for Active; 'I' for Inactive)
REMARK       I    between atoms: N_1  and  C_2 
REMARK    1  A    between atoms: C_2  and  C_4 
REMARK    2  A    between atoms: C_4  and  N_5 
REMARK    3  A    between atoms: N_12  and  C_13 
ROOT
HETATM    1  N   UNL     1     -41.409 -51.052  12.861  1.00  0.00    -0.256 N 
HETATM    2  C   UNL     1     -42.663 -51.641  12.867  1.00  0.00     0.274 C 
HETATM    3  O   UNL     1     -43.713 -51.002  12.828  1.00  0.00    -0.266 OA
HETATM    4  C   UNL     1     -42.692 -53.114  12.987  1.00  0.00     0.128 C 
HETATM    5  C   UNL     1     -43.918 -53.815  12.845  1.00  0.00     0.106 C 
HETATM    6  N   UNL     1     -44.888 -54.447  12.757  1.00  0.00    -0.191 NA
HETATM    7  C   UNL     1     -41.562 -53.746  13.314  1.00  0.00     0.124 C 
HETATM    8  N   UNL     1     -40.381 -53.072  13.525  1.00  0.00    -0.303 N 
HETATM    9  C   UNL     1     -40.239 -51.705  13.246  1.00  0.00     0.332 C 
HETATM   10  O   UNL     1     -39.168 -51.111  13.381  1.00  0.00    -0.246 OA
ENDROOT
BRANCH   1  11
HETATM   11  C   UNL     1     -41.325 -49.616  12.629  1.00  0.00     0.239 C 
BRANCH  11  12
HETATM   12  C   UNL     1     -41.216 -49.282  11.143  1.00  0.00     0.233 C 
HETATM   13  N   UNL     1     -40.272 -50.016  10.468  1.00  0.00    -0.369 N 
HETATM   14  H   UNL     1     -40.163 -49.855   9.474  1.00  0.00     0.159 HD
HETATM   15  H   UNL     1     -39.753 -50.776  10.887  1.00  0.00     0.159 HD
HETATM   16  O   UNL     1     -41.874 -48.425  10.564  1.00  0.00    -0.272 OA
ENDBRANCH  11  12
ENDBRANCH   1  11
BRANCH   8  17
HETATM   17  C   UNL     1     -39.251 -53.802  14.062  1.00  0.00     0.094 A 
HETATM   18  C   UNL     1     -39.347 -55.057  14.899  1.00  0.00     0.028 A 
HETATM   19  C   UNL     1     -39.005 -53.758  15.556  1.00  0.00     0.028 A 
ENDBRANCH   8  17
TORSDOF 3
ENDMDL
MODEL 5
REMARK VINA RESULT:      -5.1      2.500      4.194
REMARK  3 active torsions:
REMARK  status: ('A' for Active; 'I' for Inactive)
REMARK       I    between atoms: N_1  and  C_2 
REMARK    1  A    between atoms: C_2  and  C_4 
REMARK    2  A    between atoms: C_4  and  N_5 
REMARK    3  A    between atoms: N_12  and  C_13 
ROOT
HETATM    1  N   UNL     1     -42.569 -53.755  13.919  1.00  0.00    -0.256 N 
HETATM    2  C   UNL     1     -42.289 -53.942  15.262  1.00  0.00     0.274 C 
HETATM    3  O   UNL     1     -41.319 -54.578  15.672  1.00  0.00    -0.266 OA
HETATM    4  C   UNL     1     -43.267 -53.380  16.218  1.00  0.00     0.128 C 
HETATM    5  C   UNL     1     -42.986 -53.386  17.610  1.00  0.00     0.106 C 
HETATM    6  N   UNL     1     -42.826 -53.375  18.759  1.00  0.00    -0.191 NA
HETATM    7  C   UNL     1     -44.441 -52.954  15.747  1.00  0.00     0.124 C 
HETATM    8  N   UNL     1     -44.756 -53.009  14.408  1.00  0.00    -0.303 N 
HETATM    9  C   UNL     1     -43.811 -53.352  13.430  1.00  0.00     0.332 C 
HETATM   10  O   UNL     1     -44.075 -53.348  12.227  1.00  0.00    -0.246 OA
ENDROOT
BRANCH   1  11
HETATM   11  C   UNL     1     -41.578 -54.188  12.944  1.00  0.00     0.239 C 
BRANCH  11  12
HETATM   12  C   UNL     1     -40.758 -53.020  12.403  1.00  0.00     0.233 C 
HETATM   13  N   UNL     1     -41.172 -52.559  11.177  1.00  0.00    -0.369 N 
HETATM   14  H   UNL     1     -40.681 -51.772  10.773  1.00  0.00     0.159 HD
HETATM   15  H   UNL     1     -42.002 -52.896  10.708  1.00  0.00     0.159 HD
HETATM   16  O   UNL     1     -39.790 -52.519  12.965  1.00  0.00    -0.272 OA
ENDBRANCH  11  12
ENDBRANCH   1  11
BRANCH   8  17
HETATM   17  C   UNL     1     -46.113 -52.709  14.001  1.00  0.00     0.094 A 
HETATM   18  C   UNL     1     -46.510 -51.607  13.045  1.00  0.00     0.028 A 
HETATM   19  C   UNL     1     -46.758 -51.437  14.510  1.00  0.00     0.028 A 
ENDBRANCH   8  17
TORSDOF 3
ENDMDL
MODEL 6
REMARK VINA RESULT:      -5.0      3.089      5.293
REMARK  3 active torsions:
REMARK  status: ('A' for Active; 'I' for Inactive)
REMARK       I    between atoms: N_1  and  C_2 
REMARK    1  A    between atoms: C_2  and  C_4 
REMARK    2  A    between atoms: C_4  and  N_5 
REMARK    3  A    between atoms: N_12  and  C_13 
ROOT
HETATM    1  N   UNL     1     -40.346 -51.233  13.511  1.00  0.00    -0.256 N 
HETATM    2  C   UNL     1     -39.485 -52.290  13.754  1.00  0.00     0.274 C 
HETATM    3  O   UNL     1     -38.282 -52.258  13.501  1.00  0.00    -0.266 OA
HETATM    4  C   UNL     1     -40.099 -53.522  14.293  1.00  0.00     0.128 C 
HETATM    5  C   UNL     1     -39.277 -54.599  14.720  1.00  0.00     0.106 C 
HETATM    6  N   UNL     1     -38.665 -55.520  15.069  1.00  0.00    -0.191 NA
HETATM    7  C   UNL     1     -41.430 -53.623  14.285  1.00  0.00     0.124 C 
HETATM    8  N   UNL     1     -42.238 -52.616  13.808  1.00  0.00    -0.303 N 
HETATM    9  C   UNL     1     -41.734 -51.354  13.459  1.00  0.00     0.332 C 
HETATM   10  O   UNL     1     -42.462 -50.433  13.085  1.00  0.00    -0.246 OA
ENDROOT
BRANCH   1  11
HETATM   11  C   UNL     1     -39.772 -49.962  13.090  1.00  0.00     0.239 C 
BRANCH  11  12
HETATM   12  C   UNL     1     -39.323 -49.992  11.631  1.00  0.00     0.233 C 
HETATM   13  N   UNL     1     -40.353 -50.054  10.725  1.00  0.00    -0.369 N 
HETATM   14  H   UNL     1     -40.121 -50.058   9.739  1.00  0.00     0.159 HD
HETATM   15  H   UNL     1     -41.328 -49.995  10.986  1.00  0.00     0.159 HD
HETATM   16  O   UNL     1     -38.156 -49.987  11.253  1.00  0.00    -0.272 OA
ENDBRANCH  11  12
ENDBRANCH   1  11
BRANCH   8  17
HETATM   17  C   UNL     1     -43.654 -52.875  13.653  1.00  0.00     0.094 A 
HETATM   18  C   UNL     1     -44.304 -54.236  13.758  1.00  0.00     0.028 A 
HETATM   19  C   UNL     1     -44.126 -53.606  12.414  1.00  0.00     0.028 A 
ENDBRANCH   8  17
TORSDOF 3
ENDMDL
MODEL 7
REMARK VINA RESULT:      -4.9      2.141      2.939
REMARK  3 active torsions:
REMARK  status: ('A' for Active; 'I' for Inactive)
REMARK       I    between atoms: N_1  and  C_2 
REMARK    1  A    between atoms: C_2  and  C_4 
REMARK    2  A    between atoms: C_4  and  N_5 
REMARK    3  A    between atoms: N_12  and  C_13 
ROOT
HETATM    1  N   UNL     1     -41.861 -52.990  14.107  1.00  0.00    -0.256 N 
HETATM    2  C   UNL     1     -41.253 -53.971  14.873  1.00  0.00     0.274 C 
HETATM    3  O   UNL     1     -41.856 -54.672  15.684  1.00  0.00    -0.266 OA
HETATM    4  C   UNL     1     -39.789 -54.108  14.717  1.00  0.00     0.128 C 
HETATM    5  C   UNL     1     -39.104 -55.184  15.340  1.00  0.00     0.106 C 
HETATM    6  N   UNL     1     -38.483 -56.029  15.836  1.00  0.00    -0.191 NA
HETATM    7  C   UNL     1     -39.130 -53.154  14.055  1.00  0.00     0.124 C 
HETATM    8  N   UNL     1     -39.772 -52.067  13.506  1.00  0.00    -0.303 N 
HETATM    9  C   UNL     1     -41.170 -51.971  13.454  1.00  0.00     0.332 C 
HETATM   10  O   UNL     1     -41.747 -51.026  12.914  1.00  0.00    -0.246 OA
ENDROOT
BRANCH   1  11
HETATM   11  C   UNL     1     -43.314 -52.896  14.140  1.00  0.00     0.239 C 
BRANCH  11  12
HETATM   12  C   UNL     1     -43.964 -53.666  12.993  1.00  0.00     0.233 C 
HETATM   13  N   UNL     1     -43.639 -53.200  11.744  1.00  0.00    -0.369 N 
HETATM   14  H   UNL     1     -44.023 -53.681  10.940  1.00  0.00     0.159 HD
HETATM   15  H   UNL     1     -42.958 -52.469  11.583  1.00  0.00     0.159 HD
HETATM   16  O   UNL     1     -44.736 -54.610  13.128  1.00  0.00    -0.272 OA
ENDBRANCH  11  12
ENDBRANCH   1  11
BRANCH   8  17
HETATM   17  C   UNL     1     -38.971 -50.984  12.974  1.00  0.00     0.094 A 
HETATM   18  C   UNL     1     -37.460 -50.961  12.930  1.00  0.00     0.028 A 
HETATM   19  C   UNL     1     -38.181 -50.125  13.939  1.00  0.00     0.028 A 
ENDBRANCH   8  17
TORSDOF 3
ENDMDL
MODEL 8
REMARK VINA RESULT:      -4.9      2.355      5.142
REMARK  3 active torsions:
REMARK  status: ('A' for Active; 'I' for Inactive)
REMARK       I    between atoms: N_1  and  C_2 
REMARK    1  A    between atoms: C_2  and  C_4 
REMARK    2  A    between atoms: C_4  and  N_5 
REMARK    3  A    between atoms: N_12  and  C_13 
ROOT
HETATM    1  N   UNL     1     -40.968 -54.824  15.966  1.00  0.00    -0.256 N 
HETATM    2  C   UNL     1     -40.361 -53.832  15.213  1.00  0.00     0.274 C 
HETATM    3  O   UNL     1     -39.366 -53.211  15.583  1.00  0.00    -0.266 OA
HETATM    4  C   UNL     1     -41.014 -53.495  13.931  1.00  0.00     0.128 C 
HETATM    5  C   UNL     1     -40.381 -52.606  13.022  1.00  0.00     0.106 C 
HETATM    6  N   UNL     1     -39.927 -51.874  12.245  1.00  0.00    -0.191 NA
HETATM    7  C   UNL     1     -42.236 -53.976  13.695  1.00  0.00     0.124 C 
HETATM    8  N   UNL     1     -42.893 -54.782  14.598  1.00  0.00    -0.303 N 
HETATM    9  C   UNL     1     -42.262 -55.291  15.742  1.00  0.00     0.332 C 
HETATM   10  O   UNL     1     -42.829 -56.057  16.523  1.00  0.00    -0.246 OA
ENDROOT
BRANCH   1  11
HETATM   11  C   UNL     1     -40.298 -55.271  17.180  1.00  0.00     0.239 C 
BRANCH  11  12
HETATM   12  C   UNL     1     -39.323 -56.414  16.909  1.00  0.00     0.233 C 
HETATM   13  N   UNL     1     -38.043 -56.007  16.624  1.00  0.00    -0.369 N 
HETATM   14  H   UNL     1     -37.343 -56.720  16.453  1.00  0.00     0.159 HD
HETATM   15  H   UNL     1     -37.740 -55.044  16.677  1.00  0.00     0.159 HD
HETATM   16  O   UNL     1     -39.617 -57.604  16.909  1.00  0.00    -0.272 OA
ENDBRANCH  11  12
ENDBRANCH   1  11
BRANCH   8  17
HETATM   17  C   UNL     1     -44.284 -55.104  14.359  1.00  0.00     0.094 A 
HETATM   18  C   UNL     1     -45.204 -54.344  13.431  1.00  0.00     0.028 A 
HETATM   19  C   UNL     1     -45.347 -54.178  14.911  1.00  0.00     0.028 A 
ENDBRANCH   8  17
TORSDOF 3
ENDMDL
MODEL 9
REMARK VINA RESULT:      -4.8      1.847      2.284
REMARK  3 active torsions:
REMARK  status: ('A' for Active; 'I' for Inactive)
REMARK       I    between atoms: N_1  and  C_2 
REMARK    1  A    between atoms: C_2  and  C_4 
REMARK    2  A    between atoms: C_4  and  N_5 
REMARK    3  A    between atoms: N_12  and  C_13 
ROOT
HETATM    1  N   UNL     1     -43.443 -53.850  13.281  1.00  0.00    -0.256 N 
HETATM    2  C   UNL     1     -43.583 -54.607  14.432  1.00  0.00     0.274 C 
HETATM    3  O   UNL     1     -44.668 -54.989  14.867  1.00  0.00    -0.266 OA
HETATM    4  C   UNL     1     -42.340 -54.898  15.177  1.00  0.00     0.128 C 
HETATM    5  C   UNL     1     -42.364 -55.794  16.279  1.00  0.00     0.106 C 
HETATM    6  N   UNL     1     -42.317 -56.502  17.197  1.00  0.00    -0.191 NA
HETATM    7  C   UNL     1     -41.230 -54.236  14.843  1.00  0.00     0.124 C 
HETATM    8  N   UNL     1     -41.209 -53.311  13.824  1.00  0.00    -0.303 N 
HETATM    9  C   UNL     1     -42.297 -53.125  12.959  1.00  0.00     0.332 C 
HETATM   10  O   UNL     1     -42.260 -52.338  12.012  1.00  0.00    -0.246 OA
ENDROOT
BRANCH   1  11
HETATM   11  C   UNL     1     -44.622 -53.636  12.452  1.00  0.00     0.239 C 
BRANCH  11  12
HETATM   12  C   UNL     1     -45.551 -52.578  13.041  1.00  0.00     0.233 C 
HETATM   13  N   UNL     1     -46.720 -53.079  13.560  1.00  0.00    -0.369 N 
HETATM   14  H   UNL     1     -47.371 -52.429  13.983  1.00  0.00     0.159 HD
HETATM   15  H   UNL     1     -46.917 -54.068  13.633  1.00  0.00     0.159 HD
HETATM   16  O   UNL     1     -45.329 -51.372  13.050  1.00  0.00    -0.272 OA
ENDBRANCH  11  12
ENDBRANCH   1  11
BRANCH   8  17
HETATM   17  C   UNL     1     -40.023 -52.498  13.648  1.00  0.00     0.094 A 
HETATM   18  C   UNL     1     -38.937 -52.312  14.683  1.00  0.00     0.028 A 
HETATM   19  C   UNL     1     -39.910 -51.205  14.429  1.00  0.00     0.028 A 
ENDBRANCH   8  17
TORSDOF 3
ENDMDL
