MODEL 1
REMARK VINA RESULT:      -6.4      0.000      0.000
REMARK  4 active torsions:
REMARK  status: ('A' for Active; 'I' for Inactive)
REMARK    1  A    between atoms: C_2  and  C_5 
REMARK    2  A    between atoms: N_10  and  C_11 
REMARK    3  A    between atoms: C_11  and  C_12 
REMARK       I    between atoms: C_12  and  N_14 
REMARK    4  A    between atoms: N_14  and  C_15 
ROOT
HETATM    1  C   UNL     1     -45.232 -47.497   9.450  1.00  0.00     0.063 A 
HETATM    2  C   UNL     1     -44.759 -46.311   8.759  1.00  0.00     0.023 A 
HETATM    3  C   UNL     1     -43.631 -45.693   9.135  1.00  0.00     0.075 A 
HETATM    4  C   UNL     1     -42.832 -46.218  10.275  1.00  0.00     0.247 A 
HETATM    5  O   UNL     1     -41.764 -45.689  10.570  1.00  0.00    -0.268 OA
HETATM    6  N   UNL     1     -43.376 -47.312  10.939  1.00  0.00    -0.315 N 
HETATM    7  C   UNL     1     -44.534 -47.943  10.510  1.00  0.00     0.110 A 
ENDROOT
BRANCH   6   8
HETATM    8  C   UNL     1     -42.643 -47.856  12.079  1.00  0.00     0.234 C 
BRANCH   8   9
HETATM    9  C   UNL     1     -41.984 -49.186  11.725  1.00  0.00     0.236 C 
HETATM   10  O   UNL     1     -41.088 -49.265  10.887  1.00  0.00    -0.272 OA
HETATM   11  N   UNL     1     -42.449 -50.273  12.442  1.00  0.00    -0.355 N 
HETATM   12  H   UNL     1     -42.928 -50.079  13.320  1.00  0.00     0.162 HD
BRANCH  11  13
HETATM   13  C   UNL     1     -41.955 -51.611  12.192  1.00  0.00     0.084 C 
HETATM   14  C   UNL     1     -42.988 -52.693  12.521  1.00  0.00     0.025 C 
HETATM   15  C   UNL     1     -42.194 -53.894  13.041  1.00  0.00     0.002 C 
HETATM   16  C   UNL     1     -40.723 -53.503  12.941  1.00  0.00     0.002 C 
HETATM   17  C   UNL     1     -40.737 -51.984  13.032  1.00  0.00     0.025 C 
ENDBRANCH  11  13
ENDBRANCH   8   9
ENDBRANCH   6   8
BRANCH   1  18
HETATM   18  C   UNL     1     -46.468 -48.203   8.961  1.00  0.00     0.418 C 
HETATM   19  F   UNL     1     -46.353 -48.643   7.681  1.00  0.00    -0.166 F 
HETATM   20  F   UNL     1     -47.554 -47.391   8.999  1.00  0.00    -0.166 F 
HETATM   21  F   UNL     1     -46.760 -49.289   9.721  1.00  0.00    -0.166 F 
ENDBRANCH   1  18
TORSDOF 4
ENDMDL
MODEL 2
REMARK VINA RESULT:      -6.2      6.156      7.104
REMARK  4 active torsions:
REMARK  status: ('A' for Active; 'I' for Inactive)
REMARK    1  A    between atoms: C_2  and  C_5 
REMARK    2  A    between atoms: N_10  and  C_11 
REMARK    3  A    between atoms: C_11  and  C_12 
REMARK       I    between atoms: C_12  and  N_14 
REMARK    4  A    between atoms: N_14  and  C_15 
ROOT
HETATM    1  C   UNL     1     -46.700 -52.080  15.661  1.00  0.00     0.063 A 
HETATM    2  C   UNL     1     -46.840 -51.204  14.512  1.00  0.00     0.023 A 
HETATM    3  C   UNL     1     -46.420 -51.582  13.297  1.00  0.00     0.075 A 
HETATM    4  C   UNL     1     -45.801 -52.919  13.100  1.00  0.00     0.247 A 
HETATM    5  O   UNL     1     -45.482 -53.287  11.972  1.00  0.00    -0.268 OA
HETATM    6  N   UNL     1     -45.630 -53.681  14.251  1.00  0.00    -0.315 N 
HETATM    7  C   UNL     1     -46.097 -53.270  15.491  1.00  0.00     0.110 A 
ENDROOT
BRANCH   6   8
HETATM    8  C   UNL     1     -45.009 -54.996  14.118  1.00  0.00     0.234 C 
BRANCH   8   9
HETATM    9  C   UNL     1     -43.623 -55.015  14.757  1.00  0.00     0.236 C 
HETATM   10  O   UNL     1     -43.391 -55.646  15.787  1.00  0.00    -0.272 OA
HETATM   11  N   UNL     1     -42.657 -54.303  14.070  1.00  0.00    -0.355 N 
HETATM   12  H   UNL     1     -42.840 -54.102  13.089  1.00  0.00     0.162 HD
BRANCH  11  13
HETATM   13  C   UNL     1     -41.303 -54.190  14.570  1.00  0.00     0.084 C 
HETATM   14  C   UNL     1     -41.060 -52.878  15.322  1.00  0.00     0.025 C 
HETATM   15  C   UNL     1     -39.607 -52.489  15.038  1.00  0.00     0.002 C 
HETATM   16  C   UNL     1     -39.029 -53.613  14.185  1.00  0.00     0.002 C 
HETATM   17  C   UNL     1     -40.240 -54.201  13.477  1.00  0.00     0.025 C 
ENDBRANCH  11  13
ENDBRANCH   8   9
ENDBRANCH   6   8
BRANCH   1  18
HETATM   18  C   UNL     1     -47.241 -51.651  16.998  1.00  0.00     0.418 C 
HETATM   19  F   UNL     1     -48.551 -51.296  16.948  1.00  0.00    -0.166 F 
HETATM   20  F   UNL     1     -46.565 -50.581  17.490  1.00  0.00    -0.166 F 
HETATM   21  F   UNL     1     -47.140 -52.639  17.923  1.00  0.00    -0.166 F 
ENDBRANCH   1  18
TORSDOF 4
ENDMDL
MODEL 3
REMARK VINA RESULT:      -6.0      1.696      2.405
REMARK  4 active torsions:
REMARK  status: ('A' for Active; 'I' for Inactive)
REMARK    1  A    between atoms: C_2  and  C_5 
REMARK    2  A    between atoms: N_10  and  C_11 
REMARK    3  A    between atoms: C_11  and  C_12 
REMARK       I    between atoms: C_12  and  N_14 
REMARK    4  A    between atoms: N_14  and  C_15 
ROOT
HETATM    1  C   UNL     1     -43.365 -46.902   9.799  1.00  0.00     0.063 A 
HETATM    2  C   UNL     1     -42.728 -45.631  10.091  1.00  0.00     0.023 A 
HETATM    3  C   UNL     1     -41.513 -45.578  10.655  1.00  0.00     0.075 A 
HETATM    4  C   UNL     1     -40.787 -46.831  10.992  1.00  0.00     0.247 A 
HETATM    5  O   UNL     1     -39.646 -46.776  11.444  1.00  0.00    -0.268 OA
HETATM    6  N   UNL     1     -41.480 -48.013  10.754  1.00  0.00    -0.315 N 
HETATM    7  C   UNL     1     -42.728 -48.035  10.148  1.00  0.00     0.110 A 
ENDROOT
BRANCH   6   8
HETATM    8  C   UNL     1     -40.822 -49.274  11.085  1.00  0.00     0.234 C 
BRANCH   8   9
HETATM    9  C   UNL     1     -41.552 -49.995  12.215  1.00  0.00     0.236 C 
HETATM   10  O   UNL     1     -41.784 -49.449  13.292  1.00  0.00    -0.272 OA
HETATM   11  N   UNL     1     -41.958 -51.282  11.914  1.00  0.00    -0.355 N 
HETATM   12  H   UNL     1     -42.027 -51.528  10.928  1.00  0.00     0.162 HD
BRANCH  11  13
HETATM   13  C   UNL     1     -42.625 -52.112  12.895  1.00  0.00     0.084 C 
HETATM   14  C   UNL     1     -41.673 -53.095  13.583  1.00  0.00     0.025 C 
HETATM   15  C   UNL     1     -42.494 -54.356  13.863  1.00  0.00     0.002 C 
HETATM   16  C   UNL     1     -43.911 -54.051  13.389  1.00  0.00     0.002 C 
HETATM   17  C   UNL     1     -43.721 -52.996  12.309  1.00  0.00     0.025 C 
ENDBRANCH  11  13
ENDBRANCH   8   9
ENDBRANCH   6   8
BRANCH   1  18
HETATM   18  C   UNL     1     -44.701 -46.926   9.107  1.00  0.00     0.418 C 
HETATM   19  F   UNL     1     -45.703 -47.369   9.910  1.00  0.00    -0.166 F 
HETATM   20  F   UNL     1     -44.685 -47.738   8.019  1.00  0.00    -0.166 F 
HETATM   21  F   UNL     1     -45.065 -45.693   8.674  1.00  0.00    -0.166 F 
ENDBRANCH   1  18
TORSDOF 4
ENDMDL
MODEL 4
REMARK VINA RESULT:      -6.0      2.889      6.250
REMARK  4 active torsions:
REMARK  status: ('A' for Active; 'I' for Inactive)
REMARK    1  A    between atoms: C_2  and  C_5 
REMARK    2  A    between atoms: N_10  and  C_11 
REMARK    3  A    between atoms: C_11  and  C_12 
REMARK       I    between atoms: C_12  and  N_14 
REMARK    4  A    between atoms: N_14  and  C_15 
ROOT
HETATM    1  C   UNL     1     -45.119 -51.967  13.736  1.00  0.00     0.063 A 
HETATM    2  C   UNL     1     -44.836 -53.195  13.016  1.00  0.00     0.023 A 
HETATM    3  C   UNL     1     -43.683 -53.359  12.352  1.00  0.00     0.075 A 
HETATM    4  C   UNL     1     -42.662 -52.279  12.343  1.00  0.00     0.247 A 
HETATM    5  O   UNL     1     -41.579 -52.463  11.791  1.00  0.00    -0.268 OA
HETATM    6  N   UNL     1     -43.022 -51.102  12.991  1.00  0.00    -0.315 N 
HETATM    7  C   UNL     1     -44.214 -50.972  13.689  1.00  0.00     0.110 A 
ENDROOT
BRANCH   6   8
HETATM    8  C   UNL     1     -42.064 -50.000  12.996  1.00  0.00     0.234 C 
BRANCH   8   9
HETATM    9  C   UNL     1     -42.734 -48.688  12.598  1.00  0.00     0.236 C 
HETATM   10  O   UNL     1     -42.985 -47.810  13.422  1.00  0.00    -0.272 OA
HETATM   11  N   UNL     1     -42.997 -48.557  11.247  1.00  0.00    -0.355 N 
HETATM   12  H   UNL     1     -42.472 -49.155  10.612  1.00  0.00     0.162 HD
BRANCH  11  13
HETATM   13  C   UNL     1     -43.668 -47.388  10.718  1.00  0.00     0.084 C 
HETATM   14  C   UNL     1     -44.952 -47.737   9.959  1.00  0.00     0.025 C 
HETATM   15  C   UNL     1     -45.065 -46.717   8.823  1.00  0.00     0.002 C 
HETATM   16  C   UNL     1     -43.883 -45.767   8.991  1.00  0.00     0.002 C 
HETATM   17  C   UNL     1     -42.835 -46.603   9.710  1.00  0.00     0.025 C 
ENDBRANCH  11  13
ENDBRANCH   8   9
ENDBRANCH   6   8
BRANCH   1  18
HETATM   18  C   UNL     1     -46.394 -51.840  14.525  1.00  0.00     0.418 C 
HETATM   19  F   UNL     1     -47.275 -50.971  13.966  1.00  0.00    -0.166 F 
HETATM   20  F   UNL     1     -46.158 -51.401  15.788  1.00  0.00    -0.166 F 
HETATM   21  F   UNL     1     -47.037 -53.030  14.636  1.00  0.00    -0.166 F 
ENDBRANCH   1  18
TORSDOF 4
ENDMDL
MODEL 5
REMARK VINA RESULT:      -5.9      4.577      6.425
REMARK  4 active torsions:
REMARK  status: ('A' for Active; 'I' for Inactive)
REMARK    1  A    between atoms: C_2  and  C_5 
REMARK    2  A    between atoms: N_10  and  C_11 
REMARK    3  A    between atoms: C_11  and  C_12 
REMARK       I    between atoms: C_12  and  N_14 
REMARK    4  A    between atoms: N_14  and  C_15 
ROOT
HETATM    1  C   UNL     1     -45.469 -52.719  13.382  1.00  0.00     0.063 A 
HETATM    2  C   UNL     1     -46.104 -53.660  14.288  1.00  0.00     0.023 A 
HETATM    3  C   UNL     1     -45.411 -54.666  14.839  1.00  0.00     0.075 A 
HETATM    4  C   UNL     1     -43.966 -54.838  14.534  1.00  0.00     0.247 A 
HETATM    5  O   UNL     1     -43.321 -55.719  15.095  1.00  0.00    -0.268 OA
HETATM    6  N   UNL     1     -43.436 -53.949  13.604  1.00  0.00    -0.315 N 
HETATM    7  C   UNL     1     -44.174 -52.903  13.070  1.00  0.00     0.110 A 
ENDROOT
BRANCH   6   8
HETATM    8  C   UNL     1     -42.025 -54.085  13.252  1.00  0.00     0.234 C 
BRANCH   8   9
HETATM    9  C   UNL     1     -41.229 -52.858  13.690  1.00  0.00     0.236 C 
HETATM   10  O   UNL     1     -41.191 -52.492  14.863  1.00  0.00    -0.272 OA
HETATM   11  N   UNL     1     -40.535 -52.224  12.676  1.00  0.00    -0.355 N 
HETATM   12  H   UNL     1     -40.351 -52.765  11.832  1.00  0.00     0.162 HD
BRANCH  11  13
HETATM   13  C   UNL     1     -39.768 -51.022  12.922  1.00  0.00     0.084 C 
HETATM   14  C   UNL     1     -39.694 -50.107  11.696  1.00  0.00     0.025 C 
HETATM   15  C   UNL     1     -38.316 -49.443  11.744  1.00  0.00     0.002 C 
HETATM   16  C   UNL     1     -37.654 -49.938  13.025  1.00  0.00     0.002 C 
HETATM   17  C   UNL     1     -38.310 -51.286  13.284  1.00  0.00     0.025 C 
ENDBRANCH  11  13
ENDBRANCH   8   9
ENDBRANCH   6   8
BRANCH   1  18
HETATM   18  C   UNL     1     -46.260 -51.563  12.832  1.00  0.00     0.418 C 
HETATM   19  F   UNL     1     -46.963 -51.888  11.716  1.00  0.00    -0.166 F 
HETATM   20  F   UNL     1     -45.455 -50.523  12.497  1.00  0.00    -0.166 F 
HETATM   21  F   UNL     1     -47.157 -51.092  13.734  1.00  0.00    -0.166 F 
ENDBRANCH   1  18
TORSDOF 4
ENDMDL
MODEL 6
REMARK VINA RESULT:      -5.8      2.989      6.489
REMARK  4 active torsions:
REMARK  status: ('A' for Active; 'I' for Inactive)
REMARK    1  A    between atoms: C_2  and  C_5 
REMARK    2  A    between atoms: N_10  and  C_11 
REMARK    3  A    between atoms: C_11  and  C_12 
REMARK       I    between atoms: C_12  and  N_14 
REMARK    4  A    between atoms: N_14  and  C_15 
ROOT
HETATM    1  C   UNL     1     -45.018 -52.953  13.568  1.00  0.00     0.063 A 
HETATM    2  C   UNL     1     -44.705 -54.147  14.334  1.00  0.00     0.023 A 
HETATM    3  C   UNL     1     -43.459 -54.638  14.372  1.00  0.00     0.075 A 
HETATM    4  C   UNL     1     -42.362 -53.963  13.629  1.00  0.00     0.247 A 
HETATM    5  O   UNL     1     -41.210 -54.377  13.725  1.00  0.00    -0.268 OA
HETATM    6  N   UNL     1     -42.741 -52.868  12.858  1.00  0.00    -0.315 N 
HETATM    7  C   UNL     1     -44.036 -52.370  12.858  1.00  0.00     0.110 A 
ENDROOT
BRANCH   6   8
HETATM    8  C   UNL     1     -41.707 -52.179  12.091  1.00  0.00     0.234 C 
BRANCH   8   9
HETATM    9  C   UNL     1     -41.640 -50.700  12.464  1.00  0.00     0.236 C 
HETATM   10  O   UNL     1     -41.268 -50.326  13.575  1.00  0.00    -0.272 OA
HETATM   11  N   UNL     1     -41.993 -49.829  11.450  1.00  0.00    -0.355 N 
HETATM   12  H   UNL     1     -41.961 -50.189  10.498  1.00  0.00     0.162 HD
BRANCH  11  13
HETATM   13  C   UNL     1     -42.022 -48.398  11.659  1.00  0.00     0.084 C 
HETATM   14  C   UNL     1     -43.190 -47.718  10.938  1.00  0.00     0.025 C 
HETATM   15  C   UNL     1     -42.680 -46.340  10.509  1.00  0.00     0.002 C 
HETATM   16  C   UNL     1     -41.257 -46.231  11.045  1.00  0.00     0.002 C 
HETATM   17  C   UNL     1     -40.784 -47.674  11.138  1.00  0.00     0.025 C 
ENDBRANCH  11  13
ENDBRANCH   8   9
ENDBRANCH   6   8
BRANCH   1  18
HETATM   18  C   UNL     1     -46.414 -52.392  13.598  1.00  0.00     0.418 C 
HETATM   19  F   UNL     1     -46.473 -51.156  14.159  1.00  0.00    -0.166 F 
HETATM   20  F   UNL     1     -47.256 -53.185  14.309  1.00  0.00    -0.166 F 
HETATM   21  F   UNL     1     -46.938 -52.279  12.351  1.00  0.00    -0.166 F 
ENDBRANCH   1  18
TORSDOF 4
ENDMDL
MODEL 7
REMARK VINA RESULT:      -5.5      5.225      7.171
REMARK  4 active torsions:
REMARK  status: ('A' for Active; 'I' for Inactive)
REMARK    1  A    between atoms: C_2  and  C_5 
REMARK    2  A    between atoms: N_10  and  C_11 
REMARK    3  A    between atoms: C_11  and  C_12 
REMARK       I    between atoms: C_12  and  N_14 
REMARK    4  A    between atoms: N_14  and  C_15 
ROOT
HETATM    1  C   UNL     1     -38.867 -50.703  12.671  1.00  0.00     0.063 A 
HETATM    2  C   UNL     1     -38.336 -51.588  13.693  1.00  0.00     0.023 A 
HETATM    3  C   UNL     1     -39.066 -52.599  14.181  1.00  0.00     0.075 A 
HETATM    4  C   UNL     1     -40.445 -52.841  13.679  1.00  0.00     0.247 A 
HETATM    5  O   UNL     1     -41.083 -53.811  14.080  1.00  0.00    -0.268 OA
HETATM    6  N   UNL     1     -40.921 -51.916  12.754  1.00  0.00    -0.315 N 
HETATM    7  C   UNL     1     -40.131 -50.893  12.251  1.00  0.00     0.110 A 
ENDROOT
BRANCH   6   8
HETATM    8  C   UNL     1     -42.277 -52.094  12.242  1.00  0.00     0.234 C 
BRANCH   8   9
HETATM    9  C   UNL     1     -43.293 -51.362  13.115  1.00  0.00     0.236 C 
HETATM   10  O   UNL     1     -43.480 -50.151  13.020  1.00  0.00    -0.272 OA
HETATM   11  N   UNL     1     -44.002 -52.172  13.983  1.00  0.00    -0.355 N 
HETATM   12  H   UNL     1     -44.031 -53.168  13.769  1.00  0.00     0.162 HD
BRANCH  11  13
HETATM   13  C   UNL     1     -44.972 -51.624  14.907  1.00  0.00     0.084 C 
HETATM   14  C   UNL     1     -45.147 -52.487  16.160  1.00  0.00     0.025 C 
HETATM   15  C   UNL     1     -46.619 -52.358  16.562  1.00  0.00     0.002 C 
HETATM   16  C   UNL     1     -47.241 -51.378  15.574  1.00  0.00     0.002 C 
HETATM   17  C   UNL     1     -46.378 -51.509  14.328  1.00  0.00     0.025 C 
ENDBRANCH  11  13
ENDBRANCH   8   9
ENDBRANCH   6   8
BRANCH   1  18
HETATM   18  C   UNL     1     -37.997 -49.617  12.098  1.00  0.00     0.418 C 
HETATM   19  F   UNL     1     -37.053 -50.092  11.245  1.00  0.00    -0.166 F 
HETATM   20  F   UNL     1     -37.338 -48.940  13.073  1.00  0.00    -0.166 F 
HETATM   21  F   UNL     1     -38.723 -48.704  11.406  1.00  0.00    -0.166 F 
ENDBRANCH   1  18
TORSDOF 4
ENDMDL
MODEL 8
REMARK VINA RESULT:      -5.4      4.299      5.874
REMARK  4 active torsions:
REMARK  status: ('A' for Active; 'I' for Inactive)
REMARK    1  A    between atoms: C_2  and  C_5 
REMARK    2  A    between atoms: N_10  and  C_11 
REMARK    3  A    between atoms: C_11  and  C_12 
REMARK       I    between atoms: C_12  and  N_14 
REMARK    4  A    between atoms: N_14  and  C_15 
ROOT
HETATM    1  C   UNL     1     -40.122 -48.876  12.167  1.00  0.00     0.063 A 
HETATM    2  C   UNL     1     -39.064 -49.001  13.154  1.00  0.00     0.023 A 
HETATM    3  C   UNL     1     -38.693 -50.200  13.624  1.00  0.00     0.075 A 
HETATM    4  C   UNL     1     -39.358 -51.436  13.136  1.00  0.00     0.247 A 
HETATM    5  O   UNL     1     -38.966 -52.536  13.517  1.00  0.00    -0.268 OA
HETATM    6  N   UNL     1     -40.410 -51.244  12.245  1.00  0.00    -0.315 N 
HETATM    7  C   UNL     1     -40.755 -49.991  11.761  1.00  0.00     0.110 A 
ENDROOT
BRANCH   6   8
HETATM    8  C   UNL     1     -41.113 -52.424  11.749  1.00  0.00     0.234 C 
BRANCH   8   9
HETATM    9  C   UNL     1     -42.253 -52.818  12.683  1.00  0.00     0.236 C 
HETATM   10  O   UNL     1     -42.204 -53.830  13.379  1.00  0.00    -0.272 OA
HETATM   11  N   UNL     1     -43.316 -51.933  12.706  1.00  0.00    -0.355 N 
HETATM   12  H   UNL     1     -43.138 -50.987  12.374  1.00  0.00     0.162 HD
BRANCH  11  13
HETATM   13  C   UNL     1     -44.493 -52.187  13.510  1.00  0.00     0.084 C 
HETATM   14  C   UNL     1     -45.711 -52.576  12.666  1.00  0.00     0.025 C 
HETATM   15  C   UNL     1     -46.930 -51.998  13.388  1.00  0.00     0.002 C 
HETATM   16  C   UNL     1     -46.397 -51.346  14.660  1.00  0.00     0.002 C 
HETATM   17  C   UNL     1     -44.962 -50.979  14.314  1.00  0.00     0.025 C 
ENDBRANCH  11  13
ENDBRANCH   8   9
ENDBRANCH   6   8
BRANCH   1  18
HETATM   18  C   UNL     1     -40.471 -47.521  11.613  1.00  0.00     0.418 C 
HETATM   19  F   UNL     1     -40.860 -46.643  12.574  1.00  0.00    -0.166 F 
HETATM   20  F   UNL     1     -41.487 -47.595  10.717  1.00  0.00    -0.166 F 
HETATM   21  F   UNL     1     -39.419 -46.954  10.971  1.00  0.00    -0.166 F 
ENDBRANCH   1  18
TORSDOF 4
ENDMDL
MODEL 9
REMARK VINA RESULT:      -5.4      6.114      7.176
REMARK  4 active torsions:
REMARK  status: ('A' for Active; 'I' for Inactive)
REMARK    1  A    between atoms: C_2  and  C_5 
REMARK    2  A    between atoms: N_10  and  C_11 
REMARK    3  A    between atoms: C_11  and  C_12 
REMARK       I    between atoms: C_12  and  N_14 
REMARK    4  A    between atoms: N_14  and  C_15 
ROOT
HETATM    1  C   UNL     1     -46.524 -51.916  15.565  1.00  0.00     0.063 A 
HETATM    2  C   UNL     1     -46.836 -51.337  14.270  1.00  0.00     0.023 A 
HETATM    3  C   UNL     1     -46.296 -51.825  13.145  1.00  0.00     0.075 A 
HETATM    4  C   UNL     1     -45.362 -52.980  13.200  1.00  0.00     0.247 A 
HETATM    5  O   UNL     1     -44.925 -53.466  12.159  1.00  0.00    -0.268 OA
HETATM    6  N   UNL     1     -45.048 -53.443  14.474  1.00  0.00    -0.315 N 
HETATM    7  C   UNL     1     -45.642 -52.931  15.618  1.00  0.00     0.110 A 
ENDROOT
BRANCH   6   8
HETATM    8  C   UNL     1     -44.119 -54.564  14.588  1.00  0.00     0.234 C 
BRANCH   8   9
HETATM    9  C   UNL     1     -42.759 -54.100  15.103  1.00  0.00     0.236 C 
HETATM   10  O   UNL     1     -42.388 -52.932  15.000  1.00  0.00    -0.272 OA
HETATM   11  N   UNL     1     -42.007 -55.083  15.720  1.00  0.00    -0.355 N 
HETATM   12  H   UNL     1     -42.505 -55.906  16.056  1.00  0.00     0.162 HD
BRANCH  11  13
HETATM   13  C   UNL     1     -40.678 -54.811  16.225  1.00  0.00     0.084 C 
HETATM   14  C   UNL     1     -39.596 -54.967  15.151  1.00  0.00     0.025 C 
HETATM   15  C   UNL     1     -38.355 -55.499  15.873  1.00  0.00     0.002 C 
HETATM   16  C   UNL     1     -38.728 -55.578  17.349  1.00  0.00     0.002 C 
HETATM   17  C   UNL     1     -40.239 -55.752  17.342  1.00  0.00     0.025 C 
ENDBRANCH  11  13
ENDBRANCH   8   9
ENDBRANCH   6   8
BRANCH   1  18
HETATM   18  C   UNL     1     -47.197 -51.387  16.802  1.00  0.00     0.418 C 
HETATM   19  F   UNL     1     -47.277 -52.309  17.795  1.00  0.00    -0.166 F 
HETATM   20  F   UNL     1     -48.466 -50.980  16.544  1.00  0.00    -0.166 F 
HETATM   21  F   UNL     1     -46.538 -50.318  17.315  1.00  0.00    -0.166 F 
ENDBRANCH   1  18
TORSDOF 4
ENDMDL
