MODEL 1
REMARK VINA RESULT:      -6.2      0.000      0.000
REMARK  5 active torsions:
REMARK  status: ('A' for Active; 'I' for Inactive)
REMARK    1  A    between atoms: C_2  and  C_3 
REMARK    2  A    between atoms: C_3  and  C_4 
REMARK    3  A    between atoms: C_3  and  N_15 
REMARK    4  A    between atoms: C_4  and  N_5 
REMARK       I    between atoms: N_5  and  C_6 
REMARK       I    between atoms: C_6  and  N_8 
REMARK    5  A    between atoms: N_8  and  C_9 
ROOT
HETATM    1  N   UNL     1     -41.067 -48.948  10.313  1.00  0.00    -0.341 N 
HETATM    2  C   UNL     1     -42.264 -48.261  10.397  1.00  0.00     0.320 C 
HETATM    3  O   UNL     1     -42.776 -47.978  11.475  1.00  0.00    -0.247 OA
HETATM    4  N   UNL     1     -42.808 -47.985   9.164  1.00  0.00    -0.306 N 
HETATM    5  H   UNL     1     -40.428 -48.638   9.591  1.00  0.00     0.164 HD
HETATM    6  H   UNL     1     -42.467 -48.506   8.370  1.00  0.00     0.171 HD
ENDROOT
BRANCH   1   7
HETATM    7  C   UNL     1     -40.434 -49.314  11.572  1.00  0.00     0.160 C 
BRANCH   7   8
HETATM    8  C   UNL     1     -39.181 -48.475  11.934  1.00  0.00     0.240 C 
BRANCH   8   9
HETATM    9  C   UNL     1     -37.989 -49.415  12.271  1.00  0.00     0.033 C 
HETATM   10  C   UNL     1     -37.289 -50.002  11.051  1.00  0.00     0.007 C 
ENDBRANCH   8   9
BRANCH   8  11
HETATM   11  N   UNL     1     -39.489 -47.484  12.996  1.00  0.00     0.094 N 
HETATM   12  C   UNL     1     -39.782 -46.134  12.497  1.00  0.00     0.273 C 
HETATM   13  C   UNL     1     -39.253 -45.164  13.547  1.00  0.00     0.032 C 
HETATM   14  C   UNL     1     -38.833 -46.037  14.712  1.00  0.00     0.032 C 
HETATM   15  C   UNL     1     -38.483 -47.358  14.055  1.00  0.00     0.273 C 
ENDBRANCH   8  11
ENDBRANCH   7   8
ENDBRANCH   1   7
BRANCH   4  16
HETATM   16  C   UNL     1     -43.979 -47.259   9.012  1.00  0.00     0.070 A 
HETATM   17  C   UNL     1     -45.318 -47.690   8.854  1.00  0.00     0.138 A 
HETATM   18  N   UNL     1     -46.176 -46.672   8.733  1.00  0.00    -0.310 N 
HETATM   19  N   UNL     1     -45.386 -45.590   8.798  1.00  0.00    -0.310 N 
ATOM     20  HN  UNL     1     -47.189 -46.709   8.619  1.00  0.00     0.186 HD
HETATM   21  C   UNL     1     -44.064 -45.887   8.988  1.00  0.00     0.138 A 
HETATM   22  H   UNL     1     -45.821 -44.678   8.704  1.00  0.00     0.186 HD
ENDBRANCH   4  16
TORSDOF 5
ENDMDL
MODEL 2
REMARK VINA RESULT:      -5.9      4.329      5.396
REMARK  5 active torsions:
REMARK  status: ('A' for Active; 'I' for Inactive)
REMARK    1  A    between atoms: C_2  and  C_3 
REMARK    2  A    between atoms: C_3  and  C_4 
REMARK    3  A    between atoms: C_3  and  N_15 
REMARK    4  A    between atoms: C_4  and  N_5 
REMARK       I    between atoms: N_5  and  C_6 
REMARK       I    between atoms: C_6  and  N_8 
REMARK    5  A    between atoms: N_8  and  C_9 
ROOT
HETATM    1  N   UNL     1     -41.410 -52.026  11.514  1.00  0.00    -0.341 N 
HETATM    2  C   UNL     1     -42.430 -52.279  12.412  1.00  0.00     0.320 C 
HETATM    3  O   UNL     1     -42.411 -51.842  13.557  1.00  0.00    -0.247 OA
HETATM    4  N   UNL     1     -43.411 -53.092  11.890  1.00  0.00    -0.306 N 
HETATM    5  H   UNL     1     -41.695 -51.842  10.560  1.00  0.00     0.164 HD
HETATM    6  H   UNL     1     -43.191 -53.624  11.062  1.00  0.00     0.171 HD
ENDROOT
BRANCH   1   7
HETATM    7  C   UNL     1     -40.308 -51.202  11.992  1.00  0.00     0.160 C 
BRANCH   7   8
HETATM    8  C   UNL     1     -40.205 -49.809  11.319  1.00  0.00     0.240 C 
BRANCH   8   9
HETATM    9  C   UNL     1     -38.958 -49.050  11.855  1.00  0.00     0.033 C 
HETATM   10  C   UNL     1     -37.626 -49.697  11.493  1.00  0.00     0.007 C 
ENDBRANCH   8   9
BRANCH   8  11
HETATM   11  N   UNL     1     -41.476 -49.053  11.453  1.00  0.00     0.094 N 
HETATM   12  C   UNL     1     -41.747 -48.125  10.348  1.00  0.00     0.273 C 
HETATM   13  C   UNL     1     -42.482 -46.936  10.957  1.00  0.00     0.032 C 
HETATM   14  C   UNL     1     -42.763 -47.340  12.390  1.00  0.00     0.032 C 
HETATM   15  C   UNL     1     -41.645 -48.314  12.707  1.00  0.00     0.273 C 
ENDBRANCH   8  11
ENDBRANCH   7   8
ENDBRANCH   1   7
BRANCH   4  16
HETATM   16  C   UNL     1     -44.552 -53.432  12.599  1.00  0.00     0.070 A 
HETATM   17  C   UNL     1     -44.823 -54.542  13.434  1.00  0.00     0.138 A 
HETATM   18  N   UNL     1     -46.060 -54.515  13.941  1.00  0.00    -0.310 N 
HETATM   19  N   UNL     1     -46.586 -53.396  13.420  1.00  0.00    -0.310 N 
ATOM     20  HN  UNL     1     -46.498 -55.184  14.574  1.00  0.00     0.186 HD
HETATM   21  C   UNL     1     -45.716 -52.699  12.628  1.00  0.00     0.138 A 
HETATM   22  H   UNL     1     -47.548 -53.172  13.651  1.00  0.00     0.186 HD
ENDBRANCH   4  16
TORSDOF 5
ENDMDL
MODEL 3
REMARK VINA RESULT:      -5.8      2.439      3.978
REMARK  5 active torsions:
REMARK  status: ('A' for Active; 'I' for Inactive)
REMARK    1  A    between atoms: C_2  and  C_3 
REMARK    2  A    between atoms: C_3  and  C_4 
REMARK    3  A    between atoms: C_3  and  N_15 
REMARK    4  A    between atoms: C_4  and  N_5 
REMARK       I    between atoms: N_5  and  C_6 
REMARK       I    between atoms: C_6  and  N_8 
REMARK    5  A    between atoms: N_8  and  C_9 
ROOT
HETATM    1  N   UNL     1     -40.789 -49.358  10.431  1.00  0.00    -0.341 N 
HETATM    2  C   UNL     1     -41.705 -48.325  10.515  1.00  0.00     0.320 C 
HETATM    3  O   UNL     1     -41.800 -47.622  11.515  1.00  0.00    -0.247 OA
HETATM    4  N   UNL     1     -42.495 -48.221   9.394  1.00  0.00    -0.306 N 
HETATM    5  H   UNL     1     -40.329 -49.469   9.535  1.00  0.00     0.164 HD
HETATM    6  H   UNL     1     -42.535 -49.012   8.768  1.00  0.00     0.171 HD
ENDROOT
BRANCH   1   7
HETATM    7  C   UNL     1     -39.931 -49.567  11.588  1.00  0.00     0.160 C 
BRANCH   7   8
HETATM    8  C   UNL     1     -40.584 -50.374  12.740  1.00  0.00     0.240 C 
BRANCH   8   9
HETATM    9  C   UNL     1     -40.352 -49.649  14.096  1.00  0.00     0.033 C 
HETATM   10  C   UNL     1     -39.420 -48.446  14.014  1.00  0.00     0.007 C 
ENDBRANCH   8   9
BRANCH   8  11
HETATM   11  N   UNL     1     -40.134 -51.789  12.726  1.00  0.00     0.094 N 
HETATM   12  C   UNL     1     -41.097 -52.724  12.131  1.00  0.00     0.273 C 
HETATM   13  C   UNL     1     -40.947 -54.037  12.891  1.00  0.00     0.032 C 
HETATM   14  C   UNL     1     -39.743 -53.835  13.789  1.00  0.00     0.032 C 
HETATM   15  C   UNL     1     -39.725 -52.337  14.022  1.00  0.00     0.273 C 
ENDBRANCH   8  11
ENDBRANCH   7   8
ENDBRANCH   1   7
BRANCH   4  16
HETATM   16  C   UNL     1     -43.445 -47.223   9.243  1.00  0.00     0.070 A 
HETATM   17  C   UNL     1     -43.327 -45.815   9.331  1.00  0.00     0.138 A 
HETATM   18  N   UNL     1     -44.489 -45.187   9.125  1.00  0.00    -0.310 N 
HETATM   19  N   UNL     1     -45.354 -46.191   8.920  1.00  0.00    -0.310 N 
ATOM     20  HN  UNL     1     -44.673 -44.183   9.123  1.00  0.00     0.186 HD
HETATM   21  C   UNL     1     -44.775 -47.430   8.958  1.00  0.00     0.138 A 
HETATM   22  H   UNL     1     -46.328 -45.954   8.761  1.00  0.00     0.186 HD
ENDBRANCH   4  16
TORSDOF 5
ENDMDL
MODEL 4
REMARK VINA RESULT:      -5.3      4.783      5.782
REMARK  5 active torsions:
REMARK  status: ('A' for Active; 'I' for Inactive)
REMARK    1  A    between atoms: C_2  and  C_3 
REMARK    2  A    between atoms: C_3  and  C_4 
REMARK    3  A    between atoms: C_3  and  N_15 
REMARK    4  A    between atoms: C_4  and  N_5 
REMARK       I    between atoms: N_5  and  C_6 
REMARK       I    between atoms: C_6  and  N_8 
REMARK    5  A    between atoms: N_8  and  C_9 
ROOT
HETATM    1  N   UNL     1     -41.977 -52.280  11.598  1.00  0.00    -0.341 N 
HETATM    2  C   UNL     1     -42.869 -52.613  12.601  1.00  0.00     0.320 C 
HETATM    3  O   UNL     1     -42.615 -52.425  13.785  1.00  0.00    -0.247 OA
HETATM    4  N   UNL     1     -44.016 -53.201  12.119  1.00  0.00    -0.306 N 
HETATM    5  H   UNL     1     -42.381 -51.877  10.762  1.00  0.00     0.164 HD
HETATM    6  H   UNL     1     -44.000 -53.570  11.180  1.00  0.00     0.171 HD
ENDROOT
BRANCH   1   7
HETATM    7  C   UNL     1     -40.716 -51.683  12.018  1.00  0.00     0.160 C 
BRANCH   7   8
HETATM    8  C   UNL     1     -40.791 -50.165  12.325  1.00  0.00     0.240 C 
BRANCH   8   9
HETATM    9  C   UNL     1     -40.519 -49.346  11.032  1.00  0.00     0.033 C 
HETATM   10  C   UNL     1     -41.625 -48.362  10.668  1.00  0.00     0.007 C 
ENDBRANCH   8   9
BRANCH   8  11
HETATM   11  N   UNL     1     -39.911 -49.806  13.466  1.00  0.00     0.094 N 
HETATM   12  C   UNL     1     -38.954 -48.730  13.176  1.00  0.00     0.273 C 
HETATM   13  C   UNL     1     -37.699 -49.042  13.984  1.00  0.00     0.032 C 
HETATM   14  C   UNL     1     -38.079 -50.218  14.861  1.00  0.00     0.032 C 
HETATM   15  C   UNL     1     -39.163 -50.916  14.064  1.00  0.00     0.273 C 
ENDBRANCH   8  11
ENDBRANCH   7   8
ENDBRANCH   1   7
BRANCH   4  16
HETATM   16  C   UNL     1     -45.068 -53.567  12.944  1.00  0.00     0.070 A 
HETATM   17  C   UNL     1     -46.183 -52.826  13.403  1.00  0.00     0.138 A 
HETATM   18  N   UNL     1     -46.985 -53.541  14.199  1.00  0.00    -0.310 N 
HETATM   19  N   UNL     1     -46.377 -54.734  14.263  1.00  0.00    -0.310 N 
ATOM     20  HN  UNL     1     -47.852 -53.248  14.649  1.00  0.00     0.186 HD
HETATM   21  C   UNL     1     -45.237 -54.810  13.511  1.00  0.00     0.138 A 
HETATM   22  H   UNL     1     -46.800 -55.452  14.842  1.00  0.00     0.186 HD
ENDBRANCH   4  16
TORSDOF 5
ENDMDL
MODEL 5
REMARK VINA RESULT:      -5.1      4.457      5.966
REMARK  5 active torsions:
REMARK  status: ('A' for Active; 'I' for Inactive)
REMARK    1  A    between atoms: C_2  and  C_3 
REMARK    2  A    between atoms: C_3  and  C_4 
REMARK    3  A    between atoms: C_3  and  N_15 
REMARK    4  A    between atoms: C_4  and  N_5 
REMARK       I    between atoms: N_5  and  C_6 
REMARK       I    between atoms: C_6  and  N_8 
REMARK    5  A    between atoms: N_8  and  C_9 
ROOT
HETATM    1  N   UNL     1     -41.946 -50.777  12.904  1.00  0.00    -0.341 N 
HETATM    2  C   UNL     1     -42.159 -49.483  12.465  1.00  0.00     0.320 C 
HETATM    3  O   UNL     1     -42.638 -48.621  13.193  1.00  0.00    -0.247 OA
HETATM    4  N   UNL     1     -41.819 -49.306  11.144  1.00  0.00    -0.306 N 
HETATM    5  H   UNL     1     -41.088 -51.216  12.590  1.00  0.00     0.164 HD
HETATM    6  H   UNL     1     -41.715 -50.128  10.568  1.00  0.00     0.171 HD
ENDROOT
BRANCH   1   7
HETATM    7  C   UNL     1     -42.311 -51.068  14.284  1.00  0.00     0.160 C 
BRANCH   7   8
HETATM    8  C   UNL     1     -43.175 -52.342  14.469  1.00  0.00     0.240 C 
BRANCH   8   9
HETATM    9  C   UNL     1     -43.040 -53.263  13.224  1.00  0.00     0.033 C 
HETATM   10  C   UNL     1     -41.920 -54.292  13.323  1.00  0.00     0.007 C 
ENDBRANCH   8   9
BRANCH   8  11
HETATM   11  N   UNL     1     -44.576 -51.993  14.816  1.00  0.00     0.094 N 
HETATM   12  C   UNL     1     -45.393 -53.133  15.251  1.00  0.00     0.273 C 
HETATM   13  C   UNL     1     -46.811 -52.857  14.763  1.00  0.00     0.032 C 
HETATM   14  C   UNL     1     -46.769 -51.445  14.214  1.00  0.00     0.032 C 
HETATM   15  C   UNL     1     -45.326 -51.279  13.778  1.00  0.00     0.273 C 
ENDBRANCH   8  11
ENDBRANCH   7   8
ENDBRANCH   1   7
BRANCH   4  16
HETATM   16  C   UNL     1     -41.902 -48.075  10.512  1.00  0.00     0.070 A 
HETATM   17  C   UNL     1     -41.116 -46.907  10.659  1.00  0.00     0.138 A 
HETATM   18  N   UNL     1     -41.521 -45.911   9.864  1.00  0.00    -0.310 N 
HETATM   19  N   UNL     1     -42.574 -46.434   9.221  1.00  0.00    -0.310 N 
ATOM     20  HN  UNL     1     -41.122 -44.976   9.770  1.00  0.00     0.186 HD
HETATM   21  C   UNL     1     -42.831 -47.735   9.556  1.00  0.00     0.138 A 
HETATM   22  H   UNL     1     -43.072 -45.841   8.564  1.00  0.00     0.186 HD
ENDBRANCH   4  16
TORSDOF 5
ENDMDL
MODEL 6
REMARK VINA RESULT:      -4.8      4.735      5.859
REMARK  5 active torsions:
REMARK  status: ('A' for Active; 'I' for Inactive)
REMARK    1  A    between atoms: C_2  and  C_3 
REMARK    2  A    between atoms: C_3  and  C_4 
REMARK    3  A    between atoms: C_3  and  N_15 
REMARK    4  A    between atoms: C_4  and  N_5 
REMARK       I    between atoms: N_5  and  C_6 
REMARK       I    between atoms: C_6  and  N_8 
REMARK    5  A    between atoms: N_8  and  C_9 
ROOT
HETATM    1  N   UNL     1     -43.665 -49.937  12.490  1.00  0.00    -0.341 N 
HETATM    2  C   UNL     1     -43.891 -51.155  13.105  1.00  0.00     0.320 C 
HETATM    3  O   UNL     1     -43.047 -51.691  13.814  1.00  0.00    -0.247 OA
HETATM    4  N   UNL     1     -45.120 -51.690  12.793  1.00  0.00    -0.306 N 
HETATM    5  H   UNL     1     -44.451 -49.298  12.473  1.00  0.00     0.164 HD
HETATM    6  H   UNL     1     -45.605 -51.322  11.988  1.00  0.00     0.171 HD
ENDROOT
BRANCH   1   7
HETATM    7  C   UNL     1     -42.373 -49.311  12.735  1.00  0.00     0.160 C 
BRANCH   7   8
HETATM    8  C   UNL     1     -41.437 -49.256  11.500  1.00  0.00     0.240 C 
BRANCH   8   9
HETATM    9  C   UNL     1     -39.998 -49.685  11.903  1.00  0.00     0.033 C 
HETATM   10  C   UNL     1     -39.878 -51.136  12.354  1.00  0.00     0.007 C 
ENDBRANCH   8   9
BRANCH   8  11
HETATM   11  N   UNL     1     -41.509 -47.932  10.832  1.00  0.00     0.094 N 
HETATM   12  C   UNL     1     -41.549 -46.790  11.755  1.00  0.00     0.273 C 
HETATM   13  C   UNL     1     -42.416 -45.728  11.087  1.00  0.00     0.032 C 
HETATM   14  C   UNL     1     -42.688 -46.262   9.696  1.00  0.00     0.032 C 
HETATM   15  C   UNL     1     -42.605 -47.766   9.872  1.00  0.00     0.273 C 
ENDBRANCH   8  11
ENDBRANCH   7   8
ENDBRANCH   1   7
BRANCH   4  16
HETATM   16  C   UNL     1     -45.574 -52.880  13.339  1.00  0.00     0.070 A 
HETATM   17  C   UNL     1     -45.138 -54.212  13.143  1.00  0.00     0.138 A 
HETATM   18  N   UNL     1     -45.843 -55.095  13.857  1.00  0.00    -0.310 N 
HETATM   19  N   UNL     1     -46.740 -54.333  14.498  1.00  0.00    -0.310 N 
ATOM     20  HN  UNL     1     -45.725 -56.108  13.903  1.00  0.00     0.186 HD
HETATM   21  C   UNL     1     -46.608 -52.996  14.240  1.00  0.00     0.138 A 
HETATM   22  H   UNL     1     -47.415 -54.796  15.097  1.00  0.00     0.186 HD
ENDBRANCH   4  16
TORSDOF 5
ENDMDL
MODEL 7
REMARK VINA RESULT:      -4.8      3.081      5.577
REMARK  5 active torsions:
REMARK  status: ('A' for Active; 'I' for Inactive)
REMARK    1  A    between atoms: C_2  and  C_3 
REMARK    2  A    between atoms: C_3  and  C_4 
REMARK    3  A    between atoms: C_3  and  N_15 
REMARK    4  A    between atoms: C_4  and  N_5 
REMARK       I    between atoms: N_5  and  C_6 
REMARK       I    between atoms: C_6  and  N_8 
REMARK    5  A    between atoms: N_8  and  C_9 
ROOT
HETATM    1  N   UNL     1     -41.069 -48.802  10.406  1.00  0.00    -0.341 N 
HETATM    2  C   UNL     1     -41.272 -49.751  11.391  1.00  0.00     0.320 C 
HETATM    3  O   UNL     1     -42.278 -49.756  12.091  1.00  0.00    -0.247 OA
HETATM    4  N   UNL     1     -40.218 -50.628  11.510  1.00  0.00    -0.306 N 
HETATM    5  H   UNL     1     -40.655 -49.139   9.545  1.00  0.00     0.164 HD
HETATM    6  H   UNL     1     -39.335 -50.364  11.100  1.00  0.00     0.171 HD
ENDROOT
BRANCH   1   7
HETATM    7  C   UNL     1     -42.119 -47.808  10.231  1.00  0.00     0.160 C 
BRANCH   7   8
HETATM    8  C   UNL     1     -41.698 -46.355  10.572  1.00  0.00     0.240 C 
BRANCH   8   9
HETATM    9  C   UNL     1     -40.167 -46.293  10.839  1.00  0.00     0.033 C 
HETATM   10  C   UNL     1     -39.462 -45.116  10.177  1.00  0.00     0.007 C 
ENDBRANCH   8   9
BRANCH   8  11
HETATM   11  N   UNL     1     -42.527 -45.801  11.673  1.00  0.00     0.094 N 
HETATM   12  C   UNL     1     -42.526 -44.335  11.752  1.00  0.00     0.273 C 
HETATM   13  C   UNL     1     -42.636 -43.985  13.232  1.00  0.00     0.032 C 
HETATM   14  C   UNL     1     -42.884 -45.306  13.931  1.00  0.00     0.032 C 
HETATM   15  C   UNL     1     -42.229 -46.319  13.012  1.00  0.00     0.273 C 
ENDBRANCH   8  11
ENDBRANCH   7   8
ENDBRANCH   1   7
BRANCH   4  16
HETATM   16  C   UNL     1     -40.231 -51.691  12.400  1.00  0.00     0.070 A 
HETATM   17  C   UNL     1     -40.908 -52.933  12.344  1.00  0.00     0.138 A 
HETATM   18  N   UNL     1     -40.666 -53.700  13.412  1.00  0.00    -0.310 N 
HETATM   19  N   UNL     1     -39.848 -52.944  14.159  1.00  0.00    -0.310 N 
ATOM     20  HN  UNL     1     -41.020 -54.636  13.610  1.00  0.00     0.186 HD
HETATM   21  C   UNL     1     -39.538 -51.741  13.587  1.00  0.00     0.138 A 
HETATM   22  H   UNL     1     -39.540 -53.317  15.051  1.00  0.00     0.186 HD
ENDBRANCH   4  16
TORSDOF 5
ENDMDL
MODEL 8
REMARK VINA RESULT:      -4.6      5.744      7.383
REMARK  5 active torsions:
REMARK  status: ('A' for Active; 'I' for Inactive)
REMARK    1  A    between atoms: C_2  and  C_3 
REMARK    2  A    between atoms: C_3  and  C_4 
REMARK    3  A    between atoms: C_3  and  N_15 
REMARK    4  A    between atoms: C_4  and  N_5 
REMARK       I    between atoms: N_5  and  C_6 
REMARK       I    between atoms: C_6  and  N_8 
REMARK    5  A    between atoms: N_8  and  C_9 
ROOT
HETATM    1  N   UNL     1     -44.105 -50.885  14.091  1.00  0.00    -0.341 N 
HETATM    2  C   UNL     1     -43.181 -50.559  13.115  1.00  0.00     0.320 C 
HETATM    3  O   UNL     1     -42.653 -51.412  12.411  1.00  0.00    -0.247 OA
HETATM    4  N   UNL     1     -42.908 -49.211  13.069  1.00  0.00    -0.306 N 
HETATM    5  H   UNL     1     -44.894 -50.256  14.182  1.00  0.00     0.164 HD
HETATM    6  H   UNL     1     -43.167 -48.649  13.866  1.00  0.00     0.171 HD
ENDROOT
BRANCH   1   7
HETATM    7  C   UNL     1     -44.431 -52.297  14.238  1.00  0.00     0.160 C 
BRANCH   7   8
HETATM    8  C   UNL     1     -45.938 -52.631  14.097  1.00  0.00     0.240 C 
BRANCH   8   9
HETATM    9  C   UNL     1     -46.643 -51.557  13.222  1.00  0.00     0.033 C 
HETATM   10  C   UNL     1     -46.829 -51.958  11.764  1.00  0.00     0.007 C 
ENDBRANCH   8   9
BRANCH   8  11
HETATM   11  N   UNL     1     -46.567 -52.836  15.427  1.00  0.00     0.094 N 
HETATM   12  C   UNL     1     -47.342 -51.687  15.914  1.00  0.00     0.273 C 
HETATM   13  C   UNL     1     -47.184 -51.675  17.430  1.00  0.00     0.032 C 
HETATM   14  C   UNL     1     -46.454 -52.961  17.759  1.00  0.00     0.032 C 
HETATM   15  C   UNL     1     -45.658 -53.248  16.501  1.00  0.00     0.273 C 
ENDBRANCH   8  11
ENDBRANCH   7   8
ENDBRANCH   1   7
BRANCH   4  16
HETATM   16  C   UNL     1     -42.050 -48.658  12.132  1.00  0.00     0.070 A 
HETATM   17  C   UNL     1     -42.308 -48.125  10.846  1.00  0.00     0.138 A 
HETATM   18  N   UNL     1     -41.200 -47.684  10.240  1.00  0.00    -0.310 N 
HETATM   19  N   UNL     1     -40.232 -47.949  11.129  1.00  0.00    -0.310 N 
ATOM     20  HN  UNL     1     -41.113 -47.250   9.321  1.00  0.00     0.186 HD
HETATM   21  C   UNL     1     -40.692 -48.512  12.288  1.00  0.00     0.138 A 
HETATM   22  H   UNL     1     -39.277 -47.718  10.875  1.00  0.00     0.186 HD
ENDBRANCH   4  16
TORSDOF 5
ENDMDL
MODEL 9
REMARK VINA RESULT:      -4.4      4.897      5.504
REMARK  5 active torsions:
REMARK  status: ('A' for Active; 'I' for Inactive)
REMARK    1  A    between atoms: C_2  and  C_3 
REMARK    2  A    between atoms: C_3  and  C_4 
REMARK    3  A    between atoms: C_3  and  N_15 
REMARK    4  A    between atoms: C_4  and  N_5 
REMARK       I    between atoms: N_5  and  C_6 
REMARK       I    between atoms: C_6  and  N_8 
REMARK    5  A    between atoms: N_8  and  C_9 
ROOT
HETATM    1  N   UNL     1     -40.566 -52.075  14.375  1.00  0.00    -0.341 N 
HETATM    2  C   UNL     1     -41.656 -52.585  13.693  1.00  0.00     0.320 C 
HETATM    3  O   UNL     1     -41.561 -53.026  12.553  1.00  0.00    -0.247 OA
HETATM    4  N   UNL     1     -42.825 -52.496  14.414  1.00  0.00    -0.306 N 
HETATM    5  H   UNL     1     -40.514 -52.304  15.360  1.00  0.00     0.164 HD
HETATM    6  H   UNL     1     -42.848 -51.864  15.201  1.00  0.00     0.171 HD
ENDROOT
BRANCH   1   7
HETATM    7  C   UNL     1     -39.290 -52.096  13.675  1.00  0.00     0.160 C 
BRANCH   7   8
HETATM    8  C   UNL     1     -38.807 -50.712  13.170  1.00  0.00     0.240 C 
BRANCH   8   9
HETATM    9  C   UNL     1     -37.485 -50.870  12.367  1.00  0.00     0.033 C 
HETATM   10  C   UNL     1     -37.375 -49.954  11.153  1.00  0.00     0.007 C 
ENDBRANCH   8   9
BRANCH   8  11
HETATM   11  N   UNL     1     -38.725 -49.734  14.284  1.00  0.00     0.094 N 
HETATM   12  C   UNL     1     -39.263 -48.405  13.963  1.00  0.00     0.273 C 
HETATM   13  C   UNL     1     -38.416 -47.401  14.737  1.00  0.00     0.032 C 
HETATM   14  C   UNL     1     -37.526 -48.243  15.629  1.00  0.00     0.032 C 
HETATM   15  C   UNL     1     -37.392 -49.545  14.865  1.00  0.00     0.273 C 
ENDBRANCH   8  11
ENDBRANCH   7   8
ENDBRANCH   1   7
BRANCH   4  16
HETATM   16  C   UNL     1     -44.030 -52.993  13.943  1.00  0.00     0.070 A 
HETATM   17  C   UNL     1     -45.085 -52.353  13.249  1.00  0.00     0.138 A 
HETATM   18  N   UNL     1     -46.094 -53.183  12.967  1.00  0.00    -0.310 N 
HETATM   19  N   UNL     1     -45.694 -54.350  13.493  1.00  0.00    -0.310 N 
ATOM     20  HN  UNL     1     -46.961 -52.977  12.470  1.00  0.00     0.186 HD
HETATM   21  C   UNL     1     -44.455 -54.295  14.069  1.00  0.00     0.138 A 
HETATM   22  H   UNL     1     -46.322 -55.143  13.421  1.00  0.00     0.186 HD
ENDBRANCH   4  16
TORSDOF 5
ENDMDL
