MODEL 1
REMARK VINA RESULT:      -5.7      0.000      0.000
REMARK  7 active torsions:
REMARK  status: ('A' for Active; 'I' for Inactive)
REMARK    1  A    between atoms: O_2  and  C_3 
REMARK    2  A    between atoms: C_6  and  O_7 
REMARK    3  A    between atoms: O_7  and  C_8 
REMARK    4  A    between atoms: C_8  and  C_9 
REMARK    5  A    between atoms: C_9  and  O_10 
REMARK    6  A    between atoms: C_9  and  C_11 
REMARK    7  A    between atoms: C_11  and  N_12 
ROOT
HETATM    1  C   UNL     1     -46.337 -54.208  15.199  1.00  0.00     0.160 C 
ENDROOT
BRANCH   1   2
HETATM    2  C   UNL     1     -45.275 -54.670  14.182  1.00  0.00     0.209 C 
BRANCH   2   3
HETATM    3  O   UNL     1     -44.188 -55.236  14.925  1.00  0.00    -0.349 OA
BRANCH   3   4
HETATM    4  C   UNL     1     -42.928 -54.812  14.624  1.00  0.00     0.069 A 
HETATM    5  C   UNL     1     -42.795 -54.230  13.359  1.00  0.00     0.039 A 
HETATM    6  C   UNL     1     -41.573 -53.702  12.931  1.00  0.00     0.039 A 
HETATM    7  C   UNL     1     -40.470 -53.730  13.780  1.00  0.00     0.068 A 
HETATM    8  C   UNL     1     -40.602 -54.310  15.045  1.00  0.00     0.039 A 
HETATM    9  C   UNL     1     -41.822 -54.852  15.470  1.00  0.00     0.039 A 
BRANCH   7  10
HETATM   10  O   UNL     1     -39.231 -53.219  13.503  1.00  0.00    -0.356 OA
HETATM   11  C   UNL     1     -38.868 -52.017  14.173  1.00  0.00     0.210 C 
ENDBRANCH   7  10
ENDBRANCH   3   4
ENDBRANCH   2   3
ENDBRANCH   1   2
BRANCH   1  12
HETATM   12  O   UNL     1     -45.859 -54.544  16.511  1.00  0.00    -0.392 OA
HETATM   13  H   UNL     1     -45.344 -55.368  16.425  1.00  0.00     0.210 HD
ENDBRANCH   1  12
BRANCH   1  14
HETATM   14  C   UNL     1     -46.602 -52.697  15.101  1.00  0.00     0.164 C 
BRANCH  14  15
HETATM   15  N   UNL     1     -45.568 -51.965  14.383  1.00  0.00    -0.332 N 
HETATM   16  C   UNL     1     -45.632 -51.507  13.081  1.00  0.00     0.080 A 
HETATM   17  C   UNL     1     -46.749 -51.757  12.135  1.00  0.00     0.089 C 
HETATM   18  N   UNL     1     -44.571 -50.783  12.787  1.00  0.00    -0.344 N 
HETATM   19  C   UNL     1     -43.796 -50.776  13.912  1.00  0.00     0.060 A 
ATOM     20  HN  UNL     1     -44.369 -50.321  11.899  1.00  0.00     0.167 HD
HETATM   21  C   UNL     1     -42.564 -50.142  14.130  1.00  0.00     0.032 A 
HETATM   22  C   UNL     1     -44.386 -51.514  14.933  1.00  0.00     0.062 A 
HETATM   23  C   UNL     1     -41.952 -50.272  15.381  1.00  0.00     0.002 A 
HETATM   24  C   UNL     1     -42.556 -51.020  16.392  1.00  0.00     0.002 A 
HETATM   25  C   UNL     1     -43.788 -51.659  16.193  1.00  0.00     0.032 A 
ENDBRANCH  14  15
ENDBRANCH   1  14
TORSDOF 7
ENDMDL
MODEL 2
REMARK VINA RESULT:      -5.6      3.089      5.681
REMARK  7 active torsions:
REMARK  status: ('A' for Active; 'I' for Inactive)
REMARK    1  A    between atoms: O_2  and  C_3 
REMARK    2  A    between atoms: C_6  and  O_7 
REMARK    3  A    between atoms: O_7  and  C_8 
REMARK    4  A    between atoms: C_8  and  C_9 
REMARK    5  A    between atoms: C_9  and  O_10 
REMARK    6  A    between atoms: C_9  and  C_11 
REMARK    7  A    between atoms: C_11  and  N_12 
ROOT
HETATM    1  C   UNL     1     -41.341 -52.745  12.320  1.00  0.00     0.160 C 
ENDROOT
BRANCH   1   2
HETATM    2  C   UNL     1     -40.322 -51.791  12.973  1.00  0.00     0.209 C 
BRANCH   2   3
HETATM    3  O   UNL     1     -41.044 -50.637  13.421  1.00  0.00    -0.349 OA
BRANCH   3   4
HETATM    4  C   UNL     1     -41.526 -49.785  12.473  1.00  0.00     0.069 A 
HETATM    5  C   UNL     1     -42.844 -49.365  12.682  1.00  0.00     0.039 A 
HETATM    6  C   UNL     1     -43.456 -48.450  11.820  1.00  0.00     0.039 A 
HETATM    7  C   UNL     1     -42.744 -47.924  10.746  1.00  0.00     0.068 A 
HETATM    8  C   UNL     1     -41.426 -48.343  10.536  1.00  0.00     0.039 A 
HETATM    9  C   UNL     1     -40.816 -49.270  11.391  1.00  0.00     0.039 A 
BRANCH   7  10
HETATM   10  O   UNL     1     -43.207 -46.999   9.851  1.00  0.00    -0.356 OA
HETATM   11  C   UNL     1     -43.861 -47.499   8.691  1.00  0.00     0.210 C 
ENDBRANCH   7  10
ENDBRANCH   3   4
ENDBRANCH   2   3
ENDBRANCH   1   2
BRANCH   1  12
HETATM   12  O   UNL     1     -40.659 -53.472  11.288  1.00  0.00    -0.392 OA
HETATM   13  H   UNL     1     -41.341 -53.942  10.771  1.00  0.00     0.210 HD
ENDBRANCH   1  12
BRANCH   1  14
HETATM   14  C   UNL     1     -41.946 -53.720  13.344  1.00  0.00     0.164 C 
BRANCH  14  15
HETATM   15  N   UNL     1     -42.915 -53.102  14.239  1.00  0.00    -0.332 N 
HETATM   16  C   UNL     1     -42.723 -52.777  15.569  1.00  0.00     0.080 A 
HETATM   17  C   UNL     1     -41.505 -53.083  16.362  1.00  0.00     0.089 C 
HETATM   18  N   UNL     1     -43.764 -52.124  16.046  1.00  0.00    -0.344 N 
HETATM   19  C   UNL     1     -44.655 -52.030  15.015  1.00  0.00     0.060 A 
ATOM     20  HN  UNL     1     -43.880 -51.763  16.993  1.00  0.00     0.167 HD
HETATM   21  C   UNL     1     -45.918 -51.421  14.994  1.00  0.00     0.032 A 
HETATM   22  C   UNL     1     -44.160 -52.639  13.866  1.00  0.00     0.062 A 
HETATM   23  C   UNL     1     -46.657 -51.444  13.807  1.00  0.00     0.002 A 
HETATM   24  C   UNL     1     -46.147 -52.064  12.665  1.00  0.00     0.002 A 
HETATM   25  C   UNL     1     -44.886 -52.675  12.667  1.00  0.00     0.032 A 
ENDBRANCH  14  15
ENDBRANCH   1  14
TORSDOF 7
ENDMDL
MODEL 3
REMARK VINA RESULT:      -5.5      4.190      6.290
REMARK  7 active torsions:
REMARK  status: ('A' for Active; 'I' for Inactive)
REMARK    1  A    between atoms: O_2  and  C_3 
REMARK    2  A    between atoms: C_6  and  O_7 
REMARK    3  A    between atoms: O_7  and  C_8 
REMARK    4  A    between atoms: C_8  and  C_9 
REMARK    5  A    between atoms: C_9  and  O_10 
REMARK    6  A    between atoms: C_9  and  C_11 
REMARK    7  A    between atoms: C_11  and  N_12 
ROOT
HETATM    1  C   UNL     1     -39.936 -49.652  11.621  1.00  0.00     0.160 C 
ENDROOT
BRANCH   1   2
HETATM    2  C   UNL     1     -39.673 -50.833  12.576  1.00  0.00     0.209 C 
BRANCH   2   3
HETATM    3  O   UNL     1     -40.186 -52.014  11.947  1.00  0.00    -0.349 OA
BRANCH   3   4
HETATM    4  C   UNL     1     -41.109 -52.745  12.632  1.00  0.00     0.069 A 
HETATM    5  C   UNL     1     -42.438 -52.482  12.284  1.00  0.00     0.039 A 
HETATM    6  C   UNL     1     -43.493 -53.192  12.866  1.00  0.00     0.039 A 
HETATM    7  C   UNL     1     -43.225 -54.197  13.792  1.00  0.00     0.068 A 
HETATM    8  C   UNL     1     -41.897 -54.461  14.141  1.00  0.00     0.039 A 
HETATM    9  C   UNL     1     -40.841 -53.741  13.568  1.00  0.00     0.039 A 
BRANCH   7  10
HETATM   10  O   UNL     1     -44.155 -54.989  14.408  1.00  0.00    -0.356 OA
HETATM   11  C   UNL     1     -45.434 -55.075  13.792  1.00  0.00     0.210 C 
ENDBRANCH   7  10
ENDBRANCH   3   4
ENDBRANCH   2   3
ENDBRANCH   1   2
BRANCH   1  12
HETATM   12  O   UNL     1     -40.279 -50.196  10.338  1.00  0.00    -0.392 OA
HETATM   13  H   UNL     1     -40.349 -51.164  10.447  1.00  0.00     0.210 HD
ENDBRANCH   1  12
BRANCH   1  14
HETATM   14  C   UNL     1     -41.067 -48.745  12.133  1.00  0.00     0.164 C 
BRANCH  14  15
HETATM   15  N   UNL     1     -41.006 -47.385  11.617  1.00  0.00    -0.332 N 
HETATM   16  C   UNL     1     -41.727 -46.868  10.557  1.00  0.00     0.080 A 
HETATM   17  C   UNL     1     -42.644 -47.642   9.683  1.00  0.00     0.089 C 
HETATM   18  N   UNL     1     -41.517 -45.573  10.434  1.00  0.00    -0.344 N 
HETATM   19  C   UNL     1     -40.637 -45.238  11.424  1.00  0.00     0.060 A 
ATOM     20  HN  UNL     1     -41.928 -44.948   9.741  1.00  0.00     0.167 HD
HETATM   21  C   UNL     1     -40.096 -43.983  11.736  1.00  0.00     0.032 A 
HETATM   22  C   UNL     1     -40.287 -46.352  12.183  1.00  0.00     0.062 A 
HETATM   23  C   UNL     1     -39.208 -43.880  12.811  1.00  0.00     0.002 A 
HETATM   24  C   UNL     1     -38.865 -45.008  13.559  1.00  0.00     0.002 A 
HETATM   25  C   UNL     1     -39.397 -46.270  13.263  1.00  0.00     0.032 A 
ENDBRANCH  14  15
ENDBRANCH   1  14
TORSDOF 7
ENDMDL
MODEL 4
REMARK VINA RESULT:      -5.5      2.171      5.855
REMARK  7 active torsions:
REMARK  status: ('A' for Active; 'I' for Inactive)
REMARK    1  A    between atoms: O_2  and  C_3 
REMARK    2  A    between atoms: C_6  and  O_7 
REMARK    3  A    between atoms: O_7  and  C_8 
REMARK    4  A    between atoms: C_8  and  C_9 
REMARK    5  A    between atoms: C_9  and  O_10 
REMARK    6  A    between atoms: C_9  and  C_11 
REMARK    7  A    between atoms: C_11  and  N_12 
ROOT
HETATM    1  C   UNL     1     -41.225 -51.256  12.093  1.00  0.00     0.160 C 
ENDROOT
BRANCH   1   2
HETATM    2  C   UNL     1     -40.651 -50.623  13.376  1.00  0.00     0.209 C 
BRANCH   2   3
HETATM    3  O   UNL     1     -41.675 -49.790  13.937  1.00  0.00    -0.349 OA
BRANCH   3   4
HETATM    4  C   UNL     1     -42.753 -50.407  14.499  1.00  0.00     0.069 A 
HETATM    5  C   UNL     1     -42.484 -51.071  15.700  1.00  0.00     0.039 A 
HETATM    6  C   UNL     1     -43.502 -51.705  16.419  1.00  0.00     0.039 A 
HETATM    7  C   UNL     1     -44.813 -51.661  15.952  1.00  0.00     0.068 A 
HETATM    8  C   UNL     1     -45.083 -50.996  14.751  1.00  0.00     0.039 A 
HETATM    9  C   UNL     1     -44.061 -50.373  14.023  1.00  0.00     0.039 A 
BRANCH   7  10
HETATM   10  O   UNL     1     -45.905 -52.204  16.570  1.00  0.00    -0.356 OA
HETATM   11  C   UNL     1     -47.181 -51.845  16.054  1.00  0.00     0.210 C 
ENDBRANCH   7  10
ENDBRANCH   3   4
ENDBRANCH   2   3
ENDBRANCH   1   2
BRANCH   1  12
HETATM   12  O   UNL     1     -40.714 -50.515  10.975  1.00  0.00    -0.392 OA
HETATM   13  H   UNL     1     -39.837 -50.175  11.234  1.00  0.00     0.210 HD
ENDBRANCH   1  12
BRANCH   1  14
HETATM   14  C   UNL     1     -40.839 -52.739  11.968  1.00  0.00     0.164 C 
BRANCH  14  15
HETATM   15  N   UNL     1     -41.365 -53.574  13.039  1.00  0.00    -0.332 N 
HETATM   16  C   UNL     1     -40.661 -54.077  14.117  1.00  0.00     0.080 A 
HETATM   17  C   UNL     1     -39.200 -53.927  14.335  1.00  0.00     0.089 C 
HETATM   18  N   UNL     1     -41.468 -54.693  14.957  1.00  0.00    -0.344 N 
HETATM   19  C   UNL     1     -42.719 -54.600  14.415  1.00  0.00     0.060 A 
ATOM     20  HN  UNL     1     -41.211 -55.147  15.834  1.00  0.00     0.167 HD
HETATM   21  C   UNL     1     -43.936 -55.083  14.916  1.00  0.00     0.032 A 
HETATM   22  C   UNL     1     -42.692 -53.910  13.206  1.00  0.00     0.062 A 
HETATM   23  C   UNL     1     -45.103 -54.861  14.180  1.00  0.00     0.002 A 
HETATM   24  C   UNL     1     -45.058 -54.171  12.968  1.00  0.00     0.002 A 
HETATM   25  C   UNL     1     -43.852 -53.679  12.452  1.00  0.00     0.032 A 
ENDBRANCH  14  15
ENDBRANCH   1  14
TORSDOF 7
ENDMDL
MODEL 5
REMARK VINA RESULT:      -5.5      2.911      5.912
REMARK  7 active torsions:
REMARK  status: ('A' for Active; 'I' for Inactive)
REMARK    1  A    between atoms: O_2  and  C_3 
REMARK    2  A    between atoms: C_6  and  O_7 
REMARK    3  A    between atoms: O_7  and  C_8 
REMARK    4  A    between atoms: C_8  and  C_9 
REMARK    5  A    between atoms: C_9  and  O_10 
REMARK    6  A    between atoms: C_9  and  C_11 
REMARK    7  A    between atoms: C_11  and  N_12 
ROOT
HETATM    1  C   UNL     1     -41.057 -52.694  12.456  1.00  0.00     0.160 C 
ENDROOT
BRANCH   1   2
HETATM    2  C   UNL     1     -42.280 -53.507  12.924  1.00  0.00     0.209 C 
BRANCH   2   3
HETATM    3  O   UNL     1     -43.438 -52.930  12.307  1.00  0.00    -0.349 OA
BRANCH   3   4
HETATM    4  C   UNL     1     -44.536 -52.728  13.090  1.00  0.00     0.069 A 
HETATM    5  C   UNL     1     -44.973 -53.860  13.785  1.00  0.00     0.039 A 
HETATM    6  C   UNL     1     -46.056 -53.793  14.667  1.00  0.00     0.039 A 
HETATM    7  C   UNL     1     -46.702 -52.579  14.883  1.00  0.00     0.068 A 
HETATM    8  C   UNL     1     -46.265 -51.446  14.189  1.00  0.00     0.039 A 
HETATM    9  C   UNL     1     -45.189 -51.515  13.295  1.00  0.00     0.039 A 
BRANCH   7  10
HETATM   10  O   UNL     1     -47.745 -52.365  15.741  1.00  0.00    -0.356 OA
HETATM   11  C   UNL     1     -47.624 -51.269  16.640  1.00  0.00     0.210 C 
ENDBRANCH   7  10
ENDBRANCH   3   4
ENDBRANCH   2   3
ENDBRANCH   1   2
BRANCH   1  12
HETATM   12  O   UNL     1     -41.275 -52.327  11.086  1.00  0.00    -0.392 OA
HETATM   13  H   UNL     1     -40.404 -52.342  10.644  1.00  0.00     0.210 HD
ENDBRANCH   1  12
BRANCH   1  14
HETATM   14  C   UNL     1     -40.846 -51.436  13.315  1.00  0.00     0.164 C 
BRANCH  14  15
HETATM   15  N   UNL     1     -40.496 -50.252  12.544  1.00  0.00    -0.332 N 
HETATM   16  C   UNL     1     -39.249 -49.931  12.042  1.00  0.00     0.080 A 
HETATM   17  C   UNL     1     -38.002 -50.704  12.276  1.00  0.00     0.089 C 
HETATM   18  N   UNL     1     -39.310 -48.849  11.292  1.00  0.00    -0.344 N 
HETATM   19  C   UNL     1     -40.616 -48.450  11.312  1.00  0.00     0.060 A 
ATOM     20  HN  UNL     1     -38.538 -48.400  10.797  1.00  0.00     0.167 HD
HETATM   21  C   UNL     1     -41.215 -47.357  10.668  1.00  0.00     0.032 A 
HETATM   22  C   UNL     1     -41.390 -49.303  12.094  1.00  0.00     0.062 A 
HETATM   23  C   UNL     1     -42.588 -47.149  10.832  1.00  0.00     0.002 A 
HETATM   24  C   UNL     1     -43.348 -48.011  11.623  1.00  0.00     0.002 A 
HETATM   25  C   UNL     1     -42.767 -49.109  12.273  1.00  0.00     0.032 A 
ENDBRANCH  14  15
ENDBRANCH   1  14
TORSDOF 7
ENDMDL
MODEL 6
REMARK VINA RESULT:      -5.4      1.727      4.497
REMARK  7 active torsions:
REMARK  status: ('A' for Active; 'I' for Inactive)
REMARK    1  A    between atoms: O_2  and  C_3 
REMARK    2  A    between atoms: C_6  and  O_7 
REMARK    3  A    between atoms: O_7  and  C_8 
REMARK    4  A    between atoms: C_8  and  C_9 
REMARK    5  A    between atoms: C_9  and  O_10 
REMARK    6  A    between atoms: C_9  and  C_11 
REMARK    7  A    between atoms: C_11  and  N_12 
ROOT
HETATM    1  C   UNL     1     -41.144 -51.105  12.113  1.00  0.00     0.160 C 
ENDROOT
BRANCH   1   2
HETATM    2  C   UNL     1     -41.673 -52.520  11.807  1.00  0.00     0.209 C 
BRANCH   2   3
HETATM    3  O   UNL     1     -40.902 -53.443  12.588  1.00  0.00    -0.349 OA
BRANCH   3   4
HETATM    4  C   UNL     1     -41.452 -53.902  13.748  1.00  0.00     0.069 A 
HETATM    5  C   UNL     1     -42.808 -54.234  13.659  1.00  0.00     0.039 A 
HETATM    6  C   UNL     1     -43.495 -54.767  14.754  1.00  0.00     0.039 A 
HETATM    7  C   UNL     1     -42.821 -54.998  15.950  1.00  0.00     0.068 A 
HETATM    8  C   UNL     1     -41.465 -54.668  16.040  1.00  0.00     0.039 A 
HETATM    9  C   UNL     1     -40.779 -54.121  14.948  1.00  0.00     0.039 A 
BRANCH   7  10
HETATM   10  O   UNL     1     -43.359 -55.546  17.082  1.00  0.00    -0.356 OA
HETATM   11  C   UNL     1     -42.445 -56.031  18.058  1.00  0.00     0.210 C 
ENDBRANCH   7  10
ENDBRANCH   3   4
ENDBRANCH   2   3
ENDBRANCH   1   2
BRANCH   1  12
HETATM   12  O   UNL     1     -40.572 -50.583  10.906  1.00  0.00    -0.392 OA
HETATM   13  H   UNL     1     -40.725 -49.619  10.910  1.00  0.00     0.210 HD
ENDBRANCH   1  12
BRANCH   1  14
HETATM   14  C   UNL     1     -42.261 -50.176  12.617  1.00  0.00     0.164 C 
BRANCH  14  15
HETATM   15  N   UNL     1     -42.869 -50.614  13.865  1.00  0.00    -0.332 N 
HETATM   16  C   UNL     1     -42.272 -50.643  15.111  1.00  0.00     0.080 A 
HETATM   17  C   UNL     1     -40.853 -50.310  15.393  1.00  0.00     0.089 C 
HETATM   18  N   UNL     1     -43.143 -50.982  16.041  1.00  0.00    -0.344 N 
HETATM   19  C   UNL     1     -44.327 -51.188  15.390  1.00  0.00     0.060 A 
ATOM     20  HN  UNL     1     -42.969 -51.072  17.042  1.00  0.00     0.167 HD
HETATM   21  C   UNL     1     -45.572 -51.557  15.920  1.00  0.00     0.032 A 
HETATM   22  C   UNL     1     -44.192 -50.973  14.022  1.00  0.00     0.062 A 
HETATM   23  C   UNL     1     -46.657 -51.704  15.051  1.00  0.00     0.002 A 
HETATM   24  C   UNL     1     -46.503 -51.490  13.680  1.00  0.00     0.002 A 
HETATM   25  C   UNL     1     -45.267 -51.118  13.133  1.00  0.00     0.032 A 
ENDBRANCH  14  15
ENDBRANCH   1  14
TORSDOF 7
ENDMDL
MODEL 7
REMARK VINA RESULT:      -5.3      2.624      4.987
REMARK  7 active torsions:
REMARK  status: ('A' for Active; 'I' for Inactive)
REMARK    1  A    between atoms: O_2  and  C_3 
REMARK    2  A    between atoms: C_6  and  O_7 
REMARK    3  A    between atoms: O_7  and  C_8 
REMARK    4  A    between atoms: C_8  and  C_9 
REMARK    5  A    between atoms: C_9  and  O_10 
REMARK    6  A    between atoms: C_9  and  C_11 
REMARK    7  A    between atoms: C_11  and  N_12 
ROOT
HETATM    1  C   UNL     1     -42.197 -52.613  12.766  1.00  0.00     0.160 C 
ENDROOT
BRANCH   1   2
HETATM    2  C   UNL     1     -40.820 -52.877  13.406  1.00  0.00     0.209 C 
BRANCH   2   3
HETATM    3  O   UNL     1     -39.829 -52.323  12.531  1.00  0.00    -0.349 OA
BRANCH   3   4
HETATM    4  C   UNL     1     -39.104 -51.263  12.988  1.00  0.00     0.069 A 
HETATM    5  C   UNL     1     -39.207 -50.106  12.208  1.00  0.00     0.039 A 
HETATM    6  C   UNL     1     -38.560 -48.924  12.580  1.00  0.00     0.039 A 
HETATM    7  C   UNL     1     -37.819 -48.879  13.757  1.00  0.00     0.068 A 
HETATM    8  C   UNL     1     -37.716 -50.034  14.538  1.00  0.00     0.039 A 
HETATM    9  C   UNL     1     -38.352 -51.223  14.160  1.00  0.00     0.039 A 
BRANCH   7  10
HETATM   10  O   UNL     1     -37.170 -47.783  14.255  1.00  0.00    -0.356 OA
HETATM   11  C   UNL     1     -36.657 -47.887  15.578  1.00  0.00     0.210 C 
ENDBRANCH   7  10
ENDBRANCH   3   4
ENDBRANCH   2   3
ENDBRANCH   1   2
BRANCH   1  12
HETATM   12  O   UNL     1     -41.987 -52.357  11.370  1.00  0.00    -0.392 OA
HETATM   13  H   UNL     1     -42.448 -51.522  11.160  1.00  0.00     0.210 HD
ENDBRANCH   1  12
BRANCH   1  14
HETATM   14  C   UNL     1     -43.149 -53.807  12.950  1.00  0.00     0.164 C 
BRANCH  14  15
HETATM   15  N   UNL     1     -43.931 -53.749  14.177  1.00  0.00    -0.332 N 
HETATM   16  C   UNL     1     -43.664 -54.412  15.360  1.00  0.00     0.080 A 
HETATM   17  C   UNL     1     -42.563 -55.386  15.570  1.00  0.00     0.089 C 
HETATM   18  N   UNL     1     -44.506 -54.043  16.304  1.00  0.00    -0.344 N 
HETATM   19  C   UNL     1     -45.344 -53.131  15.727  1.00  0.00     0.060 A 
ATOM     20  HN  UNL     1     -44.528 -54.372  17.270  1.00  0.00     0.167 HD
HETATM   21  C   UNL     1     -46.412 -52.427  16.301  1.00  0.00     0.032 A 
HETATM   22  C   UNL     1     -45.018 -52.926  14.389  1.00  0.00     0.062 A 
HETATM   23  C   UNL     1     -47.132 -51.530  15.506  1.00  0.00     0.002 A 
HETATM   24  C   UNL     1     -46.795 -51.340  14.165  1.00  0.00     0.002 A 
HETATM   25  C   UNL     1     -45.729 -52.033  13.575  1.00  0.00     0.032 A 
ENDBRANCH  14  15
ENDBRANCH   1  14
TORSDOF 7
ENDMDL
MODEL 8
REMARK VINA RESULT:      -5.3      2.692      5.433
REMARK  7 active torsions:
REMARK  status: ('A' for Active; 'I' for Inactive)
REMARK    1  A    between atoms: O_2  and  C_3 
REMARK    2  A    between atoms: C_6  and  O_7 
REMARK    3  A    between atoms: O_7  and  C_8 
REMARK    4  A    between atoms: C_8  and  C_9 
REMARK    5  A    between atoms: C_9  and  O_10 
REMARK    6  A    between atoms: C_9  and  C_11 
REMARK    7  A    between atoms: C_11  and  N_12 
ROOT
HETATM    1  C   UNL     1     -39.647 -51.698  14.902  1.00  0.00     0.160 C 
ENDROOT
BRANCH   1   2
HETATM    2  C   UNL     1     -39.220 -52.942  14.099  1.00  0.00     0.209 C 
BRANCH   2   3
HETATM    3  O   UNL     1     -40.034 -52.990  12.921  1.00  0.00    -0.349 OA
BRANCH   3   4
HETATM    4  C   UNL     1     -41.345 -53.333  13.072  1.00  0.00     0.069 A 
HETATM    5  C   UNL     1     -42.233 -52.615  12.264  1.00  0.00     0.039 A 
HETATM    6  C   UNL     1     -43.603 -52.892  12.272  1.00  0.00     0.039 A 
HETATM    7  C   UNL     1     -44.100 -53.913  13.077  1.00  0.00     0.068 A 
HETATM    8  C   UNL     1     -43.213 -54.632  13.885  1.00  0.00     0.039 A 
HETATM    9  C   UNL     1     -41.842 -54.346  13.888  1.00  0.00     0.039 A 
BRANCH   7  10
HETATM   10  O   UNL     1     -45.406 -54.311  13.154  1.00  0.00    -0.356 OA
HETATM   11  C   UNL     1     -45.959 -54.454  14.457  1.00  0.00     0.210 C 
ENDBRANCH   7  10
ENDBRANCH   3   4
ENDBRANCH   2   3
ENDBRANCH   1   2
BRANCH   1  12
HETATM   12  O   UNL     1     -39.342 -51.944  16.283  1.00  0.00    -0.392 OA
HETATM   13  H   UNL     1     -39.037 -51.098  16.663  1.00  0.00     0.210 HD
ENDBRANCH   1  12
BRANCH   1  14
HETATM   14  C   UNL     1     -38.924 -50.430  14.417  1.00  0.00     0.164 C 
BRANCH  14  15
HETATM   15  N   UNL     1     -39.445 -49.902  13.163  1.00  0.00    -0.332 N 
HETATM   16  C   UNL     1     -38.816 -49.921  11.933  1.00  0.00     0.080 A 
HETATM   17  C   UNL     1     -37.437 -50.410  11.680  1.00  0.00     0.089 C 
HETATM   18  N   UNL     1     -39.617 -49.467  10.990  1.00  0.00    -0.344 N 
HETATM   19  C   UNL     1     -40.786 -49.137  11.615  1.00  0.00     0.060 A 
ATOM     20  HN  UNL     1     -39.407 -49.379   9.996  1.00  0.00     0.167 HD
HETATM   21  C   UNL     1     -41.966 -48.618  11.063  1.00  0.00     0.032 A 
HETATM   22  C   UNL     1     -40.713 -49.390  12.982  1.00  0.00     0.062 A 
HETATM   23  C   UNL     1     -43.049 -48.362  11.909  1.00  0.00     0.002 A 
HETATM   24  C   UNL     1     -42.958 -48.617  13.278  1.00  0.00     0.002 A 
HETATM   25  C   UNL     1     -41.788 -49.138  13.847  1.00  0.00     0.032 A 
ENDBRANCH  14  15
ENDBRANCH   1  14
TORSDOF 7
ENDMDL
MODEL 9
REMARK VINA RESULT:      -5.2      3.531      6.064
REMARK  7 active torsions:
REMARK  status: ('A' for Active; 'I' for Inactive)
REMARK    1  A    between atoms: O_2  and  C_3 
REMARK    2  A    between atoms: C_6  and  O_7 
REMARK    3  A    between atoms: O_7  and  C_8 
REMARK    4  A    between atoms: C_8  and  C_9 
REMARK    5  A    between atoms: C_9  and  O_10 
REMARK    6  A    between atoms: C_9  and  C_11 
REMARK    7  A    between atoms: C_11  and  N_12 
ROOT
HETATM    1  C   UNL     1     -39.985 -50.532  12.331  1.00  0.00     0.160 C 
ENDROOT
BRANCH   1   2
HETATM    2  C   UNL     1     -39.883 -51.888  13.056  1.00  0.00     0.209 C 
BRANCH   2   3
HETATM    3  O   UNL     1     -40.687 -52.824  12.328  1.00  0.00    -0.349 OA
BRANCH   3   4
HETATM    4  C   UNL     1     -41.740 -53.394  12.979  1.00  0.00     0.069 A 
HETATM    5  C   UNL     1     -42.993 -53.103  12.430  1.00  0.00     0.039 A 
HETATM    6  C   UNL     1     -44.162 -53.658  12.959  1.00  0.00     0.039 A 
HETATM    7  C   UNL     1     -44.086 -54.536  14.037  1.00  0.00     0.068 A 
HETATM    8  C   UNL     1     -42.834 -54.829  14.586  1.00  0.00     0.039 A 
HETATM    9  C   UNL     1     -41.664 -54.262  14.065  1.00  0.00     0.039 A 
BRANCH   7  10
HETATM   10  O   UNL     1     -45.142 -55.176  14.627  1.00  0.00    -0.356 OA
HETATM   11  C   UNL     1     -46.360 -54.448  14.726  1.00  0.00     0.210 C 
ENDBRANCH   7  10
ENDBRANCH   3   4
ENDBRANCH   2   3
ENDBRANCH   1   2
BRANCH   1  12
HETATM   12  O   UNL     1     -40.492 -50.780  11.011  1.00  0.00    -0.392 OA
HETATM   13  H   UNL     1     -41.449 -50.590  11.032  1.00  0.00     0.210 HD
ENDBRANCH   1  12
BRANCH   1  14
HETATM   14  C   UNL     1     -40.907 -49.553  13.078  1.00  0.00     0.164 C 
BRANCH  14  15
HETATM   15  N   UNL     1     -40.863 -48.194  12.557  1.00  0.00    -0.332 N 
HETATM   16  C   UNL     1     -39.883 -47.248  12.793  1.00  0.00     0.080 A 
HETATM   17  C   UNL     1     -38.724 -47.421  13.706  1.00  0.00     0.089 C 
HETATM   18  N   UNL     1     -40.093 -46.165  12.073  1.00  0.00    -0.344 N 
HETATM   19  C   UNL     1     -41.235 -46.402  11.361  1.00  0.00     0.060 A 
ATOM     20  HN  UNL     1     -39.520 -45.321  12.052  1.00  0.00     0.167 HD
HETATM   21  C   UNL     1     -41.887 -45.572  10.438  1.00  0.00     0.032 A 
HETATM   22  C   UNL     1     -41.751 -47.663  11.644  1.00  0.00     0.062 A 
HETATM   23  C   UNL     1     -43.053 -46.036   9.821  1.00  0.00     0.002 A 
HETATM   24  C   UNL     1     -43.559 -47.301  10.120  1.00  0.00     0.002 A 
HETATM   25  C   UNL     1     -42.920 -48.145  11.038  1.00  0.00     0.032 A 
ENDBRANCH  14  15
ENDBRANCH   1  14
TORSDOF 7
ENDMDL
