MODEL 1
REMARK VINA RESULT:      -5.4      0.000      0.000
REMARK  3 active torsions:
REMARK  status: ('A' for Active; 'I' for Inactive)
REMARK    1  A    between atoms: C_6  and  N_7 
REMARK    2  A    between atoms: N_7  and  C_8 
REMARK    3  A    between atoms: C_8  and  C_9 
ROOT
HETATM    1  N   UNL     1     -47.286 -47.674   8.889  1.00  0.00    -0.190 NA
HETATM    2  C   UNL     1     -46.168 -47.501   9.166  1.00  0.00     0.117 C 
HETATM    3  C   UNL     1     -44.790 -47.243   9.471  1.00  0.00     0.113 A 
HETATM    4  C   UNL     1     -44.094 -46.235   8.817  1.00  0.00     0.043 A 
HETATM    5  C   UNL     1     -42.757 -46.032   9.144  1.00  0.00     0.028 A 
HETATM    6  C   UNL     1     -42.115 -46.846  10.084  1.00  0.00     0.024 A 
HETATM    7  C   UNL     1     -42.923 -47.802  10.706  1.00  0.00     0.112 A 
HETATM    8  N   UNL     1     -44.228 -48.034  10.414  1.00  0.00    -0.356 N 
ATOM      9  HN  UNL     1     -44.759 -48.769  10.882  1.00  0.00     0.166 HD
ENDROOT
BRANCH   6  10
HETATM   10  N   UNL     1     -40.793 -46.563  10.438  1.00  0.00    -0.286 NA
HETATM   11  H   UNL     1     -40.125 -47.172   9.968  1.00  0.00     0.128 HD
BRANCH  10  12
HETATM   12  C   UNL     1     -40.457 -46.469  11.858  1.00  0.00     0.159 C 
BRANCH  12  13
HETATM   13  C   UNL     1     -40.249 -45.011  12.211  1.00  0.00     0.081 C 
HETATM   14  C   UNL     1     -39.205 -44.604  12.942  1.00  0.00     0.168 C 
HETATM   15  O   UNL     1     -38.892 -43.321  13.263  1.00  0.00    -0.358 OA
HETATM   16  C   UNL     1     -39.842 -42.344  12.862  1.00  0.00     0.201 C 
HETATM   17  C   UNL     1     -40.916 -42.761  11.855  1.00  0.00     0.202 C 
HETATM   18  O   UNL     1     -41.196 -44.151  11.705  1.00  0.00    -0.350 OA
ENDBRANCH  12  13
ENDBRANCH  10  12
ENDBRANCH   6  10
TORSDOF 3
ENDMDL
MODEL 2
REMARK VINA RESULT:      -5.3      7.899      9.497
REMARK  3 active torsions:
REMARK  status: ('A' for Active; 'I' for Inactive)
REMARK    1  A    between atoms: C_6  and  N_7 
REMARK    2  A    between atoms: N_7  and  C_8 
REMARK    3  A    between atoms: C_8  and  C_9 
ROOT
HETATM    1  N   UNL     1     -39.315 -54.322  13.567  1.00  0.00    -0.190 NA
HETATM    2  C   UNL     1     -40.468 -54.192  13.461  1.00  0.00     0.117 C 
HETATM    3  C   UNL     1     -41.894 -54.063  13.380  1.00  0.00     0.113 A 
HETATM    4  C   UNL     1     -42.718 -54.663  14.324  1.00  0.00     0.043 A 
HETATM    5  C   UNL     1     -44.095 -54.513  14.194  1.00  0.00     0.028 A 
HETATM    6  C   UNL     1     -44.643 -53.805  13.119  1.00  0.00     0.024 A 
HETATM    7  C   UNL     1     -43.720 -53.212  12.254  1.00  0.00     0.112 A 
HETATM    8  N   UNL     1     -42.371 -53.336  12.343  1.00  0.00    -0.356 N 
ATOM      9  HN  UNL     1     -41.747 -52.903  11.662  1.00  0.00     0.166 HD
ENDROOT
BRANCH   6  10
HETATM   10  N   UNL     1     -46.027 -53.614  13.065  1.00  0.00    -0.286 NA
HETATM   11  H   UNL     1     -46.460 -54.122  12.296  1.00  0.00     0.128 HD
BRANCH  10  12
HETATM   12  C   UNL     1     -46.544 -52.247  13.106  1.00  0.00     0.159 C 
BRANCH  12  13
HETATM   13  C   UNL     1     -46.377 -51.708  14.512  1.00  0.00     0.081 C 
HETATM   14  C   UNL     1     -47.257 -51.980  15.481  1.00  0.00     0.168 C 
HETATM   15  O   UNL     1     -47.172 -51.600  16.783  1.00  0.00    -0.358 OA
HETATM   16  C   UNL     1     -46.086 -50.738  17.096  1.00  0.00     0.201 C 
HETATM   17  C   UNL     1     -44.967 -50.594  16.062  1.00  0.00     0.202 C 
HETATM   18  O   UNL     1     -45.248 -50.946  14.710  1.00  0.00    -0.350 OA
ENDBRANCH  12  13
ENDBRANCH  10  12
ENDBRANCH   6  10
TORSDOF 3
ENDMDL
MODEL 3
REMARK VINA RESULT:      -5.3      5.405      7.462
REMARK  3 active torsions:
REMARK  status: ('A' for Active; 'I' for Inactive)
REMARK    1  A    between atoms: C_6  and  N_7 
REMARK    2  A    between atoms: N_7  and  C_8 
REMARK    3  A    between atoms: C_8  and  C_9 
ROOT
HETATM    1  N   UNL     1     -43.230 -45.716   8.775  1.00  0.00    -0.190 NA
HETATM    2  C   UNL     1     -42.932 -46.598   9.475  1.00  0.00     0.117 C 
HETATM    3  C   UNL     1     -42.613 -47.674  10.368  1.00  0.00     0.113 A 
HETATM    4  C   UNL     1     -43.436 -47.971  11.447  1.00  0.00     0.043 A 
HETATM    5  C   UNL     1     -43.076 -49.020  12.287  1.00  0.00     0.028 A 
HETATM    6  C   UNL     1     -41.895 -49.740  12.074  1.00  0.00     0.024 A 
HETATM    7  C   UNL     1     -41.166 -49.380  10.937  1.00  0.00     0.112 A 
HETATM    8  N   UNL     1     -41.480 -48.362  10.095  1.00  0.00    -0.356 N 
ATOM      9  HN  UNL     1     -40.891 -48.127   9.296  1.00  0.00     0.166 HD
ENDROOT
BRANCH   6  10
HETATM   10  N   UNL     1     -41.607 -50.833  12.895  1.00  0.00    -0.286 NA
HETATM   11  H   UNL     1     -40.789 -50.675  13.481  1.00  0.00     0.128 HD
BRANCH  10  12
HETATM   12  C   UNL     1     -41.527 -52.160  12.286  1.00  0.00     0.159 C 
BRANCH  12  13
HETATM   13  C   UNL     1     -42.625 -53.026  12.866  1.00  0.00     0.081 C 
HETATM   14  C   UNL     1     -43.820 -53.140  12.276  1.00  0.00     0.168 C 
HETATM   15  O   UNL     1     -44.850 -53.932  12.676  1.00  0.00    -0.358 OA
HETATM   16  C   UNL     1     -44.650 -54.615  13.905  1.00  0.00     0.201 C 
HETATM   17  C   UNL     1     -43.230 -54.664  14.474  1.00  0.00     0.202 C 
HETATM   18  O   UNL     1     -42.288 -53.695  14.020  1.00  0.00    -0.350 OA
ENDBRANCH  12  13
ENDBRANCH  10  12
ENDBRANCH   6  10
TORSDOF 3
ENDMDL
MODEL 4
REMARK VINA RESULT:      -5.3      2.635      3.599
REMARK  3 active torsions:
REMARK  status: ('A' for Active; 'I' for Inactive)
REMARK    1  A    between atoms: C_6  and  N_7 
REMARK    2  A    between atoms: N_7  and  C_8 
REMARK    3  A    between atoms: C_8  and  C_9 
ROOT
HETATM    1  N   UNL     1     -47.245 -47.379   8.845  1.00  0.00    -0.190 NA
HETATM    2  C   UNL     1     -46.123 -47.323   9.155  1.00  0.00     0.117 C 
HETATM    3  C   UNL     1     -44.736 -47.209   9.500  1.00  0.00     0.113 A 
HETATM    4  C   UNL     1     -43.926 -46.262   8.887  1.00  0.00     0.043 A 
HETATM    5  C   UNL     1     -42.585 -46.199   9.253  1.00  0.00     0.028 A 
HETATM    6  C   UNL     1     -42.053 -47.091  10.191  1.00  0.00     0.024 A 
HETATM    7  C   UNL     1     -42.967 -47.974  10.770  1.00  0.00     0.112 A 
HETATM    8  N   UNL     1     -44.281 -48.070  10.440  1.00  0.00    -0.356 N 
ATOM      9  HN  UNL     1     -44.894 -48.757  10.877  1.00  0.00     0.166 HD
ENDROOT
BRANCH   6  10
HETATM   10  N   UNL     1     -40.719 -46.947  10.586  1.00  0.00    -0.286 NA
HETATM   11  H   UNL     1     -40.107 -47.629  10.142  1.00  0.00     0.128 HD
BRANCH  10  12
HETATM   12  C   UNL     1     -40.420 -46.873  12.015  1.00  0.00     0.159 C 
BRANCH  12  13
HETATM   13  C   UNL     1     -39.492 -48.014  12.375  1.00  0.00     0.081 C 
HETATM   14  C   UNL     1     -38.675 -47.952  13.432  1.00  0.00     0.168 C 
HETATM   15  O   UNL     1     -37.849 -48.936  13.877  1.00  0.00    -0.358 OA
HETATM   16  C   UNL     1     -37.788 -50.095  13.059  1.00  0.00     0.201 C 
HETATM   17  C   UNL     1     -38.860 -50.267  11.981  1.00  0.00     0.202 C 
HETATM   18  O   UNL     1     -39.575 -49.112  11.550  1.00  0.00    -0.350 OA
ENDBRANCH  12  13
ENDBRANCH  10  12
ENDBRANCH   6  10
TORSDOF 3
ENDMDL
MODEL 5
REMARK VINA RESULT:      -5.2      4.039      5.383
REMARK  3 active torsions:
REMARK  status: ('A' for Active; 'I' for Inactive)
REMARK    1  A    between atoms: C_6  and  N_7 
REMARK    2  A    between atoms: N_7  and  C_8 
REMARK    3  A    between atoms: C_8  and  C_9 
ROOT
HETATM    1  N   UNL     1     -43.338 -42.813  10.513  1.00  0.00    -0.190 NA
HETATM    2  C   UNL     1     -42.976 -43.920  10.491  1.00  0.00     0.117 C 
HETATM    3  C   UNL     1     -42.491 -45.270  10.503  1.00  0.00     0.113 A 
HETATM    4  C   UNL     1     -41.406 -45.628  11.293  1.00  0.00     0.043 A 
HETATM    5  C   UNL     1     -40.971 -46.950  11.262  1.00  0.00     0.028 A 
HETATM    6  C   UNL     1     -41.585 -47.890  10.427  1.00  0.00     0.024 A 
HETATM    7  C   UNL     1     -42.690 -47.427   9.707  1.00  0.00     0.112 A 
HETATM    8  N   UNL     1     -43.144 -46.147   9.707  1.00  0.00    -0.356 N 
ATOM      9  HN  UNL     1     -43.939 -45.861   9.135  1.00  0.00     0.166 HD
ENDROOT
BRANCH   6  10
HETATM   10  N   UNL     1     -41.166 -49.222  10.479  1.00  0.00    -0.286 NA
HETATM   11  H   UNL     1     -41.645 -49.807   9.797  1.00  0.00     0.128 HD
BRANCH  10  12
HETATM   12  C   UNL     1     -41.146 -49.896  11.777  1.00  0.00     0.159 C 
BRANCH  12  13
HETATM   13  C   UNL     1     -39.729 -50.344  12.067  1.00  0.00     0.081 C 
HETATM   14  C   UNL     1     -39.464 -51.340  12.920  1.00  0.00     0.168 C 
HETATM   15  O   UNL     1     -38.241 -51.860  13.206  1.00  0.00    -0.358 OA
HETATM   16  C   UNL     1     -37.141 -51.189  12.608  1.00  0.00     0.201 C 
HETATM   17  C   UNL     1     -37.434 -50.200  11.478  1.00  0.00     0.202 C 
HETATM   18  O   UNL     1     -38.752 -49.668  11.372  1.00  0.00    -0.350 OA
ENDBRANCH  12  13
ENDBRANCH  10  12
ENDBRANCH   6  10
TORSDOF 3
ENDMDL
MODEL 6
REMARK VINA RESULT:      -5.1      8.078      9.127
REMARK  3 active torsions:
REMARK  status: ('A' for Active; 'I' for Inactive)
REMARK    1  A    between atoms: C_6  and  N_7 
REMARK    2  A    between atoms: N_7  and  C_8 
REMARK    3  A    between atoms: C_8  and  C_9 
ROOT
HETATM    1  N   UNL     1     -48.304 -50.625  17.604  1.00  0.00    -0.190 NA
HETATM    2  C   UNL     1     -47.691 -51.223  16.815  1.00  0.00     0.117 C 
HETATM    3  C   UNL     1     -46.946 -51.917  15.805  1.00  0.00     0.113 A 
HETATM    4  C   UNL     1     -46.819 -51.390  14.526  1.00  0.00     0.043 A 
HETATM    5  C   UNL     1     -46.092 -52.108  13.582  1.00  0.00     0.028 A 
HETATM    6  C   UNL     1     -45.530 -53.350  13.899  1.00  0.00     0.024 A 
HETATM    7  C   UNL     1     -45.687 -53.762  15.225  1.00  0.00     0.112 A 
HETATM    8  N   UNL     1     -46.391 -53.094  16.175  1.00  0.00    -0.356 N 
ATOM      9  HN  UNL     1     -46.496 -53.462  17.121  1.00  0.00     0.166 HD
ENDROOT
BRANCH   6  10
HETATM   10  N   UNL     1     -44.745 -54.004  12.946  1.00  0.00    -0.286 NA
HETATM   11  H   UNL     1     -44.336 -54.866  13.304  1.00  0.00     0.128 HD
BRANCH  10  12
HETATM   12  C   UNL     1     -43.725 -53.234  12.235  1.00  0.00     0.159 C 
BRANCH  12  13
HETATM   13  C   UNL     1     -42.378 -53.516  12.866  1.00  0.00     0.081 C 
HETATM   14  C   UNL     1     -41.252 -52.962  12.402  1.00  0.00     0.168 C 
HETATM   15  O   UNL     1     -40.006 -53.098  12.927  1.00  0.00    -0.358 OA
HETATM   16  C   UNL     1     -39.899 -54.011  14.011  1.00  0.00     0.201 C 
HETATM   17  C   UNL     1     -41.191 -54.481  14.681  1.00  0.00     0.202 C 
HETATM   18  O   UNL     1     -42.411 -54.358  13.954  1.00  0.00    -0.350 OA
ENDBRANCH  12  13
ENDBRANCH  10  12
ENDBRANCH   6  10
TORSDOF 3
ENDMDL
MODEL 7
REMARK VINA RESULT:      -5.0      5.226      6.324
REMARK  3 active torsions:
REMARK  status: ('A' for Active; 'I' for Inactive)
REMARK    1  A    between atoms: C_6  and  N_7 
REMARK    2  A    between atoms: N_7  and  C_8 
REMARK    3  A    between atoms: C_8  and  C_9 
ROOT
HETATM    1  N   UNL     1     -45.365 -54.754  13.438  1.00  0.00    -0.190 NA
HETATM    2  C   UNL     1     -44.358 -54.216  13.209  1.00  0.00     0.117 C 
HETATM    3  C   UNL     1     -43.089 -53.600  12.948  1.00  0.00     0.113 A 
HETATM    4  C   UNL     1     -41.904 -54.237  13.296  1.00  0.00     0.043 A 
HETATM    5  C   UNL     1     -40.701 -53.591  13.027  1.00  0.00     0.028 A 
HETATM    6  C   UNL     1     -40.682 -52.315  12.454  1.00  0.00     0.024 A 
HETATM    7  C   UNL     1     -41.930 -51.789  12.110  1.00  0.00     0.112 A 
HETATM    8  N   UNL     1     -43.125 -52.383  12.357  1.00  0.00    -0.356 N 
ATOM      9  HN  UNL     1     -44.008 -51.935  12.110  1.00  0.00     0.166 HD
ENDROOT
BRANCH   6  10
HETATM   10  N   UNL     1     -39.452 -51.732  12.132  1.00  0.00    -0.286 NA
HETATM   11  H   UNL     1     -38.804 -52.398  11.716  1.00  0.00     0.128 HD
BRANCH  10  12
HETATM   12  C   UNL     1     -38.764 -50.949  13.157  1.00  0.00     0.159 C 
BRANCH  12  13
HETATM   13  C   UNL     1     -39.209 -49.506  13.044  1.00  0.00     0.081 C 
HETATM   14  C   UNL     1     -39.153 -48.838  11.886  1.00  0.00     0.168 C 
HETATM   15  O   UNL     1     -39.581 -47.568  11.661  1.00  0.00    -0.358 OA
HETATM   16  C   UNL     1     -40.028 -46.864  12.811  1.00  0.00     0.201 C 
HETATM   17  C   UNL     1     -40.296 -47.670  14.084  1.00  0.00     0.202 C 
HETATM   18  O   UNL     1     -39.691 -48.955  14.209  1.00  0.00    -0.350 OA
ENDBRANCH  12  13
ENDBRANCH  10  12
ENDBRANCH   6  10
TORSDOF 3
ENDMDL
MODEL 8
REMARK VINA RESULT:      -5.0      7.104      8.358
REMARK  3 active torsions:
REMARK  status: ('A' for Active; 'I' for Inactive)
REMARK    1  A    between atoms: C_6  and  N_7 
REMARK    2  A    between atoms: N_7  and  C_8 
REMARK    3  A    between atoms: C_8  and  C_9 
ROOT
HETATM    1  N   UNL     1     -48.269 -51.335  16.860  1.00  0.00    -0.190 NA
HETATM    2  C   UNL     1     -47.441 -51.608  16.088  1.00  0.00     0.117 C 
HETATM    3  C   UNL     1     -46.451 -51.915  15.097  1.00  0.00     0.113 A 
HETATM    4  C   UNL     1     -46.593 -51.472  13.788  1.00  0.00     0.043 A 
HETATM    5  C   UNL     1     -45.607 -51.805  12.864  1.00  0.00     0.028 A 
HETATM    6  C   UNL     1     -44.514 -52.597  13.233  1.00  0.00     0.024 A 
HETATM    7  C   UNL     1     -44.454 -52.952  14.583  1.00  0.00     0.112 A 
HETATM    8  N   UNL     1     -45.395 -52.651  15.515  1.00  0.00    -0.356 N 
ATOM      9  HN  UNL     1     -45.311 -52.965  16.481  1.00  0.00     0.166 HD
ENDROOT
BRANCH   6  10
HETATM   10  N   UNL     1     -43.508 -52.846  12.295  1.00  0.00    -0.286 NA
HETATM   11  H   UNL     1     -43.189 -53.814  12.315  1.00  0.00     0.128 HD
BRANCH  10  12
HETATM   12  C   UNL     1     -42.355 -51.949  12.254  1.00  0.00     0.159 C 
BRANCH  12  13
HETATM   13  C   UNL     1     -41.191 -52.623  12.949  1.00  0.00     0.081 C 
HETATM   14  C   UNL     1     -41.058 -53.954  12.972  1.00  0.00     0.168 C 
HETATM   15  O   UNL     1     -40.027 -54.657  13.512  1.00  0.00    -0.358 OA
HETATM   16  C   UNL     1     -39.062 -53.881  14.209  1.00  0.00     0.201 C 
HETATM   17  C   UNL     1     -39.085 -52.364  14.012  1.00  0.00     0.202 C 
HETATM   18  O   UNL     1     -40.283 -51.765  13.526  1.00  0.00    -0.350 OA
ENDBRANCH  12  13
ENDBRANCH  10  12
ENDBRANCH   6  10
TORSDOF 3
ENDMDL
MODEL 9
REMARK VINA RESULT:      -4.9      7.243      8.609
REMARK  3 active torsions:
REMARK  status: ('A' for Active; 'I' for Inactive)
REMARK    1  A    between atoms: C_6  and  N_7 
REMARK    2  A    between atoms: N_7  and  C_8 
REMARK    3  A    between atoms: C_8  and  C_9 
ROOT
HETATM    1  N   UNL     1     -42.325 -56.104  17.797  1.00  0.00    -0.190 NA
HETATM    2  C   UNL     1     -42.002 -55.617  16.789  1.00  0.00     0.117 C 
HETATM    3  C   UNL     1     -41.661 -55.014  15.533  1.00  0.00     0.113 A 
HETATM    4  C   UNL     1     -42.649 -54.663  14.622  1.00  0.00     0.043 A 
HETATM    5  C   UNL     1     -42.262 -54.088  13.415  1.00  0.00     0.028 A 
HETATM    6  C   UNL     1     -40.910 -53.899  13.108  1.00  0.00     0.024 A 
HETATM    7  C   UNL     1     -40.008 -54.253  14.114  1.00  0.00     0.112 A 
HETATM    8  N   UNL     1     -40.342 -54.819  15.302  1.00  0.00    -0.356 N 
ATOM      9  HN  UNL     1     -39.634 -55.084  15.987  1.00  0.00     0.166 HD
ENDROOT
BRANCH   6  10
HETATM   10  N   UNL     1     -40.567 -53.251  11.918  1.00  0.00    -0.286 NA
HETATM   11  H   UNL     1     -39.586 -53.375  11.676  1.00  0.00     0.128 HD
BRANCH  10  12
HETATM   12  C   UNL     1     -40.939 -51.846  11.757  1.00  0.00     0.159 C 
BRANCH  12  13
HETATM   13  C   UNL     1     -39.872 -50.986  12.401  1.00  0.00     0.081 C 
HETATM   14  C   UNL     1     -40.170 -49.839  13.022  1.00  0.00     0.168 C 
HETATM   15  O   UNL     1     -39.303 -49.025  13.681  1.00  0.00    -0.358 OA
HETATM   16  C   UNL     1     -37.935 -49.398  13.596  1.00  0.00     0.201 C 
HETATM   17  C   UNL     1     -37.606 -50.801  13.081  1.00  0.00     0.202 C 
HETATM   18  O   UNL     1     -38.594 -51.487  12.316  1.00  0.00    -0.350 OA
ENDBRANCH  12  13
ENDBRANCH  10  12
ENDBRANCH   6  10
TORSDOF 3
ENDMDL
