MODEL 1
REMARK VINA RESULT:      -6.1      0.000      0.000
REMARK  8 active torsions:
REMARK  status: ('A' for Active; 'I' for Inactive)
REMARK    1  A    between atoms: C_2  and  N_7 
REMARK    2  A    between atoms: N_3  and  C_14 
REMARK    3  A    between atoms: C_13  and  C_14 
REMARK    4  A    between atoms: C_13  and  C_21 
REMARK    5  A    between atoms: C_16  and  C_24 
REMARK    6  A    between atoms: C_21  and  O_22 
REMARK    7  A    between atoms: O_23  and  C_24 
REMARK    8  A    between atoms: O_23  and  C_26 
ROOT
HETATM    1  C   UNL     1     -40.466 -49.030  13.009  1.00  0.00     0.122 A 
HETATM    2  C   UNL     1     -39.632 -48.270  12.147  1.00  0.00     0.135 A 
HETATM    3  N   UNL     1     -41.093 -50.859  14.038  1.00  0.00    -0.326 N 
HETATM    4  C   UNL     1     -40.159 -50.376  13.161  1.00  0.00     0.140 A 
HETATM    5  N   UNL     1     -41.572 -48.712  13.782  1.00  0.00    -0.346 N 
ATOM      6  HN  UNL     1     -42.011 -47.797  13.884  1.00  0.00     0.167 HD
HETATM    7  C   UNL     1     -41.936 -49.835  14.356  1.00  0.00     0.185 A 
HETATM    8  N   UNL     1     -38.588 -48.945  11.571  1.00  0.00    -0.337 N 
ATOM      9  HN  UNL     1     -37.939 -48.452  10.959  1.00  0.00     0.168 HD
HETATM   10  N   UNL     1     -39.159 -51.064  12.594  1.00  0.00    -0.336 N 
ATOM     11  HN  UNL     1     -38.985 -52.059  12.735  1.00  0.00     0.168 HD
HETATM   12  C   UNL     1     -38.417 -50.262  11.813  1.00  0.00     0.183 A 
ENDROOT
BRANCH   2  13
HETATM   13  N   UNL     1     -39.783 -46.904  11.888  1.00  0.00    -0.358 N 
HETATM   14  C   UNL     1     -40.593 -46.529  10.709  1.00  0.00     0.109 C 
HETATM   15  C   UNL     1     -40.165 -45.114  10.270  1.00  0.00     0.027 C 
HETATM   16  C   UNL     1     -40.249 -44.100  11.410  1.00  0.00     0.004 C 
HETATM   17  C   UNL     1     -39.466 -44.584  12.626  1.00  0.00     0.020 C 
HETATM   18  C   UNL     1     -39.851 -46.002  13.042  1.00  0.00     0.125 C 
BRANCH  14  19
HETATM   19  C   UNL     1     -42.113 -46.624  10.983  1.00  0.00     0.193 C 
BRANCH  19  20
HETATM   20  O   UNL     1     -42.694 -47.729  10.279  1.00  0.00    -0.389 OA
BRANCH  20  21
HETATM   21  C   UNL     1     -43.800 -47.307   9.482  1.00  0.00     0.163 C 
HETATM   22  C   UNL     1     -43.526 -47.663   8.035  1.00  0.00     0.033 C 
ENDBRANCH  20  21
ENDBRANCH  19  20
ENDBRANCH  14  19
ENDBRANCH   2  13
BRANCH   3  23
HETATM   23  C   UNL     1     -41.203 -52.238  14.478  1.00  0.00     0.147 C 
BRANCH  23  24
HETATM   24  C   UNL     1     -41.886 -53.155  13.473  1.00  0.00     0.040 C 
HETATM   25  C   UNL     1     -42.932 -52.527  12.528  1.00  0.00     0.183 C 
HETATM   26  O   UNL     1     -43.919 -53.515  12.924  1.00  0.00    -0.389 OA
HETATM   27  C   UNL     1     -43.113 -53.866  14.078  1.00  0.00     0.183 C 
BRANCH  24  28
HETATM   28  C   UNL     1     -40.946 -54.100  12.732  1.00  0.00     0.179 C 
BRANCH  28  29
HETATM   29  O   UNL     1     -40.540 -53.501  11.506  1.00  0.00    -0.400 OA
HETATM   30  H   UNL     1     -39.860 -54.063  11.098  1.00  0.00     0.209 HD
ENDBRANCH  28  29
ENDBRANCH  24  28
ENDBRANCH  23  24
ENDBRANCH   3  23
TORSDOF 8
ENDMDL
MODEL 2
REMARK VINA RESULT:      -6.1      2.613      6.833
REMARK  8 active torsions:
REMARK  status: ('A' for Active; 'I' for Inactive)
REMARK    1  A    between atoms: C_2  and  N_7 
REMARK    2  A    between atoms: N_3  and  C_14 
REMARK    3  A    between atoms: C_13  and  C_14 
REMARK    4  A    between atoms: C_13  and  C_21 
REMARK    5  A    between atoms: C_16  and  C_24 
REMARK    6  A    between atoms: C_21  and  O_22 
REMARK    7  A    between atoms: O_23  and  C_24 
REMARK    8  A    between atoms: O_23  and  C_26 
ROOT
HETATM    1  C   UNL     1     -42.813 -51.037  13.248  1.00  0.00     0.122 A 
HETATM    2  C   UNL     1     -42.850 -52.378  13.714  1.00  0.00     0.135 A 
HETATM    3  N   UNL     1     -42.079 -49.410  11.980  1.00  0.00    -0.326 N 
HETATM    4  C   UNL     1     -41.897 -50.740  12.247  1.00  0.00     0.140 A 
HETATM    5  N   UNL     1     -43.533 -49.898  13.578  1.00  0.00    -0.346 N 
ATOM      6  HN  UNL     1     -44.283 -49.820  14.263  1.00  0.00     0.167 HD
HETATM    7  C   UNL     1     -43.044 -48.941  12.822  1.00  0.00     0.185 A 
HETATM    8  N   UNL     1     -41.987 -53.250  13.104  1.00  0.00    -0.337 N 
ATOM      9  HN  UNL     1     -41.978 -54.232  13.377  1.00  0.00     0.168 HD
HETATM   10  N   UNL     1     -41.029 -51.568  11.650  1.00  0.00    -0.336 N 
ATOM     11  HN  UNL     1     -40.370 -51.291  10.923  1.00  0.00     0.168 HD
HETATM   12  C   UNL     1     -41.148 -52.812  12.142  1.00  0.00     0.183 A 
ENDROOT
BRANCH   2  13
HETATM   13  N   UNL     1     -43.715 -52.858  14.702  1.00  0.00    -0.358 N 
HETATM   14  C   UNL     1     -45.164 -52.647  14.486  1.00  0.00     0.109 C 
HETATM   15  C   UNL     1     -45.858 -52.689  15.863  1.00  0.00     0.027 C 
HETATM   16  C   UNL     1     -45.541 -53.967  16.637  1.00  0.00     0.004 C 
HETATM   17  C   UNL     1     -44.035 -54.173  16.750  1.00  0.00     0.020 C 
HETATM   18  C   UNL     1     -43.330 -54.089  15.398  1.00  0.00     0.125 C 
BRANCH  14  19
HETATM   19  C   UNL     1     -45.767 -53.667  13.492  1.00  0.00     0.193 C 
BRANCH  19  20
HETATM   20  O   UNL     1     -45.925 -53.086  12.191  1.00  0.00    -0.389 OA
BRANCH  20  21
HETATM   21  C   UNL     1     -46.515 -51.790  12.276  1.00  0.00     0.163 C 
HETATM   22  C   UNL     1     -47.451 -51.600  11.100  1.00  0.00     0.033 C 
ENDBRANCH  20  21
ENDBRANCH  19  20
ENDBRANCH  14  19
ENDBRANCH   2  13
BRANCH   3  23
HETATM   23  C   UNL     1     -41.315 -48.629  11.022  1.00  0.00     0.147 C 
BRANCH  23  24
HETATM   24  C   UNL     1     -40.127 -47.897  11.630  1.00  0.00     0.040 C 
HETATM   25  C   UNL     1     -40.379 -47.058  12.901  1.00  0.00     0.183 C 
HETATM   26  O   UNL     1     -39.786 -45.890  12.277  1.00  0.00    -0.389 OA
HETATM   27  C   UNL     1     -39.900 -46.520  10.975  1.00  0.00     0.183 C 
BRANCH  24  28
HETATM   28  C   UNL     1     -38.854 -48.729  11.740  1.00  0.00     0.179 C 
BRANCH  28  29
HETATM   29  O   UNL     1     -38.876 -49.761  10.759  1.00  0.00    -0.400 OA
HETATM   30  H   UNL     1     -39.042 -50.608  11.205  1.00  0.00     0.209 HD
ENDBRANCH  28  29
ENDBRANCH  24  28
ENDBRANCH  23  24
ENDBRANCH   3  23
TORSDOF 8
ENDMDL
MODEL 3
REMARK VINA RESULT:      -6.0      1.223      1.477
REMARK  8 active torsions:
REMARK  status: ('A' for Active; 'I' for Inactive)
REMARK    1  A    between atoms: C_2  and  N_7 
REMARK    2  A    between atoms: N_3  and  C_14 
REMARK    3  A    between atoms: C_13  and  C_14 
REMARK    4  A    between atoms: C_13  and  C_21 
REMARK    5  A    between atoms: C_16  and  C_24 
REMARK    6  A    between atoms: C_21  and  O_22 
REMARK    7  A    between atoms: O_23  and  C_24 
REMARK    8  A    between atoms: O_23  and  C_26 
ROOT
HETATM    1  C   UNL     1     -41.155 -48.746  12.169  1.00  0.00     0.122 A 
HETATM    2  C   UNL     1     -40.055 -47.922  11.807  1.00  0.00     0.135 A 
HETATM    3  N   UNL     1     -42.180 -50.664  12.430  1.00  0.00    -0.326 N 
HETATM    4  C   UNL     1     -41.001 -50.116  12.001  1.00  0.00     0.140 A 
HETATM    5  N   UNL     1     -42.411 -48.476  12.690  1.00  0.00    -0.346 N 
ATOM      6  HN  UNL     1     -42.794 -47.564  12.934  1.00  0.00     0.167 HD
HETATM    7  C   UNL     1     -43.004 -49.643  12.802  1.00  0.00     0.185 A 
HETATM    8  N   UNL     1     -38.941 -48.574  11.351  1.00  0.00    -0.337 N 
ATOM      9  HN  UNL     1     -38.109 -48.043  11.095  1.00  0.00     0.168 HD
HETATM   10  N   UNL     1     -39.931 -50.775  11.536  1.00  0.00    -0.336 N 
ATOM     11  HN  UNL     1     -39.876 -51.787  11.425  1.00  0.00     0.168 HD
HETATM   12  C   UNL     1     -38.941 -49.919  11.237  1.00  0.00     0.183 A 
ENDROOT
BRANCH   2  13
HETATM   13  N   UNL     1     -40.029 -46.529  11.924  1.00  0.00    -0.358 N 
HETATM   14  C   UNL     1     -40.527 -45.748  10.770  1.00  0.00     0.109 C 
HETATM   15  C   UNL     1     -39.893 -44.344  10.839  1.00  0.00     0.027 C 
HETATM   16  C   UNL     1     -40.136 -43.660  12.183  1.00  0.00     0.004 C 
HETATM   17  C   UNL     1     -39.682 -44.550  13.335  1.00  0.00     0.020 C 
HETATM   18  C   UNL     1     -40.269 -45.957  13.253  1.00  0.00     0.125 C 
BRANCH  14  19
HETATM   19  C   UNL     1     -42.072 -45.693  10.718  1.00  0.00     0.193 C 
BRANCH  19  20
HETATM   20  O   UNL     1     -42.551 -45.955   9.393  1.00  0.00    -0.389 OA
BRANCH  20  21
HETATM   21  C   UNL     1     -43.104 -47.267   9.296  1.00  0.00     0.163 C 
HETATM   22  C   UNL     1     -44.588 -47.155   9.011  1.00  0.00     0.033 C 
ENDBRANCH  20  21
ENDBRANCH  19  20
ENDBRANCH  14  19
ENDBRANCH   2  13
BRANCH   3  23
HETATM   23  C   UNL     1     -42.510 -52.078  12.410  1.00  0.00     0.147 C 
BRANCH  23  24
HETATM   24  C   UNL     1     -41.858 -52.880  13.528  1.00  0.00     0.040 C 
HETATM   25  C   UNL     1     -42.787 -53.539  14.570  1.00  0.00     0.183 C 
HETATM   26  O   UNL     1     -42.057 -52.908  15.654  1.00  0.00    -0.389 OA
HETATM   27  C   UNL     1     -41.444 -51.988  14.715  1.00  0.00     0.183 C 
BRANCH  24  28
HETATM   28  C   UNL     1     -40.753 -53.827  13.071  1.00  0.00     0.179 C 
BRANCH  28  29
HETATM   29  O   UNL     1     -40.527 -53.654  11.677  1.00  0.00    -0.400 OA
HETATM   30  H   UNL     1     -39.653 -53.246  11.553  1.00  0.00     0.209 HD
ENDBRANCH  28  29
ENDBRANCH  24  28
ENDBRANCH  23  24
ENDBRANCH   3  23
TORSDOF 8
ENDMDL
MODEL 4
REMARK VINA RESULT:      -5.9      2.517      7.247
REMARK  8 active torsions:
REMARK  status: ('A' for Active; 'I' for Inactive)
REMARK    1  A    between atoms: C_2  and  N_7 
REMARK    2  A    between atoms: N_3  and  C_14 
REMARK    3  A    between atoms: C_13  and  C_14 
REMARK    4  A    between atoms: C_13  and  C_21 
REMARK    5  A    between atoms: C_16  and  C_24 
REMARK    6  A    between atoms: C_21  and  O_22 
REMARK    7  A    between atoms: O_23  and  C_24 
REMARK    8  A    between atoms: O_23  and  C_26 
ROOT
HETATM    1  C   UNL     1     -42.834 -49.244  12.694  1.00  0.00     0.122 A 
HETATM    2  C   UNL     1     -43.066 -50.165  13.750  1.00  0.00     0.135 A 
HETATM    3  N   UNL     1     -41.579 -47.976  11.423  1.00  0.00    -0.326 N 
HETATM    4  C   UNL     1     -41.523 -48.833  12.489  1.00  0.00     0.140 A 
HETATM    5  N   UNL     1     -43.665 -48.638  11.764  1.00  0.00    -0.346 N 
ATOM      6  HN  UNL     1     -44.671 -48.766  11.661  1.00  0.00     0.167 HD
HETATM    7  C   UNL     1     -42.884 -47.865  11.044  1.00  0.00     0.185 A 
HETATM    8  N   UNL     1     -41.959 -50.572  14.446  1.00  0.00    -0.337 N 
ATOM      9  HN  UNL     1     -42.054 -51.249  15.203  1.00  0.00     0.168 HD
HETATM   10  N   UNL     1     -40.428 -49.200  13.169  1.00  0.00    -0.336 N 
ATOM     11  HN  UNL     1     -39.486 -48.858  12.980  1.00  0.00     0.168 HD
HETATM   12  C   UNL     1     -40.742 -50.081  14.132  1.00  0.00     0.183 A 
ENDROOT
BRANCH   2  13
HETATM   13  N   UNL     1     -44.315 -50.695  14.088  1.00  0.00    -0.358 N 
HETATM   14  C   UNL     1     -44.967 -51.568  13.088  1.00  0.00     0.109 C 
HETATM   15  C   UNL     1     -46.485 -51.555  13.365  1.00  0.00     0.027 C 
HETATM   16  C   UNL     1     -46.817 -51.932  14.807  1.00  0.00     0.004 C 
HETATM   17  C   UNL     1     -46.048 -51.055  15.789  1.00  0.00     0.020 C 
HETATM   18  C   UNL     1     -44.550 -51.025  15.497  1.00  0.00     0.125 C 
BRANCH  14  19
HETATM   19  C   UNL     1     -44.384 -53.001  13.086  1.00  0.00     0.193 C 
BRANCH  19  20
HETATM   20  O   UNL     1     -45.395 -53.967  12.772  1.00  0.00    -0.389 OA
BRANCH  20  21
HETATM   21  C   UNL     1     -45.368 -55.056  13.693  1.00  0.00     0.163 C 
HETATM   22  C   UNL     1     -44.128 -54.940  14.556  1.00  0.00     0.033 C 
ENDBRANCH  20  21
ENDBRANCH  19  20
ENDBRANCH  14  19
ENDBRANCH   2  13
BRANCH   3  23
HETATM   23  C   UNL     1     -40.451 -47.256  10.859  1.00  0.00     0.147 C 
BRANCH  23  24
HETATM   24  C   UNL     1     -40.354 -45.806  11.312  1.00  0.00     0.040 C 
HETATM   25  C   UNL     1     -41.533 -44.871  10.970  1.00  0.00     0.183 C 
HETATM   26  O   UNL     1     -40.630 -43.921  10.346  1.00  0.00    -0.389 OA
HETATM   27  C   UNL     1     -39.591 -44.932  10.297  1.00  0.00     0.183 C 
BRANCH  24  28
HETATM   28  C   UNL     1     -39.877 -45.618  12.748  1.00  0.00     0.179 C 
BRANCH  28  29
HETATM   29  O   UNL     1     -40.628 -44.578  13.365  1.00  0.00    -0.400 OA
HETATM   30  H   UNL     1     -41.426 -44.966  13.762  1.00  0.00     0.209 HD
ENDBRANCH  28  29
ENDBRANCH  24  28
ENDBRANCH  23  24
ENDBRANCH   3  23
TORSDOF 8
ENDMDL
MODEL 5
REMARK VINA RESULT:      -5.9      1.630      3.069
REMARK  8 active torsions:
REMARK  status: ('A' for Active; 'I' for Inactive)
REMARK    1  A    between atoms: C_2  and  N_7 
REMARK    2  A    between atoms: N_3  and  C_14 
REMARK    3  A    between atoms: C_13  and  C_14 
REMARK    4  A    between atoms: C_13  and  C_21 
REMARK    5  A    between atoms: C_16  and  C_24 
REMARK    6  A    between atoms: C_21  and  O_22 
REMARK    7  A    between atoms: O_23  and  C_24 
REMARK    8  A    between atoms: O_23  and  C_26 
ROOT
HETATM    1  C   UNL     1     -42.288 -49.418  12.079  1.00  0.00     0.122 A 
HETATM    2  C   UNL     1     -41.744 -48.564  11.082  1.00  0.00     0.135 A 
HETATM    3  N   UNL     1     -42.201 -51.040  13.548  1.00  0.00    -0.326 N 
HETATM    4  C   UNL     1     -41.443 -50.377  12.621  1.00  0.00     0.140 A 
HETATM    5  N   UNL     1     -43.539 -49.508  12.672  1.00  0.00    -0.346 N 
ATOM      6  HN  UNL     1     -44.352 -48.921  12.487  1.00  0.00     0.167 HD
HETATM    7  C   UNL     1     -43.456 -50.507  13.520  1.00  0.00     0.185 A 
HETATM    8  N   UNL     1     -40.424 -48.763  10.777  1.00  0.00    -0.337 N 
ATOM      9  HN  UNL     1     -39.966 -48.169  10.086  1.00  0.00     0.168 HD
HETATM   10  N   UNL     1     -40.156 -50.605  12.324  1.00  0.00    -0.336 N 
ATOM     11  HN  UNL     1     -39.583 -51.333  12.750  1.00  0.00     0.168 HD
HETATM   12  C   UNL     1     -39.726 -49.743  11.389  1.00  0.00     0.183 A 
ENDROOT
BRANCH   2  13
HETATM   13  N   UNL     1     -42.444 -47.537  10.441  1.00  0.00    -0.358 N 
HETATM   14  C   UNL     1     -42.130 -46.152  10.852  1.00  0.00     0.109 C 
HETATM   15  C   UNL     1     -43.344 -45.267  10.504  1.00  0.00     0.027 C 
HETATM   16  C   UNL     1     -43.750 -45.386   9.036  1.00  0.00     0.004 C 
HETATM   17  C   UNL     1     -43.975 -46.844   8.652  1.00  0.00     0.020 C 
HETATM   18  C   UNL     1     -42.797 -47.738   9.032  1.00  0.00     0.125 C 
BRANCH  14  19
HETATM   19  C   UNL     1     -40.820 -45.629  10.214  1.00  0.00     0.193 C 
BRANCH  19  20
HETATM   20  O   UNL     1     -39.726 -45.726  11.134  1.00  0.00    -0.389 OA
BRANCH  20  21
HETATM   21  C   UNL     1     -40.140 -45.404  12.461  1.00  0.00     0.163 C 
HETATM   22  C   UNL     1     -38.970 -44.794  13.205  1.00  0.00     0.033 C 
ENDBRANCH  20  21
ENDBRANCH  19  20
ENDBRANCH  14  19
ENDBRANCH   2  13
BRANCH   3  23
HETATM   23  C   UNL     1     -41.757 -52.164  14.353  1.00  0.00     0.147 C 
BRANCH  23  24
HETATM   24  C   UNL     1     -42.022 -53.522  13.718  1.00  0.00     0.040 C 
HETATM   25  C   UNL     1     -43.299 -53.675  12.864  1.00  0.00     0.183 C 
HETATM   26  O   UNL     1     -43.710 -54.829  13.643  1.00  0.00    -0.389 OA
HETATM   27  C   UNL     1     -42.758 -54.477  14.679  1.00  0.00     0.183 C 
BRANCH  24  28
HETATM   28  C   UNL     1     -40.809 -54.158  13.047  1.00  0.00     0.179 C 
BRANCH  28  29
HETATM   29  O   UNL     1     -40.630 -53.590  11.755  1.00  0.00    -0.400 OA
HETATM   30  H   UNL     1     -40.778 -54.282  11.089  1.00  0.00     0.209 HD
ENDBRANCH  28  29
ENDBRANCH  24  28
ENDBRANCH  23  24
ENDBRANCH   3  23
TORSDOF 8
ENDMDL
MODEL 6
REMARK VINA RESULT:      -5.8      2.213      4.045
REMARK  8 active torsions:
REMARK  status: ('A' for Active; 'I' for Inactive)
REMARK    1  A    between atoms: C_2  and  N_7 
REMARK    2  A    between atoms: N_3  and  C_14 
REMARK    3  A    between atoms: C_13  and  C_14 
REMARK    4  A    between atoms: C_13  and  C_21 
REMARK    5  A    between atoms: C_16  and  C_24 
REMARK    6  A    between atoms: C_21  and  O_22 
REMARK    7  A    between atoms: O_23  and  C_24 
REMARK    8  A    between atoms: O_23  and  C_26 
ROOT
HETATM    1  C   UNL     1     -42.137 -50.734  13.466  1.00  0.00     0.122 A 
HETATM    2  C   UNL     1     -41.401 -50.365  12.308  1.00  0.00     0.135 A 
HETATM    3  N   UNL     1     -43.143 -52.157  14.792  1.00  0.00    -0.326 N 
HETATM    4  C   UNL     1     -42.460 -52.077  13.608  1.00  0.00     0.140 A 
HETATM    5  N   UNL     1     -42.621 -50.018  14.550  1.00  0.00    -0.346 N 
ATOM      6  HN  UNL     1     -42.517 -49.019  14.725  1.00  0.00     0.167 HD
HETATM    7  C   UNL     1     -43.243 -50.897  15.303  1.00  0.00     0.185 A 
HETATM    8  N   UNL     1     -41.064 -51.386  11.459  1.00  0.00    -0.337 N 
ATOM      9  HN  UNL     1     -40.517 -51.191  10.621  1.00  0.00     0.168 HD
HETATM   10  N   UNL     1     -42.163 -53.089  12.782  1.00  0.00    -0.336 N 
ATOM     11  HN  UNL     1     -42.435 -54.060  12.933  1.00  0.00     0.168 HD
HETATM   12  C   UNL     1     -41.455 -52.649  11.729  1.00  0.00     0.183 A 
ENDROOT
BRANCH   2  13
HETATM   13  N   UNL     1     -40.977 -49.066  12.011  1.00  0.00    -0.358 N 
HETATM   14  C   UNL     1     -39.682 -48.634  12.581  1.00  0.00     0.109 C 
HETATM   15  C   UNL     1     -39.684 -47.093  12.648  1.00  0.00     0.027 C 
HETATM   16  C   UNL     1     -39.995 -46.452  11.297  1.00  0.00     0.004 C 
HETATM   17  C   UNL     1     -41.296 -47.001  10.721  1.00  0.00     0.020 C 
HETATM   18  C   UNL     1     -41.323 -48.527  10.692  1.00  0.00     0.125 C 
BRANCH  14  19
HETATM   19  C   UNL     1     -38.475 -49.186  11.787  1.00  0.00     0.193 C 
BRANCH  19  20
HETATM   20  O   UNL     1     -38.187 -50.538  12.165  1.00  0.00    -0.389 OA
BRANCH  20  21
HETATM   21  C   UNL     1     -37.930 -50.638  13.564  1.00  0.00     0.163 C 
HETATM   22  C   UNL     1     -38.578 -51.900  14.094  1.00  0.00     0.033 C 
ENDBRANCH  20  21
ENDBRANCH  19  20
ENDBRANCH  14  19
ENDBRANCH   2  13
BRANCH   3  23
HETATM   23  C   UNL     1     -43.723 -53.365  15.351  1.00  0.00     0.147 C 
BRANCH  23  24
HETATM   24  C   UNL     1     -45.072 -53.738  14.752  1.00  0.00     0.040 C 
HETATM   25  C   UNL     1     -45.951 -52.593  14.205  1.00  0.00     0.183 C 
HETATM   26  O   UNL     1     -47.069 -53.030  15.021  1.00  0.00    -0.389 OA
HETATM   27  C   UNL     1     -46.174 -53.839  15.825  1.00  0.00     0.183 C 
BRANCH  24  28
HETATM   28  C   UNL     1     -45.040 -54.933  13.806  1.00  0.00     0.179 C 
BRANCH  28  29
HETATM   29  O   UNL     1     -44.908 -54.473  12.465  1.00  0.00    -0.400 OA
HETATM   30  H   UNL     1     -45.740 -54.648  11.995  1.00  0.00     0.209 HD
ENDBRANCH  28  29
ENDBRANCH  24  28
ENDBRANCH  23  24
ENDBRANCH   3  23
TORSDOF 8
ENDMDL
MODEL 7
REMARK VINA RESULT:      -5.7      2.688      7.459
REMARK  8 active torsions:
REMARK  status: ('A' for Active; 'I' for Inactive)
REMARK    1  A    between atoms: C_2  and  N_7 
REMARK    2  A    between atoms: N_3  and  C_14 
REMARK    3  A    between atoms: C_13  and  C_14 
REMARK    4  A    between atoms: C_13  and  C_21 
REMARK    5  A    between atoms: C_16  and  C_24 
REMARK    6  A    between atoms: C_21  and  O_22 
REMARK    7  A    between atoms: O_23  and  C_24 
REMARK    8  A    between atoms: O_23  and  C_26 
ROOT
HETATM    1  C   UNL     1     -42.885 -51.302  12.653  1.00  0.00     0.122 A 
HETATM    2  C   UNL     1     -43.112 -52.679  12.919  1.00  0.00     0.135 A 
HETATM    3  N   UNL     1     -41.713 -49.603  11.923  1.00  0.00    -0.326 N 
HETATM    4  C   UNL     1     -41.666 -50.961  12.083  1.00  0.00     0.140 A 
HETATM    5  N   UNL     1     -43.653 -50.162  12.834  1.00  0.00    -0.346 N 
ATOM      6  HN  UNL     1     -44.598 -50.109  13.213  1.00  0.00     0.167 HD
HETATM    7  C   UNL     1     -42.907 -49.165  12.416  1.00  0.00     0.185 A 
HETATM    8  N   UNL     1     -42.105 -53.535  12.559  1.00  0.00    -0.337 N 
ATOM      9  HN  UNL     1     -42.213 -54.539  12.702  1.00  0.00     0.168 HD
HETATM   10  N   UNL     1     -40.657 -51.775  11.742  1.00  0.00    -0.336 N 
ATOM     11  HN  UNL     1     -39.775 -51.467  11.333  1.00  0.00     0.168 HD
HETATM   12  C   UNL     1     -40.968 -53.053  12.014  1.00  0.00     0.183 A 
ENDROOT
BRANCH   2  13
HETATM   13  N   UNL     1     -44.284 -53.203  13.473  1.00  0.00    -0.358 N 
HETATM   14  C   UNL     1     -44.231 -54.599  13.962  1.00  0.00     0.109 C 
HETATM   15  C   UNL     1     -45.670 -55.153  13.970  1.00  0.00     0.027 C 
HETATM   16  C   UNL     1     -46.630 -54.269  14.764  1.00  0.00     0.004 C 
HETATM   17  C   UNL     1     -46.575 -52.828  14.271  1.00  0.00     0.020 C 
HETATM   18  C   UNL     1     -45.150 -52.283  14.217  1.00  0.00     0.125 C 
BRANCH  14  19
HETATM   19  C   UNL     1     -43.549 -54.714  15.346  1.00  0.00     0.193 C 
BRANCH  19  20
HETATM   20  O   UNL     1     -42.152 -55.002  15.209  1.00  0.00    -0.389 OA
BRANCH  20  21
HETATM   21  C   UNL     1     -41.532 -55.160  16.484  1.00  0.00     0.163 C 
HETATM   22  C   UNL     1     -41.584 -56.622  16.878  1.00  0.00     0.033 C 
ENDBRANCH  20  21
ENDBRANCH  19  20
ENDBRANCH  14  19
ENDBRANCH   2  13
BRANCH   3  23
HETATM   23  C   UNL     1     -40.642 -48.777  11.395  1.00  0.00     0.147 C 
BRANCH  23  24
HETATM   24  C   UNL     1     -39.480 -48.580  12.359  1.00  0.00     0.040 C 
HETATM   25  C   UNL     1     -39.728 -48.897  13.849  1.00  0.00     0.183 C 
HETATM   26  O   UNL     1     -39.252 -47.581  14.233  1.00  0.00    -0.389 OA
HETATM   27  C   UNL     1     -39.385 -47.126  12.862  1.00  0.00     0.183 C 
BRANCH  24  28
HETATM   28  C   UNL     1     -38.147 -49.139  11.873  1.00  0.00     0.179 C 
BRANCH  28  29
HETATM   29  O   UNL     1     -38.378 -50.063  10.815  1.00  0.00    -0.400 OA
HETATM   30  H   UNL     1     -38.100 -49.652   9.979  1.00  0.00     0.209 HD
ENDBRANCH  28  29
ENDBRANCH  24  28
ENDBRANCH  23  24
ENDBRANCH   3  23
TORSDOF 8
ENDMDL
MODEL 8
REMARK VINA RESULT:      -5.7      1.652      2.433
REMARK  8 active torsions:
REMARK  status: ('A' for Active; 'I' for Inactive)
REMARK    1  A    between atoms: C_2  and  N_7 
REMARK    2  A    between atoms: N_3  and  C_14 
REMARK    3  A    between atoms: C_13  and  C_14 
REMARK    4  A    between atoms: C_13  and  C_21 
REMARK    5  A    between atoms: C_16  and  C_24 
REMARK    6  A    between atoms: C_21  and  O_22 
REMARK    7  A    between atoms: O_23  and  C_24 
REMARK    8  A    between atoms: O_23  and  C_26 
ROOT
HETATM    1  C   UNL     1     -40.744 -49.237  12.204  1.00  0.00     0.122 A 
HETATM    2  C   UNL     1     -41.466 -48.014  12.189  1.00  0.00     0.135 A 
HETATM    3  N   UNL     1     -40.555 -51.413  12.365  1.00  0.00    -0.326 N 
HETATM    4  C   UNL     1     -41.475 -50.400  12.409  1.00  0.00     0.140 A 
HETATM    5  N   UNL     1     -39.403 -49.549  12.041  1.00  0.00    -0.346 N 
ATOM      6  HN  UNL     1     -38.638 -48.901  11.857  1.00  0.00     0.167 HD
HETATM    7  C   UNL     1     -39.326 -50.853  12.175  1.00  0.00     0.185 A 
HETATM    8  N   UNL     1     -42.822 -48.114  12.355  1.00  0.00    -0.337 N 
ATOM      9  HN  UNL     1     -43.402 -47.275  12.332  1.00  0.00     0.168 HD
HETATM   10  N   UNL     1     -42.796 -50.523  12.596  1.00  0.00    -0.336 N 
ATOM     11  HN  UNL     1     -43.281 -51.406  12.752  1.00  0.00     0.168 HD
HETATM   12  C   UNL     1     -43.394 -49.321  12.549  1.00  0.00     0.183 A 
ENDROOT
BRANCH   2  13
HETATM   13  N   UNL     1     -40.898 -46.753  11.981  1.00  0.00    -0.358 N 
HETATM   14  C   UNL     1     -41.033 -46.170  10.628  1.00  0.00     0.109 C 
HETATM   15  C   UNL     1     -39.901 -45.139  10.442  1.00  0.00     0.027 C 
HETATM   16  C   UNL     1     -39.877 -44.092  11.554  1.00  0.00     0.004 C 
HETATM   17  C   UNL     1     -39.826 -44.756  12.925  1.00  0.00     0.020 C 
HETATM   18  C   UNL     1     -40.915 -45.811  13.104  1.00  0.00     0.125 C 
BRANCH  14  19
HETATM   19  C   UNL     1     -42.432 -45.555  10.388  1.00  0.00     0.193 C 
BRANCH  19  20
HETATM   20  O   UNL     1     -42.904 -45.852   9.067  1.00  0.00    -0.389 OA
BRANCH  20  21
HETATM   21  C   UNL     1     -43.263 -47.227   8.947  1.00  0.00     0.163 C 
HETATM   22  C   UNL     1     -44.767 -47.356   9.082  1.00  0.00     0.033 C 
ENDBRANCH  20  21
ENDBRANCH  19  20
ENDBRANCH  14  19
ENDBRANCH   2  13
BRANCH   3  23
HETATM   23  C   UNL     1     -40.841 -52.822  12.567  1.00  0.00     0.147 C 
BRANCH  23  24
HETATM   24  C   UNL     1     -40.523 -53.322  13.969  1.00  0.00     0.040 C 
HETATM   25  C   UNL     1     -41.510 -54.320  14.612  1.00  0.00     0.183 C 
HETATM   26  O   UNL     1     -41.637 -53.475  15.785  1.00  0.00    -0.389 OA
HETATM   27  C   UNL     1     -41.049 -52.366  15.058  1.00  0.00     0.183 C 
BRANCH  24  28
HETATM   28  C   UNL     1     -39.072 -53.739  14.182  1.00  0.00     0.179 C 
BRANCH  28  29
HETATM   29  O   UNL     1     -38.771 -54.853  13.349  1.00  0.00    -0.400 OA
HETATM   30  H   UNL     1     -38.178 -55.451  13.834  1.00  0.00     0.209 HD
ENDBRANCH  28  29
ENDBRANCH  24  28
ENDBRANCH  23  24
ENDBRANCH   3  23
TORSDOF 8
ENDMDL
MODEL 9
REMARK VINA RESULT:      -5.7      2.089      3.192
REMARK  8 active torsions:
REMARK  status: ('A' for Active; 'I' for Inactive)
REMARK    1  A    between atoms: C_2  and  N_7 
REMARK    2  A    between atoms: N_3  and  C_14 
REMARK    3  A    between atoms: C_13  and  C_14 
REMARK    4  A    between atoms: C_13  and  C_21 
REMARK    5  A    between atoms: C_16  and  C_24 
REMARK    6  A    between atoms: C_21  and  O_22 
REMARK    7  A    between atoms: O_23  and  C_24 
REMARK    8  A    between atoms: O_23  and  C_26 
ROOT
HETATM    1  C   UNL     1     -42.478 -50.573  12.746  1.00  0.00     0.122 A 
HETATM    2  C   UNL     1     -41.159 -50.193  12.380  1.00  0.00     0.135 A 
HETATM    3  N   UNL     1     -44.135 -51.988  12.959  1.00  0.00    -0.326 N 
HETATM    4  C   UNL     1     -42.846 -51.890  12.509  1.00  0.00     0.140 A 
HETATM    5  N   UNL     1     -43.535 -49.889  13.329  1.00  0.00    -0.346 N 
ATOM      6  HN  UNL     1     -43.548 -48.915  13.630  1.00  0.00     0.167 HD
HETATM    7  C   UNL     1     -44.515 -50.759  13.410  1.00  0.00     0.185 A 
HETATM    8  N   UNL     1     -40.375 -51.183  11.850  1.00  0.00    -0.337 N 
ATOM      9  HN  UNL     1     -39.410 -50.981  11.587  1.00  0.00     0.168 HD
HETATM   10  N   UNL     1     -42.106 -52.870  11.973  1.00  0.00    -0.336 N 
ATOM     11  HN  UNL     1     -42.432 -53.823  11.813  1.00  0.00     0.168 HD
HETATM   12  C   UNL     1     -40.874 -52.424  11.675  1.00  0.00     0.183 A 
ENDROOT
BRANCH   2  13
HETATM   13  N   UNL     1     -40.616 -48.917  12.560  1.00  0.00    -0.358 N 
HETATM   14  C   UNL     1     -40.980 -47.885  11.564  1.00  0.00     0.109 C 
HETATM   15  C   UNL     1     -39.882 -46.802  11.581  1.00  0.00     0.027 C 
HETATM   16  C   UNL     1     -39.644 -46.236  12.979  1.00  0.00     0.004 C 
HETATM   17  C   UNL     1     -39.360 -47.354  13.976  1.00  0.00     0.020 C 
HETATM   18  C   UNL     1     -40.417 -48.455  13.937  1.00  0.00     0.125 C 
BRANCH  14  19
HETATM   19  C   UNL     1     -42.389 -47.297  11.811  1.00  0.00     0.193 C 
BRANCH  19  20
HETATM   20  O   UNL     1     -43.335 -47.814  10.867  1.00  0.00    -0.389 OA
BRANCH  20  21
HETATM   21  C   UNL     1     -42.833 -47.724   9.535  1.00  0.00     0.163 C 
HETATM   22  C   UNL     1     -43.537 -46.587   8.821  1.00  0.00     0.033 C 
ENDBRANCH  20  21
ENDBRANCH  19  20
ENDBRANCH  14  19
ENDBRANCH   2  13
BRANCH   3  23
HETATM   23  C   UNL     1     -44.966 -53.178  12.887  1.00  0.00     0.147 C 
BRANCH  23  24
HETATM   24  C   UNL     1     -45.154 -53.881  14.224  1.00  0.00     0.040 C 
HETATM   25  C   UNL     1     -44.177 -53.523  15.364  1.00  0.00     0.183 C 
HETATM   26  O   UNL     1     -43.850 -54.924  15.556  1.00  0.00    -0.389 OA
HETATM   27  C   UNL     1     -44.434 -55.244  14.267  1.00  0.00     0.183 C 
BRANCH  24  28
HETATM   28  C   UNL     1     -46.597 -53.947  14.711  1.00  0.00     0.179 C 
BRANCH  28  29
HETATM   29  O   UNL     1     -47.048 -55.297  14.680  1.00  0.00    -0.400 OA
HETATM   30  H   UNL     1     -46.759 -55.738  15.496  1.00  0.00     0.209 HD
ENDBRANCH  28  29
ENDBRANCH  24  28
ENDBRANCH  23  24
ENDBRANCH   3  23
TORSDOF 8
ENDMDL
