MODEL 1
REMARK VINA RESULT:      -6.7      0.000      0.000
REMARK  3 active torsions:
REMARK  status: ('A' for Active; 'I' for Inactive)
REMARK    1  A    between atoms: C_2  and  C_3 
REMARK    2  A    between atoms: C_9  and  N_10 
REMARK       I    between atoms: N_10  and  C_11 
REMARK       I    between atoms: C_11  and  N_13 
REMARK    3  A    between atoms: N_13  and  C_14 
ROOT
HETATM    1  N   UNL     1     -42.239 -49.103  11.061  1.00  0.00    -0.305 N 
HETATM    2  C   UNL     1     -42.830 -49.299  12.293  1.00  0.00     0.321 C 
HETATM    3  O   UNL     1     -43.053 -48.405  13.094  1.00  0.00    -0.247 OA
HETATM    4  N   UNL     1     -43.151 -50.616  12.528  1.00  0.00    -0.335 N 
HETATM    5  H   UNL     1     -41.560 -49.800  10.796  1.00  0.00     0.171 HD
HETATM    6  H   UNL     1     -42.714 -51.306  11.935  1.00  0.00     0.164 HD
ENDROOT
BRANCH   1   7
HETATM    7  C   UNL     1     -42.006 -47.812  10.588  1.00  0.00     0.092 A 
HETATM    8  C   UNL     1     -42.815 -47.134   9.702  1.00  0.00     0.104 A 
HETATM    9  O   UNL     1     -42.300 -45.900   9.471  1.00  0.00    -0.240 OA
HETATM   10  N   UNL     1     -41.140 -45.739  10.197  1.00  0.00    -0.263 N 
HETATM   11  C   UNL     1     -40.947 -46.894  10.848  1.00  0.00     0.058 A 
ATOM     12  HN  UNL     1     -40.548 -44.908  10.231  1.00  0.00     0.194 HD
HETATM   13  C   UNL     1     -39.784 -47.013  11.760  1.00  0.00     0.072 C 
BRANCH   8  14
HETATM   14  C   UNL     1     -43.993 -47.496   8.881  1.00  0.00     0.065 C 
HETATM   15  C   UNL     1     -43.550 -48.008   7.514  1.00  0.00     0.012 C 
ENDBRANCH   8  14
ENDBRANCH   1   7
BRANCH   4  16
HETATM   16  C   UNL     1     -43.739 -51.082  13.796  1.00  0.00     0.122 C 
HETATM   17  C   UNL     1     -42.694 -51.824  14.637  1.00  0.00     0.065 C 
HETATM   18  C   UNL     1     -43.431 -52.972  15.330  1.00  0.00     0.057 C 
HETATM   19  C   UNL     1     -42.853 -54.344  14.969  1.00  0.00     0.045 C 
HETATM   20  C   UNL     1     -43.438 -52.835  16.854  1.00  0.00     0.045 C 
HETATM   21  O   UNL     1     -44.789 -52.937  14.882  1.00  0.00    -0.369 OA
HETATM   22  C   UNL     1     -44.917 -52.087  13.718  1.00  0.00     0.075 C 
HETATM   23  C   UNL     1     -46.298 -51.441  13.857  1.00  0.00     0.048 C 
HETATM   24  C   UNL     1     -44.875 -52.995  12.485  1.00  0.00     0.048 C 
ENDBRANCH   4  16
TORSDOF 3
ENDMDL
MODEL 2
REMARK VINA RESULT:      -6.5      1.830      2.937
REMARK  3 active torsions:
REMARK  status: ('A' for Active; 'I' for Inactive)
REMARK    1  A    between atoms: C_2  and  C_3 
REMARK    2  A    between atoms: C_9  and  N_10 
REMARK       I    between atoms: N_10  and  C_11 
REMARK       I    between atoms: C_11  and  N_13 
REMARK    3  A    between atoms: N_13  and  C_14 
ROOT
HETATM    1  N   UNL     1     -42.496 -48.459  10.274  1.00  0.00    -0.305 N 
HETATM    2  C   UNL     1     -42.467 -48.836  11.602  1.00  0.00     0.321 C 
HETATM    3  O   UNL     1     -42.765 -48.100  12.529  1.00  0.00    -0.247 OA
HETATM    4  N   UNL     1     -42.073 -50.143  11.777  1.00  0.00    -0.335 N 
HETATM    5  H   UNL     1     -41.721 -48.786   9.719  1.00  0.00     0.171 HD
HETATM    6  H   UNL     1     -41.615 -50.590  10.996  1.00  0.00     0.164 HD
ENDROOT
BRANCH   1   7
HETATM    7  C   UNL     1     -43.036 -47.228   9.903  1.00  0.00     0.092 A 
HETATM    8  C   UNL     1     -42.364 -46.025   9.931  1.00  0.00     0.104 A 
HETATM    9  O   UNL     1     -43.183 -45.037   9.492  1.00  0.00    -0.240 OA
HETATM   10  N   UNL     1     -44.413 -45.565   9.167  1.00  0.00    -0.263 N 
HETATM   11  C   UNL     1     -44.337 -46.876   9.437  1.00  0.00     0.058 A 
ATOM     12  HN  UNL     1     -45.219 -45.061   8.796  1.00  0.00     0.194 HD
HETATM   13  C   UNL     1     -45.511 -47.733   9.145  1.00  0.00     0.072 C 
BRANCH   8  14
HETATM   14  C   UNL     1     -41.048 -45.580  10.445  1.00  0.00     0.065 C 
HETATM   15  C   UNL     1     -41.210 -44.894  11.797  1.00  0.00     0.012 C 
ENDBRANCH   8  14
ENDBRANCH   1   7
BRANCH   4  16
HETATM   16  C   UNL     1     -41.910 -50.758  13.105  1.00  0.00     0.122 C 
HETATM   17  C   UNL     1     -40.595 -51.542  13.182  1.00  0.00     0.065 C 
HETATM   18  C   UNL     1     -40.878 -52.783  14.032  1.00  0.00     0.057 C 
HETATM   19  C   UNL     1     -40.609 -54.088  13.276  1.00  0.00     0.045 C 
HETATM   20  C   UNL     1     -40.074 -52.802  15.334  1.00  0.00     0.045 C 
HETATM   21  O   UNL     1     -42.266 -52.754  14.375  1.00  0.00    -0.369 OA
HETATM   22  C   UNL     1     -42.972 -51.795  13.553  1.00  0.00     0.075 C 
HETATM   23  C   UNL     1     -44.056 -51.219  14.470  1.00  0.00     0.048 C 
HETATM   24  C   UNL     1     -43.609 -52.570  12.396  1.00  0.00     0.048 C 
ENDBRANCH   4  16
TORSDOF 3
ENDMDL
MODEL 3
REMARK VINA RESULT:      -6.2      2.632      6.894
REMARK  3 active torsions:
REMARK  status: ('A' for Active; 'I' for Inactive)
REMARK    1  A    between atoms: C_2  and  C_3 
REMARK    2  A    between atoms: C_9  and  N_10 
REMARK       I    between atoms: N_10  and  C_11 
REMARK       I    between atoms: C_11  and  N_13 
REMARK    3  A    between atoms: N_13  and  C_14 
ROOT
HETATM    1  N   UNL     1     -43.431 -51.859  13.894  1.00  0.00    -0.305 N 
HETATM    2  C   UNL     1     -42.536 -51.627  12.869  1.00  0.00     0.321 C 
HETATM    3  O   UNL     1     -42.381 -52.371  11.913  1.00  0.00    -0.247 OA
HETATM    4  N   UNL     1     -41.832 -50.455  13.030  1.00  0.00    -0.335 N 
HETATM    5  H   UNL     1     -43.088 -51.649  14.818  1.00  0.00     0.171 HD
HETATM    6  H   UNL     1     -41.841 -50.040  13.950  1.00  0.00     0.164 HD
ENDROOT
BRANCH   1   7
HETATM    7  C   UNL     1     -44.346 -52.907  13.805  1.00  0.00     0.092 A 
HETATM    8  C   UNL     1     -45.629 -52.802  13.311  1.00  0.00     0.104 A 
HETATM    9  O   UNL     1     -46.234 -54.016  13.358  1.00  0.00    -0.240 OA
HETATM   10  N   UNL     1     -45.365 -54.946  13.885  1.00  0.00    -0.263 N 
HETATM   11  C   UNL     1     -44.241 -54.279  14.178  1.00  0.00     0.058 A 
ATOM     12  HN  UNL     1     -45.543 -55.941  14.023  1.00  0.00     0.194 HD
HETATM   13  C   UNL     1     -43.088 -55.033  14.728  1.00  0.00     0.072 C 
BRANCH   8  14
HETATM   14  C   UNL     1     -46.493 -51.675  12.892  1.00  0.00     0.065 C 
HETATM   15  C   UNL     1     -47.003 -51.897  11.472  1.00  0.00     0.012 C 
ENDBRANCH   8  14
ENDBRANCH   1   7
BRANCH   4  16
HETATM   16  C   UNL     1     -40.779 -50.019  12.097  1.00  0.00     0.122 C 
HETATM   17  C   UNL     1     -39.412 -50.558  12.532  1.00  0.00     0.065 C 
HETATM   18  C   UNL     1     -38.393 -49.462  12.216  1.00  0.00     0.057 C 
HETATM   19  C   UNL     1     -37.636 -48.985  13.460  1.00  0.00     0.045 C 
HETATM   20  C   UNL     1     -37.369 -49.893  11.162  1.00  0.00     0.045 C 
HETATM   21  O   UNL     1     -39.118 -48.346  11.690  1.00  0.00    -0.369 OA
HETATM   22  C   UNL     1     -40.534 -48.495  11.948  1.00  0.00     0.075 C 
HETATM   23  C   UNL     1     -41.220 -47.870  10.730  1.00  0.00     0.048 C 
HETATM   24  C   UNL     1     -40.853 -47.691  13.212  1.00  0.00     0.048 C 
ENDBRANCH   4  16
TORSDOF 3
ENDMDL
MODEL 4
REMARK VINA RESULT:      -6.2      2.620      7.438
REMARK  3 active torsions:
REMARK  status: ('A' for Active; 'I' for Inactive)
REMARK    1  A    between atoms: C_2  and  C_3 
REMARK    2  A    between atoms: C_9  and  N_10 
REMARK       I    between atoms: N_10  and  C_11 
REMARK       I    between atoms: C_11  and  N_13 
REMARK    3  A    between atoms: N_13  and  C_14 
ROOT
HETATM    1  N   UNL     1     -43.376 -52.141  14.134  1.00  0.00    -0.305 N 
HETATM    2  C   UNL     1     -42.549 -51.891  13.057  1.00  0.00     0.321 C 
HETATM    3  O   UNL     1     -42.470 -52.609  12.074  1.00  0.00    -0.247 OA
HETATM    4  N   UNL     1     -41.819 -50.733  13.203  1.00  0.00    -0.335 N 
HETATM    5  H   UNL     1     -42.968 -51.961  15.038  1.00  0.00     0.171 HD
HETATM    6  H   UNL     1     -41.760 -50.344  14.132  1.00  0.00     0.164 HD
ENDROOT
BRANCH   1   7
HETATM    7  C   UNL     1     -44.310 -53.175  14.079  1.00  0.00     0.092 A 
HETATM    8  C   UNL     1     -44.109 -54.452  14.555  1.00  0.00     0.104 A 
HETATM    9  O   UNL     1     -45.228 -55.193  14.353  1.00  0.00    -0.240 OA
HETATM   10  N   UNL     1     -46.189 -54.422  13.737  1.00  0.00    -0.263 N 
HETATM   11  C   UNL     1     -45.633 -53.218  13.548  1.00  0.00     0.058 A 
ATOM     12  HN  UNL     1     -47.133 -54.710  13.478  1.00  0.00     0.194 HD
HETATM   13  C   UNL     1     -46.451 -52.143  12.935  1.00  0.00     0.072 C 
BRANCH   8  14
HETATM   14  C   UNL     1     -42.943 -55.192  15.088  1.00  0.00     0.065 C 
HETATM   15  C   UNL     1     -42.820 -54.978  16.593  1.00  0.00     0.012 C 
ENDBRANCH   8  14
ENDBRANCH   1   7
BRANCH   4  16
HETATM   16  C   UNL     1     -40.826 -50.284  12.212  1.00  0.00     0.122 C 
HETATM   17  C   UNL     1     -39.407 -50.648  12.664  1.00  0.00     0.065 C 
HETATM   18  C   UNL     1     -38.503 -49.492  12.231  1.00  0.00     0.057 C 
HETATM   19  C   UNL     1     -37.781 -48.835  13.412  1.00  0.00     0.045 C 
HETATM   20  C   UNL     1     -37.456 -49.916  11.198  1.00  0.00     0.045 C 
HETATM   21  O   UNL     1     -39.340 -48.503  11.624  1.00  0.00    -0.369 OA
HETATM   22  C   UNL     1     -40.731 -48.763  11.925  1.00  0.00     0.075 C 
HETATM   23  C   UNL     1     -41.490 -48.318  10.671  1.00  0.00     0.048 C 
HETATM   24  C   UNL     1     -41.111 -47.882  13.119  1.00  0.00     0.048 C 
ENDBRANCH   4  16
TORSDOF 3
ENDMDL
MODEL 5
REMARK VINA RESULT:      -5.8      2.536      6.992
REMARK  3 active torsions:
REMARK  status: ('A' for Active; 'I' for Inactive)
REMARK    1  A    between atoms: C_2  and  C_3 
REMARK    2  A    between atoms: C_9  and  N_10 
REMARK       I    between atoms: N_10  and  C_11 
REMARK       I    between atoms: C_11  and  N_13 
REMARK    3  A    between atoms: N_13  and  C_14 
ROOT
HETATM    1  N   UNL     1     -42.920 -51.603  12.137  1.00  0.00    -0.305 N 
HETATM    2  C   UNL     1     -42.489 -50.552  12.921  1.00  0.00     0.321 C 
HETATM    3  O   UNL     1     -42.692 -50.466  14.122  1.00  0.00    -0.247 OA
HETATM    4  N   UNL     1     -41.793 -49.603  12.207  1.00  0.00    -0.335 N 
HETATM    5  H   UNL     1     -43.287 -51.341  11.235  1.00  0.00     0.171 HD
HETATM    6  H   UNL     1     -41.887 -49.628  11.203  1.00  0.00     0.164 HD
ENDROOT
BRANCH   1   7
HETATM    7  C   UNL     1     -43.488 -52.733  12.724  1.00  0.00     0.092 A 
HETATM    8  C   UNL     1     -44.841 -52.979  12.825  1.00  0.00     0.104 A 
HETATM    9  O   UNL     1     -45.040 -54.174  13.438  1.00  0.00    -0.240 OA
HETATM   10  N   UNL     1     -43.824 -54.740  13.755  1.00  0.00    -0.263 N 
HETATM   11  C   UNL     1     -42.892 -53.865  13.351  1.00  0.00     0.058 A 
ATOM     12  HN  UNL     1     -43.666 -55.641  14.205  1.00  0.00     0.194 HD
HETATM   13  C   UNL     1     -41.462 -54.220  13.521  1.00  0.00     0.072 C 
BRANCH   8  14
HETATM   14  C   UNL     1     -46.065 -52.194  12.549  1.00  0.00     0.065 C 
HETATM   15  C   UNL     1     -46.491 -51.419  13.791  1.00  0.00     0.012 C 
ENDBRANCH   8  14
ENDBRANCH   1   7
BRANCH   4  16
HETATM   16  C   UNL     1     -41.281 -48.362  12.813  1.00  0.00     0.122 C 
HETATM   17  C   UNL     1     -41.693 -47.143  11.980  1.00  0.00     0.065 C 
HETATM   18  C   UNL     1     -40.517 -46.165  12.031  1.00  0.00     0.057 C 
HETATM   19  C   UNL     1     -39.957 -45.845  10.641  1.00  0.00     0.045 C 
HETATM   20  C   UNL     1     -40.873 -44.849  12.726  1.00  0.00     0.045 C 
HETATM   21  O   UNL     1     -39.477 -46.791  12.788  1.00  0.00    -0.369 OA
HETATM   22  C   UNL     1     -39.744 -48.205  12.944  1.00  0.00     0.075 C 
HETATM   23  C   UNL     1     -39.199 -48.553  14.333  1.00  0.00     0.048 C 
HETATM   24  C   UNL     1     -38.951 -48.940  11.860  1.00  0.00     0.048 C 
ENDBRANCH   4  16
TORSDOF 3
ENDMDL
MODEL 6
REMARK VINA RESULT:      -5.8      2.435      3.266
REMARK  3 active torsions:
REMARK  status: ('A' for Active; 'I' for Inactive)
REMARK    1  A    between atoms: C_2  and  C_3 
REMARK    2  A    between atoms: C_9  and  N_10 
REMARK       I    between atoms: N_10  and  C_11 
REMARK       I    between atoms: C_11  and  N_13 
REMARK    3  A    between atoms: N_13  and  C_14 
ROOT
HETATM    1  N   UNL     1     -43.343 -48.236  11.350  1.00  0.00    -0.305 N 
HETATM    2  C   UNL     1     -42.224 -49.044  11.383  1.00  0.00     0.321 C 
HETATM    3  O   UNL     1     -41.187 -48.801  10.787  1.00  0.00    -0.247 OA
HETATM    4  N   UNL     1     -42.395 -50.160  12.171  1.00  0.00    -0.335 N 
HETATM    5  H   UNL     1     -44.222 -48.725  11.277  1.00  0.00     0.171 HD
HETATM    6  H   UNL     1     -43.343 -50.405  12.417  1.00  0.00     0.164 HD
ENDROOT
BRANCH   1   7
HETATM    7  C   UNL     1     -43.288 -46.982  10.744  1.00  0.00     0.092 A 
HETATM    8  C   UNL     1     -43.822 -46.673   9.511  1.00  0.00     0.104 A 
HETATM    9  O   UNL     1     -43.600 -45.362   9.237  1.00  0.00    -0.240 OA
HETATM   10  N   UNL     1     -42.916 -44.780  10.281  1.00  0.00    -0.263 N 
HETATM   11  C   UNL     1     -42.704 -45.755  11.175  1.00  0.00     0.058 A 
ATOM     12  HN  UNL     1     -42.628 -43.804  10.357  1.00  0.00     0.194 HD
HETATM   13  C   UNL     1     -42.017 -45.420  12.446  1.00  0.00     0.072 C 
BRANCH   8  14
HETATM   14  C   UNL     1     -44.431 -47.458   8.414  1.00  0.00     0.065 C 
HETATM   15  C   UNL     1     -45.867 -47.833   8.763  1.00  0.00     0.012 C 
ENDBRANCH   8  14
ENDBRANCH   1   7
BRANCH   4  16
HETATM   16  C   UNL     1     -41.363 -51.200  12.319  1.00  0.00     0.122 C 
HETATM   17  C   UNL     1     -41.999 -52.548  12.678  1.00  0.00     0.065 C 
HETATM   18  C   UNL     1     -41.041 -53.233  13.655  1.00  0.00     0.057 C 
HETATM   19  C   UNL     1     -41.697 -53.541  15.004  1.00  0.00     0.045 C 
HETATM   20  C   UNL     1     -40.454 -54.531  13.093  1.00  0.00     0.045 C 
HETATM   21  O   UNL     1     -39.957 -52.330  13.891  1.00  0.00    -0.369 OA
HETATM   22  C   UNL     1     -40.293 -51.002  13.423  1.00  0.00     0.075 C 
HETATM   23  C   UNL     1     -38.970 -50.423  12.912  1.00  0.00     0.048 C 
HETATM   24  C   UNL     1     -40.791 -50.206  14.633  1.00  0.00     0.048 C 
ENDBRANCH   4  16
TORSDOF 3
ENDMDL
MODEL 7
REMARK VINA RESULT:      -5.8      2.916      4.234
REMARK  3 active torsions:
REMARK  status: ('A' for Active; 'I' for Inactive)
REMARK    1  A    between atoms: C_2  and  C_3 
REMARK    2  A    between atoms: C_9  and  N_10 
REMARK       I    between atoms: N_10  and  C_11 
REMARK       I    between atoms: C_11  and  N_13 
REMARK    3  A    between atoms: N_13  and  C_14 
ROOT
HETATM    1  N   UNL     1     -43.087 -48.157  11.418  1.00  0.00    -0.305 N 
HETATM    2  C   UNL     1     -41.997 -48.996  11.304  1.00  0.00     0.321 C 
HETATM    3  O   UNL     1     -41.214 -48.977  10.367  1.00  0.00    -0.247 OA
HETATM    4  N   UNL     1     -41.874 -49.859  12.369  1.00  0.00    -0.335 N 
HETATM    5  H   UNL     1     -43.930 -48.594  11.758  1.00  0.00     0.171 HD
HETATM    6  H   UNL     1     -42.685 -49.974  12.959  1.00  0.00     0.164 HD
ENDROOT
BRANCH   1   7
HETATM    7  C   UNL     1     -43.265 -47.106  10.518  1.00  0.00     0.092 A 
HETATM    8  C   UNL     1     -42.480 -45.975  10.454  1.00  0.00     0.104 A 
HETATM    9  O   UNL     1     -42.924 -45.170   9.455  1.00  0.00    -0.240 OA
HETATM   10  N   UNL     1     -44.011 -45.752   8.841  1.00  0.00    -0.263 N 
HETATM   11  C   UNL     1     -44.234 -46.902   9.493  1.00  0.00     0.058 A 
ATOM     12  HN  UNL     1     -44.539 -45.382   8.050  1.00  0.00     0.194 HD
HETATM   13  C   UNL     1     -45.331 -47.784   9.027  1.00  0.00     0.072 C 
BRANCH   8  14
HETATM   14  C   UNL     1     -41.396 -45.412  11.291  1.00  0.00     0.065 C 
HETATM   15  C   UNL     1     -40.040 -45.658  10.639  1.00  0.00     0.012 C 
ENDBRANCH   8  14
ENDBRANCH   1   7
BRANCH   4  16
HETATM   16  C   UNL     1     -40.823 -50.887  12.448  1.00  0.00     0.122 C 
HETATM   17  C   UNL     1     -41.245 -52.023  13.387  1.00  0.00     0.065 C 
HETATM   18  C   UNL     1     -39.981 -52.469  14.125  1.00  0.00     0.057 C 
HETATM   19  C   UNL     1     -40.106 -52.326  15.645  1.00  0.00     0.045 C 
HETATM   20  C   UNL     1     -39.588 -53.913  13.804  1.00  0.00     0.045 C 
HETATM   21  O   UNL     1     -38.914 -51.619  13.692  1.00  0.00    -0.369 OA
HETATM   22  C   UNL     1     -39.438 -50.461  13.001  1.00  0.00     0.075 C 
HETATM   23  C   UNL     1     -38.402 -50.153  11.915  1.00  0.00     0.048 C 
HETATM   24  C   UNL     1     -39.503 -49.316  14.016  1.00  0.00     0.048 C 
ENDBRANCH   4  16
TORSDOF 3
ENDMDL
MODEL 8
REMARK VINA RESULT:      -5.7      2.347      7.315
REMARK  3 active torsions:
REMARK  status: ('A' for Active; 'I' for Inactive)
REMARK    1  A    between atoms: C_2  and  C_3 
REMARK    2  A    between atoms: C_9  and  N_10 
REMARK       I    between atoms: N_10  and  C_11 
REMARK       I    between atoms: C_11  and  N_13 
REMARK    3  A    between atoms: N_13  and  C_14 
ROOT
HETATM    1  N   UNL     1     -43.382 -51.731  12.447  1.00  0.00    -0.305 N 
HETATM    2  C   UNL     1     -43.264 -50.500  13.062  1.00  0.00     0.321 C 
HETATM    3  O   UNL     1     -43.988 -50.115  13.967  1.00  0.00    -0.247 OA
HETATM    4  N   UNL     1     -42.233 -49.745  12.551  1.00  0.00    -0.335 N 
HETATM    5  H   UNL     1     -43.266 -51.722  11.446  1.00  0.00     0.171 HD
HETATM    6  H   UNL     1     -41.857 -50.030  11.659  1.00  0.00     0.164 HD
ENDROOT
BRANCH   1   7
HETATM    7  C   UNL     1     -44.259 -52.690  12.953  1.00  0.00     0.092 A 
HETATM    8  C   UNL     1     -43.893 -53.771  13.727  1.00  0.00     0.104 A 
HETATM    9  O   UNL     1     -44.997 -54.487  14.056  1.00  0.00    -0.240 OA
HETATM   10  N   UNL     1     -46.114 -53.896  13.506  1.00  0.00    -0.263 N 
HETATM   11  C   UNL     1     -45.671 -52.832  12.822  1.00  0.00     0.058 A 
ATOM     12  HN  UNL     1     -47.081 -54.206  13.601  1.00  0.00     0.194 HD
HETATM   13  C   UNL     1     -46.660 -51.958  12.146  1.00  0.00     0.072 C 
BRANCH   8  14
HETATM   14  C   UNL     1     -42.601 -54.366  14.138  1.00  0.00     0.065 C 
HETATM   15  C   UNL     1     -42.806 -55.322  15.309  1.00  0.00     0.012 C 
ENDBRANCH   8  14
ENDBRANCH   1   7
BRANCH   4  16
HETATM   16  C   UNL     1     -41.945 -48.374  13.005  1.00  0.00     0.122 C 
HETATM   17  C   UNL     1     -42.695 -47.349  12.147  1.00  0.00     0.065 C 
HETATM   18  C   UNL     1     -41.761 -46.147  11.990  1.00  0.00     0.057 C 
HETATM   19  C   UNL     1     -41.430 -45.846  10.525  1.00  0.00     0.045 C 
HETATM   20  C   UNL     1     -42.323 -44.876  12.631  1.00  0.00     0.045 C 
HETATM   21  O   UNL     1     -40.538 -46.470  12.658  1.00  0.00    -0.369 OA
HETATM   22  C   UNL     1     -40.474 -47.888  12.940  1.00  0.00     0.075 C 
HETATM   23  C   UNL     1     -39.727 -47.986  14.274  1.00  0.00     0.048 C 
HETATM   24  C   UNL     1     -39.655 -48.538  11.821  1.00  0.00     0.048 C 
ENDBRANCH   4  16
TORSDOF 3
ENDMDL
MODEL 9
REMARK VINA RESULT:      -5.5      1.729      3.468
REMARK  3 active torsions:
REMARK  status: ('A' for Active; 'I' for Inactive)
REMARK    1  A    between atoms: C_2  and  C_3 
REMARK    2  A    between atoms: C_9  and  N_10 
REMARK       I    between atoms: N_10  and  C_11 
REMARK       I    between atoms: C_11  and  N_13 
REMARK    3  A    between atoms: N_13  and  C_14 
ROOT
HETATM    1  N   UNL     1     -41.516 -50.397  11.517  1.00  0.00    -0.305 N 
HETATM    2  C   UNL     1     -42.563 -50.579  12.398  1.00  0.00     0.321 C 
HETATM    3  O   UNL     1     -42.990 -49.712  13.143  1.00  0.00    -0.247 OA
HETATM    4  N   UNL     1     -43.090 -51.850  12.345  1.00  0.00    -0.335 N 
HETATM    5  H   UNL     1     -40.866 -51.166  11.460  1.00  0.00     0.171 HD
HETATM    6  H   UNL     1     -42.530 -52.558  11.894  1.00  0.00     0.164 HD
ENDROOT
BRANCH   1   7
HETATM    7  C   UNL     1     -40.979 -49.126  11.315  1.00  0.00     0.092 A 
HETATM    8  C   UNL     1     -39.780 -48.680  11.829  1.00  0.00     0.104 A 
HETATM    9  O   UNL     1     -39.559 -47.404  11.423  1.00  0.00    -0.240 OA
HETATM   10  N   UNL     1     -40.607 -46.981  10.635  1.00  0.00    -0.263 N 
HETATM   11  C   UNL     1     -41.473 -48.003  10.589  1.00  0.00     0.058 A 
ATOM     12  HN  UNL     1     -40.704 -46.074  10.179  1.00  0.00     0.194 HD
HETATM   13  C   UNL     1     -42.700 -47.862   9.769  1.00  0.00     0.072 C 
BRANCH   8  14
HETATM   14  C   UNL     1     -38.797 -49.220  12.795  1.00  0.00     0.065 C 
HETATM   15  C   UNL     1     -38.706 -48.316  14.020  1.00  0.00     0.012 C 
ENDBRANCH   8  14
ENDBRANCH   1   7
BRANCH   4  16
HETATM   16  C   UNL     1     -44.178 -52.302  13.228  1.00  0.00     0.122 C 
HETATM   17  C   UNL     1     -44.998 -51.109  13.733  1.00  0.00     0.065 C 
HETATM   18  C   UNL     1     -45.388 -51.431  15.178  1.00  0.00     0.057 C 
HETATM   19  C   UNL     1     -44.867 -50.390  16.174  1.00  0.00     0.045 C 
HETATM   20  C   UNL     1     -46.901 -51.566  15.365  1.00  0.00     0.045 C 
HETATM   21  O   UNL     1     -44.792 -52.689  15.508  1.00  0.00    -0.369 OA
HETATM   22  C   UNL     1     -43.786 -53.045  14.531  1.00  0.00     0.075 C 
HETATM   23  C   UNL     1     -43.869 -54.572  14.426  1.00  0.00     0.048 C 
HETATM   24  C   UNL     1     -42.429 -52.623  15.101  1.00  0.00     0.048 C 
ENDBRANCH   4  16
TORSDOF 3
ENDMDL
