MODEL 1
REMARK VINA RESULT:      -6.2      0.000      0.000
REMARK  4 active torsions:
REMARK  status: ('A' for Active; 'I' for Inactive)
REMARK       I    between atoms: C_2  and  N_3 
REMARK       I    between atoms: C_2  and  N_12 
REMARK    1  A    between atoms: N_3  and  C_4 
REMARK    2  A    between atoms: C_4  and  C_5 
REMARK    3  A    between atoms: C_5  and  C_6 
REMARK    4  A    between atoms: N_12  and  C_13 
ROOT
HETATM    1  O   UNL     1     -39.580 -52.975  13.135  1.00  0.00    -0.247 OA
HETATM    2  C   UNL     1     -40.283 -52.114  12.615  1.00  0.00     0.322 C 
HETATM    3  N   UNL     1     -41.628 -52.247  12.457  1.00  0.00    -0.343 N 
HETATM    4  N   UNL     1     -39.702 -50.989  12.115  1.00  0.00    -0.288 N 
HETATM    5  H   UNL     1     -42.154 -51.417  12.204  1.00  0.00     0.164 HD
HETATM    6  H   UNL     1     -38.696 -50.960  12.166  1.00  0.00     0.172 HD
ENDROOT
BRANCH   3   7
HETATM    7  C   UNL     1     -42.355 -53.411  12.927  1.00  0.00     0.128 C 
BRANCH   7   8
HETATM    8  C   UNL     1     -43.762 -53.467  12.326  1.00  0.00     0.053 C 
BRANCH   8   9
HETATM    9  C   UNL     1     -44.880 -53.148  13.301  1.00  0.00    -0.082 A 
HETATM   10  C   UNL     1     -45.521 -54.126  13.958  1.00  0.00    -0.024 A 
HETATM   11  C   UNL     1     -46.679 -53.923  14.869  1.00  0.00     0.027 A 
HETATM   12  C   UNL     1     -47.127 -52.487  15.121  1.00  0.00     0.004 A 
HETATM   13  C   UNL     1     -46.410 -51.360  14.384  1.00  0.00     0.005 A 
HETATM   14  C   UNL     1     -45.276 -51.707  13.420  1.00  0.00     0.034 A 
ENDBRANCH   8   9
ENDBRANCH   7   8
ENDBRANCH   3   7
BRANCH   4  15
HETATM   15  C   UNL     1     -40.353 -49.962  11.495  1.00  0.00     0.168 A 
HETATM   16  N   UNL     1     -40.608 -49.796  10.217  1.00  0.00    -0.279 N 
HETATM   17  N   UNL     1     -41.252 -48.597   9.977  1.00  0.00    -0.303 N 
ATOM     18  HN  UNL     1     -40.362 -50.470   9.492  1.00  0.00     0.189 HD
HETATM   19  C   UNL     1     -41.440 -47.918  11.089  1.00  0.00     0.160 A 
ATOM     20  HN  UNL     1     -41.545 -48.279   9.053  1.00  0.00     0.186 HD
HETATM   21  S   UNL     1     -40.891 -48.706  12.512  1.00  0.00    -0.046 SA
ENDBRANCH   4  15
TORSDOF 4
ENDMDL
MODEL 2
REMARK VINA RESULT:      -6.2      2.501      3.287
REMARK  4 active torsions:
REMARK  status: ('A' for Active; 'I' for Inactive)
REMARK       I    between atoms: C_2  and  N_3 
REMARK       I    between atoms: C_2  and  N_12 
REMARK    1  A    between atoms: N_3  and  C_4 
REMARK    2  A    between atoms: C_4  and  C_5 
REMARK    3  A    between atoms: C_5  and  C_6 
REMARK    4  A    between atoms: N_12  and  C_13 
ROOT
HETATM    1  O   UNL     1     -40.091 -48.998  11.770  1.00  0.00    -0.247 OA
HETATM    2  C   UNL     1     -41.181 -48.856  11.226  1.00  0.00     0.322 C 
HETATM    3  N   UNL     1     -42.268 -49.620  11.526  1.00  0.00    -0.343 N 
HETATM    4  N   UNL     1     -41.319 -47.934  10.233  1.00  0.00    -0.288 N 
HETATM    5  H   UNL     1     -43.169 -49.309  11.178  1.00  0.00     0.164 HD
HETATM    6  H   UNL     1     -40.476 -47.448   9.973  1.00  0.00     0.172 HD
ENDROOT
BRANCH   3   7
HETATM    7  C   UNL     1     -42.236 -50.649  12.547  1.00  0.00     0.128 C 
BRANCH   7   8
HETATM    8  C   UNL     1     -42.779 -50.124  13.880  1.00  0.00     0.053 C 
BRANCH   8   9
HETATM    9  C   UNL     1     -44.160 -50.636  14.246  1.00  0.00    -0.082 A 
HETATM   10  C   UNL     1     -44.990 -51.110  13.306  1.00  0.00    -0.024 A 
HETATM   11  C   UNL     1     -46.387 -51.557  13.550  1.00  0.00     0.027 A 
HETATM   12  C   UNL     1     -46.888 -51.530  14.991  1.00  0.00     0.004 A 
HETATM   13  C   UNL     1     -45.959 -50.994  16.076  1.00  0.00     0.005 A 
HETATM   14  C   UNL     1     -44.566 -50.501  15.683  1.00  0.00     0.034 A 
ENDBRANCH   8   9
ENDBRANCH   7   8
ENDBRANCH   3   7
BRANCH   4  15
HETATM   15  C   UNL     1     -42.460 -47.683   9.529  1.00  0.00     0.168 A 
HETATM   16  N   UNL     1     -42.874 -48.222   8.405  1.00  0.00    -0.279 N 
HETATM   17  N   UNL     1     -44.066 -47.668   7.981  1.00  0.00    -0.303 N 
ATOM     18  HN  UNL     1     -42.376 -48.960   7.906  1.00  0.00     0.189 HD
HETATM   19  C   UNL     1     -44.484 -46.731   8.807  1.00  0.00     0.160 A 
ATOM     20  HN  UNL     1     -44.561 -47.949   7.134  1.00  0.00     0.186 HD
HETATM   21  S   UNL     1     -43.484 -46.489  10.181  1.00  0.00    -0.046 SA
ENDBRANCH   4  15
TORSDOF 4
ENDMDL
MODEL 3
REMARK VINA RESULT:      -6.2      2.150      3.221
REMARK  4 active torsions:
REMARK  status: ('A' for Active; 'I' for Inactive)
REMARK       I    between atoms: C_2  and  N_3 
REMARK       I    between atoms: C_2  and  N_12 
REMARK    1  A    between atoms: N_3  and  C_4 
REMARK    2  A    between atoms: C_4  and  C_5 
REMARK    3  A    between atoms: C_5  and  C_6 
REMARK    4  A    between atoms: N_12  and  C_13 
ROOT
HETATM    1  O   UNL     1     -44.142 -54.778  13.380  1.00  0.00    -0.247 OA
HETATM    2  C   UNL     1     -43.690 -53.731  12.927  1.00  0.00     0.322 C 
HETATM    3  N   UNL     1     -44.476 -52.723  12.456  1.00  0.00    -0.343 N 
HETATM    4  N   UNL     1     -42.342 -53.572  12.827  1.00  0.00    -0.288 N 
HETATM    5  H   UNL     1     -44.034 -51.825  12.287  1.00  0.00     0.164 HD
HETATM    6  H   UNL     1     -41.790 -54.369  13.100  1.00  0.00     0.172 HD
ENDROOT
BRANCH   3   7
HETATM    7  C   UNL     1     -45.924 -52.788  12.487  1.00  0.00     0.128 C 
BRANCH   7   8
HETATM    8  C   UNL     1     -46.526 -51.499  13.055  1.00  0.00     0.053 C 
BRANCH   8   9
HETATM    9  C   UNL     1     -46.314 -51.306  14.545  1.00  0.00    -0.082 A 
HETATM   10  C   UNL     1     -47.304 -51.544  15.419  1.00  0.00    -0.024 A 
HETATM   11  C   UNL     1     -47.222 -51.307  16.884  1.00  0.00     0.027 A 
HETATM   12  C   UNL     1     -45.888 -50.817  17.440  1.00  0.00     0.004 A 
HETATM   13  C   UNL     1     -44.749 -50.541  16.463  1.00  0.00     0.005 A 
HETATM   14  C   UNL     1     -44.983 -50.761  14.969  1.00  0.00     0.034 A 
ENDBRANCH   8   9
ENDBRANCH   7   8
ENDBRANCH   3   7
BRANCH   4  15
HETATM   15  C   UNL     1     -41.701 -52.476  12.327  1.00  0.00     0.168 A 
HETATM   16  N   UNL     1     -41.290 -52.247  11.101  1.00  0.00    -0.279 N 
HETATM   17  N   UNL     1     -40.639 -51.032  10.999  1.00  0.00    -0.303 N 
ATOM     18  HN  UNL     1     -41.434 -52.887  10.319  1.00  0.00     0.189 HD
HETATM   19  C   UNL     1     -40.587 -50.413  12.160  1.00  0.00     0.160 A 
ATOM     20  HN  UNL     1     -40.248 -50.661  10.133  1.00  0.00     0.186 HD
HETATM   21  S   UNL     1     -41.366 -51.239  13.449  1.00  0.00    -0.046 SA
ENDBRANCH   4  15
TORSDOF 4
ENDMDL
MODEL 4
REMARK VINA RESULT:      -6.0      1.573      2.112
REMARK  4 active torsions:
REMARK  status: ('A' for Active; 'I' for Inactive)
REMARK       I    between atoms: C_2  and  N_3 
REMARK       I    between atoms: C_2  and  N_12 
REMARK    1  A    between atoms: N_3  and  C_4 
REMARK    2  A    between atoms: C_4  and  C_5 
REMARK    3  A    between atoms: C_5  and  C_6 
REMARK    4  A    between atoms: N_12  and  C_13 
ROOT
HETATM    1  O   UNL     1     -40.713 -52.701  11.974  1.00  0.00    -0.247 OA
HETATM    2  C   UNL     1     -41.024 -51.515  11.937  1.00  0.00     0.322 C 
HETATM    3  N   UNL     1     -42.085 -51.002  12.620  1.00  0.00    -0.343 N 
HETATM    4  N   UNL     1     -40.322 -50.664  11.139  1.00  0.00    -0.288 N 
HETATM    5  H   UNL     1     -42.150 -49.991  12.692  1.00  0.00     0.164 HD
HETATM    6  H   UNL     1     -39.602 -51.089  10.579  1.00  0.00     0.172 HD
ENDROOT
BRANCH   3   7
HETATM    7  C   UNL     1     -42.920 -51.814  13.483  1.00  0.00     0.128 C 
BRANCH   7   8
HETATM    8  C   UNL     1     -44.404 -51.501  13.275  1.00  0.00     0.053 C 
BRANCH   8   9
HETATM    9  C   UNL     1     -45.177 -51.223  14.551  1.00  0.00    -0.082 A 
HETATM   10  C   UNL     1     -44.567 -50.705  15.627  1.00  0.00    -0.024 A 
HETATM   11  C   UNL     1     -45.216 -50.473  16.944  1.00  0.00     0.027 A 
HETATM   12  C   UNL     1     -46.704 -50.791  17.057  1.00  0.00     0.004 A 
HETATM   13  C   UNL     1     -47.417 -51.380  15.844  1.00  0.00     0.005 A 
HETATM   14  C   UNL     1     -46.619 -51.635  14.565  1.00  0.00     0.034 A 
ENDBRANCH   8   9
ENDBRANCH   7   8
ENDBRANCH   3   7
BRANCH   4  15
HETATM   15  C   UNL     1     -40.567 -49.330  10.984  1.00  0.00     0.168 A 
HETATM   16  N   UNL     1     -41.403 -48.732  10.166  1.00  0.00    -0.279 N 
HETATM   17  N   UNL     1     -41.328 -47.357  10.275  1.00  0.00    -0.303 N 
ATOM     18  HN  UNL     1     -42.031 -49.223   9.529  1.00  0.00     0.189 HD
HETATM   19  C   UNL     1     -40.430 -46.990  11.166  1.00  0.00     0.160 A 
ATOM     20  HN  UNL     1     -41.898 -46.706   9.733  1.00  0.00     0.186 HD
HETATM   21  S   UNL     1     -39.646 -48.290  11.969  1.00  0.00    -0.046 SA
ENDBRANCH   4  15
TORSDOF 4
ENDMDL
MODEL 5
REMARK VINA RESULT:      -5.9      2.400      3.532
REMARK  4 active torsions:
REMARK  status: ('A' for Active; 'I' for Inactive)
REMARK       I    between atoms: C_2  and  N_3 
REMARK       I    between atoms: C_2  and  N_12 
REMARK    1  A    between atoms: N_3  and  C_4 
REMARK    2  A    between atoms: C_4  and  C_5 
REMARK    3  A    between atoms: C_5  and  C_6 
REMARK    4  A    between atoms: N_12  and  C_13 
ROOT
HETATM    1  O   UNL     1     -39.461 -49.105  11.587  1.00  0.00    -0.247 OA
HETATM    2  C   UNL     1     -40.623 -49.102  11.195  1.00  0.00     0.322 C 
HETATM    3  N   UNL     1     -41.493 -50.122  11.434  1.00  0.00    -0.343 N 
HETATM    4  N   UNL     1     -41.070 -48.064  10.435  1.00  0.00    -0.288 N 
HETATM    5  H   UNL     1     -42.476 -49.952  11.249  1.00  0.00     0.164 HD
HETATM    6  H   UNL     1     -40.379 -47.369  10.201  1.00  0.00     0.172 HD
ENDROOT
BRANCH   3   7
HETATM    7  C   UNL     1     -41.125 -51.290  12.210  1.00  0.00     0.128 C 
BRANCH   7   8
HETATM    8  C   UNL     1     -42.035 -52.479  11.889  1.00  0.00     0.053 C 
BRANCH   8   9
HETATM    9  C   UNL     1     -42.347 -53.376  13.073  1.00  0.00    -0.082 A 
HETATM   10  C   UNL     1     -41.396 -53.698  13.962  1.00  0.00    -0.024 A 
HETATM   11  C   UNL     1     -41.580 -54.630  15.105  1.00  0.00     0.027 A 
HETATM   12  C   UNL     1     -42.974 -55.213  15.315  1.00  0.00     0.004 A 
HETATM   13  C   UNL     1     -44.070 -54.858  14.315  1.00  0.00     0.005 A 
HETATM   14  C   UNL     1     -43.734 -53.939  13.141  1.00  0.00     0.034 A 
ENDBRANCH   8   9
ENDBRANCH   7   8
ENDBRANCH   3   7
BRANCH   4  15
HETATM   15  C   UNL     1     -42.325 -47.937   9.915  1.00  0.00     0.168 A 
HETATM   16  N   UNL     1     -42.744 -48.185   8.695  1.00  0.00    -0.279 N 
HETATM   17  N   UNL     1     -44.084 -47.887   8.544  1.00  0.00    -0.303 N 
ATOM     18  HN  UNL     1     -42.151 -48.554   7.950  1.00  0.00     0.189 HD
HETATM   19  C   UNL     1     -44.604 -47.420   9.660  1.00  0.00     0.160 A 
ATOM     20  HN  UNL     1     -44.606 -48.013   7.677  1.00  0.00     0.186 HD
HETATM   21  S   UNL     1     -43.514 -47.353  10.986  1.00  0.00    -0.046 SA
ENDBRANCH   4  15
TORSDOF 4
ENDMDL
MODEL 6
REMARK VINA RESULT:      -5.8      2.366      2.978
REMARK  4 active torsions:
REMARK  status: ('A' for Active; 'I' for Inactive)
REMARK       I    between atoms: C_2  and  N_3 
REMARK       I    between atoms: C_2  and  N_12 
REMARK    1  A    between atoms: N_3  and  C_4 
REMARK    2  A    between atoms: C_4  and  C_5 
REMARK    3  A    between atoms: C_5  and  C_6 
REMARK    4  A    between atoms: N_12  and  C_13 
ROOT
HETATM    1  O   UNL     1     -41.724 -48.727  13.518  1.00  0.00    -0.247 OA
HETATM    2  C   UNL     1     -42.086 -48.902  12.359  1.00  0.00     0.322 C 
HETATM    3  N   UNL     1     -42.158 -50.132  11.779  1.00  0.00    -0.343 N 
HETATM    4  N   UNL     1     -42.383 -47.824  11.581  1.00  0.00    -0.288 N 
HETATM    5  H   UNL     1     -42.651 -50.204  10.895  1.00  0.00     0.164 HD
HETATM    6  H   UNL     1     -42.234 -46.926  12.010  1.00  0.00     0.172 HD
ENDROOT
BRANCH   3   7
HETATM    7  C   UNL     1     -41.844 -51.350  12.500  1.00  0.00     0.128 C 
BRANCH   7   8
HETATM    8  C   UNL     1     -43.027 -52.322  12.490  1.00  0.00     0.053 C 
BRANCH   8   9
HETATM    9  C   UNL     1     -44.182 -51.922  13.389  1.00  0.00    -0.082 A 
HETATM   10  C   UNL     1     -43.964 -51.486  14.638  1.00  0.00    -0.024 A 
HETATM   11  C   UNL     1     -45.027 -51.149  15.620  1.00  0.00     0.027 A 
HETATM   12  C   UNL     1     -46.474 -51.247  15.147  1.00  0.00     0.004 A 
HETATM   13  C   UNL     1     -46.744 -51.740  13.728  1.00  0.00     0.005 A 
HETATM   14  C   UNL     1     -45.562 -52.121  12.837  1.00  0.00     0.034 A 
ENDBRANCH   8   9
ENDBRANCH   7   8
ENDBRANCH   3   7
BRANCH   4  15
HETATM   15  C   UNL     1     -42.777 -47.867  10.275  1.00  0.00     0.168 A 
HETATM   16  N   UNL     1     -42.076 -48.178   9.209  1.00  0.00    -0.279 N 
HETATM   17  N   UNL     1     -42.823 -48.058   8.053  1.00  0.00    -0.303 N 
ATOM     18  HN  UNL     1     -41.099 -48.471   9.231  1.00  0.00     0.189 HD
HETATM   19  C   UNL     1     -44.050 -47.655   8.310  1.00  0.00     0.160 A 
ATOM     20  HN  UNL     1     -42.469 -48.258   7.117  1.00  0.00     0.186 HD
HETATM   21  S   UNL     1     -44.398 -47.436   9.978  1.00  0.00    -0.046 SA
ENDBRANCH   4  15
TORSDOF 4
ENDMDL
MODEL 7
REMARK VINA RESULT:      -5.7      2.861      3.766
REMARK  4 active torsions:
REMARK  status: ('A' for Active; 'I' for Inactive)
REMARK       I    between atoms: C_2  and  N_3 
REMARK       I    between atoms: C_2  and  N_12 
REMARK    1  A    between atoms: N_3  and  C_4 
REMARK    2  A    between atoms: C_4  and  C_5 
REMARK    3  A    between atoms: C_5  and  C_6 
REMARK    4  A    between atoms: N_12  and  C_13 
ROOT
HETATM    1  O   UNL     1     -42.524 -47.876  13.514  1.00  0.00    -0.247 OA
HETATM    2  C   UNL     1     -42.725 -48.260  12.366  1.00  0.00     0.322 C 
HETATM    3  N   UNL     1     -42.660 -49.569  11.997  1.00  0.00    -0.343 N 
HETATM    4  N   UNL     1     -42.970 -47.345  11.388  1.00  0.00    -0.288 N 
HETATM    5  H   UNL     1     -43.031 -49.817  11.086  1.00  0.00     0.164 HD
HETATM    6  H   UNL     1     -42.923 -46.381  11.674  1.00  0.00     0.172 HD
ENDROOT
BRANCH   3   7
HETATM    7  C   UNL     1     -42.383 -50.631  12.945  1.00  0.00     0.128 C 
BRANCH   7   8
HETATM    8  C   UNL     1     -42.273 -51.987  12.244  1.00  0.00     0.053 C 
BRANCH   8   9
HETATM    9  C   UNL     1     -43.004 -53.120  12.938  1.00  0.00    -0.082 A 
HETATM   10  C   UNL     1     -44.271 -53.422  12.617  1.00  0.00    -0.024 A 
HETATM   11  C   UNL     1     -45.097 -54.456  13.294  1.00  0.00     0.027 A 
HETATM   12  C   UNL     1     -44.430 -55.277  14.393  1.00  0.00     0.004 A 
HETATM   13  C   UNL     1     -42.989 -54.950  14.773  1.00  0.00     0.005 A 
HETATM   14  C   UNL     1     -42.269 -53.815  14.045  1.00  0.00     0.034 A 
ENDBRANCH   8   9
ENDBRANCH   7   8
ENDBRANCH   3   7
BRANCH   4  15
HETATM   15  C   UNL     1     -43.191 -47.625  10.070  1.00  0.00     0.168 A 
HETATM   16  N   UNL     1     -42.331 -47.998   9.150  1.00  0.00    -0.279 N 
HETATM   17  N   UNL     1     -42.936 -48.140   7.915  1.00  0.00    -0.303 N 
ATOM     18  HN  UNL     1     -41.339 -48.162   9.324  1.00  0.00     0.189 HD
HETATM   19  C   UNL     1     -44.221 -47.858   7.970  1.00  0.00     0.160 A 
ATOM     20  HN  UNL     1     -42.447 -48.429   7.067  1.00  0.00     0.186 HD
HETATM   21  S   UNL     1     -44.797 -47.444   9.534  1.00  0.00    -0.046 SA
ENDBRANCH   4  15
TORSDOF 4
ENDMDL
MODEL 8
REMARK VINA RESULT:      -5.6      1.591      2.320
REMARK  4 active torsions:
REMARK  status: ('A' for Active; 'I' for Inactive)
REMARK       I    between atoms: C_2  and  N_3 
REMARK       I    between atoms: C_2  and  N_12 
REMARK    1  A    between atoms: N_3  and  C_4 
REMARK    2  A    between atoms: C_4  and  C_5 
REMARK    3  A    between atoms: C_5  and  C_6 
REMARK    4  A    between atoms: N_12  and  C_13 
ROOT
HETATM    1  O   UNL     1     -39.822 -50.720  12.191  1.00  0.00    -0.247 OA
HETATM    2  C   UNL     1     -40.767 -50.080  11.741  1.00  0.00     0.322 C 
HETATM    3  N   UNL     1     -42.063 -50.476  11.871  1.00  0.00    -0.343 N 
HETATM    4  N   UNL     1     -40.527 -48.946  11.026  1.00  0.00    -0.288 N 
HETATM    5  H   UNL     1     -42.785 -49.798  11.647  1.00  0.00     0.164 HD
HETATM    6  H   UNL     1     -39.557 -48.728  10.872  1.00  0.00     0.172 HD
ENDROOT
BRANCH   3   7
HETATM    7  C   UNL     1     -42.440 -51.678  12.589  1.00  0.00     0.128 C 
BRANCH   7   8
HETATM    8  C   UNL     1     -43.438 -51.366  13.708  1.00  0.00     0.053 C 
BRANCH   8   9
HETATM    9  C   UNL     1     -44.473 -52.448  13.953  1.00  0.00    -0.082 A 
HETATM   10  C   UNL     1     -45.699 -52.141  14.400  1.00  0.00    -0.024 A 
HETATM   11  C   UNL     1     -46.752 -53.131  14.747  1.00  0.00     0.027 A 
HETATM   12  C   UNL     1     -46.431 -54.604  14.515  1.00  0.00     0.004 A 
HETATM   13  C   UNL     1     -45.042 -54.975  14.006  1.00  0.00     0.005 A 
HETATM   14  C   UNL     1     -44.023 -53.864  13.751  1.00  0.00     0.034 A 
ENDBRANCH   8   9
ENDBRANCH   7   8
ENDBRANCH   3   7
BRANCH   4  15
HETATM   15  C   UNL     1     -41.475 -48.149  10.452  1.00  0.00     0.168 A 
HETATM   16  N   UNL     1     -42.041 -48.256   9.272  1.00  0.00    -0.279 N 
HETATM   17  N   UNL     1     -42.925 -47.222   9.033  1.00  0.00    -0.303 N 
ATOM     18  HN  UNL     1     -41.852 -49.012   8.612  1.00  0.00     0.189 HD
HETATM   19  C   UNL     1     -42.972 -46.382  10.047  1.00  0.00     0.160 A 
ATOM     20  HN  UNL     1     -43.473 -47.121   8.179  1.00  0.00     0.186 HD
HETATM   21  S   UNL     1     -41.980 -46.814  11.381  1.00  0.00    -0.046 SA
ENDBRANCH   4  15
TORSDOF 4
ENDMDL
MODEL 9
REMARK VINA RESULT:      -5.5      2.516      3.502
REMARK  4 active torsions:
REMARK  status: ('A' for Active; 'I' for Inactive)
REMARK       I    between atoms: C_2  and  N_3 
REMARK       I    between atoms: C_2  and  N_12 
REMARK    1  A    between atoms: N_3  and  C_4 
REMARK    2  A    between atoms: C_4  and  C_5 
REMARK    3  A    between atoms: C_5  and  C_6 
REMARK    4  A    between atoms: N_12  and  C_13 
ROOT
HETATM    1  O   UNL     1     -39.674 -50.717  12.878  1.00  0.00    -0.247 OA
HETATM    2  C   UNL     1     -40.578 -50.383  12.119  1.00  0.00     0.322 C 
HETATM    3  N   UNL     1     -41.440 -51.272  11.552  1.00  0.00    -0.343 N 
HETATM    4  N   UNL     1     -40.708 -49.074  11.768  1.00  0.00    -0.288 N 
HETATM    5  H   UNL     1     -42.270 -50.897  11.103  1.00  0.00     0.164 HD
HETATM    6  H   UNL     1     -40.002 -48.455  12.132  1.00  0.00     0.172 HD
ENDROOT
BRANCH   3   7
HETATM    7  C   UNL     1     -41.385 -52.694  11.831  1.00  0.00     0.128 C 
BRANCH   7   8
HETATM    8  C   UNL     1     -42.489 -53.113  12.806  1.00  0.00     0.053 C 
BRANCH   8   9
HETATM    9  C   UNL     1     -42.020 -53.981  13.958  1.00  0.00    -0.082 A 
HETATM   10  C   UNL     1     -42.894 -54.692  14.685  1.00  0.00    -0.024 A 
HETATM   11  C   UNL     1     -42.544 -55.506  15.880  1.00  0.00     0.027 A 
HETATM   12  C   UNL     1     -41.071 -55.586  16.265  1.00  0.00     0.004 A 
HETATM   13  C   UNL     1     -40.060 -54.785  15.450  1.00  0.00     0.005 A 
HETATM   14  C   UNL     1     -40.557 -53.931  14.283  1.00  0.00     0.034 A 
ENDBRANCH   8   9
ENDBRANCH   7   8
ENDBRANCH   3   7
BRANCH   4  15
HETATM   15  C   UNL     1     -41.649 -48.564  10.922  1.00  0.00     0.168 A 
HETATM   16  N   UNL     1     -41.629 -48.490   9.611  1.00  0.00    -0.279 N 
HETATM   17  N   UNL     1     -42.755 -47.860   9.117  1.00  0.00    -0.303 N 
ATOM     18  HN  UNL     1     -40.875 -48.854   9.028  1.00  0.00     0.189 HD
HETATM   19  C   UNL     1     -43.563 -47.483  10.087  1.00  0.00     0.160 A 
ATOM     20  HN  UNL     1     -42.939 -47.706   8.125  1.00  0.00     0.186 HD
HETATM   21  S   UNL     1     -43.035 -47.909  11.665  1.00  0.00    -0.046 SA
ENDBRANCH   4  15
TORSDOF 4
ENDMDL
