MODEL 1
REMARK VINA RESULT:      -6.3      0.000      0.000
REMARK  5 active torsions:
REMARK  status: ('A' for Active; 'I' for Inactive)
REMARK    1  A    between atoms: C_5  and  C_6 
REMARK    2  A    between atoms: C_6  and  C_7 
REMARK    3  A    between atoms: C_7  and  N_8 
REMARK       I    between atoms: N_8  and  C_9 
REMARK       I    between atoms: C_9  and  N_11 
REMARK    4  A    between atoms: N_11  and  C_12 
REMARK    5  A    between atoms: C_12  and  C_13 
ROOT
HETATM    1  N   UNL     1     -41.914 -51.172  11.876  1.00  0.00    -0.343 N 
HETATM    2  C   UNL     1     -42.458 -52.186  12.613  1.00  0.00     0.316 C 
HETATM    3  O   UNL     1     -42.059 -52.506  13.723  1.00  0.00    -0.247 OA
HETATM    4  N   UNL     1     -43.502 -52.786  11.972  1.00  0.00    -0.341 N 
HETATM    5  H   UNL     1     -42.394 -50.866  11.044  1.00  0.00     0.164 HD
HETATM    6  H   UNL     1     -43.587 -52.684  10.971  1.00  0.00     0.164 HD
ENDROOT
BRANCH   1   7
HETATM    7  C   UNL     1     -40.842 -50.354  12.411  1.00  0.00     0.130 C 
BRANCH   7   8
HETATM    8  C   UNL     1     -40.418 -49.259  11.435  1.00  0.00     0.079 C 
BRANCH   8   9
HETATM    9  C   UNL     1     -41.587 -48.499  10.930  1.00  0.00     0.042 A 
HETATM   10  N   UNL     1     -41.858 -48.428   9.583  1.00  0.00    -0.342 N 
HETATM   11  C   UNL     1     -42.954 -47.698   9.518  1.00  0.00     0.120 A 
ATOM     12  HN  UNL     1     -41.332 -48.844   8.814  1.00  0.00     0.167 HD
HETATM   13  C   UNL     1     -43.720 -47.284   8.327  1.00  0.00     0.098 C 
HETATM   14  O   UNL     1     -43.433 -47.281  10.729  1.00  0.00    -0.301 OA
HETATM   15  C   UNL     1     -42.546 -47.802  11.633  1.00  0.00     0.073 A 
HETATM   16  C   UNL     1     -42.803 -47.534  13.059  1.00  0.00     0.079 C 
ENDBRANCH   8   9
ENDBRANCH   7   8
ENDBRANCH   1   7
BRANCH   4  17
HETATM   17  C   UNL     1     -44.239 -53.888  12.567  1.00  0.00     0.156 C 
BRANCH  17  18
HETATM   18  C   UNL     1     -45.519 -53.425  13.263  1.00  0.00     0.139 C 
HETATM   19  C   UNL     1     -46.100 -52.109  12.765  1.00  0.00     0.035 C 
HETATM   20  C   UNL     1     -46.659 -51.447  14.009  1.00  0.00     0.029 C 
HETATM   21  C   UNL     1     -46.343 -52.404  15.139  1.00  0.00     0.168 C 
HETATM   22  O   UNL     1     -45.273 -53.226  14.669  1.00  0.00    -0.384 OA
ENDBRANCH  17  18
ENDBRANCH   4  17
TORSDOF 5
ENDMDL
MODEL 2
REMARK VINA RESULT:      -6.2      1.531      5.951
REMARK  5 active torsions:
REMARK  status: ('A' for Active; 'I' for Inactive)
REMARK    1  A    between atoms: C_5  and  C_6 
REMARK    2  A    between atoms: C_6  and  C_7 
REMARK    3  A    between atoms: C_7  and  N_8 
REMARK       I    between atoms: N_8  and  C_9 
REMARK       I    between atoms: C_9  and  N_11 
REMARK    4  A    between atoms: N_11  and  C_12 
REMARK    5  A    between atoms: C_12  and  C_13 
ROOT
HETATM    1  N   UNL     1     -40.682 -50.980  11.379  1.00  0.00    -0.343 N 
HETATM    2  C   UNL     1     -41.318 -49.778  11.517  1.00  0.00     0.316 C 
HETATM    3  O   UNL     1     -41.951 -49.458  12.512  1.00  0.00    -0.247 OA
HETATM    4  N   UNL     1     -41.150 -48.978  10.425  1.00  0.00    -0.341 N 
HETATM    5  H   UNL     1     -40.053 -51.109  10.602  1.00  0.00     0.164 HD
HETATM    6  H   UNL     1     -40.883 -49.398   9.546  1.00  0.00     0.164 HD
ENDROOT
BRANCH   1   7
HETATM    7  C   UNL     1     -40.671 -51.946  12.461  1.00  0.00     0.130 C 
BRANCH   7   8
HETATM    8  C   UNL     1     -41.602 -53.124  12.184  1.00  0.00     0.079 C 
BRANCH   8   9
HETATM    9  C   UNL     1     -42.889 -52.981  12.906  1.00  0.00     0.042 A 
HETATM   10  N   UNL     1     -43.804 -52.021  12.539  1.00  0.00    -0.342 N 
HETATM   11  C   UNL     1     -44.806 -52.202  13.377  1.00  0.00     0.120 A 
ATOM     12  HN  UNL     1     -43.725 -51.330  11.793  1.00  0.00     0.167 HD
HETATM   13  C   UNL     1     -46.081 -51.465  13.467  1.00  0.00     0.098 C 
HETATM   14  O   UNL     1     -44.623 -53.219  14.273  1.00  0.00    -0.301 OA
HETATM   15  C   UNL     1     -43.386 -53.716  13.962  1.00  0.00     0.073 A 
HETATM   16  C   UNL     1     -42.898 -54.855  14.758  1.00  0.00     0.079 C 
ENDBRANCH   8   9
ENDBRANCH   7   8
ENDBRANCH   1   7
BRANCH   4  17
HETATM   17  C   UNL     1     -41.733 -47.649  10.349  1.00  0.00     0.156 C 
BRANCH  17  18
HETATM   18  C   UNL     1     -43.009 -47.621   9.507  1.00  0.00     0.139 C 
HETATM   19  C   UNL     1     -43.312 -46.299   8.815  1.00  0.00     0.035 C 
HETATM   20  C   UNL     1     -44.823 -46.183   8.865  1.00  0.00     0.029 C 
HETATM   21  C   UNL     1     -45.288 -47.422   9.600  1.00  0.00     0.168 C 
HETATM   22  O   UNL     1     -44.155 -47.889  10.337  1.00  0.00    -0.384 OA
ENDBRANCH  17  18
ENDBRANCH   4  17
TORSDOF 5
ENDMDL
MODEL 3
REMARK VINA RESULT:      -6.0      2.124      2.855
REMARK  5 active torsions:
REMARK  status: ('A' for Active; 'I' for Inactive)
REMARK    1  A    between atoms: C_5  and  C_6 
REMARK    2  A    between atoms: C_6  and  C_7 
REMARK    3  A    between atoms: C_7  and  N_8 
REMARK       I    between atoms: N_8  and  C_9 
REMARK       I    between atoms: C_9  and  N_11 
REMARK    4  A    between atoms: N_11  and  C_12 
REMARK    5  A    between atoms: C_12  and  C_13 
ROOT
HETATM    1  N   UNL     1     -40.729 -51.021  11.113  1.00  0.00    -0.343 N 
HETATM    2  C   UNL     1     -40.953 -51.723  12.265  1.00  0.00     0.316 C 
HETATM    3  O   UNL     1     -40.900 -51.227  13.381  1.00  0.00    -0.247 OA
HETATM    4  N   UNL     1     -41.255 -53.030  12.021  1.00  0.00    -0.341 N 
HETATM    5  H   UNL     1     -40.944 -51.458  10.230  1.00  0.00     0.164 HD
HETATM    6  H   UNL     1     -40.995 -53.436  11.133  1.00  0.00     0.164 HD
ENDROOT
BRANCH   1   7
HETATM    7  C   UNL     1     -40.469 -49.595  11.148  1.00  0.00     0.130 C 
BRANCH   7   8
HETATM    8  C   UNL     1     -41.758 -48.778  11.079  1.00  0.00     0.079 C 
BRANCH   8   9
HETATM    9  C   UNL     1     -41.499 -47.391  10.625  1.00  0.00     0.042 A 
HETATM   10  N   UNL     1     -40.246 -46.833  10.731  1.00  0.00    -0.342 N 
HETATM   11  C   UNL     1     -40.393 -45.624  10.224  1.00  0.00     0.120 A 
ATOM     12  HN  UNL     1     -39.400 -47.256  11.113  1.00  0.00     0.167 HD
HETATM   13  C   UNL     1     -39.386 -44.558  10.068  1.00  0.00     0.098 C 
HETATM   14  O   UNL     1     -41.657 -45.341   9.785  1.00  0.00    -0.301 OA
HETATM   15  C   UNL     1     -42.363 -46.485  10.047  1.00  0.00     0.073 A 
HETATM   16  C   UNL     1     -43.785 -46.500   9.666  1.00  0.00     0.079 C 
ENDBRANCH   8   9
ENDBRANCH   7   8
ENDBRANCH   1   7
BRANCH   4  17
HETATM   17  C   UNL     1     -41.537 -53.967  13.095  1.00  0.00     0.156 C 
BRANCH  17  18
HETATM   18  C   UNL     1     -42.956 -53.815  13.643  1.00  0.00     0.139 C 
HETATM   19  C   UNL     1     -43.451 -54.960  14.515  1.00  0.00     0.035 C 
HETATM   20  C   UNL     1     -44.925 -55.082  14.179  1.00  0.00     0.029 C 
HETATM   21  C   UNL     1     -45.176 -54.026  13.124  1.00  0.00     0.168 C 
HETATM   22  O   UNL     1     -43.898 -53.727  12.556  1.00  0.00    -0.384 OA
ENDBRANCH  17  18
ENDBRANCH   4  17
TORSDOF 5
ENDMDL
MODEL 4
REMARK VINA RESULT:      -5.9      2.698      6.392
REMARK  5 active torsions:
REMARK  status: ('A' for Active; 'I' for Inactive)
REMARK    1  A    between atoms: C_5  and  C_6 
REMARK    2  A    between atoms: C_6  and  C_7 
REMARK    3  A    between atoms: C_7  and  N_8 
REMARK       I    between atoms: N_8  and  C_9 
REMARK       I    between atoms: C_9  and  N_11 
REMARK    4  A    between atoms: N_11  and  C_12 
REMARK    5  A    between atoms: C_12  and  C_13 
ROOT
HETATM    1  N   UNL     1     -40.928 -49.603  10.617  1.00  0.00    -0.343 N 
HETATM    2  C   UNL     1     -41.399 -48.324  10.511  1.00  0.00     0.316 C 
HETATM    3  O   UNL     1     -40.963 -47.386  11.162  1.00  0.00    -0.247 OA
HETATM    4  N   UNL     1     -42.399 -48.218   9.589  1.00  0.00    -0.341 N 
HETATM    5  H   UNL     1     -41.227 -50.287   9.939  1.00  0.00     0.164 HD
HETATM    6  H   UNL     1     -42.903 -49.049   9.315  1.00  0.00     0.164 HD
ENDROOT
BRANCH   1   7
HETATM    7  C   UNL     1     -39.810 -49.915  11.486  1.00  0.00     0.130 C 
BRANCH   7   8
HETATM    8  C   UNL     1     -40.262 -50.211  12.915  1.00  0.00     0.079 C 
BRANCH   8   9
HETATM    9  C   UNL     1     -40.324 -51.670  13.174  1.00  0.00     0.042 A 
HETATM   10  N   UNL     1     -39.290 -52.322  13.804  1.00  0.00    -0.342 N 
HETATM   11  C   UNL     1     -39.698 -53.574  13.872  1.00  0.00     0.120 A 
ATOM     12  HN  UNL     1     -38.411 -51.928  14.141  1.00  0.00     0.167 HD
HETATM   13  C   UNL     1     -39.007 -54.742  14.448  1.00  0.00     0.098 C 
HETATM   14  O   UNL     1     -40.935 -53.799  13.332  1.00  0.00    -0.301 OA
HETATM   15  C   UNL     1     -41.331 -52.567  12.886  1.00  0.00     0.073 A 
HETATM   16  C   UNL     1     -42.658 -52.474  12.254  1.00  0.00     0.079 C 
ENDBRANCH   8   9
ENDBRANCH   7   8
ENDBRANCH   1   7
BRANCH   4  17
HETATM   17  C   UNL     1     -43.050 -46.951   9.304  1.00  0.00     0.156 C 
BRANCH  17  18
HETATM   18  C   UNL     1     -44.394 -47.132   8.598  1.00  0.00     0.139 C 
HETATM   19  C   UNL     1     -45.581 -47.418   9.506  1.00  0.00     0.035 C 
HETATM   20  C   UNL     1     -46.440 -48.384   8.714  1.00  0.00     0.029 C 
HETATM   21  C   UNL     1     -45.685 -48.613   7.422  1.00  0.00     0.168 C 
HETATM   22  O   UNL     1     -44.328 -48.250   7.691  1.00  0.00    -0.384 OA
ENDBRANCH  17  18
ENDBRANCH   4  17
TORSDOF 5
ENDMDL
MODEL 5
REMARK VINA RESULT:      -5.9      1.800      5.973
REMARK  5 active torsions:
REMARK  status: ('A' for Active; 'I' for Inactive)
REMARK    1  A    between atoms: C_5  and  C_6 
REMARK    2  A    between atoms: C_6  and  C_7 
REMARK    3  A    between atoms: C_7  and  N_8 
REMARK       I    between atoms: N_8  and  C_9 
REMARK       I    between atoms: C_9  and  N_11 
REMARK    4  A    between atoms: N_11  and  C_12 
REMARK    5  A    between atoms: C_12  and  C_13 
ROOT
HETATM    1  N   UNL     1     -42.444 -50.793  12.348  1.00  0.00    -0.343 N 
HETATM    2  C   UNL     1     -42.111 -49.474  12.214  1.00  0.00     0.316 C 
HETATM    3  O   UNL     1     -41.835 -48.746  13.157  1.00  0.00    -0.247 OA
HETATM    4  N   UNL     1     -42.109 -49.072  10.910  1.00  0.00    -0.341 N 
HETATM    5  H   UNL     1     -42.503 -51.364  11.519  1.00  0.00     0.164 HD
HETATM    6  H   UNL     1     -42.620 -49.616  10.230  1.00  0.00     0.164 HD
ENDROOT
BRANCH   1   7
HETATM    7  C   UNL     1     -42.428 -51.437  13.648  1.00  0.00     0.130 C 
BRANCH   7   8
HETATM    8  C   UNL     1     -43.432 -52.584  13.728  1.00  0.00     0.079 C 
BRANCH   8   9
HETATM    9  C   UNL     1     -44.802 -52.133  13.384  1.00  0.00     0.042 A 
HETATM   10  N   UNL     1     -45.297 -52.280  12.108  1.00  0.00    -0.342 N 
HETATM   11  C   UNL     1     -46.519 -51.791  12.184  1.00  0.00     0.120 A 
ATOM     12  HN  UNL     1     -44.827 -52.676  11.294  1.00  0.00     0.167 HD
HETATM   13  C   UNL     1     -47.538 -51.682  11.123  1.00  0.00     0.098 C 
HETATM   14  O   UNL     1     -46.872 -51.332  13.423  1.00  0.00    -0.301 OA
HETATM   15  C   UNL     1     -45.761 -51.557  14.189  1.00  0.00     0.073 A 
HETATM   16  C   UNL     1     -45.834 -51.174  15.610  1.00  0.00     0.079 C 
ENDBRANCH   8   9
ENDBRANCH   7   8
ENDBRANCH   1   7
BRANCH   4  17
HETATM   17  C   UNL     1     -41.780 -47.711  10.526  1.00  0.00     0.156 C 
BRANCH  17  18
HETATM   18  C   UNL     1     -43.022 -46.834  10.368  1.00  0.00     0.139 C 
HETATM   19  C   UNL     1     -44.290 -47.559   9.942  1.00  0.00     0.035 C 
HETATM   20  C   UNL     1     -45.001 -46.577   9.031  1.00  0.00     0.029 C 
HETATM   21  C   UNL     1     -44.091 -45.368   8.971  1.00  0.00     0.168 C 
HETATM   22  O   UNL     1     -42.795 -45.834   9.355  1.00  0.00    -0.384 OA
ENDBRANCH  17  18
ENDBRANCH   4  17
TORSDOF 5
ENDMDL
MODEL 6
REMARK VINA RESULT:      -5.8      1.521      6.107
REMARK  5 active torsions:
REMARK  status: ('A' for Active; 'I' for Inactive)
REMARK    1  A    between atoms: C_5  and  C_6 
REMARK    2  A    between atoms: C_6  and  C_7 
REMARK    3  A    between atoms: C_7  and  N_8 
REMARK       I    between atoms: N_8  and  C_9 
REMARK       I    between atoms: C_9  and  N_11 
REMARK    4  A    between atoms: N_11  and  C_12 
REMARK    5  A    between atoms: C_12  and  C_13 
ROOT
HETATM    1  N   UNL     1     -42.369 -52.562  11.841  1.00  0.00    -0.343 N 
HETATM    2  C   UNL     1     -41.805 -51.384  12.246  1.00  0.00     0.316 C 
HETATM    3  O   UNL     1     -41.813 -50.993  13.404  1.00  0.00    -0.247 OA
HETATM    4  N   UNL     1     -41.224 -50.709  11.212  1.00  0.00    -0.341 N 
HETATM    5  H   UNL     1     -42.186 -52.890  10.906  1.00  0.00     0.164 HD
HETATM    6  H   UNL     1     -41.504 -50.927  10.266  1.00  0.00     0.164 HD
ENDROOT
BRANCH   1   7
HETATM    7  C   UNL     1     -42.971 -53.468  12.801  1.00  0.00     0.130 C 
BRANCH   7   8
HETATM    8  C   UNL     1     -44.456 -53.688  12.524  1.00  0.00     0.079 C 
BRANCH   8   9
HETATM    9  C   UNL     1     -45.298 -52.735  13.285  1.00  0.00     0.042 A 
HETATM   10  N   UNL     1     -45.074 -52.504  14.623  1.00  0.00    -0.342 N 
HETATM   11  C   UNL     1     -45.986 -51.608  14.947  1.00  0.00     0.120 A 
ATOM     12  HN  UNL     1     -44.366 -52.927  15.224  1.00  0.00     0.167 HD
HETATM   13  C   UNL     1     -46.235 -50.974  16.255  1.00  0.00     0.098 C 
HETATM   14  O   UNL     1     -46.800 -51.226  13.916  1.00  0.00    -0.301 OA
HETATM   15  C   UNL     1     -46.349 -51.956  12.850  1.00  0.00     0.073 A 
HETATM   16  C   UNL     1     -47.029 -51.752  11.559  1.00  0.00     0.079 C 
ENDBRANCH   8   9
ENDBRANCH   7   8
ENDBRANCH   1   7
BRANCH   4  17
HETATM   17  C   UNL     1     -40.558 -49.433  11.406  1.00  0.00     0.156 C 
BRANCH  17  18
HETATM   18  C   UNL     1     -41.283 -48.285  10.704  1.00  0.00     0.139 C 
HETATM   19  C   UNL     1     -40.782 -46.887  11.039  1.00  0.00     0.035 C 
HETATM   20  C   UNL     1     -42.031 -46.028  11.044  1.00  0.00     0.029 C 
HETATM   21  C   UNL     1     -43.167 -46.984  10.741  1.00  0.00     0.168 C 
HETATM   22  O   UNL     1     -42.678 -48.288  11.065  1.00  0.00    -0.384 OA
ENDBRANCH  17  18
ENDBRANCH   4  17
TORSDOF 5
ENDMDL
MODEL 7
REMARK VINA RESULT:      -5.8      1.974      6.327
REMARK  5 active torsions:
REMARK  status: ('A' for Active; 'I' for Inactive)
REMARK    1  A    between atoms: C_5  and  C_6 
REMARK    2  A    between atoms: C_6  and  C_7 
REMARK    3  A    between atoms: C_7  and  N_8 
REMARK       I    between atoms: N_8  and  C_9 
REMARK       I    between atoms: C_9  and  N_11 
REMARK    4  A    between atoms: N_11  and  C_12 
REMARK    5  A    between atoms: C_12  and  C_13 
ROOT
HETATM    1  N   UNL     1     -42.320 -49.988  11.960  1.00  0.00    -0.343 N 
HETATM    2  C   UNL     1     -42.169 -48.861  11.202  1.00  0.00     0.316 C 
HETATM    3  O   UNL     1     -41.084 -48.421  10.851  1.00  0.00    -0.247 OA
HETATM    4  N   UNL     1     -43.367 -48.296  10.873  1.00  0.00    -0.341 N 
HETATM    5  H   UNL     1     -43.245 -50.374  12.075  1.00  0.00     0.164 HD
HETATM    6  H   UNL     1     -44.183 -48.523  11.423  1.00  0.00     0.164 HD
ENDROOT
BRANCH   1   7
HETATM    7  C   UNL     1     -41.171 -50.783  12.350  1.00  0.00     0.130 C 
BRANCH   7   8
HETATM    8  C   UNL     1     -41.235 -52.197  11.776  1.00  0.00     0.079 C 
BRANCH   8   9
HETATM    9  C   UNL     1     -42.054 -53.093  12.627  1.00  0.00     0.042 A 
HETATM   10  N   UNL     1     -43.388 -53.298  12.361  1.00  0.00    -0.342 N 
HETATM   11  C   UNL     1     -43.772 -54.145  13.296  1.00  0.00     0.120 A 
ATOM     12  HN  UNL     1     -43.950 -52.890  11.613  1.00  0.00     0.167 HD
HETATM   13  C   UNL     1     -45.105 -54.733  13.521  1.00  0.00     0.098 C 
HETATM   14  O   UNL     1     -42.783 -54.520  14.164  1.00  0.00    -0.301 OA
HETATM   15  C   UNL     1     -41.680 -53.838  13.726  1.00  0.00     0.073 A 
HETATM   16  C   UNL     1     -40.422 -54.047  14.462  1.00  0.00     0.079 C 
ENDBRANCH   8   9
ENDBRANCH   7   8
ENDBRANCH   1   7
BRANCH   4  17
HETATM   17  C   UNL     1     -43.453 -47.091  10.067  1.00  0.00     0.156 C 
BRANCH  17  18
HETATM   18  C   UNL     1     -44.514 -47.197   8.972  1.00  0.00     0.139 C 
HETATM   19  C   UNL     1     -45.892 -47.653   9.432  1.00  0.00     0.035 C 
HETATM   20  C   UNL     1     -46.409 -48.508   8.291  1.00  0.00     0.029 C 
HETATM   21  C   UNL     1     -45.294 -48.512   7.267  1.00  0.00     0.168 C 
HETATM   22  O   UNL     1     -44.106 -48.158   7.979  1.00  0.00    -0.384 OA
ENDBRANCH  17  18
ENDBRANCH   4  17
TORSDOF 5
ENDMDL
MODEL 8
REMARK VINA RESULT:      -5.7      1.982      6.462
REMARK  5 active torsions:
REMARK  status: ('A' for Active; 'I' for Inactive)
REMARK    1  A    between atoms: C_5  and  C_6 
REMARK    2  A    between atoms: C_6  and  C_7 
REMARK    3  A    between atoms: C_7  and  N_8 
REMARK       I    between atoms: N_8  and  C_9 
REMARK       I    between atoms: C_9  and  N_11 
REMARK    4  A    between atoms: N_11  and  C_12 
REMARK    5  A    between atoms: C_12  and  C_13 
ROOT
HETATM    1  N   UNL     1     -40.275 -51.154  11.791  1.00  0.00    -0.343 N 
HETATM    2  C   UNL     1     -41.202 -50.155  11.683  1.00  0.00     0.316 C 
HETATM    3  O   UNL     1     -42.155 -50.030  12.439  1.00  0.00    -0.247 OA
HETATM    4  N   UNL     1     -40.932 -49.312  10.645  1.00  0.00    -0.341 N 
HETATM    5  H   UNL     1     -39.437 -51.100  11.233  1.00  0.00     0.164 HD
HETATM    6  H   UNL     1     -40.327 -49.629   9.901  1.00  0.00     0.164 HD
ENDROOT
BRANCH   1   7
HETATM    7  C   UNL     1     -40.336 -52.112  12.879  1.00  0.00     0.130 C 
BRANCH   7   8
HETATM    8  C   UNL     1     -41.000 -53.419  12.450  1.00  0.00     0.079 C 
BRANCH   8   9
HETATM    9  C   UNL     1     -42.426 -53.463  12.854  1.00  0.00     0.042 A 
HETATM   10  N   UNL     1     -43.393 -52.829  12.108  1.00  0.00    -0.342 N 
HETATM   11  C   UNL     1     -44.513 -53.093  12.751  1.00  0.00     0.120 A 
ATOM     12  HN  UNL     1     -43.271 -52.282  11.256  1.00  0.00     0.167 HD
HETATM   13  C   UNL     1     -45.890 -52.677  12.422  1.00  0.00     0.098 C 
HETATM   14  O   UNL     1     -44.358 -53.863  13.872  1.00  0.00    -0.301 OA
HETATM   15  C   UNL     1     -43.011 -54.096  13.930  1.00  0.00     0.073 A 
HETATM   16  C   UNL     1     -42.519 -54.927  15.042  1.00  0.00     0.079 C 
ENDBRANCH   8   9
ENDBRANCH   7   8
ENDBRANCH   1   7
BRANCH   4  17
HETATM   17  C   UNL     1     -41.780 -48.172  10.340  1.00  0.00     0.156 C 
BRANCH  17  18
HETATM   18  C   UNL     1     -41.106 -46.840  10.669  1.00  0.00     0.139 C 
HETATM   19  C   UNL     1     -39.870 -46.928  11.553  1.00  0.00     0.035 C 
HETATM   20  C   UNL     1     -39.940 -45.690  12.426  1.00  0.00     0.029 C 
HETATM   21  C   UNL     1     -41.215 -44.988  12.010  1.00  0.00     0.168 C 
HETATM   22  O   UNL     1     -42.022 -45.984  11.377  1.00  0.00    -0.384 OA
ENDBRANCH  17  18
ENDBRANCH   4  17
TORSDOF 5
ENDMDL
MODEL 9
REMARK VINA RESULT:      -5.6      1.898      2.056
REMARK  5 active torsions:
REMARK  status: ('A' for Active; 'I' for Inactive)
REMARK    1  A    between atoms: C_5  and  C_6 
REMARK    2  A    between atoms: C_6  and  C_7 
REMARK    3  A    between atoms: C_7  and  N_8 
REMARK       I    between atoms: N_8  and  C_9 
REMARK       I    between atoms: C_9  and  N_11 
REMARK    4  A    between atoms: N_11  and  C_12 
REMARK    5  A    between atoms: C_12  and  C_13 
ROOT
HETATM    1  N   UNL     1     -41.859 -51.310  11.909  1.00  0.00    -0.343 N 
HETATM    2  C   UNL     1     -42.431 -52.325  12.625  1.00  0.00     0.316 C 
HETATM    3  O   UNL     1     -41.987 -52.738  13.686  1.00  0.00    -0.247 OA
HETATM    4  N   UNL     1     -43.555 -52.810  12.024  1.00  0.00    -0.341 N 
HETATM    5  H   UNL     1     -42.367 -50.921  11.129  1.00  0.00     0.164 HD
HETATM    6  H   UNL     1     -43.695 -52.642  11.037  1.00  0.00     0.164 HD
ENDROOT
BRANCH   1   7
HETATM    7  C   UNL     1     -40.697 -50.604  12.415  1.00  0.00     0.130 C 
BRANCH   7   8
HETATM    8  C   UNL     1     -39.960 -49.853  11.309  1.00  0.00     0.079 C 
BRANCH   8   9
HETATM    9  C   UNL     1     -40.006 -48.386  11.523  1.00  0.00     0.042 A 
HETATM   10  N   UNL     1     -40.694 -47.565  10.660  1.00  0.00    -0.342 N 
HETATM   11  C   UNL     1     -40.527 -46.360  11.167  1.00  0.00     0.120 A 
ATOM     12  HN  UNL     1     -41.213 -47.829   9.821  1.00  0.00     0.167 HD
HETATM   13  C   UNL     1     -41.039 -45.068  10.672  1.00  0.00     0.098 C 
HETATM   14  O   UNL     1     -39.778 -46.323  12.311  1.00  0.00    -0.301 OA
HETATM   15  C   UNL     1     -39.447 -47.633  12.533  1.00  0.00     0.073 A 
HETATM   16  C   UNL     1     -38.636 -47.929  13.727  1.00  0.00     0.079 C 
ENDBRANCH   8   9
ENDBRANCH   7   8
ENDBRANCH   1   7
BRANCH   4  17
HETATM   17  C   UNL     1     -44.333 -53.890  12.606  1.00  0.00     0.156 C 
BRANCH  17  18
HETATM   18  C   UNL     1     -45.634 -53.395  13.238  1.00  0.00     0.139 C 
HETATM   19  C   UNL     1     -46.037 -51.970  12.886  1.00  0.00     0.035 C 
HETATM   20  C   UNL     1     -46.667 -51.430  14.155  1.00  0.00     0.029 C 
HETATM   21  C   UNL     1     -46.563 -52.561  15.157  1.00  0.00     0.168 C 
HETATM   22  O   UNL     1     -45.526 -53.418  14.674  1.00  0.00    -0.384 OA
ENDBRANCH  17  18
ENDBRANCH   4  17
TORSDOF 5
ENDMDL
