MODEL 1
REMARK VINA RESULT:      -6.5      0.000      0.000
REMARK  6 active torsions:
REMARK  status: ('A' for Active; 'I' for Inactive)
REMARK    1  A    between atoms: N_2  and  C_10 
REMARK    2  A    between atoms: C_4  and  N_7 
REMARK    3  A    between atoms: C_16  and  C_25 
REMARK    4  A    between atoms: C_16  and  C_26 
REMARK    5  A    between atoms: C_25  and  O_29 
REMARK    6  A    between atoms: C_26  and  O_30 
ROOT
HETATM    1  C   UNL     1     -42.338 -50.462  12.612  1.00  0.00     0.117 A 
HETATM    2  N   UNL     1     -41.627 -48.564  11.797  1.00  0.00    -0.322 N 
HETATM    3  C   UNL     1     -41.178 -49.794  12.217  1.00  0.00     0.140 A 
HETATM    4  C   UNL     1     -42.211 -51.778  13.127  1.00  0.00     0.115 A 
HETATM    5  N   UNL     1     -43.453 -49.670  12.421  1.00  0.00    -0.346 N 
ATOM      6  HN  UNL     1     -44.426 -49.911  12.612  1.00  0.00     0.167 HD
HETATM    7  C   UNL     1     -42.990 -48.546  11.944  1.00  0.00     0.185 A 
HETATM    8  N   UNL     1     -39.926 -50.280  12.261  1.00  0.00    -0.336 N 
ATOM      9  HN  UNL     1     -39.097 -49.772  11.956  1.00  0.00     0.168 HD
HETATM   10  N   UNL     1     -40.956 -52.296  13.188  1.00  0.00    -0.341 N 
ATOM     11  HN  UNL     1     -40.800 -53.239  13.544  1.00  0.00     0.167 HD
HETATM   12  C   UNL     1     -39.916 -51.536  12.766  1.00  0.00     0.183 A 
ENDROOT
BRANCH   4  13
HETATM   13  N   UNL     1     -43.336 -52.492  13.562  1.00  0.00    -0.262 NA
HETATM   14  C   UNL     1     -43.583 -52.654  15.013  1.00  0.00     0.072 C 
HETATM   15  C   UNL     1     -45.054 -53.133  15.160  1.00  0.00     0.032 C 
HETATM   16  C   UNL     1     -43.410 -51.354  15.814  1.00  0.00     0.050 C 
HETATM   17  C   UNL     1     -45.466 -53.241  16.631  1.00  0.00     0.278 C 
HETATM   18  C   UNL     1     -45.267 -54.461  14.423  1.00  0.00     0.009 C 
HETATM   19  N   UNL     1     -45.270 -51.998  17.386  1.00  0.00     0.084 N 
HETATM   20  C   UNL     1     -46.236 -50.962  17.015  1.00  0.00     0.309 C 
HETATM   21  C   UNL     1     -43.887 -51.527  17.258  1.00  0.00     0.273 C 
HETATM   22  C   UNL     1     -44.882 -54.308  12.954  1.00  0.00     0.015 C 
HETATM   23  C   UNL     1     -43.468 -53.747  12.800  1.00  0.00     0.097 C 
ENDBRANCH   4  13
BRANCH   2  24
HETATM   24  C   UNL     1     -40.951 -47.425  11.242  1.00  0.00     0.094 C 
HETATM   25  C   UNL     1     -40.805 -46.197  12.190  1.00  0.00     0.039 C 
HETATM   26  C   UNL     1     -40.822 -45.310  10.893  1.00  0.00     0.006 C 
HETATM   27  C   UNL     1     -41.746 -46.459  10.324  1.00  0.00     0.039 C 
BRANCH  26  28
HETATM   28  C   UNL     1     -41.485 -43.944  11.081  1.00  0.00     0.175 C 
BRANCH  28  29
HETATM   29  O   UNL     1     -40.602 -42.906  10.669  1.00  0.00    -0.400 OA
HETATM   30  H   UNL     1     -40.921 -42.076  11.081  1.00  0.00     0.209 HD
ENDBRANCH  28  29
ENDBRANCH  26  28
BRANCH  26  31
HETATM   31  C   UNL     1     -39.425 -45.148  10.261  1.00  0.00     0.175 C 
BRANCH  31  32
HETATM   32  O   UNL     1     -39.550 -44.685   8.920  1.00  0.00    -0.400 OA
HETATM   33  H   UNL     1     -39.139 -45.354   8.340  1.00  0.00     0.209 HD
ENDBRANCH  31  32
ENDBRANCH  26  31
ENDBRANCH   2  24
TORSDOF 6
ENDMDL
MODEL 2
REMARK VINA RESULT:      -6.4      3.576      4.850
REMARK  6 active torsions:
REMARK  status: ('A' for Active; 'I' for Inactive)
REMARK    1  A    between atoms: N_2  and  C_10 
REMARK    2  A    between atoms: C_4  and  N_7 
REMARK    3  A    between atoms: C_16  and  C_25 
REMARK    4  A    between atoms: C_16  and  C_26 
REMARK    5  A    between atoms: C_25  and  O_29 
REMARK    6  A    between atoms: C_26  and  O_30 
ROOT
HETATM    1  C   UNL     1     -39.694 -49.929  13.340  1.00  0.00     0.117 A 
HETATM    2  N   UNL     1     -41.089 -48.835  12.064  1.00  0.00    -0.322 N 
HETATM    3  C   UNL     1     -39.863 -49.455  12.039  1.00  0.00     0.140 A 
HETATM    4  C   UNL     1     -38.492 -50.613  13.654  1.00  0.00     0.115 A 
HETATM    5  N   UNL     1     -40.790 -49.623  14.123  1.00  0.00    -0.346 N 
ATOM      6  HN  UNL     1     -40.938 -49.859  15.104  1.00  0.00     0.167 HD
HETATM    7  C   UNL     1     -41.594 -48.964  13.332  1.00  0.00     0.185 A 
HETATM    8  N   UNL     1     -38.992 -49.591  11.024  1.00  0.00    -0.336 N 
ATOM      9  HN  UNL     1     -39.146 -49.241  10.078  1.00  0.00     0.168 HD
HETATM   10  N   UNL     1     -37.589 -50.763  12.649  1.00  0.00    -0.341 N 
ATOM     11  HN  UNL     1     -36.707 -51.249  12.811  1.00  0.00     0.167 HD
HETATM   12  C   UNL     1     -37.883 -50.254  11.427  1.00  0.00     0.183 A 
ENDROOT
BRANCH   4  13
HETATM   13  N   UNL     1     -38.254 -51.093  14.949  1.00  0.00    -0.262 NA
HETATM   14  C   UNL     1     -39.137 -52.137  15.517  1.00  0.00     0.072 C 
HETATM   15  C   UNL     1     -38.403 -52.710  16.760  1.00  0.00     0.032 C 
HETATM   16  C   UNL     1     -39.426 -53.292  14.545  1.00  0.00     0.050 C 
HETATM   17  C   UNL     1     -39.175 -53.877  17.381  1.00  0.00     0.278 C 
HETATM   18  C   UNL     1     -38.140 -51.605  17.791  1.00  0.00     0.009 C 
HETATM   19  N   UNL     1     -39.463 -54.959  16.433  1.00  0.00     0.084 N 
HETATM   20  C   UNL     1     -38.264 -55.720  16.074  1.00  0.00     0.309 C 
HETATM   21  C   UNL     1     -40.155 -54.438  15.249  1.00  0.00     0.273 C 
HETATM   22  C   UNL     1     -37.339 -50.475  17.149  1.00  0.00     0.015 C 
HETATM   23  C   UNL     1     -38.007 -49.969  15.870  1.00  0.00     0.097 C 
ENDBRANCH   4  13
BRANCH   2  24
HETATM   24  C   UNL     1     -41.862 -48.175  11.049  1.00  0.00     0.094 C 
HETATM   25  C   UNL     1     -41.247 -46.863  10.476  1.00  0.00     0.039 C 
HETATM   26  C   UNL     1     -42.724 -46.395  10.211  1.00  0.00     0.006 C 
HETATM   27  C   UNL     1     -43.051 -47.277  11.481  1.00  0.00     0.039 C 
BRANCH  26  28
HETATM   28  C   UNL     1     -42.937 -44.889  10.364  1.00  0.00     0.175 C 
BRANCH  28  29
HETATM   29  O   UNL     1     -44.011 -44.456   9.536  1.00  0.00    -0.400 OA
HETATM   30  H   UNL     1     -43.620 -44.172   8.683  1.00  0.00     0.209 HD
ENDBRANCH  28  29
ENDBRANCH  26  28
BRANCH  26  31
HETATM   31  C   UNL     1     -43.270 -46.881   8.853  1.00  0.00     0.175 C 
BRANCH  31  32
HETATM   32  O   UNL     1     -42.719 -46.096   7.800  1.00  0.00    -0.400 OA
HETATM   33  H   UNL     1     -41.994 -45.565   8.181  1.00  0.00     0.209 HD
ENDBRANCH  31  32
ENDBRANCH  26  31
ENDBRANCH   2  24
TORSDOF 6
ENDMDL
MODEL 3
REMARK VINA RESULT:      -6.3      1.417      1.523
REMARK  6 active torsions:
REMARK  status: ('A' for Active; 'I' for Inactive)
REMARK    1  A    between atoms: N_2  and  C_10 
REMARK    2  A    between atoms: C_4  and  N_7 
REMARK    3  A    between atoms: C_16  and  C_25 
REMARK    4  A    between atoms: C_16  and  C_26 
REMARK    5  A    between atoms: C_25  and  O_29 
REMARK    6  A    between atoms: C_26  and  O_30 
ROOT
HETATM    1  C   UNL     1     -41.363 -50.122  13.084  1.00  0.00     0.117 A 
HETATM    2  N   UNL     1     -40.875 -48.347  11.908  1.00  0.00    -0.322 N 
HETATM    3  C   UNL     1     -40.461 -49.060  13.007  1.00  0.00     0.140 A 
HETATM    4  C   UNL     1     -41.218 -51.050  14.148  1.00  0.00     0.115 A 
HETATM    5  N   UNL     1     -42.282 -50.064  12.055  1.00  0.00    -0.346 N 
ATOM      6  HN  UNL     1     -43.042 -50.717  11.863  1.00  0.00     0.167 HD
HETATM    7  C   UNL     1     -41.966 -48.990  11.382  1.00  0.00     0.185 A 
HETATM    8  N   UNL     1     -39.438 -48.825  13.846  1.00  0.00    -0.336 N 
ATOM      9  HN  UNL     1     -38.787 -48.044  13.760  1.00  0.00     0.168 HD
HETATM   10  N   UNL     1     -40.194 -50.835  15.015  1.00  0.00    -0.341 N 
ATOM     11  HN  UNL     1     -40.035 -51.470  15.798  1.00  0.00     0.167 HD
HETATM   12  C   UNL     1     -39.389 -49.763  14.820  1.00  0.00     0.183 A 
ENDROOT
BRANCH   4  13
HETATM   13  N   UNL     1     -42.107 -52.124  14.292  1.00  0.00    -0.262 NA
HETATM   14  C   UNL     1     -43.179 -52.055  15.311  1.00  0.00     0.072 C 
HETATM   15  C   UNL     1     -44.191 -53.182  14.966  1.00  0.00     0.032 C 
HETATM   16  C   UNL     1     -43.928 -50.714  15.325  1.00  0.00     0.050 C 
HETATM   17  C   UNL     1     -45.408 -53.150  15.895  1.00  0.00     0.278 C 
HETATM   18  C   UNL     1     -43.505 -54.554  14.994  1.00  0.00     0.009 C 
HETATM   19  N   UNL     1     -46.095 -51.853  15.914  1.00  0.00     0.084 N 
HETATM   20  C   UNL     1     -46.823 -51.590  14.672  1.00  0.00     0.309 C 
HETATM   21  C   UNL     1     -45.155 -50.775  16.237  1.00  0.00     0.273 C 
HETATM   22  C   UNL     1     -42.320 -54.562  14.031  1.00  0.00     0.015 C 
HETATM   23  C   UNL     1     -41.366 -53.399  14.303  1.00  0.00     0.097 C 
ENDBRANCH   4  13
BRANCH   2  24
HETATM   24  C   UNL     1     -40.360 -47.170  11.267  1.00  0.00     0.094 C 
HETATM   25  C   UNL     1     -40.282 -45.894  12.158  1.00  0.00     0.039 C 
HETATM   26  C   UNL     1     -40.476 -45.070  10.834  1.00  0.00     0.006 C 
HETATM   27  C   UNL     1     -41.309 -46.331  10.372  1.00  0.00     0.039 C 
BRANCH  26  28
HETATM   28  C   UNL     1     -41.265 -43.772  11.017  1.00  0.00     0.175 C 
BRANCH  28  29
HETATM   29  O   UNL     1     -40.483 -42.657  10.603  1.00  0.00    -0.400 OA
HETATM   30  H   UNL     1     -39.549 -42.868  10.810  1.00  0.00     0.209 HD
ENDBRANCH  28  29
ENDBRANCH  26  28
BRANCH  26  31
HETATM   31  C   UNL     1     -39.148 -44.793  10.102  1.00  0.00     0.175 C 
BRANCH  31  32
HETATM   32  O   UNL     1     -39.404 -44.474   8.737  1.00  0.00    -0.400 OA
HETATM   33  H   UNL     1     -39.841 -43.602   8.718  1.00  0.00     0.209 HD
ENDBRANCH  31  32
ENDBRANCH  26  31
ENDBRANCH   2  24
TORSDOF 6
ENDMDL
MODEL 4
REMARK VINA RESULT:      -6.3      4.182      5.800
REMARK  6 active torsions:
REMARK  status: ('A' for Active; 'I' for Inactive)
REMARK    1  A    between atoms: N_2  and  C_10 
REMARK    2  A    between atoms: C_4  and  N_7 
REMARK    3  A    between atoms: C_16  and  C_25 
REMARK    4  A    between atoms: C_16  and  C_26 
REMARK    5  A    between atoms: C_25  and  O_29 
REMARK    6  A    between atoms: C_26  and  O_30 
ROOT
HETATM    1  C   UNL     1     -39.633 -49.393  13.707  1.00  0.00     0.117 A 
HETATM    2  N   UNL     1     -41.024 -48.377  12.363  1.00  0.00    -0.322 N 
HETATM    3  C   UNL     1     -39.842 -49.077  12.364  1.00  0.00     0.140 A 
HETATM    4  C   UNL     1     -38.460 -50.111  14.052  1.00  0.00     0.115 A 
HETATM    5  N   UNL     1     -40.664 -48.915  14.492  1.00  0.00    -0.346 N 
ATOM      6  HN  UNL     1     -40.774 -49.014  15.501  1.00  0.00     0.167 HD
HETATM    7  C   UNL     1     -41.468 -48.309  13.659  1.00  0.00     0.185 A 
HETATM    8  N   UNL     1     -39.037 -49.400  11.337  1.00  0.00    -0.336 N 
ATOM      9  HN  UNL     1     -39.219 -49.164  10.362  1.00  0.00     0.168 HD
HETATM   10  N   UNL     1     -37.624 -50.449  13.036  1.00  0.00    -0.341 N 
ATOM     11  HN  UNL     1     -36.766 -50.970  13.219  1.00  0.00     0.167 HD
HETATM   12  C   UNL     1     -37.951 -50.080  11.773  1.00  0.00     0.183 A 
ENDROOT
BRANCH   4  13
HETATM   13  N   UNL     1     -38.183 -50.438  15.387  1.00  0.00    -0.262 NA
HETATM   14  C   UNL     1     -36.927 -49.962  16.011  1.00  0.00     0.072 C 
HETATM   15  C   UNL     1     -37.096 -50.149  17.544  1.00  0.00     0.032 C 
HETATM   16  C   UNL     1     -36.624 -48.482  15.730  1.00  0.00     0.050 C 
HETATM   17  C   UNL     1     -35.894 -49.595  18.315  1.00  0.00     0.278 C 
HETATM   18  C   UNL     1     -37.345 -51.624  17.885  1.00  0.00     0.009 C 
HETATM   19  N   UNL     1     -35.605 -48.188  18.015  1.00  0.00     0.084 N 
HETATM   20  C   UNL     1     -36.604 -47.281  18.583  1.00  0.00     0.309 C 
HETATM   21  C   UNL     1     -35.444 -47.990  16.570  1.00  0.00     0.273 C 
HETATM   22  C   UNL     1     -38.569 -52.133  17.129  1.00  0.00     0.015 C 
HETATM   23  C   UNL     1     -38.453 -51.867  15.628  1.00  0.00     0.097 C 
ENDBRANCH   4  13
BRANCH   2  24
HETATM   24  C   UNL     1     -41.808 -47.801  11.308  1.00  0.00     0.094 C 
HETATM   25  C   UNL     1     -41.200 -46.539  10.624  1.00  0.00     0.039 C 
HETATM   26  C   UNL     1     -42.680 -46.093  10.338  1.00  0.00     0.006 C 
HETATM   27  C   UNL     1     -42.992 -46.870  11.679  1.00  0.00     0.039 C 
BRANCH  26  28
HETATM   28  C   UNL     1     -42.891 -44.579  10.371  1.00  0.00     0.175 C 
BRANCH  28  29
HETATM   29  O   UNL     1     -44.002 -44.218   9.557  1.00  0.00    -0.400 OA
HETATM   30  H   UNL     1     -44.788 -44.673   9.924  1.00  0.00     0.209 HD
ENDBRANCH  28  29
ENDBRANCH  26  28
BRANCH  26  31
HETATM   31  C   UNL     1     -43.241 -46.687   9.030  1.00  0.00     0.175 C 
BRANCH  31  32
HETATM   32  O   UNL     1     -42.735 -45.961   7.913  1.00  0.00    -0.400 OA
HETATM   33  H   UNL     1     -41.815 -45.711   8.119  1.00  0.00     0.209 HD
ENDBRANCH  31  32
ENDBRANCH  26  31
ENDBRANCH   2  24
TORSDOF 6
ENDMDL
MODEL 5
REMARK VINA RESULT:      -6.1      2.719      3.311
REMARK  6 active torsions:
REMARK  status: ('A' for Active; 'I' for Inactive)
REMARK    1  A    between atoms: N_2  and  C_10 
REMARK    2  A    between atoms: C_4  and  N_7 
REMARK    3  A    between atoms: C_16  and  C_25 
REMARK    4  A    between atoms: C_16  and  C_26 
REMARK    5  A    between atoms: C_25  and  O_29 
REMARK    6  A    between atoms: C_26  and  O_30 
ROOT
HETATM    1  C   UNL     1     -41.891 -51.040  13.360  1.00  0.00     0.117 A 
HETATM    2  N   UNL     1     -42.346 -49.129  12.404  1.00  0.00    -0.322 N 
HETATM    3  C   UNL     1     -41.330 -50.041  12.563  1.00  0.00     0.140 A 
HETATM    4  C   UNL     1     -41.075 -52.140  13.729  1.00  0.00     0.115 A 
HETATM    5  N   UNL     1     -43.208 -50.752  13.658  1.00  0.00    -0.346 N 
ATOM      6  HN  UNL     1     -43.858 -51.313  14.209  1.00  0.00     0.167 HD
HETATM    7  C   UNL     1     -43.440 -49.603  13.081  1.00  0.00     0.185 A 
HETATM    8  N   UNL     1     -40.073 -50.015  12.089  1.00  0.00    -0.336 N 
ATOM      9  HN  UNL     1     -39.692 -49.274  11.500  1.00  0.00     0.168 HD
HETATM   10  N   UNL     1     -39.797 -52.140  13.268  1.00  0.00    -0.341 N 
ATOM     11  HN  UNL     1     -39.162 -52.905  13.496  1.00  0.00     0.167 HD
HETATM   12  C   UNL     1     -39.382 -51.104  12.498  1.00  0.00     0.183 A 
ENDROOT
BRANCH   4  13
HETATM   13  N   UNL     1     -41.574 -53.163  14.547  1.00  0.00    -0.262 NA
HETATM   14  C   UNL     1     -40.671 -53.840  15.506  1.00  0.00     0.072 C 
HETATM   15  C   UNL     1     -41.581 -54.619  16.495  1.00  0.00     0.032 C 
HETATM   16  C   UNL     1     -39.793 -52.870  16.311  1.00  0.00     0.050 C 
HETATM   17  C   UNL     1     -40.764 -55.284  17.607  1.00  0.00     0.278 C 
HETATM   18  C   UNL     1     -42.442 -55.645  15.747  1.00  0.00     0.009 C 
HETATM   19  N   UNL     1     -39.912 -54.347  18.348  1.00  0.00     0.084 N 
HETATM   20  C   UNL     1     -40.687 -53.457  19.216  1.00  0.00     0.309 C 
HETATM   21  C   UNL     1     -39.046 -53.599  17.430  1.00  0.00     0.273 C 
HETATM   22  C   UNL     1     -43.269 -54.944  14.672  1.00  0.00     0.015 C 
HETATM   23  C   UNL     1     -42.391 -54.097  13.750  1.00  0.00     0.097 C 
ENDBRANCH   4  13
BRANCH   2  24
HETATM   24  C   UNL     1     -42.435 -47.897  11.673  1.00  0.00     0.094 C 
HETATM   25  C   UNL     1     -43.809 -47.610  10.994  1.00  0.00     0.039 C 
HETATM   26  C   UNL     1     -43.004 -46.796   9.918  1.00  0.00     0.006 C 
HETATM   27  C   UNL     1     -41.859 -47.839  10.234  1.00  0.00     0.039 C 
BRANCH  26  28
HETATM   28  C   UNL     1     -43.604 -46.860   8.512  1.00  0.00     0.175 C 
BRANCH  28  29
HETATM   29  O   UNL     1     -42.766 -46.175   7.587  1.00  0.00    -0.400 OA
HETATM   30  H   UNL     1     -42.184 -45.584   8.109  1.00  0.00     0.209 HD
ENDBRANCH  28  29
ENDBRANCH  26  28
BRANCH  26  31
HETATM   31  C   UNL     1     -42.762 -45.332  10.334  1.00  0.00     0.175 C 
BRANCH  31  32
HETATM   32  O   UNL     1     -43.631 -44.470   9.603  1.00  0.00    -0.400 OA
HETATM   33  H   UNL     1     -44.150 -43.960  10.253  1.00  0.00     0.209 HD
ENDBRANCH  31  32
ENDBRANCH  26  31
ENDBRANCH   2  24
TORSDOF 6
ENDMDL
MODEL 6
REMARK VINA RESULT:      -6.1      1.933      2.457
REMARK  6 active torsions:
REMARK  status: ('A' for Active; 'I' for Inactive)
REMARK    1  A    between atoms: N_2  and  C_10 
REMARK    2  A    between atoms: C_4  and  N_7 
REMARK    3  A    between atoms: C_16  and  C_25 
REMARK    4  A    between atoms: C_16  and  C_26 
REMARK    5  A    between atoms: C_25  and  O_29 
REMARK    6  A    between atoms: C_26  and  O_30 
ROOT
HETATM    1  C   UNL     1     -42.363 -50.211  12.766  1.00  0.00     0.117 A 
HETATM    2  N   UNL     1     -42.085 -48.059  12.506  1.00  0.00    -0.322 N 
HETATM    3  C   UNL     1     -41.603 -49.270  12.069  1.00  0.00     0.140 A 
HETATM    4  C   UNL     1     -42.090 -51.586  12.550  1.00  0.00     0.115 A 
HETATM    5  N   UNL     1     -43.287 -49.590  13.583  1.00  0.00    -0.346 N 
ATOM      6  HN  UNL     1     -43.977 -50.034  14.190  1.00  0.00     0.167 HD
HETATM    7  C   UNL     1     -43.086 -48.311  13.409  1.00  0.00     0.185 A 
HETATM    8  N   UNL     1     -40.625 -49.535  11.187  1.00  0.00    -0.336 N 
ATOM      9  HN  UNL     1     -40.091 -48.826  10.684  1.00  0.00     0.168 HD
HETATM   10  N   UNL     1     -41.104 -51.885  11.665  1.00  0.00    -0.341 N 
ATOM     11  HN  UNL     1     -40.863 -52.856  11.463  1.00  0.00     0.167 HD
HETATM   12  C   UNL     1     -40.445 -50.870  11.054  1.00  0.00     0.183 A 
ENDROOT
BRANCH   4  13
HETATM   13  N   UNL     1     -42.804 -52.578  13.237  1.00  0.00    -0.262 NA
HETATM   14  C   UNL     1     -42.069 -53.651  13.945  1.00  0.00     0.072 C 
HETATM   15  C   UNL     1     -43.091 -54.335  14.893  1.00  0.00     0.032 C 
HETATM   16  C   UNL     1     -40.891 -53.136  14.786  1.00  0.00     0.050 C 
HETATM   17  C   UNL     1     -42.423 -55.405  15.762  1.00  0.00     0.278 C 
HETATM   18  C   UNL     1     -44.264 -54.918  14.095  1.00  0.00     0.009 C 
HETATM   19  N   UNL     1     -41.285 -54.900  16.539  1.00  0.00     0.084 N 
HETATM   20  C   UNL     1     -41.703 -54.026  17.637  1.00  0.00     0.309 C 
HETATM   21  C   UNL     1     -40.309 -54.247  15.660  1.00  0.00     0.273 C 
HETATM   22  C   UNL     1     -44.929 -53.820  13.269  1.00  0.00     0.015 C 
HETATM   23  C   UNL     1     -43.912 -53.076  12.402  1.00  0.00     0.097 C 
ENDBRANCH   4  13
BRANCH   2  24
HETATM   24  C   UNL     1     -41.759 -46.705  12.159  1.00  0.00     0.094 C 
HETATM   25  C   UNL     1     -41.427 -46.452  10.657  1.00  0.00     0.039 C 
HETATM   26  C   UNL     1     -40.508 -45.277  11.154  1.00  0.00     0.006 C 
HETATM   27  C   UNL     1     -40.321 -46.190  12.430  1.00  0.00     0.039 C 
BRANCH  26  28
HETATM   28  C   UNL     1     -39.261 -45.057  10.295  1.00  0.00     0.175 C 
BRANCH  28  29
HETATM   29  O   UNL     1     -39.629 -44.866   8.933  1.00  0.00    -0.400 OA
HETATM   30  H   UNL     1     -38.841 -44.513   8.469  1.00  0.00     0.209 HD
ENDBRANCH  28  29
ENDBRANCH  26  28
BRANCH  26  31
HETATM   31  C   UNL     1     -41.276 -43.953  11.338  1.00  0.00     0.175 C 
BRANCH  31  32
HETATM   32  O   UNL     1     -40.660 -42.925  10.568  1.00  0.00    -0.400 OA
HETATM   33  H   UNL     1     -39.798 -42.728  10.980  1.00  0.00     0.209 HD
ENDBRANCH  31  32
ENDBRANCH  26  31
ENDBRANCH   2  24
TORSDOF 6
ENDMDL
MODEL 7
REMARK VINA RESULT:      -6.0      4.355      8.069
REMARK  6 active torsions:
REMARK  status: ('A' for Active; 'I' for Inactive)
REMARK    1  A    between atoms: N_2  and  C_10 
REMARK    2  A    between atoms: C_4  and  N_7 
REMARK    3  A    between atoms: C_16  and  C_25 
REMARK    4  A    between atoms: C_16  and  C_26 
REMARK    5  A    between atoms: C_25  and  O_29 
REMARK    6  A    between atoms: C_26  and  O_30 
ROOT
HETATM    1  C   UNL     1     -41.503 -49.493  11.972  1.00  0.00     0.117 A 
HETATM    2  N   UNL     1     -41.677 -51.356  13.099  1.00  0.00    -0.322 N 
HETATM    3  C   UNL     1     -40.751 -50.556  12.473  1.00  0.00     0.140 A 
HETATM    4  C   UNL     1     -40.829 -48.482  11.239  1.00  0.00     0.115 A 
HETATM    5  N   UNL     1     -42.837 -49.635  12.299  1.00  0.00    -0.346 N 
ATOM      6  HN  UNL     1     -43.603 -49.000  12.073  1.00  0.00     0.167 HD
HETATM    7  C   UNL     1     -42.904 -50.759  12.961  1.00  0.00     0.185 A 
HETATM    8  N   UNL     1     -39.424 -50.723  12.343  1.00  0.00    -0.336 N 
ATOM      9  HN  UNL     1     -38.898 -51.507  12.728  1.00  0.00     0.168 HD
HETATM   10  N   UNL     1     -39.486 -48.625  11.087  1.00  0.00    -0.341 N 
ATOM     11  HN  UNL     1     -38.944 -47.929  10.574  1.00  0.00     0.167 HD
HETATM   12  C   UNL     1     -38.880 -49.709  11.630  1.00  0.00     0.183 A 
ENDROOT
BRANCH   4  13
HETATM   13  N   UNL     1     -41.532 -47.401  10.691  1.00  0.00    -0.262 NA
HETATM   14  C   UNL     1     -41.940 -46.276  11.562  1.00  0.00     0.072 C 
HETATM   15  C   UNL     1     -42.337 -45.107  10.619  1.00  0.00     0.032 C 
HETATM   16  C   UNL     1     -40.824 -45.789  12.500  1.00  0.00     0.050 C 
HETATM   17  C   UNL     1     -42.684 -43.840  11.407  1.00  0.00     0.278 C 
HETATM   18  C   UNL     1     -43.490 -45.523   9.697  1.00  0.00     0.009 C 
HETATM   19  N   UNL     1     -41.616 -43.406  12.315  1.00  0.00     0.084 N 
HETATM   20  C   UNL     1     -40.466 -42.850  11.598  1.00  0.00     0.309 C 
HETATM   21  C   UNL     1     -41.226 -44.497  13.214  1.00  0.00     0.273 C 
HETATM   22  C   UNL     1     -43.097 -46.765   8.901  1.00  0.00     0.015 C 
HETATM   23  C   UNL     1     -42.614 -47.890   9.817  1.00  0.00     0.097 C 
ENDBRANCH   4  13
BRANCH   2  24
HETATM   24  C   UNL     1     -41.557 -52.581  13.839  1.00  0.00     0.094 C 
HETATM   25  C   UNL     1     -40.705 -52.503  15.143  1.00  0.00     0.039 C 
HETATM   26  C   UNL     1     -40.367 -54.019  14.902  1.00  0.00     0.006 C 
HETATM   27  C   UNL     1     -40.517 -53.634  13.376  1.00  0.00     0.039 C 
BRANCH  26  28
HETATM   28  C   UNL     1     -38.965 -54.424  15.360  1.00  0.00     0.175 C 
BRANCH  28  29
HETATM   29  O   UNL     1     -38.593 -55.665  14.770  1.00  0.00    -0.400 OA
HETATM   30  H   UNL     1     -37.632 -55.781  14.926  1.00  0.00     0.209 HD
ENDBRANCH  28  29
ENDBRANCH  26  28
BRANCH  26  31
HETATM   31  C   UNL     1     -41.424 -54.969  15.499  1.00  0.00     0.175 C 
BRANCH  31  32
HETATM   32  O   UNL     1     -40.839 -55.758  16.531  1.00  0.00    -0.400 OA
HETATM   33  H   UNL     1     -40.824 -55.214  17.341  1.00  0.00     0.209 HD
ENDBRANCH  31  32
ENDBRANCH  26  31
ENDBRANCH   2  24
TORSDOF 6
ENDMDL
MODEL 8
REMARK VINA RESULT:      -6.0      1.791      2.475
REMARK  6 active torsions:
REMARK  status: ('A' for Active; 'I' for Inactive)
REMARK    1  A    between atoms: N_2  and  C_10 
REMARK    2  A    between atoms: C_4  and  N_7 
REMARK    3  A    between atoms: C_16  and  C_25 
REMARK    4  A    between atoms: C_16  and  C_26 
REMARK    5  A    between atoms: C_25  and  O_29 
REMARK    6  A    between atoms: C_26  and  O_30 
ROOT
HETATM    1  C   UNL     1     -41.370 -49.490  12.803  1.00  0.00     0.117 A 
HETATM    2  N   UNL     1     -41.231 -47.474  11.974  1.00  0.00    -0.322 N 
HETATM    3  C   UNL     1     -40.822 -48.230  13.047  1.00  0.00     0.140 A 
HETATM    4  C   UNL     1     -41.145 -50.515  13.757  1.00  0.00     0.115 A 
HETATM    5  N   UNL     1     -42.072 -49.501  11.613  1.00  0.00    -0.346 N 
ATOM      6  HN  UNL     1     -42.560 -50.289  11.186  1.00  0.00     0.167 HD
HETATM    7  C   UNL     1     -41.974 -48.282  11.154  1.00  0.00     0.185 A 
HETATM    8  N   UNL     1     -40.077 -47.880  14.108  1.00  0.00    -0.336 N 
ATOM      9  HN  UNL     1     -39.680 -46.952  14.256  1.00  0.00     0.168 HD
HETATM   10  N   UNL     1     -40.397 -50.190  14.844  1.00  0.00    -0.341 N 
ATOM     11  HN  UNL     1     -40.196 -50.885  15.563  1.00  0.00     0.167 HD
HETATM   12  C   UNL     1     -39.922 -48.925  14.954  1.00  0.00     0.183 A 
ENDROOT
BRANCH   4  13
HETATM   13  N   UNL     1     -41.688 -51.796  13.579  1.00  0.00    -0.262 NA
HETATM   14  C   UNL     1     -42.942 -52.161  14.277  1.00  0.00     0.072 C 
HETATM   15  C   UNL     1     -43.468 -53.453  13.592  1.00  0.00     0.032 C 
HETATM   16  C   UNL     1     -44.032 -51.082  14.187  1.00  0.00     0.050 C 
HETATM   17  C   UNL     1     -44.825 -53.878  14.161  1.00  0.00     0.278 C 
HETATM   18  C   UNL     1     -42.438 -54.583  13.703  1.00  0.00     0.009 C 
HETATM   19  N   UNL     1     -45.846 -52.826  14.090  1.00  0.00     0.084 N 
HETATM   20  C   UNL     1     -46.304 -52.587  12.719  1.00  0.00     0.309 C 
HETATM   21  C   UNL     1     -45.366 -51.597  14.729  1.00  0.00     0.273 C 
HETATM   22  C   UNL     1     -41.111 -54.139  13.095  1.00  0.00     0.015 C 
HETATM   23  C   UNL     1     -40.632 -52.817  13.697  1.00  0.00     0.097 C 
ENDBRANCH   4  13
BRANCH   2  24
HETATM   24  C   UNL     1     -40.983 -46.109  11.601  1.00  0.00     0.094 C 
HETATM   25  C   UNL     1     -41.468 -45.031  12.617  1.00  0.00     0.039 C 
HETATM   26  C   UNL     1     -41.643 -44.077  11.380  1.00  0.00     0.006 C 
HETATM   27  C   UNL     1     -41.951 -45.420  10.604  1.00  0.00     0.039 C 
BRANCH  26  28
HETATM   28  C   UNL     1     -42.808 -43.094  11.512  1.00  0.00     0.175 C 
BRANCH  28  29
HETATM   29  O   UNL     1     -43.062 -42.461  10.263  1.00  0.00    -0.400 OA
HETATM   30  H   UNL     1     -42.687 -43.038   9.566  1.00  0.00     0.209 HD
ENDBRANCH  28  29
ENDBRANCH  26  28
BRANCH  26  31
HETATM   31  C   UNL     1     -40.346 -43.330  11.013  1.00  0.00     0.175 C 
BRANCH  31  32
HETATM   32  O   UNL     1     -40.454 -41.959  11.388  1.00  0.00    -0.400 OA
HETATM   33  H   UNL     1     -41.018 -41.918  12.183  1.00  0.00     0.209 HD
ENDBRANCH  31  32
ENDBRANCH  26  31
ENDBRANCH   2  24
TORSDOF 6
ENDMDL
MODEL 9
REMARK VINA RESULT:      -6.0      4.186      8.161
REMARK  6 active torsions:
REMARK  status: ('A' for Active; 'I' for Inactive)
REMARK    1  A    between atoms: N_2  and  C_10 
REMARK    2  A    between atoms: C_4  and  N_7 
REMARK    3  A    between atoms: C_16  and  C_25 
REMARK    4  A    between atoms: C_16  and  C_26 
REMARK    5  A    between atoms: C_25  and  O_29 
REMARK    6  A    between atoms: C_26  and  O_30 
ROOT
HETATM    1  C   UNL     1     -41.520 -47.348  12.582  1.00  0.00     0.117 A 
HETATM    2  N   UNL     1     -41.242 -49.488  12.919  1.00  0.00    -0.322 N 
HETATM    3  C   UNL     1     -42.055 -48.596  12.262  1.00  0.00     0.140 A 
HETATM    4  C   UNL     1     -42.159 -46.192  12.065  1.00  0.00     0.115 A 
HETATM    5  N   UNL     1     -40.410 -47.480  13.392  1.00  0.00    -0.346 N 
ATOM      6  HN  UNL     1     -39.819 -46.736  13.764  1.00  0.00     0.167 HD
HETATM    7  C   UNL     1     -40.280 -48.767  13.579  1.00  0.00     0.185 A 
HETATM    8  N   UNL     1     -43.129 -48.826  11.487  1.00  0.00    -0.336 N 
ATOM      9  HN  UNL     1     -43.493 -49.752  11.262  1.00  0.00     0.168 HD
HETATM   10  N   UNL     1     -43.250 -46.392  11.280  1.00  0.00    -0.341 N 
ATOM     11  HN  UNL     1     -43.751 -45.601  10.875  1.00  0.00     0.167 HD
HETATM   12  C   UNL     1     -43.662 -47.662  11.047  1.00  0.00     0.183 A 
ENDROOT
BRANCH   4  13
HETATM   13  N   UNL     1     -41.683 -44.909  12.370  1.00  0.00    -0.262 NA
HETATM   14  C   UNL     1     -42.412 -44.072  13.350  1.00  0.00     0.072 C 
HETATM   15  C   UNL     1     -41.452 -42.916  13.744  1.00  0.00     0.032 C 
HETATM   16  C   UNL     1     -42.813 -44.830  14.625  1.00  0.00     0.050 C 
HETATM   17  C   UNL     1     -42.057 -42.031  14.838  1.00  0.00     0.278 C 
HETATM   18  C   UNL     1     -41.064 -42.091  12.511  1.00  0.00     0.009 C 
HETATM   19  N   UNL     1     -42.457 -42.775  16.038  1.00  0.00     0.084 N 
HETATM   20  C   UNL     1     -41.306 -43.242  16.814  1.00  0.00     0.309 C 
HETATM   21  C   UNL     1     -43.363 -43.874  15.686  1.00  0.00     0.273 C 
HETATM   22  C   UNL     1     -40.432 -42.996  11.457  1.00  0.00     0.015 C 
HETATM   23  C   UNL     1     -41.330 -44.191  11.132  1.00  0.00     0.097 C 
ENDBRANCH   4  13
BRANCH   2  24
HETATM   24  C   UNL     1     -41.226 -50.923  12.978  1.00  0.00     0.094 C 
HETATM   25  C   UNL     1     -40.867 -51.540  14.364  1.00  0.00     0.039 C 
HETATM   26  C   UNL     1     -40.289 -52.764  13.566  1.00  0.00     0.006 C 
HETATM   27  C   UNL     1     -39.972 -51.678  12.462  1.00  0.00     0.039 C 
BRANCH  26  28
HETATM   28  C   UNL     1     -39.078 -53.423  14.229  1.00  0.00     0.175 C 
BRANCH  28  29
HETATM   29  O   UNL     1     -38.689 -54.584  13.502  1.00  0.00    -0.400 OA
HETATM   30  H   UNL     1     -38.982 -55.361  14.022  1.00  0.00     0.209 HD
ENDBRANCH  28  29
ENDBRANCH  26  28
BRANCH  26  31
HETATM   31  C   UNL     1     -41.361 -53.820  13.231  1.00  0.00     0.175 C 
BRANCH  31  32
HETATM   32  O   UNL     1     -40.978 -54.548  12.067  1.00  0.00    -0.400 OA
HETATM   33  H   UNL     1     -40.149 -55.018  12.277  1.00  0.00     0.209 HD
ENDBRANCH  31  32
ENDBRANCH  26  31
ENDBRANCH   2  24
TORSDOF 6
ENDMDL
