MODEL 1
REMARK VINA RESULT:      -6.7      0.000      0.000
REMARK  9 active torsions:
REMARK  status: ('A' for Active; 'I' for Inactive)
REMARK    1  A    between atoms: N_1  and  C_8 
REMARK    2  A    between atoms: C_6  and  N_9 
REMARK       I    between atoms: N_10  and  C_15 
REMARK    3  A    between atoms: C_15  and  C_24 
REMARK    4  A    between atoms: C_16  and  C_30 
REMARK    5  A    between atoms: C_16  and  C_31 
REMARK    6  A    between atoms: N_17  and  C_20 
REMARK    7  A    between atoms: C_20  and  C_24 
REMARK    8  A    between atoms: C_30  and  O_32 
REMARK    9  A    between atoms: C_31  and  O_33 
ROOT
HETATM    1  N   UNL     1     -41.492 -49.227  11.737  1.00  0.00    -0.322 N 
HETATM    2  C   UNL     1     -40.196 -50.641  12.802  1.00  0.00     0.122 A 
HETATM    3  C   UNL     1     -40.176 -49.625  11.842  1.00  0.00     0.140 A 
HETATM    4  N   UNL     1     -41.479 -50.834  13.275  1.00  0.00    -0.346 N 
ATOM      5  HN  UNL     1     -41.784 -51.503  13.982  1.00  0.00     0.167 HD
HETATM    6  C   UNL     1     -38.977 -51.306  13.133  1.00  0.00     0.135 A 
HETATM    7  C   UNL     1     -42.222 -49.973  12.622  1.00  0.00     0.185 A 
HETATM    8  N   UNL     1     -39.095 -49.165  11.188  1.00  0.00    -0.336 N 
ATOM      9  HN  UNL     1     -39.109 -48.418  10.495  1.00  0.00     0.168 HD
HETATM   10  N   UNL     1     -37.865 -50.854  12.469  1.00  0.00    -0.337 N 
ATOM     11  HN  UNL     1     -36.955 -51.280  12.641  1.00  0.00     0.168 HD
HETATM   12  C   UNL     1     -37.985 -49.835  11.580  1.00  0.00     0.183 A 
ENDROOT
BRANCH   6  13
HETATM   13  N   UNL     1     -38.830 -52.319  14.114  1.00  0.00    -0.362 N 
HETATM   14  C   UNL     1     -39.024 -51.895  15.522  1.00  0.00     0.144 C 
HETATM   15  C   UNL     1     -38.690 -53.025  16.523  1.00  0.00     0.145 C 
HETATM   16  N   UNL     1     -39.359 -54.297  16.193  1.00  0.00    -0.348 N 
HETATM   17  C   UNL     1     -39.084 -54.708  14.802  1.00  0.00     0.145 C 
HETATM   18  C   UNL     1     -40.099 -54.953  17.174  1.00  0.00     0.231 C 
HETATM   19  C   UNL     1     -39.491 -53.604  13.782  1.00  0.00     0.144 C 
HETATM   20  O   UNL     1     -40.134 -54.513  18.333  1.00  0.00    -0.272 OA
BRANCH  18  21
HETATM   21  C   UNL     1     -40.880 -56.246  16.889  1.00  0.00     0.206 C 
BRANCH  21  22
HETATM   22  C   UNL     1     -40.032 -57.412  17.371  1.00  0.00    -0.069 C 
BRANCH  22  23
HETATM   23  N   UNL     1     -39.329 -58.380  17.769  1.00  0.00    -0.369 N 
ATOM     24  HN2 UNL     1     -39.918 -57.602  17.473  1.00  0.00     0.165 HD
ATOM     25  HN1 UNL     1     -38.759 -59.162  18.092  1.00  0.00     0.165 HD
ENDBRANCH  22  23
ENDBRANCH  21  22
ENDBRANCH  18  21
ENDBRANCH   6  13
BRANCH   1  26
HETATM   26  C   UNL     1     -42.171 -48.290  10.884  1.00  0.00     0.094 C 
HETATM   27  C   UNL     1     -41.344 -47.037  10.485  1.00  0.00     0.039 C 
HETATM   28  C   UNL     1     -42.721 -46.286  10.351  1.00  0.00     0.006 C 
HETATM   29  C   UNL     1     -43.174 -47.275  11.498  1.00  0.00     0.039 C 
BRANCH  28  30
HETATM   30  C   UNL     1     -42.713 -44.812  10.749  1.00  0.00     0.175 C 
BRANCH  30  31
HETATM   31  O   UNL     1     -43.578 -44.082   9.882  1.00  0.00    -0.400 OA
HETATM   32  H   UNL     1     -43.774 -43.234  10.323  1.00  0.00     0.209 HD
ENDBRANCH  30  31
ENDBRANCH  28  30
BRANCH  28  33
HETATM   33  C   UNL     1     -43.472 -46.479   9.014  1.00  0.00     0.175 C 
BRANCH  33  34
HETATM   34  O   UNL     1     -42.703 -45.957   7.937  1.00  0.00    -0.400 OA
HETATM   35  H   UNL     1     -41.924 -46.542   7.840  1.00  0.00     0.209 HD
ENDBRANCH  33  34
ENDBRANCH  28  33
ENDBRANCH   1  26
TORSDOF 9
ENDMDL
MODEL 2
REMARK VINA RESULT:      -6.7      1.669      2.023
REMARK  9 active torsions:
REMARK  status: ('A' for Active; 'I' for Inactive)
REMARK    1  A    between atoms: N_1  and  C_8 
REMARK    2  A    between atoms: C_6  and  N_9 
REMARK       I    between atoms: N_10  and  C_15 
REMARK    3  A    between atoms: C_15  and  C_24 
REMARK    4  A    between atoms: C_16  and  C_30 
REMARK    5  A    between atoms: C_16  and  C_31 
REMARK    6  A    between atoms: N_17  and  C_20 
REMARK    7  A    between atoms: C_20  and  C_24 
REMARK    8  A    between atoms: C_30  and  O_32 
REMARK    9  A    between atoms: C_31  and  O_33 
ROOT
HETATM    1  N   UNL     1     -41.852 -49.207  11.764  1.00  0.00    -0.322 N 
HETATM    2  C   UNL     1     -40.707 -50.645  12.962  1.00  0.00     0.122 A 
HETATM    3  C   UNL     1     -40.576 -49.699  11.941  1.00  0.00     0.140 A 
HETATM    4  N   UNL     1     -42.015 -50.704  13.400  1.00  0.00    -0.346 N 
ATOM      5  HN  UNL     1     -42.395 -51.299  14.137  1.00  0.00     0.167 HD
HETATM    6  C   UNL     1     -39.556 -51.380  13.377  1.00  0.00     0.135 A 
HETATM    7  C   UNL     1     -42.666 -49.833  12.669  1.00  0.00     0.185 A 
HETATM    8  N   UNL     1     -39.442 -49.370  11.297  1.00  0.00    -0.336 N 
ATOM      9  HN  UNL     1     -39.375 -48.671  10.558  1.00  0.00     0.168 HD
HETATM   10  N   UNL     1     -38.392 -51.062  12.725  1.00  0.00    -0.337 N 
ATOM     11  HN  UNL     1     -37.525 -51.546  12.956  1.00  0.00     0.168 HD
HETATM   12  C   UNL     1     -38.402 -50.098  11.770  1.00  0.00     0.183 A 
ENDROOT
BRANCH   6  13
HETATM   13  N   UNL     1     -39.521 -52.335  14.424  1.00  0.00    -0.362 N 
HETATM   14  C   UNL     1     -39.408 -53.754  14.009  1.00  0.00     0.144 C 
HETATM   15  C   UNL     1     -39.535 -54.725  15.205  1.00  0.00     0.145 C 
HETATM   16  N   UNL     1     -38.649 -54.367  16.328  1.00  0.00    -0.348 N 
HETATM   17  C   UNL     1     -38.845 -52.965  16.747  1.00  0.00     0.145 C 
HETATM   18  C   UNL     1     -37.805 -55.337  16.866  1.00  0.00     0.231 C 
HETATM   19  C   UNL     1     -38.641 -51.975  15.562  1.00  0.00     0.144 C 
HETATM   20  O   UNL     1     -37.851 -56.506  16.456  1.00  0.00    -0.272 OA
BRANCH  18  21
HETATM   21  C   UNL     1     -36.805 -55.024  17.991  1.00  0.00     0.206 C 
BRANCH  21  22
HETATM   22  C   UNL     1     -35.573 -55.884  17.764  1.00  0.00    -0.069 C 
BRANCH  22  23
HETATM   23  N   UNL     1     -34.550 -56.596  17.576  1.00  0.00    -0.369 N 
ATOM     24  HN2 UNL     1     -35.378 -56.014  17.695  1.00  0.00     0.165 HD
ATOM     25  HN1 UNL     1     -33.722 -57.173  17.424  1.00  0.00     0.165 HD
ENDBRANCH  22  23
ENDBRANCH  21  22
ENDBRANCH  18  21
ENDBRANCH   6  13
BRANCH   1  26
HETATM   26  C   UNL     1     -42.427 -48.278  10.831  1.00  0.00     0.094 C 
HETATM   27  C   UNL     1     -41.529 -47.064  10.464  1.00  0.00     0.039 C 
HETATM   28  C   UNL     1     -42.864 -46.275  10.193  1.00  0.00     0.006 C 
HETATM   29  C   UNL     1     -43.442 -47.213  11.328  1.00  0.00     0.039 C 
BRANCH  28  30
HETATM   30  C   UNL     1     -42.840 -44.791  10.547  1.00  0.00     0.175 C 
BRANCH  30  31
HETATM   31  O   UNL     1     -43.776 -44.093   9.729  1.00  0.00    -0.400 OA
HETATM   32  H   UNL     1     -44.637 -44.538   9.839  1.00  0.00     0.209 HD
ENDBRANCH  30  31
ENDBRANCH  28  30
BRANCH  28  33
HETATM   33  C   UNL     1     -43.509 -46.489   8.806  1.00  0.00     0.175 C 
BRANCH  33  34
HETATM   34  O   UNL     1     -42.665 -45.969   7.785  1.00  0.00    -0.400 OA
HETATM   35  H   UNL     1     -43.008 -46.314   6.935  1.00  0.00     0.209 HD
ENDBRANCH  33  34
ENDBRANCH  28  33
ENDBRANCH   1  26
TORSDOF 9
ENDMDL
MODEL 3
REMARK VINA RESULT:      -6.6      4.254      5.628
REMARK  9 active torsions:
REMARK  status: ('A' for Active; 'I' for Inactive)
REMARK    1  A    between atoms: N_1  and  C_8 
REMARK    2  A    between atoms: C_6  and  N_9 
REMARK       I    between atoms: N_10  and  C_15 
REMARK    3  A    between atoms: C_15  and  C_24 
REMARK    4  A    between atoms: C_16  and  C_30 
REMARK    5  A    between atoms: C_16  and  C_31 
REMARK    6  A    between atoms: N_17  and  C_20 
REMARK    7  A    between atoms: C_20  and  C_24 
REMARK    8  A    between atoms: C_30  and  O_32 
REMARK    9  A    between atoms: C_31  and  O_33 
ROOT
HETATM    1  N   UNL     1     -41.026 -48.047  11.733  1.00  0.00    -0.322 N 
HETATM    2  C   UNL     1     -39.548 -48.463  13.300  1.00  0.00     0.122 A 
HETATM    3  C   UNL     1     -39.802 -48.646  11.937  1.00  0.00     0.140 A 
HETATM    4  N   UNL     1     -40.576 -47.758  13.892  1.00  0.00    -0.346 N 
ATOM      5  HN  UNL     1     -40.652 -47.477  14.870  1.00  0.00     0.167 HD
HETATM    6  C   UNL     1     -38.351 -49.002  13.861  1.00  0.00     0.135 A 
HETATM    7  C   UNL     1     -41.436 -47.524  12.930  1.00  0.00     0.185 A 
HETATM    8  N   UNL     1     -39.005 -49.273  11.054  1.00  0.00    -0.336 N 
ATOM      9  HN  UNL     1     -39.214 -49.388  10.062  1.00  0.00     0.168 HD
HETATM   10  N   UNL     1     -37.531 -49.652  12.973  1.00  0.00    -0.337 N 
ATOM     11  HN  UNL     1     -36.659 -50.073  13.294  1.00  0.00     0.168 HD
HETATM   12  C   UNL     1     -37.888 -49.731  11.666  1.00  0.00     0.183 A 
ENDROOT
BRANCH   6  13
HETATM   13  N   UNL     1     -37.935 -48.861  15.208  1.00  0.00    -0.362 N 
HETATM   14  C   UNL     1     -36.841 -49.760  15.650  1.00  0.00     0.144 C 
HETATM   15  C   UNL     1     -36.565 -49.642  17.167  1.00  0.00     0.145 C 
HETATM   16  N   UNL     1     -36.396 -48.246  17.610  1.00  0.00    -0.348 N 
HETATM   17  C   UNL     1     -37.539 -47.406  17.202  1.00  0.00     0.145 C 
HETATM   18  C   UNL     1     -35.269 -47.898  18.352  1.00  0.00     0.231 C 
HETATM   19  C   UNL     1     -37.775 -47.458  15.663  1.00  0.00     0.144 C 
HETATM   20  O   UNL     1     -34.454 -48.766  18.700  1.00  0.00    -0.272 OA
BRANCH  18  21
HETATM   21  C   UNL     1     -34.988 -46.453  18.792  1.00  0.00     0.206 C 
BRANCH  21  22
HETATM   22  C   UNL     1     -33.544 -46.387  19.263  1.00  0.00    -0.069 C 
BRANCH  22  23
HETATM   23  N   UNL     1     -32.347 -46.333  19.654  1.00  0.00    -0.369 N 
ATOM     24  HN2 UNL     1     -33.307 -46.404  19.320  1.00  0.00     0.165 HD
ATOM     25  HN1 UNL     1     -31.378 -46.289  19.971  1.00  0.00     0.165 HD
ENDBRANCH  22  23
ENDBRANCH  21  22
ENDBRANCH  18  21
ENDBRANCH   6  13
BRANCH   1  26
HETATM   26  C   UNL     1     -41.894 -47.946  10.592  1.00  0.00     0.094 C 
HETATM   27  C   UNL     1     -41.797 -46.612   9.801  1.00  0.00     0.039 C 
HETATM   28  C   UNL     1     -43.294 -46.860   9.381  1.00  0.00     0.006 C 
HETATM   29  C   UNL     1     -43.388 -47.572  10.790  1.00  0.00     0.039 C 
BRANCH  28  30
HETATM   30  C   UNL     1     -44.158 -45.610   9.241  1.00  0.00     0.175 C 
BRANCH  30  31
HETATM   31  O   UNL     1     -45.447 -45.976   8.752  1.00  0.00    -0.400 OA
HETATM   32  H   UNL     1     -45.629 -46.878   9.076  1.00  0.00     0.209 HD
ENDBRANCH  30  31
ENDBRANCH  28  30
BRANCH  28  33
HETATM   33  C   UNL     1     -43.514 -47.805   8.178  1.00  0.00     0.175 C 
BRANCH  33  34
HETATM   34  O   UNL     1     -43.080 -47.180   6.975  1.00  0.00    -0.400 OA
HETATM   35  H   UNL     1     -42.156 -47.470   6.827  1.00  0.00     0.209 HD
ENDBRANCH  33  34
ENDBRANCH  28  33
ENDBRANCH   1  26
TORSDOF 9
ENDMDL
MODEL 4
REMARK VINA RESULT:      -6.6      1.866      9.501
REMARK  9 active torsions:
REMARK  status: ('A' for Active; 'I' for Inactive)
REMARK    1  A    between atoms: N_1  and  C_8 
REMARK    2  A    between atoms: C_6  and  N_9 
REMARK       I    between atoms: N_10  and  C_15 
REMARK    3  A    between atoms: C_15  and  C_24 
REMARK    4  A    between atoms: C_16  and  C_30 
REMARK    5  A    between atoms: C_16  and  C_31 
REMARK    6  A    between atoms: N_17  and  C_20 
REMARK    7  A    between atoms: C_20  and  C_24 
REMARK    8  A    between atoms: C_30  and  O_32 
REMARK    9  A    between atoms: C_31  and  O_33 
ROOT
HETATM    1  N   UNL     1     -39.572 -52.449  14.752  1.00  0.00    -0.322 N 
HETATM    2  C   UNL     1     -40.161 -50.630  13.674  1.00  0.00     0.122 A 
HETATM    3  C   UNL     1     -39.079 -51.490  13.893  1.00  0.00     0.140 A 
HETATM    4  N   UNL     1     -41.274 -51.071  14.363  1.00  0.00    -0.346 N 
ATOM      5  HN  UNL     1     -42.200 -50.643  14.380  1.00  0.00     0.167 HD
HETATM    6  C   UNL     1     -39.980 -49.487  12.839  1.00  0.00     0.135 A 
HETATM    7  C   UNL     1     -40.888 -52.156  14.989  1.00  0.00     0.185 A 
HETATM    8  N   UNL     1     -37.848 -51.374  13.366  1.00  0.00    -0.336 N 
ATOM      9  HN  UNL     1     -37.079 -52.019  13.539  1.00  0.00     0.168 HD
HETATM   10  N   UNL     1     -38.726 -49.350  12.299  1.00  0.00    -0.337 N 
ATOM     11  HN  UNL     1     -38.511 -48.556  11.696  1.00  0.00     0.168 HD
HETATM   12  C   UNL     1     -37.775 -50.278  12.573  1.00  0.00     0.183 A 
ENDROOT
BRANCH   6  13
HETATM   13  N   UNL     1     -40.988 -48.555  12.489  1.00  0.00    -0.362 N 
HETATM   14  C   UNL     1     -40.515 -47.212  12.070  1.00  0.00     0.144 C 
HETATM   15  C   UNL     1     -41.683 -46.221  11.860  1.00  0.00     0.145 C 
HETATM   16  N   UNL     1     -42.748 -46.767  10.998  1.00  0.00    -0.348 N 
HETATM   17  C   UNL     1     -43.229 -48.072  11.492  1.00  0.00     0.145 C 
HETATM   18  C   UNL     1     -43.187 -46.025   9.903  1.00  0.00     0.231 C 
HETATM   19  C   UNL     1     -42.067 -49.101  11.631  1.00  0.00     0.144 C 
HETATM   20  O   UNL     1     -42.740 -44.886   9.698  1.00  0.00    -0.272 OA
BRANCH  18  21
HETATM   21  C   UNL     1     -44.242 -46.555   8.920  1.00  0.00     0.206 C 
BRANCH  21  22
HETATM   22  C   UNL     1     -43.550 -47.530   7.982  1.00  0.00    -0.069 C 
BRANCH  22  23
HETATM   23  N   UNL     1     -42.975 -48.340   7.205  1.00  0.00    -0.369 N 
ATOM     24  HN2 UNL     1     -43.460 -47.710   7.844  1.00  0.00     0.165 HD
ATOM     25  HN1 UNL     1     -42.510 -48.994   6.576  1.00  0.00     0.165 HD
ENDBRANCH  22  23
ENDBRANCH  21  22
ENDBRANCH  18  21
ENDBRANCH   6  13
BRANCH   1  26
HETATM   26  C   UNL     1     -38.971 -53.565  15.428  1.00  0.00     0.094 C 
HETATM   27  C   UNL     1     -39.596 -54.951  15.106  1.00  0.00     0.039 C 
HETATM   28  C   UNL     1     -39.118 -55.396  16.539  1.00  0.00     0.006 C 
HETATM   29  C   UNL     1     -39.359 -53.875  16.900  1.00  0.00     0.039 C 
BRANCH  28  30
HETATM   30  C   UNL     1     -40.034 -56.375  17.268  1.00  0.00     0.175 C 
BRANCH  30  31
HETATM   31  O   UNL     1     -39.682 -57.710  16.911  1.00  0.00    -0.400 OA
HETATM   32  H   UNL     1     -39.117 -57.653  16.119  1.00  0.00     0.209 HD
ENDBRANCH  30  31
ENDBRANCH  28  30
BRANCH  28  33
HETATM   33  C   UNL     1     -37.645 -55.848  16.653  1.00  0.00     0.175 C 
BRANCH  33  34
HETATM   34  O   UNL     1     -37.428 -56.512  17.893  1.00  0.00    -0.400 OA
HETATM   35  H   UNL     1     -37.936 -56.017  18.568  1.00  0.00     0.209 HD
ENDBRANCH  33  34
ENDBRANCH  28  33
ENDBRANCH   1  26
TORSDOF 9
ENDMDL
MODEL 5
REMARK VINA RESULT:      -6.4      3.819      9.238
REMARK  9 active torsions:
REMARK  status: ('A' for Active; 'I' for Inactive)
REMARK    1  A    between atoms: N_1  and  C_8 
REMARK    2  A    between atoms: C_6  and  N_9 
REMARK       I    between atoms: N_10  and  C_15 
REMARK    3  A    between atoms: C_15  and  C_24 
REMARK    4  A    between atoms: C_16  and  C_30 
REMARK    5  A    between atoms: C_16  and  C_31 
REMARK    6  A    between atoms: N_17  and  C_20 
REMARK    7  A    between atoms: C_20  and  C_24 
REMARK    8  A    between atoms: C_30  and  O_32 
REMARK    9  A    between atoms: C_31  and  O_33 
ROOT
HETATM    1  N   UNL     1     -42.366 -50.550  12.578  1.00  0.00    -0.322 N 
HETATM    2  C   UNL     1     -41.067 -48.831  12.164  1.00  0.00     0.122 A 
HETATM    3  C   UNL     1     -41.083 -50.229  12.189  1.00  0.00     0.140 A 
HETATM    4  N   UNL     1     -42.306 -48.328  12.506  1.00  0.00    -0.346 N 
ATOM      5  HN  UNL     1     -42.582 -47.347  12.564  1.00  0.00     0.167 HD
HETATM    6  C   UNL     1     -39.855 -48.158  11.825  1.00  0.00     0.135 A 
HETATM    7  C   UNL     1     -43.054 -49.378  12.742  1.00  0.00     0.185 A 
HETATM    8  N   UNL     1     -40.056 -51.045  11.893  1.00  0.00    -0.336 N 
ATOM      9  HN  UNL     1     -40.098 -52.063  11.914  1.00  0.00     0.168 HD
HETATM   10  N   UNL     1     -38.795 -48.976  11.528  1.00  0.00    -0.337 N 
ATOM     11  HN  UNL     1     -37.890 -48.576  11.282  1.00  0.00     0.168 HD
HETATM   12  C   UNL     1     -38.959 -50.323  11.562  1.00  0.00     0.183 A 
ENDROOT
BRANCH   6  13
HETATM   13  N   UNL     1     -39.694 -46.754  11.714  1.00  0.00    -0.362 N 
HETATM   14  C   UNL     1     -40.423 -46.102  10.598  1.00  0.00     0.144 C 
HETATM   15  C   UNL     1     -40.064 -44.604  10.462  1.00  0.00     0.145 C 
HETATM   16  N   UNL     1     -40.165 -43.874  11.740  1.00  0.00    -0.348 N 
HETATM   17  C   UNL     1     -39.373 -44.527  12.801  1.00  0.00     0.145 C 
HETATM   18  C   UNL     1     -40.917 -42.702  11.798  1.00  0.00     0.231 C 
HETATM   19  C   UNL     1     -39.784 -46.016  12.996  1.00  0.00     0.144 C 
HETATM   20  O   UNL     1     -41.433 -42.237  10.771  1.00  0.00    -0.272 OA
BRANCH  18  21
HETATM   21  C   UNL     1     -41.126 -41.923  13.106  1.00  0.00     0.206 C 
BRANCH  21  22
HETATM   22  C   UNL     1     -39.998 -40.911  13.225  1.00  0.00    -0.069 C 
BRANCH  22  23
HETATM   23  N   UNL     1     -39.062 -40.072  13.324  1.00  0.00    -0.369 N 
ATOM     24  HN2 UNL     1     -39.796 -40.775  13.242  1.00  0.00     0.165 HD
ATOM     25  HN1 UNL     1     -38.306 -39.392  13.404  1.00  0.00     0.165 HD
ENDBRANCH  22  23
ENDBRANCH  21  22
ENDBRANCH  18  21
ENDBRANCH   6  13
BRANCH   1  26
HETATM   26  C   UNL     1     -43.022 -51.794  12.875  1.00  0.00     0.094 C 
HETATM   27  C   UNL     1     -44.495 -51.670  13.350  1.00  0.00     0.039 C 
HETATM   28  C   UNL     1     -44.260 -53.017  14.130  1.00  0.00     0.006 C 
HETATM   29  C   UNL     1     -42.773 -52.489  14.242  1.00  0.00     0.039 C 
BRANCH  28  30
HETATM   30  C   UNL     1     -44.990 -53.146  15.465  1.00  0.00     0.175 C 
BRANCH  30  31
HETATM   31  O   UNL     1     -44.925 -54.499  15.912  1.00  0.00    -0.400 OA
HETATM   32  H   UNL     1     -44.077 -54.862  15.598  1.00  0.00     0.209 HD
ENDBRANCH  30  31
ENDBRANCH  28  30
BRANCH  28  33
HETATM   33  C   UNL     1     -44.411 -54.315  13.305  1.00  0.00     0.175 C 
BRANCH  33  34
HETATM   34  O   UNL     1     -45.770 -54.735  13.292  1.00  0.00    -0.400 OA
HETATM   35  H   UNL     1     -46.315 -53.921  13.289  1.00  0.00     0.209 HD
ENDBRANCH  33  34
ENDBRANCH  28  33
ENDBRANCH   1  26
TORSDOF 9
ENDMDL
MODEL 6
REMARK VINA RESULT:      -6.4      2.729      3.628
REMARK  9 active torsions:
REMARK  status: ('A' for Active; 'I' for Inactive)
REMARK    1  A    between atoms: N_1  and  C_8 
REMARK    2  A    between atoms: C_6  and  N_9 
REMARK       I    between atoms: N_10  and  C_15 
REMARK    3  A    between atoms: C_15  and  C_24 
REMARK    4  A    between atoms: C_16  and  C_30 
REMARK    5  A    between atoms: C_16  and  C_31 
REMARK    6  A    between atoms: N_17  and  C_20 
REMARK    7  A    between atoms: C_20  and  C_24 
REMARK    8  A    between atoms: C_30  and  O_32 
REMARK    9  A    between atoms: C_31  and  O_33 
ROOT
HETATM    1  N   UNL     1     -40.795 -47.626  12.150  1.00  0.00    -0.322 N 
HETATM    2  C   UNL     1     -40.650 -49.767  12.610  1.00  0.00     0.122 A 
HETATM    3  C   UNL     1     -39.928 -48.696  12.074  1.00  0.00     0.140 A 
HETATM    4  N   UNL     1     -41.903 -49.350  13.015  1.00  0.00    -0.346 N 
ATOM      5  HN  UNL     1     -42.635 -49.916  13.444  1.00  0.00     0.167 HD
HETATM    6  C   UNL     1     -40.046 -51.059  12.651  1.00  0.00     0.135 A 
HETATM    7  C   UNL     1     -41.952 -48.071  12.730  1.00  0.00     0.185 A 
HETATM    8  N   UNL     1     -38.671 -48.738  11.599  1.00  0.00    -0.336 N 
ATOM      9  HN  UNL     1     -38.166 -47.939  11.218  1.00  0.00     0.168 HD
HETATM   10  N   UNL     1     -38.765 -51.121  12.163  1.00  0.00    -0.337 N 
ATOM     11  HN  UNL     1     -38.262 -52.008  12.150  1.00  0.00     0.168 HD
HETATM   12  C   UNL     1     -38.170 -49.993  11.699  1.00  0.00     0.183 A 
ENDROOT
BRANCH   6  13
HETATM   13  N   UNL     1     -40.630 -52.226  13.203  1.00  0.00    -0.362 N 
HETATM   14  C   UNL     1     -40.984 -52.160  14.642  1.00  0.00     0.144 C 
HETATM   15  C   UNL     1     -41.467 -53.523  15.189  1.00  0.00     0.145 C 
HETATM   16  N   UNL     1     -42.515 -54.135  14.351  1.00  0.00    -0.348 N 
HETATM   17  C   UNL     1     -42.091 -54.237  12.941  1.00  0.00     0.145 C 
HETATM   18  C   UNL     1     -43.701 -54.560  14.947  1.00  0.00     0.231 C 
HETATM   19  C   UNL     1     -41.677 -52.852  12.360  1.00  0.00     0.144 C 
HETATM   20  O   UNL     1     -43.845 -54.493  16.177  1.00  0.00    -0.272 OA
BRANCH  18  21
HETATM   21  C   UNL     1     -44.867 -55.144  14.133  1.00  0.00     0.206 C 
BRANCH  21  22
HETATM   22  C   UNL     1     -45.710 -53.981  13.636  1.00  0.00    -0.069 C 
BRANCH  22  23
HETATM   23  N   UNL     1     -46.409 -53.016  13.225  1.00  0.00    -0.369 N 
ATOM     24  HN2 UNL     1     -45.872 -53.815  13.560  1.00  0.00     0.165 HD
ATOM     25  HN1 UNL     1     -46.975 -52.234  12.892  1.00  0.00     0.165 HD
ENDBRANCH  22  23
ENDBRANCH  21  22
ENDBRANCH  18  21
ENDBRANCH   6  13
BRANCH   1  26
HETATM   26  C   UNL     1     -40.715 -46.262  11.704  1.00  0.00     0.094 C 
HETATM   27  C   UNL     1     -41.222 -45.201  12.719  1.00  0.00     0.039 C 
HETATM   28  C   UNL     1     -41.562 -44.304  11.471  1.00  0.00     0.006 C 
HETATM   29  C   UNL     1     -41.809 -45.695  10.759  1.00  0.00     0.039 C 
BRANCH  28  30
HETATM   30  C   UNL     1     -42.806 -43.429  11.604  1.00  0.00     0.175 C 
BRANCH  30  31
HETATM   31  O   UNL     1     -43.123 -42.860  10.335  1.00  0.00    -0.400 OA
HETATM   32  H   UNL     1     -42.398 -43.096   9.728  1.00  0.00     0.209 HD
ENDBRANCH  30  31
ENDBRANCH  28  30
BRANCH  28  33
HETATM   33  C   UNL     1     -40.390 -43.490  10.881  1.00  0.00     0.175 C 
BRANCH  33  34
HETATM   34  O   UNL     1     -40.534 -42.112  11.207  1.00  0.00    -0.400 OA
HETATM   35  H   UNL     1     -41.415 -41.837  10.880  1.00  0.00     0.209 HD
ENDBRANCH  33  34
ENDBRANCH  28  33
ENDBRANCH   1  26
TORSDOF 9
ENDMDL
MODEL 7
REMARK VINA RESULT:      -6.2      5.144      6.574
REMARK  9 active torsions:
REMARK  status: ('A' for Active; 'I' for Inactive)
REMARK    1  A    between atoms: N_1  and  C_8 
REMARK    2  A    between atoms: C_6  and  N_9 
REMARK       I    between atoms: N_10  and  C_15 
REMARK    3  A    between atoms: C_15  and  C_24 
REMARK    4  A    between atoms: C_16  and  C_30 
REMARK    5  A    between atoms: C_16  and  C_31 
REMARK    6  A    between atoms: N_17  and  C_20 
REMARK    7  A    between atoms: C_20  and  C_24 
REMARK    8  A    between atoms: C_30  and  O_32 
REMARK    9  A    between atoms: C_31  and  O_33 
ROOT
HETATM    1  N   UNL     1     -42.479 -54.359  15.047  1.00  0.00    -0.322 N 
HETATM    2  C   UNL     1     -40.693 -55.207  15.999  1.00  0.00     0.122 A 
HETATM    3  C   UNL     1     -41.126 -54.533  14.852  1.00  0.00     0.140 A 
HETATM    4  N   UNL     1     -41.749 -55.412  16.865  1.00  0.00    -0.346 N 
ATOM      5  HN  UNL     1     -41.722 -55.870  17.776  1.00  0.00     0.167 HD
HETATM    6  C   UNL     1     -39.319 -55.577  16.108  1.00  0.00     0.135 A 
HETATM    7  C   UNL     1     -42.794 -54.891  16.268  1.00  0.00     0.185 A 
HETATM    8  N   UNL     1     -40.362 -54.156  13.812  1.00  0.00    -0.336 N 
ATOM      9  HN  UNL     1     -40.704 -53.661  12.989  1.00  0.00     0.168 HD
HETATM   10  N   UNL     1     -38.528 -55.207  15.051  1.00  0.00    -0.337 N 
ATOM     11  HN  UNL     1     -37.535 -55.440  15.046  1.00  0.00     0.168 HD
HETATM   12  C   UNL     1     -39.075 -54.528  14.011  1.00  0.00     0.183 A 
ENDROOT
BRANCH   6  13
HETATM   13  N   UNL     1     -38.725 -56.220  17.223  1.00  0.00    -0.362 N 
HETATM   14  C   UNL     1     -39.246 -57.569  17.551  1.00  0.00     0.144 C 
HETATM   15  C   UNL     1     -38.651 -58.121  18.868  1.00  0.00     0.145 C 
HETATM   16  N   UNL     1     -37.180 -58.030  18.912  1.00  0.00    -0.348 N 
HETATM   17  C   UNL     1     -36.714 -56.655  18.642  1.00  0.00     0.145 C 
HETATM   18  C   UNL     1     -36.436 -59.166  19.222  1.00  0.00     0.231 C 
HETATM   19  C   UNL     1     -37.246 -56.122  17.279  1.00  0.00     0.144 C 
HETATM   20  O   UNL     1     -37.005 -60.224  19.530  1.00  0.00    -0.272 OA
BRANCH  18  21
HETATM   21  C   UNL     1     -34.899 -59.168  19.221  1.00  0.00     0.206 C 
BRANCH  21  22
HETATM   22  C   UNL     1     -34.440 -60.611  19.081  1.00  0.00    -0.069 C 
BRANCH  22  23
HETATM   23  N   UNL     1     -34.060 -61.807  18.964  1.00  0.00    -0.369 N 
ATOM     24  HN2 UNL     1     -34.372 -60.845  19.092  1.00  0.00     0.165 HD
ATOM     25  HN1 UNL     1     -33.752 -62.775  18.869  1.00  0.00     0.165 HD
ENDBRANCH  22  23
ENDBRANCH  21  22
ENDBRANCH  18  21
ENDBRANCH   6  13
BRANCH   1  26
HETATM   26  C   UNL     1     -43.529 -53.818  14.228  1.00  0.00     0.094 C 
HETATM   27  C   UNL     1     -44.182 -52.513  14.761  1.00  0.00     0.039 C 
HETATM   28  C   UNL     1     -45.482 -52.959  13.993  1.00  0.00     0.006 C 
HETATM   29  C   UNL     1     -44.960 -54.417  14.313  1.00  0.00     0.039 C 
BRANCH  28  30
HETATM   30  C   UNL     1     -46.804 -52.596  14.663  1.00  0.00     0.175 C 
BRANCH  30  31
HETATM   31  O   UNL     1     -47.068 -51.208  14.471  1.00  0.00    -0.400 OA
HETATM   32  H   UNL     1     -46.516 -50.722  15.110  1.00  0.00     0.209 HD
ENDBRANCH  30  31
ENDBRANCH  28  30
BRANCH  28  33
HETATM   33  C   UNL     1     -45.530 -52.620  12.486  1.00  0.00     0.175 C 
BRANCH  33  34
HETATM   34  O   UNL     1     -46.859 -52.748  11.995  1.00  0.00    -0.400 OA
HETATM   35  H   UNL     1     -47.357 -53.259  12.665  1.00  0.00     0.209 HD
ENDBRANCH  33  34
ENDBRANCH  28  33
ENDBRANCH   1  26
TORSDOF 9
ENDMDL
MODEL 8
REMARK VINA RESULT:      -6.2      1.661      2.247
REMARK  9 active torsions:
REMARK  status: ('A' for Active; 'I' for Inactive)
REMARK    1  A    between atoms: N_1  and  C_8 
REMARK    2  A    between atoms: C_6  and  N_9 
REMARK       I    between atoms: N_10  and  C_15 
REMARK    3  A    between atoms: C_15  and  C_24 
REMARK    4  A    between atoms: C_16  and  C_30 
REMARK    5  A    between atoms: C_16  and  C_31 
REMARK    6  A    between atoms: N_17  and  C_20 
REMARK    7  A    between atoms: C_20  and  C_24 
REMARK    8  A    between atoms: C_30  and  O_32 
REMARK    9  A    between atoms: C_31  and  O_33 
ROOT
HETATM    1  N   UNL     1     -39.512 -48.874  12.407  1.00  0.00    -0.322 N 
HETATM    2  C   UNL     1     -39.566 -50.824  13.411  1.00  0.00     0.122 A 
HETATM    3  C   UNL     1     -40.036 -50.143  12.283  1.00  0.00     0.140 A 
HETATM    4  N   UNL     1     -38.769 -49.997  14.176  1.00  0.00    -0.346 N 
ATOM      5  HN  UNL     1     -38.290 -50.231  15.047  1.00  0.00     0.167 HD
HETATM    6  C   UNL     1     -39.957 -52.182  13.613  1.00  0.00     0.135 A 
HETATM    7  C   UNL     1     -38.755 -48.847  13.547  1.00  0.00     0.185 A 
HETATM    8  N   UNL     1     -40.822 -50.647  11.316  1.00  0.00    -0.336 N 
ATOM      9  HN  UNL     1     -41.146 -50.128  10.500  1.00  0.00     0.168 HD
HETATM   10  N   UNL     1     -40.766 -52.709  12.638  1.00  0.00    -0.337 N 
ATOM     11  HN  UNL     1     -41.097 -53.671  12.710  1.00  0.00     0.168 HD
HETATM   12  C   UNL     1     -41.123 -51.941  11.577  1.00  0.00     0.183 A 
ENDROOT
BRANCH   6  13
HETATM   13  N   UNL     1     -39.529 -53.013  14.678  1.00  0.00    -0.362 N 
HETATM   14  C   UNL     1     -40.193 -52.791  15.985  1.00  0.00     0.144 C 
HETATM   15  C   UNL     1     -39.554 -53.630  17.115  1.00  0.00     0.145 C 
HETATM   16  N   UNL     1     -39.413 -55.055  16.760  1.00  0.00    -0.348 N 
HETATM   17  C   UNL     1     -38.690 -55.225  15.484  1.00  0.00     0.145 C 
HETATM   18  C   UNL     1     -39.910 -56.026  17.627  1.00  0.00     0.231 C 
HETATM   19  C   UNL     1     -39.375 -54.445  14.323  1.00  0.00     0.144 C 
HETATM   20  O   UNL     1     -40.398 -55.701  18.720  1.00  0.00    -0.272 OA
BRANCH  18  21
HETATM   21  C   UNL     1     -39.863 -57.526  17.295  1.00  0.00     0.206 C 
BRANCH  21  22
HETATM   22  C   UNL     1     -38.848 -58.172  18.225  1.00  0.00    -0.069 C 
BRANCH  22  23
HETATM   23  N   UNL     1     -38.008 -58.707  18.997  1.00  0.00    -0.369 N 
ATOM     24  HN2 UNL     1     -38.664 -58.253  18.362  1.00  0.00     0.165 HD
ATOM     25  HN1 UNL     1     -37.328 -59.141  19.622  1.00  0.00     0.165 HD
ENDBRANCH  22  23
ENDBRANCH  21  22
ENDBRANCH  18  21
ENDBRANCH   6  13
BRANCH   1  26
HETATM   26  C   UNL     1     -39.667 -47.667  11.641  1.00  0.00     0.094 C 
HETATM   27  C   UNL     1     -39.954 -46.387  12.472  1.00  0.00     0.039 C 
HETATM   28  C   UNL     1     -40.698 -45.838  11.197  1.00  0.00     0.006 C 
HETATM   29  C   UNL     1     -41.022 -47.365  10.944  1.00  0.00     0.039 C 
BRANCH  28  30
HETATM   30  C   UNL     1     -41.920 -44.965  11.468  1.00  0.00     0.175 C 
BRANCH  30  31
HETATM   31  O   UNL     1     -42.549 -44.633  10.232  1.00  0.00    -0.400 OA
HETATM   32  H   UNL     1     -43.424 -44.261  10.449  1.00  0.00     0.209 HD
ENDBRANCH  30  31
ENDBRANCH  28  30
BRANCH  28  33
HETATM   33  C   UNL     1     -39.803 -45.192  10.116  1.00  0.00     0.175 C 
BRANCH  33  34
HETATM   34  O   UNL     1     -39.977 -43.780  10.111  1.00  0.00    -0.400 OA
HETATM   35  H   UNL     1     -39.765 -43.475   9.205  1.00  0.00     0.209 HD
ENDBRANCH  33  34
ENDBRANCH  28  33
ENDBRANCH   1  26
TORSDOF 9
ENDMDL
MODEL 9
REMARK VINA RESULT:      -6.1      3.099      5.403
REMARK  9 active torsions:
REMARK  status: ('A' for Active; 'I' for Inactive)
REMARK    1  A    between atoms: N_1  and  C_8 
REMARK    2  A    between atoms: C_6  and  N_9 
REMARK       I    between atoms: N_10  and  C_15 
REMARK    3  A    between atoms: C_15  and  C_24 
REMARK    4  A    between atoms: C_16  and  C_30 
REMARK    5  A    between atoms: C_16  and  C_31 
REMARK    6  A    between atoms: N_17  and  C_20 
REMARK    7  A    between atoms: C_20  and  C_24 
REMARK    8  A    between atoms: C_30  and  O_32 
REMARK    9  A    between atoms: C_31  and  O_33 
ROOT
HETATM    1  N   UNL     1     -42.320 -44.532  11.513  1.00  0.00    -0.322 N 
HETATM    2  C   UNL     1     -41.704 -46.619  11.225  1.00  0.00     0.122 A 
HETATM    3  C   UNL     1     -42.541 -45.627  10.704  1.00  0.00     0.140 A 
HETATM    4  N   UNL     1     -40.988 -46.130  12.300  1.00  0.00    -0.346 N 
ATOM      5  HN  UNL     1     -40.301 -46.631  12.864  1.00  0.00     0.167 HD
HETATM    6  C   UNL     1     -41.712 -47.915  10.629  1.00  0.00     0.135 A 
HETATM    7  C   UNL     1     -41.377 -44.886  12.439  1.00  0.00     0.185 A 
HETATM    8  N   UNL     1     -43.364 -45.750   9.648  1.00  0.00    -0.336 N 
ATOM      9  HN  UNL     1     -43.961 -45.007   9.286  1.00  0.00     0.168 HD
HETATM   10  N   UNL     1     -42.552 -48.060   9.554  1.00  0.00    -0.337 N 
ATOM     11  HN  UNL     1     -42.623 -48.957   9.074  1.00  0.00     0.168 HD
HETATM   12  C   UNL     1     -43.290 -47.000   9.134  1.00  0.00     0.183 A 
ENDROOT
BRANCH   6  13
HETATM   13  N   UNL     1     -40.891 -49.004  11.013  1.00  0.00    -0.362 N 
HETATM   14  C   UNL     1     -39.518 -48.661  11.459  1.00  0.00     0.144 C 
HETATM   15  C   UNL     1     -38.652 -49.917  11.706  1.00  0.00     0.145 C 
HETATM   16  N   UNL     1     -39.320 -50.911  12.567  1.00  0.00    -0.348 N 
HETATM   17  C   UNL     1     -40.655 -51.268  12.047  1.00  0.00     0.145 C 
HETATM   18  C   UNL     1     -38.650 -51.406  13.684  1.00  0.00     0.231 C 
HETATM   19  C   UNL     1     -41.560 -50.013  11.869  1.00  0.00     0.144 C 
HETATM   20  O   UNL     1     -37.478 -51.071  13.912  1.00  0.00    -0.272 OA
BRANCH  18  21
HETATM   21  C   UNL     1     -39.304 -52.390  14.666  1.00  0.00     0.206 C 
BRANCH  21  22
HETATM   22  C   UNL     1     -39.034 -53.797  14.157  1.00  0.00    -0.069 C 
BRANCH  22  23
HETATM   23  N   UNL     1     -38.810 -54.964  13.734  1.00  0.00    -0.369 N 
ATOM     24  HN2 UNL     1     -38.957 -54.015  14.079  1.00  0.00     0.165 HD
ATOM     25  HN1 UNL     1     -38.629 -55.908  13.393  1.00  0.00     0.165 HD
ENDBRANCH  22  23
ENDBRANCH  21  22
ENDBRANCH  18  21
ENDBRANCH   6  13
BRANCH   1  26
HETATM   26  C   UNL     1     -42.910 -43.223  11.579  1.00  0.00     0.094 C 
HETATM   27  C   UNL     1     -42.003 -42.062  11.085  1.00  0.00     0.039 C 
HETATM   28  C   UNL     1     -42.812 -41.136  12.070  1.00  0.00     0.006 C 
HETATM   29  C   UNL     1     -42.937 -42.457  12.930  1.00  0.00     0.039 C 
BRANCH  28  30
HETATM   30  C   UNL     1     -42.012 -40.019  12.734  1.00  0.00     0.175 C 
BRANCH  30  31
HETATM   31  O   UNL     1     -42.854 -39.303  13.635  1.00  0.00    -0.400 OA
HETATM   32  H   UNL     1     -42.385 -38.482  13.873  1.00  0.00     0.209 HD
ENDBRANCH  30  31
ENDBRANCH  28  30
BRANCH  28  33
HETATM   33  C   UNL     1     -44.158 -40.595  11.540  1.00  0.00     0.175 C 
BRANCH  33  34
HETATM   34  O   UNL     1     -44.015 -39.241  11.124  1.00  0.00    -0.400 OA
HETATM   35  H   UNL     1     -43.428 -39.250  10.341  1.00  0.00     0.209 HD
ENDBRANCH  33  34
ENDBRANCH  28  33
ENDBRANCH   1  26
TORSDOF 9
ENDMDL
