MODEL 1
REMARK VINA RESULT:      -6.0      0.000      0.000
REMARK  5 active torsions:
REMARK  status: ('A' for Active; 'I' for Inactive)
REMARK    1  A    between atoms: O_1  and  C_2 
REMARK    2  A    between atoms: C_2  and  C_4 
REMARK    3  A    between atoms: C_4  and  N_5 
REMARK    4  A    between atoms: N_10  and  C_11 
REMARK    5  A    between atoms: C_11  and  C_12 
ROOT
HETATM    1  N   UNL     1     -40.490 -54.478  15.161  1.00  0.00    -0.256 N 
HETATM    2  C   UNL     1     -39.980 -53.969  13.989  1.00  0.00     0.253 C 
HETATM    3  O   UNL     1     -38.850 -53.499  13.904  1.00  0.00    -0.268 OA
HETATM    4  C   UNL     1     -40.892 -53.908  12.839  1.00  0.00     0.092 C 
HETATM    5  C   UNL     1     -42.186 -54.144  13.042  1.00  0.00     0.101 C 
HETATM    6  N   UNL     1     -42.676 -54.511  14.275  1.00  0.00    -0.305 N 
HETATM    7  C   UNL     1     -41.843 -54.733  15.371  1.00  0.00     0.332 C 
HETATM    8  O   UNL     1     -42.267 -55.137  16.453  1.00  0.00    -0.246 OA
ENDROOT
BRANCH   6   9
HETATM    9  C   UNL     1     -44.113 -54.746  14.438  1.00  0.00     0.171 C 
BRANCH   9  10
HETATM   10  C   UNL     1     -44.966 -53.502  14.313  1.00  0.00    -0.040 A 
HETATM   11  C   UNL     1     -45.613 -53.189  13.108  1.00  0.00     0.009 A 
HETATM   12  C   UNL     1     -46.492 -52.104  13.032  1.00  0.00     0.001 A 
HETATM   13  C   UNL     1     -46.730 -51.317  14.155  1.00  0.00     0.000 A 
HETATM   14  C   UNL     1     -46.062 -51.591  15.347  1.00  0.00     0.001 A 
HETATM   15  C   UNL     1     -45.177 -52.671  15.422  1.00  0.00     0.009 A 
ENDBRANCH   9  10
ENDBRANCH   6   9
BRANCH   1  16
HETATM   16  C   UNL     1     -39.589 -54.609  16.301  1.00  0.00     0.246 C 
BRANCH  16  17
HETATM   17  C   UNL     1     -38.873 -55.950  16.265  1.00  0.00     0.158 C 
HETATM   18  O   UNL     1     -39.326 -56.977  16.751  1.00  0.00    -0.649 OA
BRANCH  17  19
HETATM   19  O   UNL     1     -37.721 -55.950  15.549  1.00  0.00    -0.775 OA
HETATM   20  H   UNL     1     -37.190 -56.776  15.641  1.00  0.00     0.167 HD
ENDBRANCH  17  19
ENDBRANCH  16  17
ENDBRANCH   1  16
TORSDOF 5
ENDMDL
MODEL 2
REMARK VINA RESULT:      -5.7      2.759      4.230
REMARK  5 active torsions:
REMARK  status: ('A' for Active; 'I' for Inactive)
REMARK    1  A    between atoms: O_1  and  C_2 
REMARK    2  A    between atoms: C_2  and  C_4 
REMARK    3  A    between atoms: C_4  and  N_5 
REMARK    4  A    between atoms: N_10  and  C_11 
REMARK    5  A    between atoms: C_11  and  C_12 
ROOT
HETATM    1  N   UNL     1     -40.729 -51.470  13.014  1.00  0.00    -0.256 N 
HETATM    2  C   UNL     1     -39.965 -52.555  13.378  1.00  0.00     0.253 C 
HETATM    3  O   UNL     1     -38.741 -52.509  13.463  1.00  0.00    -0.268 OA
HETATM    4  C   UNL     1     -40.669 -53.830  13.564  1.00  0.00     0.092 C 
HETATM    5  C   UNL     1     -41.940 -53.917  13.177  1.00  0.00     0.101 C 
HETATM    6  N   UNL     1     -42.625 -52.832  12.677  1.00  0.00    -0.305 N 
HETATM    7  C   UNL     1     -42.061 -51.559  12.617  1.00  0.00     0.332 C 
HETATM    8  O   UNL     1     -42.694 -50.572  12.245  1.00  0.00    -0.246 OA
ENDROOT
BRANCH   6   9
HETATM    9  C   UNL     1     -44.019 -52.994  12.256  1.00  0.00     0.171 C 
BRANCH   9  10
HETATM   10  C   UNL     1     -45.031 -52.786  13.362  1.00  0.00    -0.040 A 
HETATM   11  C   UNL     1     -45.655 -51.543  13.545  1.00  0.00     0.009 A 
HETATM   12  C   UNL     1     -46.673 -51.388  14.491  1.00  0.00     0.001 A 
HETATM   13  C   UNL     1     -47.075 -52.471  15.268  1.00  0.00     0.000 A 
HETATM   14  C   UNL     1     -46.437 -53.701  15.126  1.00  0.00     0.001 A 
HETATM   15  C   UNL     1     -45.414 -53.855  14.186  1.00  0.00     0.009 A 
ENDBRANCH   9  10
ENDBRANCH   6   9
BRANCH   1  16
HETATM   16  C   UNL     1     -40.065 -50.177  12.884  1.00  0.00     0.246 C 
BRANCH  16  17
HETATM   17  C   UNL     1     -39.414 -50.047  11.516  1.00  0.00     0.158 C 
HETATM   18  O   UNL     1     -38.205 -49.999  11.338  1.00  0.00    -0.649 OA
BRANCH  17  19
HETATM   19  O   UNL     1     -40.284 -50.093  10.476  1.00  0.00    -0.775 OA
HETATM   20  H   UNL     1     -40.481 -49.213  10.077  1.00  0.00     0.167 HD
ENDBRANCH  17  19
ENDBRANCH  16  17
ENDBRANCH   1  16
TORSDOF 5
ENDMDL
MODEL 3
REMARK VINA RESULT:      -5.7      2.517      3.817
REMARK  5 active torsions:
REMARK  status: ('A' for Active; 'I' for Inactive)
REMARK    1  A    between atoms: O_1  and  C_2 
REMARK    2  A    between atoms: C_2  and  C_4 
REMARK    3  A    between atoms: C_4  and  N_5 
REMARK    4  A    between atoms: N_10  and  C_11 
REMARK    5  A    between atoms: C_11  and  C_12 
ROOT
HETATM    1  N   UNL     1     -39.858 -52.027  13.919  1.00  0.00    -0.256 N 
HETATM    2  C   UNL     1     -39.941 -53.365  13.609  1.00  0.00     0.253 C 
HETATM    3  O   UNL     1     -38.955 -54.092  13.531  1.00  0.00    -0.268 OA
HETATM    4  C   UNL     1     -41.269 -53.885  13.259  1.00  0.00     0.092 C 
HETATM    5  C   UNL     1     -42.259 -53.017  13.062  1.00  0.00     0.101 C 
HETATM    6  N   UNL     1     -42.089 -51.663  13.243  1.00  0.00    -0.305 N 
HETATM    7  C   UNL     1     -40.896 -51.120  13.719  1.00  0.00     0.332 C 
HETATM    8  O   UNL     1     -40.765 -49.920  13.958  1.00  0.00    -0.246 OA
ENDROOT
BRANCH   6   9
HETATM    9  C   UNL     1     -43.214 -50.757  12.998  1.00  0.00     0.171 C 
BRANCH   9  10
HETATM   10  C   UNL     1     -44.429 -51.025  13.860  1.00  0.00    -0.040 A 
HETATM   11  C   UNL     1     -44.380 -50.846  15.251  1.00  0.00     0.009 A 
HETATM   12  C   UNL     1     -45.534 -50.981  16.028  1.00  0.00     0.001 A 
HETATM   13  C   UNL     1     -46.748 -51.303  15.426  1.00  0.00     0.000 A 
HETATM   14  C   UNL     1     -46.803 -51.524  14.052  1.00  0.00     0.001 A 
HETATM   15  C   UNL     1     -45.648 -51.396  13.275  1.00  0.00     0.009 A 
ENDBRANCH   9  10
ENDBRANCH   6   9
BRANCH   1  16
HETATM   16  C   UNL     1     -38.562 -51.497  14.330  1.00  0.00     0.246 C 
BRANCH  16  17
HETATM   17  C   UNL     1     -37.790 -50.982  13.125  1.00  0.00     0.158 C 
HETATM   18  O   UNL     1     -37.728 -49.802  12.809  1.00  0.00    -0.649 OA
BRANCH  17  19
HETATM   19  O   UNL     1     -37.074 -51.932  12.473  1.00  0.00    -0.775 OA
HETATM   20  H   UNL     1     -37.002 -51.784  11.500  1.00  0.00     0.167 HD
ENDBRANCH  17  19
ENDBRANCH  16  17
ENDBRANCH   1  16
TORSDOF 5
ENDMDL
MODEL 4
REMARK VINA RESULT:      -5.7      1.606      1.956
REMARK  5 active torsions:
REMARK  status: ('A' for Active; 'I' for Inactive)
REMARK    1  A    between atoms: O_1  and  C_2 
REMARK    2  A    between atoms: C_2  and  C_4 
REMARK    3  A    between atoms: C_4  and  N_5 
REMARK    4  A    between atoms: N_10  and  C_11 
REMARK    5  A    between atoms: C_11  and  C_12 
ROOT
HETATM    1  N   UNL     1     -40.678 -53.233  14.157  1.00  0.00    -0.256 N 
HETATM    2  C   UNL     1     -40.187 -52.066  13.619  1.00  0.00     0.253 C 
HETATM    3  O   UNL     1     -39.246 -51.450  14.111  1.00  0.00    -0.268 OA
HETATM    4  C   UNL     1     -40.911 -51.508  12.469  1.00  0.00     0.092 C 
HETATM    5  C   UNL     1     -42.092 -52.032  12.148  1.00  0.00     0.101 C 
HETATM    6  N   UNL     1     -42.614 -53.117  12.815  1.00  0.00    -0.305 N 
HETATM    7  C   UNL     1     -41.910 -53.785  13.815  1.00  0.00     0.332 C 
HETATM    8  O   UNL     1     -42.339 -54.802  14.360  1.00  0.00    -0.246 OA
ENDROOT
BRANCH   6   9
HETATM    9  C   UNL     1     -43.925 -53.640  12.422  1.00  0.00     0.171 C 
BRANCH   9  10
HETATM   10  C   UNL     1     -45.071 -53.165  13.290  1.00  0.00    -0.040 A 
HETATM   11  C   UNL     1     -45.726 -54.045  14.165  1.00  0.00     0.009 A 
HETATM   12  C   UNL     1     -46.704 -53.577  15.048  1.00  0.00     0.001 A 
HETATM   13  C   UNL     1     -47.043 -52.226  15.062  1.00  0.00     0.000 A 
HETATM   14  C   UNL     1     -46.430 -51.349  14.171  1.00  0.00     0.001 A 
HETATM   15  C   UNL     1     -45.457 -51.818  13.283  1.00  0.00     0.009 A 
ENDBRANCH   9  10
ENDBRANCH   6   9
BRANCH   1  16
HETATM   16  C   UNL     1     -39.942 -53.842  15.260  1.00  0.00     0.246 C 
BRANCH  16  17
HETATM   17  C   UNL     1     -39.001 -54.920  14.743  1.00  0.00     0.158 C 
HETATM   18  O   UNL     1     -38.604 -55.858  15.420  1.00  0.00    -0.649 OA
BRANCH  17  19
HETATM   19  O   UNL     1     -38.712 -54.823  13.422  1.00  0.00    -0.775 OA
HETATM   20  H   UNL     1     -39.411 -54.375  12.889  1.00  0.00     0.167 HD
ENDBRANCH  17  19
ENDBRANCH  16  17
ENDBRANCH   1  16
TORSDOF 5
ENDMDL
MODEL 5
REMARK VINA RESULT:      -5.5      2.963      4.453
REMARK  5 active torsions:
REMARK  status: ('A' for Active; 'I' for Inactive)
REMARK    1  A    between atoms: O_1  and  C_2 
REMARK    2  A    between atoms: C_2  and  C_4 
REMARK    3  A    between atoms: C_4  and  N_5 
REMARK    4  A    between atoms: N_10  and  C_11 
REMARK    5  A    between atoms: C_11  and  C_12 
ROOT
HETATM    1  N   UNL     1     -39.712 -51.005  13.043  1.00  0.00    -0.256 N 
HETATM    2  C   UNL     1     -40.603 -49.998  12.748  1.00  0.00     0.253 C 
HETATM    3  O   UNL     1     -40.330 -48.809  12.880  1.00  0.00    -0.268 OA
HETATM    4  C   UNL     1     -41.960 -50.405  12.363  1.00  0.00     0.092 C 
HETATM    5  C   UNL     1     -42.310 -51.680  12.518  1.00  0.00     0.101 C 
HETATM    6  N   UNL     1     -41.418 -52.632  12.959  1.00  0.00    -0.305 N 
HETATM    7  C   UNL     1     -40.076 -52.340  13.197  1.00  0.00     0.332 C 
HETATM    8  O   UNL     1     -39.258 -53.203  13.516  1.00  0.00    -0.246 OA
ENDROOT
BRANCH   6   9
HETATM    9  C   UNL     1     -41.866 -54.017  13.121  1.00  0.00     0.171 C 
BRANCH   9  10
HETATM   10  C   UNL     1     -43.171 -54.166  13.872  1.00  0.00    -0.040 A 
HETATM   11  C   UNL     1     -43.240 -53.927  15.253  1.00  0.00     0.009 A 
HETATM   12  C   UNL     1     -44.469 -53.952  15.920  1.00  0.00     0.001 A 
HETATM   13  C   UNL     1     -45.640 -54.223  15.218  1.00  0.00     0.000 A 
HETATM   14  C   UNL     1     -45.581 -54.503  13.855  1.00  0.00     0.001 A 
HETATM   15  C   UNL     1     -44.352 -54.486  13.188  1.00  0.00     0.009 A 
ENDBRANCH   9  10
ENDBRANCH   6   9
BRANCH   1  16
HETATM   16  C   UNL     1     -38.339 -50.632  13.368  1.00  0.00     0.246 C 
BRANCH  16  17
HETATM   17  C   UNL     1     -37.451 -50.739  12.138  1.00  0.00     0.158 C 
HETATM   18  O   UNL     1     -37.267 -49.823  11.349  1.00  0.00    -0.649 OA
BRANCH  17  19
HETATM   19  O   UNL     1     -36.783 -51.915  12.032  1.00  0.00    -0.775 OA
HETATM   20  H   UNL     1     -36.119 -51.935  11.302  1.00  0.00     0.167 HD
ENDBRANCH  17  19
ENDBRANCH  16  17
ENDBRANCH   1  16
TORSDOF 5
ENDMDL
MODEL 6
REMARK VINA RESULT:      -5.4      3.313      5.522
REMARK  5 active torsions:
REMARK  status: ('A' for Active; 'I' for Inactive)
REMARK    1  A    between atoms: O_1  and  C_2 
REMARK    2  A    between atoms: C_2  and  C_4 
REMARK    3  A    between atoms: C_4  and  N_5 
REMARK    4  A    between atoms: N_10  and  C_11 
REMARK    5  A    between atoms: C_11  and  C_12 
ROOT
HETATM    1  N   UNL     1     -45.868 -53.774  14.299  1.00  0.00    -0.256 N 
HETATM    2  C   UNL     1     -46.052 -52.785  13.361  1.00  0.00     0.253 C 
HETATM    3  O   UNL     1     -45.588 -52.849  12.227  1.00  0.00    -0.268 OA
HETATM    4  C   UNL     1     -46.748 -51.570  13.804  1.00  0.00     0.092 C 
HETATM    5  C   UNL     1     -46.973 -51.406  15.106  1.00  0.00     0.101 C 
HETATM    6  N   UNL     1     -46.635 -52.368  16.031  1.00  0.00    -0.305 N 
HETATM    7  C   UNL     1     -46.110 -53.605  15.660  1.00  0.00     0.332 C 
HETATM    8  O   UNL     1     -45.880 -54.497  16.476  1.00  0.00    -0.246 OA
ENDROOT
BRANCH   6   9
HETATM    9  C   UNL     1     -46.897 -52.123  17.451  1.00  0.00     0.171 C 
BRANCH   9  10
HETATM   10  C   UNL     1     -46.951 -50.659  17.832  1.00  0.00    -0.040 A 
HETATM   11  C   UNL     1     -48.158 -50.060  18.222  1.00  0.00     0.009 A 
HETATM   12  C   UNL     1     -48.182 -48.740  18.684  1.00  0.00     0.001 A 
HETATM   13  C   UNL     1     -47.003 -48.003  18.756  1.00  0.00     0.000 A 
HETATM   14  C   UNL     1     -45.804 -48.572  18.333  1.00  0.00     0.001 A 
HETATM   15  C   UNL     1     -45.780 -49.889  17.864  1.00  0.00     0.009 A 
ENDBRANCH   9  10
ENDBRANCH   6   9
BRANCH   1  16
HETATM   16  C   UNL     1     -45.235 -55.016  13.871  1.00  0.00     0.246 C 
BRANCH  16  17
HETATM   17  C   UNL     1     -43.756 -55.011  14.225  1.00  0.00     0.158 C 
HETATM   18  O   UNL     1     -42.928 -54.291  13.684  1.00  0.00    -0.649 OA
BRANCH  17  19
HETATM   19  O   UNL     1     -43.430 -55.803  15.277  1.00  0.00    -0.775 OA
HETATM   20  H   UNL     1     -42.784 -55.397  15.901  1.00  0.00     0.167 HD
ENDBRANCH  17  19
ENDBRANCH  16  17
ENDBRANCH   1  16
TORSDOF 5
ENDMDL
MODEL 7
REMARK VINA RESULT:      -5.4      2.977      4.362
REMARK  5 active torsions:
REMARK  status: ('A' for Active; 'I' for Inactive)
REMARK    1  A    between atoms: O_1  and  C_2 
REMARK    2  A    between atoms: C_2  and  C_4 
REMARK    3  A    between atoms: C_4  and  N_5 
REMARK    4  A    between atoms: N_10  and  C_11 
REMARK    5  A    between atoms: C_11  and  C_12 
ROOT
HETATM    1  N   UNL     1     -39.406 -50.854  13.437  1.00  0.00    -0.256 N 
HETATM    2  C   UNL     1     -39.184 -51.456  14.655  1.00  0.00     0.253 C 
HETATM    3  O   UNL     1     -38.121 -51.358  15.261  1.00  0.00    -0.268 OA
HETATM    4  C   UNL     1     -40.248 -52.328  15.168  1.00  0.00     0.092 C 
HETATM    5  C   UNL     1     -41.253 -52.650  14.357  1.00  0.00     0.101 C 
HETATM    6  N   UNL     1     -41.356 -52.134  13.084  1.00  0.00    -0.305 N 
HETATM    7  C   UNL     1     -40.462 -51.185  12.591  1.00  0.00     0.332 C 
HETATM    8  O   UNL     1     -40.595 -50.662  11.485  1.00  0.00    -0.246 OA
ENDROOT
BRANCH   6   9
HETATM    9  C   UNL     1     -42.479 -52.535  12.234  1.00  0.00     0.171 C 
BRANCH   9  10
HETATM   10  C   UNL     1     -43.822 -52.533  12.934  1.00  0.00    -0.040 A 
HETATM   11  C   UNL     1     -44.406 -51.334  13.369  1.00  0.00     0.009 A 
HETATM   12  C   UNL     1     -45.696 -51.325  13.909  1.00  0.00     0.001 A 
HETATM   13  C   UNL     1     -46.414 -52.512  14.025  1.00  0.00     0.000 A 
HETATM   14  C   UNL     1     -45.830 -53.715  13.634  1.00  0.00     0.001 A 
HETATM   15  C   UNL     1     -44.538 -53.727  13.101  1.00  0.00     0.009 A 
ENDBRANCH   9  10
ENDBRANCH   6   9
BRANCH   1  16
HETATM   16  C   UNL     1     -38.393 -49.933  12.933  1.00  0.00     0.246 C 
BRANCH  16  17
HETATM   17  C   UNL     1     -37.520 -50.618  11.892  1.00  0.00     0.158 C 
HETATM   18  O   UNL     1     -36.828 -51.599  12.123  1.00  0.00    -0.649 OA
BRANCH  17  19
HETATM   19  O   UNL     1     -37.647 -50.116  10.639  1.00  0.00    -0.775 OA
HETATM   20  H   UNL     1     -37.580 -50.794   9.926  1.00  0.00     0.167 HD
ENDBRANCH  17  19
ENDBRANCH  16  17
ENDBRANCH   1  16
TORSDOF 5
ENDMDL
MODEL 8
REMARK VINA RESULT:      -5.4      3.592      6.057
REMARK  5 active torsions:
REMARK  status: ('A' for Active; 'I' for Inactive)
REMARK    1  A    between atoms: O_1  and  C_2 
REMARK    2  A    between atoms: C_2  and  C_4 
REMARK    3  A    between atoms: C_4  and  N_5 
REMARK    4  A    between atoms: N_10  and  C_11 
REMARK    5  A    between atoms: C_11  and  C_12 
ROOT
HETATM    1  N   UNL     1     -43.174 -53.446  13.983  1.00  0.00    -0.256 N 
HETATM    2  C   UNL     1     -42.197 -54.371  14.273  1.00  0.00     0.253 C 
HETATM    3  O   UNL     1     -42.334 -55.238  15.130  1.00  0.00    -0.268 OA
HETATM    4  C   UNL     1     -40.911 -54.216  13.580  1.00  0.00     0.092 C 
HETATM    5  C   UNL     1     -40.693 -53.100  12.887  1.00  0.00     0.101 C 
HETATM    6  N   UNL     1     -41.658 -52.129  12.747  1.00  0.00    -0.305 N 
HETATM    7  C   UNL     1     -42.948 -52.283  13.252  1.00  0.00     0.332 C 
HETATM    8  O   UNL     1     -43.836 -51.453  13.062  1.00  0.00    -0.246 OA
ENDROOT
BRANCH   6   9
HETATM    9  C   UNL     1     -41.353 -50.917  11.982  1.00  0.00     0.171 C 
BRANCH   9  10
HETATM   10  C   UNL     1     -40.157 -50.143  12.492  1.00  0.00    -0.040 A 
HETATM   11  C   UNL     1     -40.159 -49.574  13.774  1.00  0.00     0.009 A 
HETATM   12  C   UNL     1     -39.010 -48.961  14.285  1.00  0.00     0.001 A 
HETATM   13  C   UNL     1     -37.849 -48.905  13.518  1.00  0.00     0.000 A 
HETATM   14  C   UNL     1     -37.845 -49.429  12.228  1.00  0.00     0.001 A 
HETATM   15  C   UNL     1     -38.995 -50.035  11.714  1.00  0.00     0.009 A 
ENDBRANCH   9  10
ENDBRANCH   6   9
BRANCH   1  16
HETATM   16  C   UNL     1     -44.482 -53.612  14.610  1.00  0.00     0.246 C 
BRANCH  16  17
HETATM   17  C   UNL     1     -45.399 -54.437  13.720  1.00  0.00     0.158 C 
HETATM   18  O   UNL     1     -45.651 -55.618  13.910  1.00  0.00    -0.649 OA
BRANCH  17  19
HETATM   19  O   UNL     1     -46.013 -53.727  12.740  1.00  0.00    -0.775 OA
HETATM   20  H   UNL     1     -45.872 -52.752  12.802  1.00  0.00     0.167 HD
ENDBRANCH  17  19
ENDBRANCH  16  17
ENDBRANCH   1  16
TORSDOF 5
ENDMDL
MODEL 9
REMARK VINA RESULT:      -5.3      2.695      3.779
REMARK  5 active torsions:
REMARK  status: ('A' for Active; 'I' for Inactive)
REMARK    1  A    between atoms: O_1  and  C_2 
REMARK    2  A    between atoms: C_2  and  C_4 
REMARK    3  A    between atoms: C_4  and  N_5 
REMARK    4  A    between atoms: N_10  and  C_11 
REMARK    5  A    between atoms: C_11  and  C_12 
ROOT
HETATM    1  N   UNL     1     -41.682 -52.369  12.834  1.00  0.00    -0.256 N 
HETATM    2  C   UNL     1     -41.704 -53.716  13.114  1.00  0.00     0.253 C 
HETATM    3  O   UNL     1     -40.783 -54.472  12.817  1.00  0.00    -0.268 OA
HETATM    4  C   UNL     1     -42.939 -54.253  13.698  1.00  0.00     0.092 C 
HETATM    5  C   UNL     1     -44.018 -53.473  13.731  1.00  0.00     0.101 C 
HETATM    6  N   UNL     1     -43.986 -52.166  13.300  1.00  0.00    -0.305 N 
HETATM    7  C   UNL     1     -42.809 -51.551  12.875  1.00  0.00     0.332 C 
HETATM    8  O   UNL     1     -42.760 -50.362  12.564  1.00  0.00    -0.246 OA
ENDROOT
BRANCH   6   9
HETATM    9  C   UNL     1     -45.209 -51.362  13.350  1.00  0.00     0.171 C 
BRANCH   9  10
HETATM   10  C   UNL     1     -45.743 -51.126  14.746  1.00  0.00    -0.040 A 
HETATM   11  C   UNL     1     -47.044 -51.518  15.097  1.00  0.00     0.009 A 
HETATM   12  C   UNL     1     -47.491 -51.405  16.417  1.00  0.00     0.001 A 
HETATM   13  C   UNL     1     -46.647 -50.893  17.399  1.00  0.00     0.000 A 
HETATM   14  C   UNL     1     -45.368 -50.461  17.057  1.00  0.00     0.001 A 
HETATM   15  C   UNL     1     -44.922 -50.567  15.736  1.00  0.00     0.009 A 
ENDBRANCH   9  10
ENDBRANCH   6   9
BRANCH   1  16
HETATM   16  C   UNL     1     -40.446 -51.797  12.311  1.00  0.00     0.246 C 
BRANCH  16  17
HETATM   17  C   UNL     1     -39.458 -51.541  13.438  1.00  0.00     0.158 C 
HETATM   18  O   UNL     1     -39.579 -50.644  14.260  1.00  0.00    -0.649 OA
BRANCH  17  19
HETATM   19  O   UNL     1     -38.466 -52.463  13.532  1.00  0.00    -0.775 OA
HETATM   20  H   UNL     1     -37.624 -52.192  13.095  1.00  0.00     0.167 HD
ENDBRANCH  17  19
ENDBRANCH  16  17
ENDBRANCH   1  16
TORSDOF 5
ENDMDL
