MODEL 1
REMARK VINA RESULT:      -6.0      0.000      0.000
REMARK  5 active torsions:
REMARK  status: ('A' for Active; 'I' for Inactive)
REMARK    1  A    between atoms: N_11  and  C_12 
REMARK    2  A    between atoms: C_12  and  C_13 
REMARK    3  A    between atoms: C_13  and  O_14 
REMARK    4  A    between atoms: C_13  and  C_15 
REMARK    5  A    between atoms: C_15  and  N_16 
ROOT
HETATM    1  C   UNL     1     -37.758 -50.652  12.111  1.00  0.00     0.089 C 
HETATM    2  C   UNL     1     -39.044 -49.927  11.942  1.00  0.00     0.080 A 
HETATM    3  N   UNL     1     -39.167 -48.771  11.327  1.00  0.00    -0.344 N 
ATOM      4  HN  UNL     1     -38.425 -48.225  10.889  1.00  0.00     0.167 HD
HETATM    5  C   UNL     1     -40.495 -48.452  11.395  1.00  0.00     0.060 A 
HETATM    6  C   UNL     1     -41.156 -47.328  10.863  1.00  0.00     0.032 A 
HETATM    7  C   UNL     1     -42.535 -47.181  11.043  1.00  0.00     0.002 A 
HETATM    8  C   UNL     1     -43.251 -48.139  11.749  1.00  0.00     0.002 A 
HETATM    9  C   UNL     1     -42.607 -49.265  12.279  1.00  0.00     0.032 A 
HETATM   10  C   UNL     1     -41.216 -49.423  12.091  1.00  0.00     0.062 A 
HETATM   11  N   UNL     1     -40.265 -50.393  12.404  1.00  0.00    -0.333 N 
ENDROOT
BRANCH  11  12
HETATM   12  C   UNL     1     -40.423 -51.706  13.059  1.00  0.00     0.164 C 
BRANCH  12  13
HETATM   13  C   UNL     1     -41.341 -52.669  12.325  1.00  0.00     0.164 C 
BRANCH  13  14
HETATM   14  O   UNL     1     -40.544 -53.329  11.327  1.00  0.00    -0.392 OA
HETATM   15  H   UNL     1     -40.341 -52.683  10.627  1.00  0.00     0.210 HD
ENDBRANCH  13  14
BRANCH  13  16
HETATM   16  C   UNL     1     -42.139 -53.736  13.112  1.00  0.00     0.305 C 
BRANCH  16  17
HETATM   17  N   UNL     1     -43.424 -53.114  13.519  1.00  0.00     0.095 N 
HETATM   18  C   UNL     1     -43.606 -52.972  14.985  1.00  0.00     0.298 C 
HETATM   19  C   UNL     1     -44.068 -54.259  15.679  1.00  0.00     0.198 C 
HETATM   20  O   UNL     1     -45.312 -54.696  15.128  1.00  0.00    -0.388 OA
HETATM   21  C   UNL     1     -45.179 -54.950  13.725  1.00  0.00     0.198 C 
HETATM   22  C   UNL     1     -44.633 -53.734  12.954  1.00  0.00     0.298 C 
ENDBRANCH  16  17
ENDBRANCH  13  16
ENDBRANCH  12  13
ENDBRANCH  11  12
TORSDOF 5
ENDMDL
MODEL 2
REMARK VINA RESULT:      -5.9      2.279      5.771
REMARK  5 active torsions:
REMARK  status: ('A' for Active; 'I' for Inactive)
REMARK    1  A    between atoms: N_11  and  C_12 
REMARK    2  A    between atoms: C_12  and  C_13 
REMARK    3  A    between atoms: C_13  and  O_14 
REMARK    4  A    between atoms: C_13  and  C_15 
REMARK    5  A    between atoms: C_15  and  N_16 
ROOT
HETATM    1  C   UNL     1     -41.418 -53.041  16.087  1.00  0.00     0.089 C 
HETATM    2  C   UNL     1     -42.672 -52.744  15.347  1.00  0.00     0.080 A 
HETATM    3  N   UNL     1     -43.678 -52.057  15.840  1.00  0.00    -0.344 N 
ATOM      4  HN  UNL     1     -43.742 -51.639  16.768  1.00  0.00     0.167 HD
HETATM    5  C   UNL     1     -44.622 -52.017  14.851  1.00  0.00     0.060 A 
HETATM    6  C   UNL     1     -45.877 -51.377  14.862  1.00  0.00     0.032 A 
HETATM    7  C   UNL     1     -46.708 -51.456  13.739  1.00  0.00     0.002 A 
HETATM    8  C   UNL     1     -46.299 -52.166  12.618  1.00  0.00     0.002 A 
HETATM    9  C   UNL     1     -45.050 -52.803  12.592  1.00  0.00     0.032 A 
HETATM   10  C   UNL     1     -44.204 -52.718  13.719  1.00  0.00     0.062 A 
HETATM   11  N   UNL     1     -42.918 -53.149  14.044  1.00  0.00    -0.333 N 
ENDROOT
BRANCH  11  12
HETATM   12  C   UNL     1     -41.920 -53.867  13.228  1.00  0.00     0.164 C 
BRANCH  12  13
HETATM   13  C   UNL     1     -40.899 -52.969  12.549  1.00  0.00     0.164 C 
BRANCH  13  14
HETATM   14  O   UNL     1     -40.562 -53.589  11.297  1.00  0.00    -0.392 OA
HETATM   15  H   UNL     1     -41.354 -53.575  10.730  1.00  0.00     0.210 HD
ENDBRANCH  13  14
BRANCH  13  16
HETATM   16  C   UNL     1     -41.224 -51.477  12.295  1.00  0.00     0.305 C 
BRANCH  16  17
HETATM   17  N   UNL     1     -40.424 -50.682  13.259  1.00  0.00     0.095 N 
HETATM   18  C   UNL     1     -40.348 -49.231  12.954  1.00  0.00     0.298 C 
HETATM   19  C   UNL     1     -39.312 -48.878  11.880  1.00  0.00     0.198 C 
HETATM   20  O   UNL     1     -38.011 -49.302  12.293  1.00  0.00    -0.388 OA
HETATM   21  C   UNL     1     -37.988 -50.717  12.509  1.00  0.00     0.198 C 
HETATM   22  C   UNL     1     -39.062 -51.179  13.512  1.00  0.00     0.298 C 
ENDBRANCH  16  17
ENDBRANCH  13  16
ENDBRANCH  12  13
ENDBRANCH  11  12
TORSDOF 5
ENDMDL
MODEL 3
REMARK VINA RESULT:      -5.8      2.219      6.337
REMARK  5 active torsions:
REMARK  status: ('A' for Active; 'I' for Inactive)
REMARK    1  A    between atoms: N_11  and  C_12 
REMARK    2  A    between atoms: C_12  and  C_13 
REMARK    3  A    between atoms: C_13  and  O_14 
REMARK    4  A    between atoms: C_13  and  C_15 
REMARK    5  A    between atoms: C_15  and  N_16 
ROOT
HETATM    1  C   UNL     1     -43.357 -49.651  13.386  1.00  0.00     0.089 C 
HETATM    2  C   UNL     1     -44.019 -50.964  13.592  1.00  0.00     0.080 A 
HETATM    3  N   UNL     1     -45.101 -51.143  14.319  1.00  0.00    -0.344 N 
ATOM      4  HN  UNL     1     -45.626 -50.431  14.826  1.00  0.00     0.167 HD
HETATM    5  C   UNL     1     -45.377 -52.481  14.253  1.00  0.00     0.060 A 
HETATM    6  C   UNL     1     -46.450 -53.184  14.835  1.00  0.00     0.032 A 
HETATM    7  C   UNL     1     -46.557 -54.567  14.651  1.00  0.00     0.002 A 
HETATM    8  C   UNL     1     -45.606 -55.245  13.899  1.00  0.00     0.002 A 
HETATM    9  C   UNL     1     -44.537 -54.556  13.309  1.00  0.00     0.032 A 
HETATM   10  C   UNL     1     -44.430 -53.159  13.485  1.00  0.00     0.062 A 
HETATM   11  N   UNL     1     -43.579 -52.153  13.029  1.00  0.00    -0.333 N 
ENDROOT
BRANCH  11  12
HETATM   12  C   UNL     1     -42.432 -52.222  12.104  1.00  0.00     0.164 C 
BRANCH  12  13
HETATM   13  C   UNL     1     -41.153 -52.757  12.728  1.00  0.00     0.164 C 
BRANCH  13  14
HETATM   14  O   UNL     1     -40.380 -53.339  11.664  1.00  0.00    -0.392 OA
HETATM   15  H   UNL     1     -39.891 -54.099  12.028  1.00  0.00     0.210 HD
ENDBRANCH  13  14
BRANCH  13  16
HETATM   16  C   UNL     1     -40.239 -51.821  13.555  1.00  0.00     0.305 C 
BRANCH  16  17
HETATM   17  N   UNL     1     -39.262 -51.217  12.616  1.00  0.00     0.095 N 
HETATM   18  C   UNL     1     -37.866 -51.177  13.116  1.00  0.00     0.298 C 
HETATM   19  C   UNL     1     -37.585 -50.015  14.076  1.00  0.00     0.198 C 
HETATM   20  O   UNL     1     -37.849 -48.768  13.431  1.00  0.00    -0.388 OA
HETATM   21  C   UNL     1     -39.216 -48.699  13.010  1.00  0.00     0.198 C 
HETATM   22  C   UNL     1     -39.616 -49.881  12.108  1.00  0.00     0.298 C 
ENDBRANCH  16  17
ENDBRANCH  13  16
ENDBRANCH  12  13
ENDBRANCH  11  12
TORSDOF 5
ENDMDL
MODEL 4
REMARK VINA RESULT:      -5.6      2.106      5.380
REMARK  5 active torsions:
REMARK  status: ('A' for Active; 'I' for Inactive)
REMARK    1  A    between atoms: N_11  and  C_12 
REMARK    2  A    between atoms: C_12  and  C_13 
REMARK    3  A    between atoms: C_13  and  O_14 
REMARK    4  A    between atoms: C_13  and  C_15 
REMARK    5  A    between atoms: C_15  and  N_16 
ROOT
HETATM    1  C   UNL     1     -41.818 -53.173  16.626  1.00  0.00     0.089 C 
HETATM    2  C   UNL     1     -42.940 -52.877  15.699  1.00  0.00     0.080 A 
HETATM    3  N   UNL     1     -43.958 -52.097  15.993  1.00  0.00    -0.344 N 
ATOM      4  HN  UNL     1     -44.117 -51.597  16.867  1.00  0.00     0.167 HD
HETATM    5  C   UNL     1     -44.758 -52.095  14.884  1.00  0.00     0.060 A 
HETATM    6  C   UNL     1     -45.960 -51.392  14.671  1.00  0.00     0.032 A 
HETATM    7  C   UNL     1     -46.638 -51.525  13.454  1.00  0.00     0.002 A 
HETATM    8  C   UNL     1     -46.129 -52.351  12.460  1.00  0.00     0.002 A 
HETATM    9  C   UNL     1     -44.931 -53.052  12.657  1.00  0.00     0.032 A 
HETATM   10  C   UNL     1     -44.238 -52.914  13.880  1.00  0.00     0.062 A 
HETATM   11  N   UNL     1     -43.037 -53.381  14.411  1.00  0.00    -0.333 N 
ENDROOT
BRANCH  11  12
HETATM   12  C   UNL     1     -41.987 -54.219  13.800  1.00  0.00     0.164 C 
BRANCH  12  13
HETATM   13  C   UNL     1     -40.825 -53.438  13.209  1.00  0.00     0.164 C 
BRANCH  13  14
HETATM   14  O   UNL     1     -39.845 -54.402  12.786  1.00  0.00    -0.392 OA
HETATM   15  H   UNL     1     -40.214 -54.897  12.033  1.00  0.00     0.210 HD
ENDBRANCH  13  14
BRANCH  13  16
HETATM   16  C   UNL     1     -41.069 -52.435  12.055  1.00  0.00     0.305 C 
BRANCH  16  17
HETATM   17  N   UNL     1     -40.338 -51.189  12.395  1.00  0.00     0.095 N 
HETATM   18  C   UNL     1     -40.629 -50.650  13.747  1.00  0.00     0.298 C 
HETATM   19  C   UNL     1     -41.933 -49.848  13.827  1.00  0.00     0.198 C 
HETATM   20  O   UNL     1     -41.889 -48.744  12.922  1.00  0.00    -0.388 OA
HETATM   21  C   UNL     1     -41.711 -49.203  11.577  1.00  0.00     0.198 C 
HETATM   22  C   UNL     1     -40.466 -50.095  11.417  1.00  0.00     0.298 C 
ENDBRANCH  16  17
ENDBRANCH  13  16
ENDBRANCH  12  13
ENDBRANCH  11  12
TORSDOF 5
ENDMDL
MODEL 5
REMARK VINA RESULT:      -5.4      3.978      5.971
REMARK  5 active torsions:
REMARK  status: ('A' for Active; 'I' for Inactive)
REMARK    1  A    between atoms: N_11  and  C_12 
REMARK    2  A    between atoms: C_12  and  C_13 
REMARK    3  A    between atoms: C_13  and  O_14 
REMARK    4  A    between atoms: C_13  and  C_15 
REMARK    5  A    between atoms: C_15  and  N_16 
ROOT
HETATM    1  C   UNL     1     -44.354 -46.913   9.370  1.00  0.00     0.089 C 
HETATM    2  C   UNL     1     -43.229 -46.186  10.013  1.00  0.00     0.080 A 
HETATM    3  N   UNL     1     -43.253 -44.907  10.321  1.00  0.00    -0.344 N 
ATOM      4  HN  UNL     1     -44.021 -44.253  10.172  1.00  0.00     0.167 HD
HETATM    5  C   UNL     1     -42.036 -44.636  10.882  1.00  0.00     0.060 A 
HETATM    6  C   UNL     1     -41.565 -43.418  11.409  1.00  0.00     0.032 A 
HETATM    7  C   UNL     1     -40.274 -43.343  11.944  1.00  0.00     0.002 A 
HETATM    8  C   UNL     1     -39.458 -44.466  11.952  1.00  0.00     0.002 A 
HETATM    9  C   UNL     1     -39.917 -45.687  11.437  1.00  0.00     0.032 A 
HETATM   10  C   UNL     1     -41.222 -45.770  10.904  1.00  0.00     0.062 A 
HETATM   11  N   UNL     1     -42.027 -46.776  10.373  1.00  0.00    -0.333 N 
ENDROOT
BRANCH  11  12
HETATM   12  C   UNL     1     -41.767 -48.220  10.213  1.00  0.00     0.164 C 
BRANCH  12  13
HETATM   13  C   UNL     1     -41.488 -48.956  11.514  1.00  0.00     0.164 C 
BRANCH  13  14
HETATM   14  O   UNL     1     -42.711 -49.607  11.898  1.00  0.00    -0.392 OA
HETATM   15  H   UNL     1     -42.672 -49.779  12.856  1.00  0.00     0.210 HD
ENDBRANCH  13  14
BRANCH  13  16
HETATM   16  C   UNL     1     -40.330 -49.980  11.594  1.00  0.00     0.305 C 
BRANCH  16  17
HETATM   17  N   UNL     1     -39.099 -49.227  11.940  1.00  0.00     0.095 N 
HETATM   18  C   UNL     1     -37.832 -49.933  11.626  1.00  0.00     0.298 C 
HETATM   19  C   UNL     1     -37.428 -50.977  12.674  1.00  0.00     0.198 C 
HETATM   20  O   UNL     1     -37.271 -50.357  13.951  1.00  0.00    -0.388 OA
HETATM   21  C   UNL     1     -38.495 -49.738  14.363  1.00  0.00     0.198 C 
HETATM   22  C   UNL     1     -39.028 -48.733  13.325  1.00  0.00     0.298 C 
ENDBRANCH  16  17
ENDBRANCH  13  16
ENDBRANCH  12  13
ENDBRANCH  11  12
TORSDOF 5
ENDMDL
MODEL 6
REMARK VINA RESULT:      -5.4      2.325      3.395
REMARK  5 active torsions:
REMARK  status: ('A' for Active; 'I' for Inactive)
REMARK    1  A    between atoms: N_11  and  C_12 
REMARK    2  A    between atoms: C_12  and  C_13 
REMARK    3  A    between atoms: C_13  and  O_14 
REMARK    4  A    between atoms: C_13  and  C_15 
REMARK    5  A    between atoms: C_15  and  N_16 
ROOT
HETATM    1  C   UNL     1     -40.815 -54.237  14.288  1.00  0.00     0.089 C 
HETATM    2  C   UNL     1     -40.162 -53.025  13.728  1.00  0.00     0.080 A 
HETATM    3  N   UNL     1     -38.956 -52.616  14.054  1.00  0.00    -0.344 N 
ATOM      4  HN  UNL     1     -38.314 -53.056  14.713  1.00  0.00     0.167 HD
HETATM    5  C   UNL     1     -38.739 -51.477  13.328  1.00  0.00     0.060 A 
HETATM    6  C   UNL     1     -37.588 -50.667  13.290  1.00  0.00     0.032 A 
HETATM    7  C   UNL     1     -37.564 -49.530  12.475  1.00  0.00     0.002 A 
HETATM    8  C   UNL     1     -38.673 -49.200  11.707  1.00  0.00     0.002 A 
HETATM    9  C   UNL     1     -39.823 -50.001  11.731  1.00  0.00     0.032 A 
HETATM   10  C   UNL     1     -39.849 -51.155  12.545  1.00  0.00     0.062 A 
HETATM   11  N   UNL     1     -40.748 -52.193  12.786  1.00  0.00    -0.333 N 
ENDROOT
BRANCH  11  12
HETATM   12  C   UNL     1     -42.068 -52.468  12.188  1.00  0.00     0.164 C 
BRANCH  12  13
HETATM   13  C   UNL     1     -43.239 -51.859  12.943  1.00  0.00     0.164 C 
BRANCH  13  14
HETATM   14  O   UNL     1     -43.366 -50.499  12.494  1.00  0.00    -0.392 OA
HETATM   15  H   UNL     1     -44.313 -50.272  12.486  1.00  0.00     0.210 HD
ENDBRANCH  13  14
BRANCH  13  16
HETATM   16  C   UNL     1     -44.631 -52.534  12.894  1.00  0.00     0.305 C 
BRANCH  16  17
HETATM   17  N   UNL     1     -45.272 -52.319  14.215  1.00  0.00     0.095 N 
HETATM   18  C   UNL     1     -44.408 -52.634  15.380  1.00  0.00     0.298 C 
HETATM   19  C   UNL     1     -44.338 -54.129  15.713  1.00  0.00     0.198 C 
HETATM   20  O   UNL     1     -45.645 -54.632  15.996  1.00  0.00    -0.388 OA
HETATM   21  C   UNL     1     -46.508 -54.450  14.868  1.00  0.00     0.198 C 
HETATM   22  C   UNL     1     -46.572 -52.983  14.403  1.00  0.00     0.298 C 
ENDBRANCH  16  17
ENDBRANCH  13  16
ENDBRANCH  12  13
ENDBRANCH  11  12
TORSDOF 5
ENDMDL
MODEL 7
REMARK VINA RESULT:      -5.3      2.268      6.287
REMARK  5 active torsions:
REMARK  status: ('A' for Active; 'I' for Inactive)
REMARK    1  A    between atoms: N_11  and  C_12 
REMARK    2  A    between atoms: C_12  and  C_13 
REMARK    3  A    between atoms: C_13  and  O_14 
REMARK    4  A    between atoms: C_13  and  C_15 
REMARK    5  A    between atoms: C_15  and  N_16 
ROOT
HETATM    1  C   UNL     1     -41.114 -54.331  14.622  1.00  0.00     0.089 C 
HETATM    2  C   UNL     1     -42.476 -53.746  14.531  1.00  0.00     0.080 A 
HETATM    3  N   UNL     1     -43.579 -54.379  14.869  1.00  0.00    -0.344 N 
ATOM      4  HN  UNL     1     -43.656 -55.329  15.231  1.00  0.00     0.167 HD
HETATM    5  C   UNL     1     -44.600 -53.501  14.632  1.00  0.00     0.060 A 
HETATM    6  C   UNL     1     -45.979 -53.679  14.856  1.00  0.00     0.032 A 
HETATM    7  C   UNL     1     -46.873 -52.650  14.544  1.00  0.00     0.002 A 
HETATM    8  C   UNL     1     -46.403 -51.456  14.012  1.00  0.00     0.002 A 
HETATM    9  C   UNL     1     -45.032 -51.263  13.790  1.00  0.00     0.032 A 
HETATM   10  C   UNL     1     -44.125 -52.296  14.112  1.00  0.00     0.062 A 
HETATM   11  N   UNL     1     -42.740 -52.458  14.092  1.00  0.00    -0.333 N 
ENDROOT
BRANCH  11  12
HETATM   12  C   UNL     1     -41.675 -51.504  13.728  1.00  0.00     0.164 C 
BRANCH  12  13
HETATM   13  C   UNL     1     -41.153 -51.656  12.309  1.00  0.00     0.164 C 
BRANCH  13  14
HETATM   14  O   UNL     1     -42.178 -52.325  11.554  1.00  0.00    -0.392 OA
HETATM   15  H   UNL     1     -43.038 -51.943  11.809  1.00  0.00     0.210 HD
ENDBRANCH  13  14
BRANCH  13  16
HETATM   16  C   UNL     1     -40.682 -50.412  11.516  1.00  0.00     0.305 C 
BRANCH  16  17
HETATM   17  N   UNL     1     -41.271 -49.221  12.175  1.00  0.00     0.095 N 
HETATM   18  C   UNL     1     -42.417 -48.616  11.451  1.00  0.00     0.298 C 
HETATM   19  C   UNL     1     -42.005 -47.707  10.288  1.00  0.00     0.198 C 
HETATM   20  O   UNL     1     -41.183 -46.639  10.765  1.00  0.00    -0.388 OA
HETATM   21  C   UNL     1     -40.002 -47.155  11.390  1.00  0.00     0.198 C 
HETATM   22  C   UNL     1     -40.318 -48.152  12.519  1.00  0.00     0.298 C 
ENDBRANCH  16  17
ENDBRANCH  13  16
ENDBRANCH  12  13
ENDBRANCH  11  12
TORSDOF 5
ENDMDL
MODEL 8
REMARK VINA RESULT:      -5.3      2.381      3.807
REMARK  5 active torsions:
REMARK  status: ('A' for Active; 'I' for Inactive)
REMARK    1  A    between atoms: N_11  and  C_12 
REMARK    2  A    between atoms: C_12  and  C_13 
REMARK    3  A    between atoms: C_13  and  O_14 
REMARK    4  A    between atoms: C_13  and  C_15 
REMARK    5  A    between atoms: C_15  and  N_16 
ROOT
HETATM    1  C   UNL     1     -39.786 -45.194  12.548  1.00  0.00     0.089 C 
HETATM    2  C   UNL     1     -40.884 -45.560  11.616  1.00  0.00     0.080 A 
HETATM    3  N   UNL     1     -41.763 -44.708  11.136  1.00  0.00    -0.344 N 
ATOM      4  HN  UNL     1     -41.816 -43.707  11.324  1.00  0.00     0.167 HD
HETATM    5  C   UNL     1     -42.592 -45.441  10.333  1.00  0.00     0.060 A 
HETATM    6  C   UNL     1     -43.683 -44.997   9.560  1.00  0.00     0.032 A 
HETATM    7  C   UNL     1     -44.415 -45.914   8.798  1.00  0.00     0.002 A 
HETATM    8  C   UNL     1     -44.071 -47.259   8.807  1.00  0.00     0.002 A 
HETATM    9  C   UNL     1     -42.984 -47.713   9.567  1.00  0.00     0.032 A 
HETATM   10  C   UNL     1     -42.236 -46.791  10.330  1.00  0.00     0.062 A 
HETATM   11  N   UNL     1     -41.099 -46.843  11.136  1.00  0.00    -0.333 N 
ENDROOT
BRANCH  11  12
HETATM   12  C   UNL     1     -40.208 -47.975  11.454  1.00  0.00     0.164 C 
BRANCH  12  13
HETATM   13  C   UNL     1     -40.868 -49.340  11.358  1.00  0.00     0.164 C 
BRANCH  13  14
HETATM   14  O   UNL     1     -40.349 -49.976  10.177  1.00  0.00    -0.392 OA
HETATM   15  H   UNL     1     -40.372 -49.327   9.451  1.00  0.00     0.210 HD
ENDBRANCH  13  14
BRANCH  13  16
HETATM   16  C   UNL     1     -40.775 -50.334  12.541  1.00  0.00     0.305 C 
BRANCH  16  17
HETATM   17  N   UNL     1     -41.596 -51.518  12.187  1.00  0.00     0.095 N 
HETATM   18  C   UNL     1     -42.867 -51.639  12.944  1.00  0.00     0.298 C 
HETATM   19  C   UNL     1     -42.699 -52.237  14.346  1.00  0.00     0.198 C 
HETATM   20  O   UNL     1     -42.123 -53.541  14.259  1.00  0.00    -0.388 OA
HETATM   21  C   UNL     1     -40.840 -53.483  13.624  1.00  0.00     0.198 C 
HETATM   22  C   UNL     1     -40.896 -52.812  12.239  1.00  0.00     0.298 C 
ENDBRANCH  16  17
ENDBRANCH  13  16
ENDBRANCH  12  13
ENDBRANCH  11  12
TORSDOF 5
ENDMDL
MODEL 9
REMARK VINA RESULT:      -5.3      3.067      4.682
REMARK  5 active torsions:
REMARK  status: ('A' for Active; 'I' for Inactive)
REMARK    1  A    between atoms: N_11  and  C_12 
REMARK    2  A    between atoms: C_12  and  C_13 
REMARK    3  A    between atoms: C_13  and  O_14 
REMARK    4  A    between atoms: C_13  and  C_15 
REMARK    5  A    between atoms: C_15  and  N_16 
ROOT
HETATM    1  C   UNL     1     -42.884 -55.372  15.197  1.00  0.00     0.089 C 
HETATM    2  C   UNL     1     -42.112 -54.303  14.511  1.00  0.00     0.080 A 
HETATM    3  N   UNL     1     -40.900 -53.927  14.856  1.00  0.00    -0.344 N 
ATOM      4  HN  UNL     1     -40.332 -54.302  15.616  1.00  0.00     0.167 HD
HETATM    5  C   UNL     1     -40.558 -52.928  13.987  1.00  0.00     0.060 A 
HETATM    6  C   UNL     1     -39.351 -52.208  13.910  1.00  0.00     0.032 A 
HETATM    7  C   UNL     1     -39.194 -51.212  12.940  1.00  0.00     0.002 A 
HETATM    8  C   UNL     1     -40.229 -50.933  12.056  1.00  0.00     0.002 A 
HETATM    9  C   UNL     1     -41.434 -51.646  12.118  1.00  0.00     0.032 A 
HETATM   10  C   UNL     1     -41.593 -52.658  13.090  1.00  0.00     0.062 A 
HETATM   11  N   UNL     1     -42.578 -53.588  13.418  1.00  0.00    -0.333 N 
ENDROOT
BRANCH  11  12
HETATM   12  C   UNL     1     -43.878 -53.867  12.777  1.00  0.00     0.164 C 
BRANCH  12  13
HETATM   13  C   UNL     1     -44.888 -52.737  12.889  1.00  0.00     0.164 C 
BRANCH  13  14
HETATM   14  O   UNL     1     -46.136 -53.238  12.379  1.00  0.00    -0.392 OA
HETATM   15  H   UNL     1     -45.998 -53.502  11.452  1.00  0.00     0.210 HD
ENDBRANCH  13  14
BRANCH  13  16
HETATM   16  C   UNL     1     -45.145 -52.055  14.255  1.00  0.00     0.305 C 
BRANCH  16  17
HETATM   17  N   UNL     1     -46.352 -52.688  14.842  1.00  0.00     0.095 N 
HETATM   18  C   UNL     1     -47.275 -51.746  15.524  1.00  0.00     0.298 C 
HETATM   19  C   UNL     1     -46.839 -51.374  16.946  1.00  0.00     0.198 C 
HETATM   20  O   UNL     1     -46.744 -52.547  17.755  1.00  0.00    -0.388 OA
HETATM   21  C   UNL     1     -45.788 -53.461  17.204  1.00  0.00     0.198 C 
HETATM   22  C   UNL     1     -46.096 -53.825  15.740  1.00  0.00     0.298 C 
ENDBRANCH  16  17
ENDBRANCH  13  16
ENDBRANCH  12  13
ENDBRANCH  11  12
TORSDOF 5
ENDMDL
