MODEL 1
REMARK VINA RESULT:      -7.1      0.000      0.000
REMARK  4 active torsions:
REMARK  status: ('A' for Active; 'I' for Inactive)
REMARK    1  A    between atoms: N_4  and  C_5 
REMARK    2  A    between atoms: C_5  and  C_6 
REMARK    3  A    between atoms: C_6  and  N_7 
REMARK       I    between atoms: N_7  and  C_8 
REMARK       I    between atoms: C_8  and  N_10 
REMARK    4  A    between atoms: N_10  and  C_11 
ROOT
HETATM    1  N   UNL     1     -41.664 -49.730  11.156  1.00  0.00    -0.341 N 
HETATM    2  C   UNL     1     -40.936 -48.588  11.011  1.00  0.00     0.321 C 
HETATM    3  O   UNL     1     -39.830 -48.418  11.519  1.00  0.00    -0.247 OA
HETATM    4  N   UNL     1     -41.501 -47.591  10.271  1.00  0.00    -0.293 N 
HETATM    5  H   UNL     1     -42.631 -49.683  10.851  1.00  0.00     0.164 HD
HETATM    6  H   UNL     1     -40.962 -46.739  10.243  1.00  0.00     0.172 HD
ENDROOT
BRANCH   1   7
HETATM    7  C   UNL     1     -41.275 -50.806  12.032  1.00  0.00     0.154 C 
BRANCH   7   8
HETATM    8  C   UNL     1     -42.013 -50.735  13.380  1.00  0.00     0.292 C 
BRANCH   8   9
HETATM    9  N   UNL     1     -43.096 -51.724  13.500  1.00  0.00     0.095 N 
HETATM   10  C   UNL     1     -42.856 -52.903  12.642  1.00  0.00     0.303 C 
HETATM   11  C   UNL     1     -43.990 -53.935  12.748  1.00  0.00     0.146 C 
HETATM   12  C   UNL     1     -44.023 -54.627  14.112  1.00  0.00     0.041 C 
HETATM   13  O   UNL     1     -45.257 -53.343  12.420  1.00  0.00    -0.378 OA
HETATM   14  C   UNL     1     -45.537 -52.170  13.201  1.00  0.00     0.146 C 
HETATM   15  C   UNL     1     -44.395 -51.131  13.102  1.00  0.00     0.303 C 
HETATM   16  C   UNL     1     -46.850 -51.596  12.682  1.00  0.00     0.041 C 
ENDBRANCH   8   9
ENDBRANCH   7   8
ENDBRANCH   1   7
BRANCH   4  17
HETATM   17  C   UNL     1     -42.708 -47.628   9.607  1.00  0.00     0.132 A 
HETATM   18  C   UNL     1     -43.957 -47.296  10.176  1.00  0.00     0.084 A 
HETATM   19  C   UNL     1     -44.866 -47.533   9.171  1.00  0.00     0.076 A 
HETATM   20  C   UNL     1     -46.329 -47.468   9.051  1.00  0.00     0.079 C 
HETATM   21  O   UNL     1     -44.203 -47.932   8.058  1.00  0.00    -0.241 OA
HETATM   22  N   UNL     1     -42.860 -48.008   8.330  1.00  0.00    -0.245 N 
ATOM     23  HN  UNL     1     -42.123 -48.297   7.687  1.00  0.00     0.196 HD
ENDBRANCH   4  17
TORSDOF 4
ENDMDL
MODEL 2
REMARK VINA RESULT:      -6.7      0.815      1.932
REMARK  4 active torsions:
REMARK  status: ('A' for Active; 'I' for Inactive)
REMARK    1  A    between atoms: N_4  and  C_5 
REMARK    2  A    between atoms: C_5  and  C_6 
REMARK    3  A    between atoms: C_6  and  N_7 
REMARK       I    between atoms: N_7  and  C_8 
REMARK       I    between atoms: C_8  and  N_10 
REMARK    4  A    between atoms: N_10  and  C_11 
ROOT
HETATM    1  N   UNL     1     -41.762 -49.559  11.182  1.00  0.00    -0.341 N 
HETATM    2  C   UNL     1     -41.069 -48.407  10.963  1.00  0.00     0.321 C 
HETATM    3  O   UNL     1     -39.977 -48.163  11.471  1.00  0.00    -0.247 OA
HETATM    4  N   UNL     1     -41.655 -47.486  10.144  1.00  0.00    -0.293 N 
HETATM    5  H   UNL     1     -42.725 -49.567  10.862  1.00  0.00     0.164 HD
HETATM    6  H   UNL     1     -41.144 -46.621  10.061  1.00  0.00     0.172 HD
ENDROOT
BRANCH   1   7
HETATM    7  C   UNL     1     -41.351 -50.555  12.139  1.00  0.00     0.154 C 
BRANCH   7   8
HETATM    8  C   UNL     1     -42.161 -50.455  13.444  1.00  0.00     0.292 C 
BRANCH   8   9
HETATM    9  N   UNL     1     -43.367 -51.298  13.442  1.00  0.00     0.095 N 
HETATM   10  C   UNL     1     -44.419 -50.750  14.322  1.00  0.00     0.303 C 
HETATM   11  C   UNL     1     -45.677 -51.633  14.339  1.00  0.00     0.146 C 
HETATM   12  C   UNL     1     -46.429 -51.599  13.008  1.00  0.00     0.041 C 
HETATM   13  O   UNL     1     -45.358 -52.976  14.737  1.00  0.00    -0.378 OA
HETATM   14  C   UNL     1     -44.316 -53.557  13.936  1.00  0.00     0.146 C 
HETATM   15  C   UNL     1     -43.050 -52.668  13.912  1.00  0.00     0.303 C 
HETATM   16  C   UNL     1     -44.015 -54.928  14.528  1.00  0.00     0.041 C 
ENDBRANCH   8   9
ENDBRANCH   7   8
ENDBRANCH   1   7
BRANCH   4  17
HETATM   17  C   UNL     1     -42.850 -47.612   9.469  1.00  0.00     0.132 A 
HETATM   18  C   UNL     1     -44.125 -47.374  10.028  1.00  0.00     0.084 A 
HETATM   19  C   UNL     1     -45.005 -47.676   9.015  1.00  0.00     0.076 A 
HETATM   20  C   UNL     1     -46.467 -47.720   8.881  1.00  0.00     0.079 C 
HETATM   21  O   UNL     1     -44.304 -48.025   7.908  1.00  0.00    -0.241 OA
HETATM   22  N   UNL     1     -42.962 -48.002   8.192  1.00  0.00    -0.245 N 
ATOM     23  HN  UNL     1     -42.200 -48.235   7.556  1.00  0.00     0.196 HD
ENDBRANCH   4  17
TORSDOF 4
ENDMDL
MODEL 3
REMARK VINA RESULT:      -6.6      1.418      2.364
REMARK  4 active torsions:
REMARK  status: ('A' for Active; 'I' for Inactive)
REMARK    1  A    between atoms: N_4  and  C_5 
REMARK    2  A    between atoms: C_5  and  C_6 
REMARK    3  A    between atoms: C_6  and  N_7 
REMARK       I    between atoms: N_7  and  C_8 
REMARK       I    between atoms: C_8  and  N_10 
REMARK    4  A    between atoms: N_10  and  C_11 
ROOT
HETATM    1  N   UNL     1     -42.124 -49.712  11.485  1.00  0.00    -0.341 N 
HETATM    2  C   UNL     1     -41.162 -48.839  11.077  1.00  0.00     0.321 C 
HETATM    3  O   UNL     1     -40.014 -48.839  11.514  1.00  0.00    -0.247 OA
HETATM    4  N   UNL     1     -41.531 -47.915  10.143  1.00  0.00    -0.293 N 
HETATM    5  H   UNL     1     -43.073 -49.498  11.194  1.00  0.00     0.164 HD
HETATM    6  H   UNL     1     -40.811 -47.245   9.917  1.00  0.00     0.172 HD
ENDROOT
BRANCH   1   7
HETATM    7  C   UNL     1     -41.935 -50.641  12.571  1.00  0.00     0.154 C 
BRANCH   7   8
HETATM    8  C   UNL     1     -41.730 -52.078  12.059  1.00  0.00     0.292 C 
BRANCH   8   9
HETATM    9  N   UNL     1     -42.450 -53.084  12.855  1.00  0.00     0.095 N 
HETATM   10  C   UNL     1     -43.658 -52.516  13.489  1.00  0.00     0.303 C 
HETATM   11  C   UNL     1     -44.408 -53.556  14.337  1.00  0.00     0.146 C 
HETATM   12  C   UNL     1     -45.066 -54.639  13.481  1.00  0.00     0.041 C 
HETATM   13  O   UNL     1     -43.549 -54.119  15.341  1.00  0.00    -0.378 OA
HETATM   14  C   UNL     1     -42.338 -54.663  14.790  1.00  0.00     0.146 C 
HETATM   15  C   UNL     1     -41.582 -53.621  13.932  1.00  0.00     0.303 C 
HETATM   16  C   UNL     1     -41.487 -55.128  15.965  1.00  0.00     0.041 C 
ENDBRANCH   8   9
ENDBRANCH   7   8
ENDBRANCH   1   7
BRANCH   4  17
HETATM   17  C   UNL     1     -42.756 -47.797   9.525  1.00  0.00     0.132 A 
HETATM   18  C   UNL     1     -43.928 -47.299  10.137  1.00  0.00     0.084 A 
HETATM   19  C   UNL     1     -44.898 -47.421   9.170  1.00  0.00     0.076 A 
HETATM   20  C   UNL     1     -46.343 -47.165   9.103  1.00  0.00     0.079 C 
HETATM   21  O   UNL     1     -44.338 -47.914   8.038  1.00  0.00    -0.241 OA
HETATM   22  N   UNL     1     -43.007 -48.164   8.260  1.00  0.00    -0.245 N 
ATOM     23  HN  UNL     1     -42.340 -48.553   7.594  1.00  0.00     0.196 HD
ENDBRANCH   4  17
TORSDOF 4
ENDMDL
MODEL 4
REMARK VINA RESULT:      -6.6      1.596      2.065
REMARK  4 active torsions:
REMARK  status: ('A' for Active; 'I' for Inactive)
REMARK    1  A    between atoms: N_4  and  C_5 
REMARK    2  A    between atoms: C_5  and  C_6 
REMARK    3  A    between atoms: C_6  and  N_7 
REMARK       I    between atoms: N_7  and  C_8 
REMARK       I    between atoms: C_8  and  N_10 
REMARK    4  A    between atoms: N_10  and  C_11 
ROOT
HETATM    1  N   UNL     1     -41.304 -48.995  10.664  1.00  0.00    -0.341 N 
HETATM    2  C   UNL     1     -41.059 -47.655  10.651  1.00  0.00     0.321 C 
HETATM    3  O   UNL     1     -40.091 -47.135  11.201  1.00  0.00    -0.247 OA
HETATM    4  N   UNL     1     -41.968 -46.873   9.999  1.00  0.00    -0.293 N 
HETATM    5  H   UNL     1     -42.222 -49.283  10.341  1.00  0.00     0.164 HD
HETATM    6  H   UNL     1     -41.789 -45.883  10.070  1.00  0.00     0.172 HD
ENDROOT
BRANCH   1   7
HETATM    7  C   UNL     1     -40.526 -49.929  11.438  1.00  0.00     0.154 C 
BRANCH   7   8
HETATM    8  C   UNL     1     -41.014 -50.000  12.897  1.00  0.00     0.292 C 
BRANCH   8   9
HETATM    9  N   UNL     1     -41.284 -51.374  13.349  1.00  0.00     0.095 N 
HETATM   10  C   UNL     1     -40.238 -52.314  12.897  1.00  0.00     0.303 C 
HETATM   11  C   UNL     1     -40.521 -53.755  13.352  1.00  0.00     0.146 C 
HETATM   12  C   UNL     1     -40.369 -53.929  14.863  1.00  0.00     0.041 C 
HETATM   13  O   UNL     1     -41.807 -54.198  12.890  1.00  0.00    -0.378 OA
HETATM   14  C   UNL     1     -42.868 -53.307  13.273  1.00  0.00     0.146 C 
HETATM   15  C   UNL     1     -42.584 -51.855  12.822  1.00  0.00     0.303 C 
HETATM   16  C   UNL     1     -44.145 -53.841  12.637  1.00  0.00     0.041 C 
ENDBRANCH   8   9
ENDBRANCH   7   8
ENDBRANCH   1   7
BRANCH   4  17
HETATM   17  C   UNL     1     -43.082 -47.292   9.305  1.00  0.00     0.132 A 
HETATM   18  C   UNL     1     -44.391 -47.354   9.833  1.00  0.00     0.084 A 
HETATM   19  C   UNL     1     -45.148 -47.876   8.811  1.00  0.00     0.076 A 
HETATM   20  C   UNL     1     -46.555 -48.269   8.650  1.00  0.00     0.079 C 
HETATM   21  O   UNL     1     -44.358 -48.069   7.726  1.00  0.00    -0.241 OA
HETATM   22  N   UNL     1     -43.067 -47.722   8.035  1.00  0.00    -0.245 N 
ATOM     23  HN  UNL     1     -42.256 -47.779   7.419  1.00  0.00     0.196 HD
ENDBRANCH   4  17
TORSDOF 4
ENDMDL
MODEL 5
REMARK VINA RESULT:      -6.3      2.400      3.118
REMARK  4 active torsions:
REMARK  status: ('A' for Active; 'I' for Inactive)
REMARK    1  A    between atoms: N_4  and  C_5 
REMARK    2  A    between atoms: C_5  and  C_6 
REMARK    3  A    between atoms: C_6  and  N_7 
REMARK       I    between atoms: N_7  and  C_8 
REMARK       I    between atoms: C_8  and  N_10 
REMARK    4  A    between atoms: N_10  and  C_11 
ROOT
HETATM    1  N   UNL     1     -41.367 -50.895  13.176  1.00  0.00    -0.341 N 
HETATM    2  C   UNL     1     -40.765 -51.488  12.108  1.00  0.00     0.321 C 
HETATM    3  O   UNL     1     -40.582 -52.699  12.016  1.00  0.00    -0.247 OA
HETATM    4  N   UNL     1     -40.339 -50.661  11.110  1.00  0.00    -0.293 N 
HETATM    5  H   UNL     1     -41.295 -49.884  13.224  1.00  0.00     0.164 HD
HETATM    6  H   UNL     1     -39.839 -51.129  10.369  1.00  0.00     0.172 HD
ENDROOT
BRANCH   1   7
HETATM    7  C   UNL     1     -41.730 -51.613  14.373  1.00  0.00     0.154 C 
BRANCH   7   8
HETATM    8  C   UNL     1     -43.130 -51.212  14.871  1.00  0.00     0.292 C 
BRANCH   8   9
HETATM    9  N   UNL     1     -44.198 -52.083  14.354  1.00  0.00     0.095 N 
HETATM   10  C   UNL     1     -43.650 -53.281  13.686  1.00  0.00     0.303 C 
HETATM   11  C   UNL     1     -44.758 -54.189  13.129  1.00  0.00     0.146 C 
HETATM   12  C   UNL     1     -45.562 -54.873  14.236  1.00  0.00     0.041 C 
HETATM   13  O   UNL     1     -45.606 -53.469  12.221  1.00  0.00    -0.378 OA
HETATM   14  C   UNL     1     -46.149 -52.272  12.803  1.00  0.00     0.146 C 
HETATM   15  C   UNL     1     -45.037 -51.358  13.370  1.00  0.00     0.303 C 
HETATM   16  C   UNL     1     -46.937 -51.565  11.708  1.00  0.00     0.041 C 
ENDBRANCH   8   9
ENDBRANCH   7   8
ENDBRANCH   1   7
BRANCH   4  17
HETATM   17  C   UNL     1     -40.495 -49.294  11.036  1.00  0.00     0.132 A 
HETATM   18  C   UNL     1     -39.723 -48.350  11.749  1.00  0.00     0.084 A 
HETATM   19  C   UNL     1     -40.266 -47.134  11.408  1.00  0.00     0.076 A 
HETATM   20  C   UNL     1     -40.026 -45.737  11.796  1.00  0.00     0.079 C 
HETATM   21  O   UNL     1     -41.266 -47.330  10.513  1.00  0.00    -0.241 OA
HETATM   22  N   UNL     1     -41.421 -48.675  10.291  1.00  0.00    -0.245 N 
ATOM     23  HN  UNL     1     -42.108 -49.117   9.679  1.00  0.00     0.196 HD
ENDBRANCH   4  17
TORSDOF 4
ENDMDL
MODEL 6
REMARK VINA RESULT:      -6.2      2.237      6.520
REMARK  4 active torsions:
REMARK  status: ('A' for Active; 'I' for Inactive)
REMARK    1  A    between atoms: N_4  and  C_5 
REMARK    2  A    between atoms: C_5  and  C_6 
REMARK    3  A    between atoms: C_6  and  N_7 
REMARK       I    between atoms: N_7  and  C_8 
REMARK       I    between atoms: C_8  and  N_10 
REMARK    4  A    between atoms: N_10  and  C_11 
ROOT
HETATM    1  N   UNL     1     -41.532 -50.922  11.706  1.00  0.00    -0.341 N 
HETATM    2  C   UNL     1     -41.092 -52.115  12.195  1.00  0.00     0.321 C 
HETATM    3  O   UNL     1     -39.906 -52.430  12.253  1.00  0.00    -0.247 OA
HETATM    4  N   UNL     1     -42.047 -52.992  12.618  1.00  0.00    -0.293 N 
HETATM    5  H   UNL     1     -42.530 -50.851  11.537  1.00  0.00     0.164 HD
HETATM    6  H   UNL     1     -41.686 -53.888  12.909  1.00  0.00     0.172 HD
ENDROOT
BRANCH   1   7
HETATM    7  C   UNL     1     -40.661 -49.958  11.080  1.00  0.00     0.154 C 
BRANCH   7   8
HETATM    8  C   UNL     1     -40.573 -48.658  11.900  1.00  0.00     0.292 C 
BRANCH   8   9
HETATM    9  N   UNL     1     -40.719 -47.446  11.078  1.00  0.00     0.095 N 
HETATM   10  C   UNL     1     -40.456 -46.221  11.860  1.00  0.00     0.303 C 
HETATM   11  C   UNL     1     -40.622 -44.949  11.013  1.00  0.00     0.146 C 
HETATM   12  C   UNL     1     -39.526 -44.805   9.956  1.00  0.00     0.041 C 
HETATM   13  O   UNL     1     -41.934 -44.885  10.432  1.00  0.00    -0.378 OA
HETATM   14  C   UNL     1     -42.265 -46.064   9.681  1.00  0.00     0.146 C 
HETATM   15  C   UNL     1     -42.093 -47.347  10.528  1.00  0.00     0.303 C 
HETATM   16  C   UNL     1     -43.706 -45.902   9.213  1.00  0.00     0.041 C 
ENDBRANCH   8   9
ENDBRANCH   7   8
ENDBRANCH   1   7
BRANCH   4  17
HETATM   17  C   UNL     1     -43.409 -52.787  12.657  1.00  0.00     0.132 A 
HETATM   18  C   UNL     1     -44.079 -51.965  13.589  1.00  0.00     0.084 A 
HETATM   19  C   UNL     1     -45.411 -52.111  13.280  1.00  0.00     0.076 A 
HETATM   20  C   UNL     1     -46.674 -51.615  13.844  1.00  0.00     0.079 C 
HETATM   21  O   UNL     1     -45.530 -52.928  12.204  1.00  0.00    -0.241 OA
HETATM   22  N   UNL     1     -44.286 -53.363  11.823  1.00  0.00    -0.245 N 
ATOM     23  HN  UNL     1     -44.072 -54.001  11.056  1.00  0.00     0.196 HD
ENDBRANCH   4  17
TORSDOF 4
ENDMDL
MODEL 7
REMARK VINA RESULT:      -5.9      2.189      6.772
REMARK  4 active torsions:
REMARK  status: ('A' for Active; 'I' for Inactive)
REMARK    1  A    between atoms: N_4  and  C_5 
REMARK    2  A    between atoms: C_5  and  C_6 
REMARK    3  A    between atoms: C_6  and  N_7 
REMARK       I    between atoms: N_7  and  C_8 
REMARK       I    between atoms: C_8  and  N_10 
REMARK    4  A    between atoms: N_10  and  C_11 
ROOT
HETATM    1  N   UNL     1     -42.159 -51.018  12.203  1.00  0.00    -0.341 N 
HETATM    2  C   UNL     1     -41.242 -52.019  12.301  1.00  0.00     0.321 C 
HETATM    3  O   UNL     1     -40.038 -51.859  12.117  1.00  0.00    -0.247 OA
HETATM    4  N   UNL     1     -41.721 -53.261  12.603  1.00  0.00    -0.293 N 
HETATM    5  H   UNL     1     -43.133 -51.304  12.192  1.00  0.00     0.164 HD
HETATM    6  H   UNL     1     -41.021 -53.987  12.599  1.00  0.00     0.172 HD
ENDROOT
BRANCH   1   7
HETATM    7  C   UNL     1     -41.831 -49.692  11.742  1.00  0.00     0.154 C 
BRANCH   7   8
HETATM    8  C   UNL     1     -42.745 -48.629  12.377  1.00  0.00     0.292 C 
BRANCH   8   9
HETATM    9  N   UNL     1     -43.011 -47.489  11.486  1.00  0.00     0.095 N 
HETATM   10  C   UNL     1     -42.696 -47.810  10.079  1.00  0.00     0.303 C 
HETATM   11  C   UNL     1     -42.956 -46.619   9.142  1.00  0.00     0.146 C 
HETATM   12  C   UNL     1     -44.446 -46.309   8.994  1.00  0.00     0.041 C 
HETATM   13  O   UNL     1     -42.210 -45.464   9.558  1.00  0.00    -0.378 OA
HETATM   14  C   UNL     1     -42.450 -45.117  10.932  1.00  0.00     0.146 C 
HETATM   15  C   UNL     1     -42.195 -46.314  11.877  1.00  0.00     0.303 C 
HETATM   16  C   UNL     1     -41.528 -43.949  11.261  1.00  0.00     0.041 C 
ENDBRANCH   8   9
ENDBRANCH   7   8
ENDBRANCH   1   7
BRANCH   4  17
HETATM   17  C   UNL     1     -43.027 -53.607  12.873  1.00  0.00     0.132 A 
HETATM   18  C   UNL     1     -43.582 -53.733  14.166  1.00  0.00     0.084 A 
HETATM   19  C   UNL     1     -44.875 -54.144  13.945  1.00  0.00     0.076 A 
HETATM   20  C   UNL     1     -46.009 -54.525  14.798  1.00  0.00     0.079 C 
HETATM   21  O   UNL     1     -45.098 -54.213  12.610  1.00  0.00    -0.241 OA
HETATM   22  N   UNL     1     -43.944 -53.895  11.938  1.00  0.00    -0.245 N 
ATOM     23  HN  UNL     1     -43.811 -53.880  10.927  1.00  0.00     0.196 HD
ENDBRANCH   4  17
TORSDOF 4
ENDMDL
MODEL 8
REMARK VINA RESULT:      -5.9      2.472      6.780
REMARK  4 active torsions:
REMARK  status: ('A' for Active; 'I' for Inactive)
REMARK    1  A    between atoms: N_4  and  C_5 
REMARK    2  A    between atoms: C_5  and  C_6 
REMARK    3  A    between atoms: C_6  and  N_7 
REMARK       I    between atoms: N_7  and  C_8 
REMARK       I    between atoms: C_8  and  N_10 
REMARK    4  A    between atoms: N_10  and  C_11 
ROOT
HETATM    1  N   UNL     1     -41.194 -50.083  13.012  1.00  0.00    -0.341 N 
HETATM    2  C   UNL     1     -40.781 -50.585  11.816  1.00  0.00     0.321 C 
HETATM    3  O   UNL     1     -40.037 -49.982  11.046  1.00  0.00    -0.247 OA
HETATM    4  N   UNL     1     -41.250 -51.820  11.475  1.00  0.00    -0.293 N 
HETATM    5  H   UNL     1     -41.947 -50.587  13.470  1.00  0.00     0.164 HD
HETATM    6  H   UNL     1     -40.976 -52.128  10.554  1.00  0.00     0.172 HD
ENDROOT
BRANCH   1   7
HETATM    7  C   UNL     1     -40.913 -48.736  13.441  1.00  0.00     0.154 C 
BRANCH   7   8
HETATM    8  C   UNL     1     -42.071 -47.781  13.102  1.00  0.00     0.292 C 
BRANCH   8   9
HETATM    9  N   UNL     1     -41.813 -46.960  11.908  1.00  0.00     0.095 N 
HETATM   10  C   UNL     1     -41.519 -45.557  12.263  1.00  0.00     0.303 C 
HETATM   11  C   UNL     1     -41.264 -44.688  11.020  1.00  0.00     0.146 C 
HETATM   12  C   UNL     1     -39.951 -45.044  10.321  1.00  0.00     0.041 C 
HETATM   13  O   UNL     1     -42.380 -44.740  10.118  1.00  0.00    -0.378 OA
HETATM   14  C   UNL     1     -42.737 -46.084   9.757  1.00  0.00     0.146 C 
HETATM   15  C   UNL     1     -42.989 -46.963  11.004  1.00  0.00     0.303 C 
HETATM   16  C   UNL     1     -43.984 -45.993   8.887  1.00  0.00     0.041 C 
ENDBRANCH   8   9
ENDBRANCH   7   8
ENDBRANCH   1   7
BRANCH   4  17
HETATM   17  C   UNL     1     -42.057 -52.643  12.230  1.00  0.00     0.132 A 
HETATM   18  C   UNL     1     -41.634 -53.380  13.358  1.00  0.00     0.084 A 
HETATM   19  C   UNL     1     -42.748 -54.086  13.744  1.00  0.00     0.076 A 
HETATM   20  C   UNL     1     -43.045 -55.084  14.781  1.00  0.00     0.079 C 
HETATM   21  O   UNL     1     -43.784 -53.760  12.932  1.00  0.00    -0.241 OA
HETATM   22  N   UNL     1     -43.353 -52.873  11.978  1.00  0.00    -0.245 N 
ATOM     23  HN  UNL     1     -43.910 -52.468  11.226  1.00  0.00     0.196 HD
ENDBRANCH   4  17
TORSDOF 4
ENDMDL
MODEL 9
REMARK VINA RESULT:      -5.8      2.854      6.621
REMARK  4 active torsions:
REMARK  status: ('A' for Active; 'I' for Inactive)
REMARK    1  A    between atoms: N_4  and  C_5 
REMARK    2  A    between atoms: C_5  and  C_6 
REMARK    3  A    between atoms: C_6  and  N_7 
REMARK       I    between atoms: N_7  and  C_8 
REMARK       I    between atoms: C_8  and  N_10 
REMARK    4  A    between atoms: N_10  and  C_11 
ROOT
HETATM    1  N   UNL     1     -41.348 -50.828  11.751  1.00  0.00    -0.341 N 
HETATM    2  C   UNL     1     -40.894 -51.957  12.361  1.00  0.00     0.321 C 
HETATM    3  O   UNL     1     -39.702 -52.218  12.509  1.00  0.00    -0.247 OA
HETATM    4  N   UNL     1     -41.839 -52.835  12.806  1.00  0.00    -0.293 N 
HETATM    5  H   UNL     1     -42.337 -50.812  11.523  1.00  0.00     0.164 HD
HETATM    6  H   UNL     1     -41.463 -53.688  13.190  1.00  0.00     0.172 HD
ENDROOT
BRANCH   1   7
HETATM    7  C   UNL     1     -40.479 -49.884  11.093  1.00  0.00     0.154 C 
BRANCH   7   8
HETATM    8  C   UNL     1     -41.164 -48.518  10.909  1.00  0.00     0.292 C 
BRANCH   8   9
HETATM    9  N   UNL     1     -40.466 -47.424  11.603  1.00  0.00     0.095 N 
HETATM   10  C   UNL     1     -40.929 -47.279  12.999  1.00  0.00     0.303 C 
HETATM   11  C   UNL     1     -40.217 -46.128  13.727  1.00  0.00     0.146 C 
HETATM   12  C   UNL     1     -38.741 -46.430  13.990  1.00  0.00     0.041 C 
HETATM   13  O   UNL     1     -40.391 -44.888  13.024  1.00  0.00    -0.378 OA
HETATM   14  C   UNL     1     -39.985 -44.971  11.648  1.00  0.00     0.146 C 
HETATM   15  C   UNL     1     -40.696 -46.132  10.913  1.00  0.00     0.303 C 
HETATM   16  C   UNL     1     -40.316 -43.629  11.007  1.00  0.00     0.041 C 
ENDBRANCH   8   9
ENDBRANCH   7   8
ENDBRANCH   1   7
BRANCH   4  17
HETATM   17  C   UNL     1     -43.207 -52.684  12.753  1.00  0.00     0.132 A 
HETATM   18  C   UNL     1     -43.964 -51.849  13.605  1.00  0.00     0.084 A 
HETATM   19  C   UNL     1     -45.268 -52.063  13.225  1.00  0.00     0.076 A 
HETATM   20  C   UNL     1     -46.581 -51.594  13.690  1.00  0.00     0.079 C 
HETATM   21  O   UNL     1     -45.290 -52.930  12.183  1.00  0.00    -0.241 OA
HETATM   22  N   UNL     1     -44.010 -53.331  11.897  1.00  0.00    -0.245 N 
ATOM     23  HN  UNL     1     -43.725 -53.992  11.174  1.00  0.00     0.196 HD
ENDBRANCH   4  17
TORSDOF 4
ENDMDL
