MODEL 1
REMARK VINA RESULT:      -6.0      0.000      0.000
REMARK  5 active torsions:
REMARK  status: ('A' for Active; 'I' for Inactive)
REMARK    1  A    between atoms: S_2  and  N_5 
REMARK    2  A    between atoms: C_9  and  C_10 
REMARK       I    between atoms: C_10  and  N_12 
REMARK    3  A    between atoms: N_12  and  C_13 
REMARK    4  A    between atoms: C_13  and  C_14 
REMARK    5  A    between atoms: C_14  and  C_15 
ROOT
HETATM    1  C   UNL     1     -42.107 -51.746  13.009  1.00  0.00     0.241 C 
HETATM    2  O   UNL     1     -42.031 -51.312  14.157  1.00  0.00    -0.271 OA
HETATM    3  N   UNL     1     -42.057 -50.916  11.906  1.00  0.00    -0.359 N 
HETATM    4  H   UNL     1     -42.398 -51.278  11.016  1.00  0.00     0.162 HD
ENDROOT
BRANCH   1   5
HETATM    5  C   UNL     1     -42.179 -53.245  12.682  1.00  0.00     0.187 C 
HETATM    6  N   UNL     1     -43.136 -54.056  13.468  1.00  0.00    -0.297 N 
HETATM    7  C   UNL     1     -42.470 -54.544  14.693  1.00  0.00     0.136 C 
HETATM    8  C   UNL     1     -40.979 -54.311  14.470  1.00  0.00     0.023 C 
HETATM    9  C   UNL     1     -40.852 -53.939  13.001  1.00  0.00     0.037 C 
BRANCH   6  10
HETATM   10  S   UNL     1     -44.739 -53.586  13.527  1.00  0.00     0.225 S 
HETATM   11  C   UNL     1     -45.557 -55.147  13.817  1.00  0.00     0.186 C 
HETATM   12  O   UNL     1     -45.083 -53.119  12.199  1.00  0.00    -0.206 OA
HETATM   13  O   UNL     1     -44.923 -52.737  14.680  1.00  0.00    -0.206 OA
ENDBRANCH   6  10
ENDBRANCH   1   5
BRANCH   3  14
HETATM   14  C   UNL     1     -41.831 -49.484  12.043  1.00  0.00     0.127 C 
BRANCH  14  15
HETATM   15  C   UNL     1     -43.148 -48.693  12.041  1.00  0.00     0.059 C 
BRANCH  15  16
HETATM   16  C   UNL     1     -43.293 -47.803  10.835  1.00  0.00    -0.041 A 
HETATM   17  C   UNL     1     -44.515 -47.666  10.172  1.00  0.00     0.010 A 
HETATM   18  C   UNL     1     -44.607 -46.836   9.056  1.00  0.00     0.018 A 
HETATM   19  C   UNL     1     -43.470 -46.172   8.636  1.00  0.00     0.087 A 
HETATM   20  N   UNL     1     -42.271 -46.278   9.246  1.00  0.00    -0.375 N 
HETATM   21  C   UNL     1     -42.210 -47.088  10.328  1.00  0.00     0.094 A 
ATOM     22  HN  UNL     1     -41.452 -45.773   8.908  1.00  0.00     0.164 HD
ENDBRANCH  15  16
ENDBRANCH  14  15
ENDBRANCH   3  14
TORSDOF 5
ENDMDL
MODEL 2
REMARK VINA RESULT:      -5.7      2.242      3.088
REMARK  5 active torsions:
REMARK  status: ('A' for Active; 'I' for Inactive)
REMARK    1  A    between atoms: S_2  and  N_5 
REMARK    2  A    between atoms: C_9  and  C_10 
REMARK       I    between atoms: C_10  and  N_12 
REMARK    3  A    between atoms: N_12  and  C_13 
REMARK    4  A    between atoms: C_13  and  C_14 
REMARK    5  A    between atoms: C_14  and  C_15 
ROOT
HETATM    1  C   UNL     1     -44.095 -51.493  13.650  1.00  0.00     0.241 C 
HETATM    2  O   UNL     1     -44.771 -50.783  12.907  1.00  0.00    -0.271 OA
HETATM    3  N   UNL     1     -42.743 -51.691  13.445  1.00  0.00    -0.359 N 
HETATM    4  H   UNL     1     -42.299 -52.487  13.902  1.00  0.00     0.162 HD
ENDROOT
BRANCH   1   5
HETATM    5  C   UNL     1     -44.657 -52.157  14.915  1.00  0.00     0.187 C 
HETATM    6  N   UNL     1     -45.514 -53.349  14.721  1.00  0.00    -0.297 N 
HETATM    7  C   UNL     1     -46.916 -52.915  14.549  1.00  0.00     0.136 C 
HETATM    8  C   UNL     1     -46.954 -51.457  14.995  1.00  0.00     0.023 C 
HETATM    9  C   UNL     1     -45.605 -51.211  15.655  1.00  0.00     0.037 C 
BRANCH   6  10
HETATM   10  S   UNL     1     -44.927 -54.632  13.827  1.00  0.00     0.225 S 
HETATM   11  C   UNL     1     -43.405 -54.998  14.688  1.00  0.00     0.186 C 
HETATM   12  O   UNL     1     -44.606 -54.109  12.514  1.00  0.00    -0.206 OA
HETATM   13  O   UNL     1     -45.833 -55.746  13.978  1.00  0.00    -0.206 OA
ENDBRANCH   6  10
ENDBRANCH   1   5
BRANCH   3  14
HETATM   14  C   UNL     1     -42.028 -51.003  12.380  1.00  0.00     0.127 C 
BRANCH  14  15
HETATM   15  C   UNL     1     -41.442 -49.664  12.854  1.00  0.00     0.059 C 
BRANCH  15  16
HETATM   16  C   UNL     1     -41.734 -48.531  11.906  1.00  0.00    -0.041 A 
HETATM   17  C   UNL     1     -43.044 -48.125  11.637  1.00  0.00     0.010 A 
HETATM   18  C   UNL     1     -43.273 -47.075  10.749  1.00  0.00     0.018 A 
HETATM   19  C   UNL     1     -42.183 -46.466  10.156  1.00  0.00     0.087 A 
HETATM   20  N   UNL     1     -40.904 -46.828  10.389  1.00  0.00    -0.375 N 
HETATM   21  C   UNL     1     -40.709 -47.848  11.255  1.00  0.00     0.094 A 
ATOM     22  HN  UNL     1     -40.124 -46.356   9.933  1.00  0.00     0.164 HD
ENDBRANCH  15  16
ENDBRANCH  14  15
ENDBRANCH   3  14
TORSDOF 5
ENDMDL
MODEL 3
REMARK VINA RESULT:      -5.6      2.235      3.201
REMARK  5 active torsions:
REMARK  status: ('A' for Active; 'I' for Inactive)
REMARK    1  A    between atoms: S_2  and  N_5 
REMARK    2  A    between atoms: C_9  and  C_10 
REMARK       I    between atoms: C_10  and  N_12 
REMARK    3  A    between atoms: N_12  and  C_13 
REMARK    4  A    between atoms: C_13  and  C_14 
REMARK    5  A    between atoms: C_14  and  C_15 
ROOT
HETATM    1  C   UNL     1     -42.779 -52.054  13.716  1.00  0.00     0.241 C 
HETATM    2  O   UNL     1     -42.422 -51.669  14.829  1.00  0.00    -0.271 OA
HETATM    3  N   UNL     1     -43.326 -51.195  12.783  1.00  0.00    -0.359 N 
HETATM    4  H   UNL     1     -43.851 -51.599  12.007  1.00  0.00     0.162 HD
ENDROOT
BRANCH   1   5
HETATM    5  C   UNL     1     -42.577 -53.494  13.223  1.00  0.00     0.187 C 
HETATM    6  N   UNL     1     -43.472 -54.528  13.792  1.00  0.00    -0.297 N 
HETATM    7  C   UNL     1     -42.869 -55.064  15.031  1.00  0.00     0.136 C 
HETATM    8  C   UNL     1     -41.418 -54.591  15.019  1.00  0.00     0.023 C 
HETATM    9  C   UNL     1     -41.199 -54.023  13.626  1.00  0.00     0.037 C 
BRANCH   6  10
HETATM   10  S   UNL     1     -45.125 -54.306  13.704  1.00  0.00     0.225 S 
HETATM   11  C   UNL     1     -45.440 -53.379  15.199  1.00  0.00     0.186 C 
HETATM   12  O   UNL     1     -45.728 -55.618  13.834  1.00  0.00    -0.206 OA
HETATM   13  O   UNL     1     -45.413 -53.470  12.563  1.00  0.00    -0.206 OA
ENDBRANCH   6  10
ENDBRANCH   1   5
BRANCH   3  14
HETATM   14  C   UNL     1     -43.437 -49.766  13.039  1.00  0.00     0.127 C 
BRANCH  14  15
HETATM   15  C   UNL     1     -42.660 -48.936  12.007  1.00  0.00     0.059 C 
BRANCH  15  16
HETATM   16  C   UNL     1     -41.174 -49.174  12.066  1.00  0.00    -0.041 A 
HETATM   17  C   UNL     1     -40.424 -48.828  13.192  1.00  0.00     0.010 A 
HETATM   18  C   UNL     1     -39.050 -49.059  13.206  1.00  0.00     0.018 A 
HETATM   19  C   UNL     1     -38.468 -49.627  12.088  1.00  0.00     0.087 A 
HETATM   20  N   UNL     1     -39.156 -49.974  10.980  1.00  0.00    -0.375 N 
HETATM   21  C   UNL     1     -40.488 -49.740  10.993  1.00  0.00     0.094 A 
ATOM     22  HN  UNL     1     -38.694 -50.391  10.172  1.00  0.00     0.164 HD
ENDBRANCH  15  16
ENDBRANCH  14  15
ENDBRANCH   3  14
TORSDOF 5
ENDMDL
MODEL 4
REMARK VINA RESULT:      -5.6      3.259      6.697
REMARK  5 active torsions:
REMARK  status: ('A' for Active; 'I' for Inactive)
REMARK    1  A    between atoms: S_2  and  N_5 
REMARK    2  A    between atoms: C_9  and  C_10 
REMARK       I    between atoms: C_10  and  N_12 
REMARK    3  A    between atoms: N_12  and  C_13 
REMARK    4  A    between atoms: C_13  and  C_14 
REMARK    5  A    between atoms: C_14  and  C_15 
ROOT
HETATM    1  C   UNL     1     -41.556 -50.559  12.255  1.00  0.00     0.241 C 
HETATM    2  O   UNL     1     -41.852 -50.121  13.365  1.00  0.00    -0.271 OA
HETATM    3  N   UNL     1     -41.864 -51.849  11.869  1.00  0.00    -0.359 N 
HETATM    4  H   UNL     1     -41.364 -52.245  11.073  1.00  0.00     0.162 HD
ENDROOT
BRANCH   1   5
HETATM    5  C   UNL     1     -40.898 -49.702  11.164  1.00  0.00     0.187 C 
HETATM    6  N   UNL     1     -39.602 -49.069  11.501  1.00  0.00    -0.297 N 
HETATM    7  C   UNL     1     -39.852 -47.753  12.125  1.00  0.00     0.136 C 
HETATM    8  C   UNL     1     -41.317 -47.435  11.841  1.00  0.00     0.023 C 
HETATM    9  C   UNL     1     -41.760 -48.482  10.831  1.00  0.00     0.037 C 
BRANCH   6  10
HETATM   10  S   UNL     1     -38.353 -50.028  12.060  1.00  0.00     0.225 S 
HETATM   11  C   UNL     1     -38.002 -49.269  13.640  1.00  0.00     0.186 C 
HETATM   12  O   UNL     1     -37.229 -49.803  11.175  1.00  0.00    -0.206 OA
HETATM   13  O   UNL     1     -38.865 -51.360  12.282  1.00  0.00    -0.206 OA
ENDBRANCH   6  10
ENDBRANCH   1   5
BRANCH   3  14
HETATM   14  C   UNL     1     -42.629 -52.738  12.732  1.00  0.00     0.127 C 
BRANCH  14  15
HETATM   15  C   UNL     1     -44.005 -53.072  12.136  1.00  0.00     0.059 C 
BRANCH  15  16
HETATM   16  C   UNL     1     -45.130 -52.875  13.117  1.00  0.00    -0.041 A 
HETATM   17  C   UNL     1     -45.593 -51.599  13.449  1.00  0.00     0.010 A 
HETATM   18  C   UNL     1     -46.633 -51.458  14.367  1.00  0.00     0.018 A 
HETATM   19  C   UNL     1     -47.175 -52.601  14.926  1.00  0.00     0.087 A 
HETATM   20  N   UNL     1     -46.756 -53.849  14.633  1.00  0.00    -0.375 N 
HETATM   21  C   UNL     1     -45.747 -53.958  13.739  1.00  0.00     0.094 A 
ATOM     22  HN  UNL     1     -47.179 -54.670  15.065  1.00  0.00     0.164 HD
ENDBRANCH  15  16
ENDBRANCH  14  15
ENDBRANCH   3  14
TORSDOF 5
ENDMDL
MODEL 5
REMARK VINA RESULT:      -5.6      1.521      2.197
REMARK  5 active torsions:
REMARK  status: ('A' for Active; 'I' for Inactive)
REMARK    1  A    between atoms: S_2  and  N_5 
REMARK    2  A    between atoms: C_9  and  C_10 
REMARK       I    between atoms: C_10  and  N_12 
REMARK    3  A    between atoms: N_12  and  C_13 
REMARK    4  A    between atoms: C_13  and  C_14 
REMARK    5  A    between atoms: C_14  and  C_15 
ROOT
HETATM    1  C   UNL     1     -42.130 -52.156  13.272  1.00  0.00     0.241 C 
HETATM    2  O   UNL     1     -41.920 -51.623  14.361  1.00  0.00    -0.271 OA
HETATM    3  N   UNL     1     -42.340 -51.419  12.122  1.00  0.00    -0.359 N 
HETATM    4  H   UNL     1     -42.777 -51.883  11.327  1.00  0.00     0.162 HD
ENDROOT
BRANCH   1   5
HETATM    5  C   UNL     1     -42.098 -53.676  13.063  1.00  0.00     0.187 C 
HETATM    6  N   UNL     1     -43.188 -54.461  13.688  1.00  0.00    -0.297 N 
HETATM    7  C   UNL     1     -42.796 -54.827  15.065  1.00  0.00     0.136 C 
HETATM    8  C   UNL     1     -41.297 -54.556  15.151  1.00  0.00     0.023 C 
HETATM    9  C   UNL     1     -40.859 -54.293  13.718  1.00  0.00     0.037 C 
BRANCH   6  10
HETATM   10  S   UNL     1     -44.773 -54.049  13.359  1.00  0.00     0.225 S 
HETATM   11  C   UNL     1     -45.169 -53.014  14.761  1.00  0.00     0.186 C 
HETATM   12  O   UNL     1     -45.547 -55.271  13.449  1.00  0.00    -0.206 OA
HETATM   13  O   UNL     1     -44.797 -53.245  12.160  1.00  0.00    -0.206 OA
ENDBRANCH   6  10
ENDBRANCH   1   5
BRANCH   3  14
HETATM   14  C   UNL     1     -42.243 -49.966  12.123  1.00  0.00     0.127 C 
BRANCH  14  15
HETATM   15  C   UNL     1     -40.856 -49.483  11.674  1.00  0.00     0.059 C 
BRANCH  15  16
HETATM   16  C   UNL     1     -40.858 -48.049  11.215  1.00  0.00    -0.041 A 
HETATM   17  C   UNL     1     -39.886 -47.143  11.649  1.00  0.00     0.010 A 
HETATM   18  C   UNL     1     -39.926 -45.822  11.205  1.00  0.00     0.018 A 
HETATM   19  C   UNL     1     -40.940 -45.449  10.343  1.00  0.00     0.087 A 
HETATM   20  N   UNL     1     -41.897 -46.291   9.902  1.00  0.00    -0.375 N 
HETATM   21  C   UNL     1     -41.835 -47.568  10.346  1.00  0.00     0.094 A 
ATOM     22  HN  UNL     1     -42.631 -45.981   9.265  1.00  0.00     0.164 HD
ENDBRANCH  15  16
ENDBRANCH  14  15
ENDBRANCH   3  14
TORSDOF 5
ENDMDL
MODEL 6
REMARK VINA RESULT:      -5.5      2.294      4.014
REMARK  5 active torsions:
REMARK  status: ('A' for Active; 'I' for Inactive)
REMARK    1  A    between atoms: S_2  and  N_5 
REMARK    2  A    between atoms: C_9  and  C_10 
REMARK       I    between atoms: C_10  and  N_12 
REMARK    3  A    between atoms: N_12  and  C_13 
REMARK    4  A    between atoms: C_13  and  C_14 
REMARK    5  A    between atoms: C_14  and  C_15 
ROOT
HETATM    1  C   UNL     1     -42.110 -51.712  12.952  1.00  0.00     0.241 C 
HETATM    2  O   UNL     1     -42.037 -51.273  14.099  1.00  0.00    -0.271 OA
HETATM    3  N   UNL     1     -42.076 -50.884  11.846  1.00  0.00    -0.359 N 
HETATM    4  H   UNL     1     -42.413 -51.255  10.958  1.00  0.00     0.162 HD
ENDROOT
BRANCH   1   5
HETATM    5  C   UNL     1     -42.160 -53.212  12.630  1.00  0.00     0.187 C 
HETATM    6  N   UNL     1     -43.102 -54.036  13.423  1.00  0.00    -0.297 N 
HETATM    7  C   UNL     1     -42.423 -54.508  14.647  1.00  0.00     0.136 C 
HETATM    8  C   UNL     1     -40.936 -54.254  14.417  1.00  0.00     0.023 C 
HETATM    9  C   UNL     1     -40.821 -53.884  12.946  1.00  0.00     0.037 C 
BRANCH   6  10
HETATM   10  S   UNL     1     -44.711 -53.589  13.487  1.00  0.00     0.225 S 
HETATM   11  C   UNL     1     -45.501 -55.156  13.826  1.00  0.00     0.186 C 
HETATM   12  O   UNL     1     -45.076 -53.163  12.151  1.00  0.00    -0.206 OA
HETATM   13  O   UNL     1     -44.897 -52.714  14.620  1.00  0.00    -0.206 OA
ENDBRANCH   6  10
ENDBRANCH   1   5
BRANCH   3  14
HETATM   14  C   UNL     1     -41.871 -49.449  11.977  1.00  0.00     0.127 C 
BRANCH  14  15
HETATM   15  C   UNL     1     -40.466 -49.025  11.522  1.00  0.00     0.059 C 
BRANCH  15  16
HETATM   16  C   UNL     1     -39.382 -49.507  12.449  1.00  0.00    -0.041 A 
HETATM   17  C   UNL     1     -38.454 -50.471  12.047  1.00  0.00     0.010 A 
HETATM   18  C   UNL     1     -37.468 -50.895  12.937  1.00  0.00     0.018 A 
HETATM   19  C   UNL     1     -37.445 -50.341  14.204  1.00  0.00     0.087 A 
HETATM   20  N   UNL     1     -38.322 -49.410  14.631  1.00  0.00    -0.375 N 
HETATM   21  C   UNL     1     -39.268 -49.015  13.747  1.00  0.00     0.094 A 
ATOM     22  HN  UNL     1     -38.276 -49.024  15.573  1.00  0.00     0.164 HD
ENDBRANCH  15  16
ENDBRANCH  14  15
ENDBRANCH   3  14
TORSDOF 5
ENDMDL
MODEL 7
REMARK VINA RESULT:      -5.4      3.134      6.215
REMARK  5 active torsions:
REMARK  status: ('A' for Active; 'I' for Inactive)
REMARK    1  A    between atoms: S_2  and  N_5 
REMARK    2  A    between atoms: C_9  and  C_10 
REMARK       I    between atoms: C_10  and  N_12 
REMARK    3  A    between atoms: N_12  and  C_13 
REMARK    4  A    between atoms: C_13  and  C_14 
REMARK    5  A    between atoms: C_14  and  C_15 
ROOT
HETATM    1  C   UNL     1     -39.384 -52.131  13.902  1.00  0.00     0.241 C 
HETATM    2  O   UNL     1     -38.636 -53.059  13.596  1.00  0.00    -0.271 OA
HETATM    3  N   UNL     1     -40.657 -52.347  14.394  1.00  0.00    -0.359 N 
HETATM    4  H   UNL     1     -41.321 -51.574  14.366  1.00  0.00     0.162 HD
ENDROOT
BRANCH   1   5
HETATM    5  C   UNL     1     -38.957 -50.658  13.849  1.00  0.00     0.187 C 
HETATM    6  N   UNL     1     -39.444 -49.860  12.700  1.00  0.00    -0.297 N 
HETATM    7  C   UNL     1     -38.487 -49.987  11.581  1.00  0.00     0.136 C 
HETATM    8  C   UNL     1     -37.224 -50.591  12.187  1.00  0.00     0.023 C 
HETATM    9  C   UNL     1     -37.440 -50.533  13.691  1.00  0.00     0.037 C 
BRANCH   6  10
HETATM   10  S   UNL     1     -41.084 -49.810  12.386  1.00  0.00     0.225 S 
HETATM   11  C   UNL     1     -41.198 -48.380  11.320  1.00  0.00     0.186 C 
HETATM   12  O   UNL     1     -41.738 -49.508  13.643  1.00  0.00    -0.206 OA
HETATM   13  O   UNL     1     -41.441 -50.988  11.631  1.00  0.00    -0.206 OA
ENDBRANCH   6  10
ENDBRANCH   1   5
BRANCH   3  14
HETATM   14  C   UNL     1     -41.153 -53.691  14.654  1.00  0.00     0.127 C 
BRANCH  14  15
HETATM   15  C   UNL     1     -41.858 -54.289  13.426  1.00  0.00     0.059 C 
BRANCH  15  16
HETATM   16  C   UNL     1     -43.331 -53.979  13.390  1.00  0.00    -0.041 A 
HETATM   17  C   UNL     1     -44.231 -54.610  14.252  1.00  0.00     0.010 A 
HETATM   18  C   UNL     1     -45.588 -54.299  14.183  1.00  0.00     0.018 A 
HETATM   19  C   UNL     1     -46.002 -53.368  13.250  1.00  0.00     0.087 A 
HETATM   20  N   UNL     1     -45.166 -52.737  12.399  1.00  0.00    -0.375 N 
HETATM   21  C   UNL     1     -43.854 -53.055  12.487  1.00  0.00     0.094 A 
ATOM     22  HN  UNL     1     -45.507 -52.055  11.722  1.00  0.00     0.164 HD
ENDBRANCH  15  16
ENDBRANCH  14  15
ENDBRANCH   3  14
TORSDOF 5
ENDMDL
MODEL 8
REMARK VINA RESULT:      -5.4      3.780      6.876
REMARK  5 active torsions:
REMARK  status: ('A' for Active; 'I' for Inactive)
REMARK    1  A    between atoms: S_2  and  N_5 
REMARK    2  A    between atoms: C_9  and  C_10 
REMARK       I    between atoms: C_10  and  N_12 
REMARK    3  A    between atoms: N_12  and  C_13 
REMARK    4  A    between atoms: C_13  and  C_14 
REMARK    5  A    between atoms: C_14  and  C_15 
ROOT
HETATM    1  C   UNL     1     -40.543 -50.200  11.915  1.00  0.00     0.241 C 
HETATM    2  O   UNL     1     -41.691 -49.762  11.858  1.00  0.00    -0.271 OA
HETATM    3  N   UNL     1     -40.271 -51.554  11.876  1.00  0.00    -0.359 N 
HETATM    4  H   UNL     1     -39.359 -51.871  12.202  1.00  0.00     0.162 HD
ENDROOT
BRANCH   1   5
HETATM    5  C   UNL     1     -39.303 -49.297  11.951  1.00  0.00     0.187 C 
HETATM    6  N   UNL     1     -38.568 -49.219  13.235  1.00  0.00    -0.297 N 
HETATM    7  C   UNL     1     -39.149 -48.142  14.063  1.00  0.00     0.136 C 
HETATM    8  C   UNL     1     -40.025 -47.325  13.119  1.00  0.00     0.023 C 
HETATM    9  C   UNL     1     -39.685 -47.832  11.726  1.00  0.00     0.037 C 
BRANCH   6  10
HETATM   10  S   UNL     1     -38.050 -50.633  13.959  1.00  0.00     0.225 S 
HETATM   11  C   UNL     1     -36.807 -50.021  15.087  1.00  0.00     0.186 C 
HETATM   12  O   UNL     1     -37.399 -51.413  12.925  1.00  0.00    -0.206 OA
HETATM   13  O   UNL     1     -39.146 -51.184  14.721  1.00  0.00    -0.206 OA
ENDBRANCH   6  10
ENDBRANCH   1   5
BRANCH   3  14
HETATM   14  C   UNL     1     -41.329 -52.535  11.683  1.00  0.00     0.127 C 
BRANCH  14  15
HETATM   15  C   UNL     1     -41.451 -53.490  12.880  1.00  0.00     0.059 C 
BRANCH  15  16
HETATM   16  C   UNL     1     -42.881 -53.804  13.233  1.00  0.00    -0.041 A 
HETATM   17  C   UNL     1     -43.200 -54.663  14.288  1.00  0.00     0.010 A 
HETATM   18  C   UNL     1     -44.536 -54.932  14.580  1.00  0.00     0.018 A 
HETATM   19  C   UNL     1     -45.512 -54.336  13.803  1.00  0.00     0.087 A 
HETATM   20  N   UNL     1     -45.246 -53.503  12.776  1.00  0.00    -0.375 N 
HETATM   21  C   UNL     1     -43.942 -53.256  12.515  1.00  0.00     0.094 A 
ATOM     22  HN  UNL     1     -45.992 -53.080  12.224  1.00  0.00     0.164 HD
ENDBRANCH  15  16
ENDBRANCH  14  15
ENDBRANCH   3  14
TORSDOF 5
ENDMDL
MODEL 9
REMARK VINA RESULT:      -5.3      3.473      5.047
REMARK  5 active torsions:
REMARK  status: ('A' for Active; 'I' for Inactive)
REMARK    1  A    between atoms: S_2  and  N_5 
REMARK    2  A    between atoms: C_9  and  C_10 
REMARK       I    between atoms: C_10  and  N_12 
REMARK    3  A    between atoms: N_12  and  C_13 
REMARK    4  A    between atoms: C_13  and  C_14 
REMARK    5  A    between atoms: C_14  and  C_15 
ROOT
HETATM    1  C   UNL     1     -44.065 -51.513  13.696  1.00  0.00     0.241 C 
HETATM    2  O   UNL     1     -44.701 -50.733  12.988  1.00  0.00    -0.271 OA
HETATM    3  N   UNL     1     -42.732 -51.792  13.466  1.00  0.00    -0.359 N 
HETATM    4  H   UNL     1     -42.336 -52.631  13.889  1.00  0.00     0.162 HD
ENDROOT
BRANCH   1   5
HETATM    5  C   UNL     1     -44.656 -52.186  14.943  1.00  0.00     0.187 C 
HETATM    6  N   UNL     1     -45.533 -53.358  14.719  1.00  0.00    -0.297 N 
HETATM    7  C   UNL     1     -46.925 -52.896  14.534  1.00  0.00     0.136 C 
HETATM    8  C   UNL     1     -46.941 -51.444  15.003  1.00  0.00     0.023 C 
HETATM    9  C   UNL     1     -45.598 -51.233  15.684  1.00  0.00     0.037 C 
BRANCH   6  10
HETATM   10  S   UNL     1     -44.957 -54.638  13.812  1.00  0.00     0.225 S 
HETATM   11  C   UNL     1     -43.448 -55.038  14.681  1.00  0.00     0.186 C 
HETATM   12  O   UNL     1     -44.618 -54.104  12.509  1.00  0.00    -0.206 OA
HETATM   13  O   UNL     1     -45.880 -55.741  13.942  1.00  0.00    -0.206 OA
ENDBRANCH   6  10
ENDBRANCH   1   5
BRANCH   3  14
HETATM   14  C   UNL     1     -41.983 -51.112  12.418  1.00  0.00     0.127 C 
BRANCH  14  15
HETATM   15  C   UNL     1     -40.601 -51.745  12.198  1.00  0.00     0.059 C 
BRANCH  15  16
HETATM   16  C   UNL     1     -39.515 -51.065  12.989  1.00  0.00    -0.041 A 
HETATM   17  C   UNL     1     -39.128 -51.532  14.248  1.00  0.00     0.010 A 
HETATM   18  C   UNL     1     -38.122 -50.872  14.951  1.00  0.00     0.018 A 
HETATM   19  C   UNL     1     -37.537 -49.761  14.374  1.00  0.00     0.087 A 
HETATM   20  N   UNL     1     -37.883 -49.276  13.163  1.00  0.00    -0.375 N 
HETATM   21  C   UNL     1     -38.860 -49.937  12.500  1.00  0.00     0.094 A 
ATOM     22  HN  UNL     1     -37.430 -48.453  12.767  1.00  0.00     0.164 HD
ENDBRANCH  15  16
ENDBRANCH  14  15
ENDBRANCH   3  14
TORSDOF 5
ENDMDL
