MODEL 1
REMARK VINA RESULT:      -6.3      0.000      0.000
REMARK  5 active torsions:
REMARK  status: ('A' for Active; 'I' for Inactive)
REMARK    1  A    between atoms: O_2  and  C_3 
REMARK    2  A    between atoms: C_6  and  N_7 
REMARK       I    between atoms: N_7  and  C_8 
REMARK       I    between atoms: C_8  and  N_10 
REMARK    3  A    between atoms: N_10  and  C_11 
REMARK    4  A    between atoms: C_11  and  C_12 
REMARK    5  A    between atoms: C_12  and  N_13 
ROOT
HETATM    1  N   UNL     1     -41.053 -48.459  10.650  1.00  0.00    -0.308 N 
HETATM    2  C   UNL     1     -40.969 -49.663  11.295  1.00  0.00     0.320 C 
HETATM    3  O   UNL     1     -39.882 -50.198  11.471  1.00  0.00    -0.247 OA
HETATM    4  N   UNL     1     -42.146 -50.141  11.808  1.00  0.00    -0.341 N 
HETATM    5  H   UNL     1     -40.185 -47.942  10.639  1.00  0.00     0.170 HD
HETATM    6  H   UNL     1     -42.884 -49.465  11.954  1.00  0.00     0.164 HD
ENDROOT
BRANCH   1   7
HETATM    7  C   UNL     1     -42.210 -47.868  10.127  1.00  0.00     0.051 A 
HETATM    8  C   UNL     1     -42.618 -48.086   8.810  1.00  0.00     0.035 A 
HETATM    9  C   UNL     1     -43.807 -47.519   8.363  1.00  0.00     0.058 A 
HETATM   10  C   UNL     1     -44.553 -46.775   9.260  1.00  0.00     0.141 A 
HETATM   11  N   UNL     1     -44.164 -46.508  10.527  1.00  0.00    -0.345 N 
HETATM   12  C   UNL     1     -42.989 -47.041  10.924  1.00  0.00     0.119 A 
ATOM     13  HN  UNL     1     -44.730 -45.933  11.152  1.00  0.00     0.167 HD
BRANCH  10  14
HETATM   14  O   UNL     1     -45.771 -46.314   8.804  1.00  0.00    -0.341 OA
HETATM   15  C   UNL     1     -46.839 -47.209   9.094  1.00  0.00     0.211 C 
ENDBRANCH  10  14
ENDBRANCH   1   7
BRANCH   4  16
HETATM   16  C   UNL     1     -42.206 -51.369  12.576  1.00  0.00     0.154 C 
BRANCH  16  17
HETATM   17  C   UNL     1     -43.106 -51.277  13.828  1.00  0.00     0.292 C 
BRANCH  17  18
HETATM   18  N   UNL     1     -44.015 -52.425  14.024  1.00  0.00     0.090 N 
HETATM   19  C   UNL     1     -44.881 -52.628  12.849  1.00  0.00     0.272 C 
HETATM   20  C   UNL     1     -45.989 -51.579  12.695  1.00  0.00     0.031 C 
HETATM   21  C   UNL     1     -46.823 -51.454  13.968  1.00  0.00     0.007 C 
HETATM   22  C   UNL     1     -45.927 -51.255  15.196  1.00  0.00     0.010 C 
HETATM   23  C   UNL     1     -46.760 -51.278  16.478  1.00  0.00     0.011 C 
HETATM   24  C   UNL     1     -44.840 -52.342  15.242  1.00  0.00     0.276 C 
ENDBRANCH  17  18
ENDBRANCH  16  17
ENDBRANCH   4  16
TORSDOF 5
ENDMDL
MODEL 2
REMARK VINA RESULT:      -6.2      2.181      2.858
REMARK  5 active torsions:
REMARK  status: ('A' for Active; 'I' for Inactive)
REMARK    1  A    between atoms: O_2  and  C_3 
REMARK    2  A    between atoms: C_6  and  N_7 
REMARK       I    between atoms: N_7  and  C_8 
REMARK       I    between atoms: C_8  and  N_10 
REMARK    3  A    between atoms: N_10  and  C_11 
REMARK    4  A    between atoms: C_11  and  C_12 
REMARK    5  A    between atoms: C_12  and  N_13 
ROOT
HETATM    1  N   UNL     1     -40.731 -50.237  10.974  1.00  0.00    -0.308 N 
HETATM    2  C   UNL     1     -41.161 -51.039  11.995  1.00  0.00     0.320 C 
HETATM    3  O   UNL     1     -41.256 -52.250  11.836  1.00  0.00    -0.247 OA
HETATM    4  N   UNL     1     -41.355 -50.411  13.197  1.00  0.00    -0.341 N 
HETATM    5  H   UNL     1     -40.222 -50.732  10.255  1.00  0.00     0.170 HD
HETATM    6  H   UNL     1     -40.887 -49.525  13.326  1.00  0.00     0.164 HD
ENDROOT
BRANCH   1   7
HETATM    7  C   UNL     1     -40.838 -48.843  10.902  1.00  0.00     0.051 A 
HETATM    8  C   UNL     1     -39.905 -47.999  11.508  1.00  0.00     0.035 A 
HETATM    9  C   UNL     1     -40.031 -46.623  11.354  1.00  0.00     0.058 A 
HETATM   10  C   UNL     1     -41.073 -46.145  10.579  1.00  0.00     0.141 A 
HETATM   11  N   UNL     1     -42.018 -46.932  10.017  1.00  0.00    -0.345 N 
HETATM   12  C   UNL     1     -41.893 -48.262  10.212  1.00  0.00     0.119 A 
ATOM     13  HN  UNL     1     -42.787 -46.540   9.473  1.00  0.00     0.167 HD
BRANCH  10  14
HETATM   14  O   UNL     1     -41.103 -44.781  10.371  1.00  0.00    -0.341 OA
HETATM   15  C   UNL     1     -40.104 -44.092  11.116  1.00  0.00     0.211 C 
ENDBRANCH  10  14
ENDBRANCH   1   7
BRANCH   4  16
HETATM   16  C   UNL     1     -41.744 -51.138  14.390  1.00  0.00     0.154 C 
BRANCH  16  17
HETATM   17  C   UNL     1     -43.231 -50.961  14.771  1.00  0.00     0.292 C 
BRANCH  17  18
HETATM   18  N   UNL     1     -44.039 -52.196  14.708  1.00  0.00     0.090 N 
HETATM   19  C   UNL     1     -44.554 -52.430  13.346  1.00  0.00     0.272 C 
HETATM   20  C   UNL     1     -45.687 -51.484  12.932  1.00  0.00     0.031 C 
HETATM   21  C   UNL     1     -46.824 -51.492  13.951  1.00  0.00     0.007 C 
HETATM   22  C   UNL     1     -46.294 -51.262  15.371  1.00  0.00     0.010 C 
HETATM   23  C   UNL     1     -47.417 -51.417  16.396  1.00  0.00     0.011 C 
HETATM   24  C   UNL     1     -45.148 -52.243  15.675  1.00  0.00     0.276 C 
ENDBRANCH  17  18
ENDBRANCH  16  17
ENDBRANCH   4  16
TORSDOF 5
ENDMDL
MODEL 3
REMARK VINA RESULT:      -6.0      1.738      2.216
REMARK  5 active torsions:
REMARK  status: ('A' for Active; 'I' for Inactive)
REMARK    1  A    between atoms: O_2  and  C_3 
REMARK    2  A    between atoms: C_6  and  N_7 
REMARK       I    between atoms: N_7  and  C_8 
REMARK       I    between atoms: C_8  and  N_10 
REMARK    3  A    between atoms: N_10  and  C_11 
REMARK    4  A    between atoms: C_11  and  C_12 
REMARK    5  A    between atoms: C_12  and  N_13 
ROOT
HETATM    1  N   UNL     1     -41.023 -49.102  13.233  1.00  0.00    -0.308 N 
HETATM    2  C   UNL     1     -41.084 -50.357  13.774  1.00  0.00     0.320 C 
HETATM    3  O   UNL     1     -40.251 -50.720  14.595  1.00  0.00    -0.247 OA
HETATM    4  N   UNL     1     -42.180 -51.099  13.420  1.00  0.00    -0.341 N 
HETATM    5  H   UNL     1     -40.478 -48.449  13.780  1.00  0.00     0.170 HD
HETATM    6  H   UNL     1     -42.979 -50.589  13.070  1.00  0.00     0.164 HD
ENDROOT
BRANCH   1   7
HETATM    7  C   UNL     1     -41.707 -48.644  12.100  1.00  0.00     0.051 A 
HETATM    8  C   UNL     1     -42.930 -47.979  12.196  1.00  0.00     0.035 A 
HETATM    9  C   UNL     1     -43.534 -47.495  11.041  1.00  0.00     0.058 A 
HETATM   10  C   UNL     1     -42.879 -47.676   9.835  1.00  0.00     0.141 A 
HETATM   11  N   UNL     1     -41.716 -48.354   9.703  1.00  0.00    -0.345 N 
HETATM   12  C   UNL     1     -41.169 -48.844  10.836  1.00  0.00     0.119 A 
ATOM     13  HN  UNL     1     -41.275 -48.489   8.793  1.00  0.00     0.167 HD
BRANCH  10  14
HETATM   14  O   UNL     1     -43.465 -47.096   8.729  1.00  0.00    -0.341 OA
HETATM   15  C   UNL     1     -43.489 -47.966   7.602  1.00  0.00     0.211 C 
ENDBRANCH  10  14
ENDBRANCH   1   7
BRANCH   4  16
HETATM   16  C   UNL     1     -42.420 -52.421  13.964  1.00  0.00     0.154 C 
BRANCH  16  17
HETATM   17  C   UNL     1     -43.452 -52.444  15.113  1.00  0.00     0.292 C 
BRANCH  17  18
HETATM   18  N   UNL     1     -44.672 -53.230  14.836  1.00  0.00     0.090 N 
HETATM   19  C   UNL     1     -45.108 -53.067  13.437  1.00  0.00     0.272 C 
HETATM   20  C   UNL     1     -45.733 -51.701  13.129  1.00  0.00     0.031 C 
HETATM   21  C   UNL     1     -46.870 -51.375  14.093  1.00  0.00     0.007 C 
HETATM   22  C   UNL     1     -46.427 -51.554  15.549  1.00  0.00     0.010 C 
HETATM   23  C   UNL     1     -47.611 -51.368  16.498  1.00  0.00     0.011 C 
HETATM   24  C   UNL     1     -45.795 -52.944  15.744  1.00  0.00     0.276 C 
ENDBRANCH  17  18
ENDBRANCH  16  17
ENDBRANCH   4  16
TORSDOF 5
ENDMDL
MODEL 4
REMARK VINA RESULT:      -5.9      2.298      3.207
REMARK  5 active torsions:
REMARK  status: ('A' for Active; 'I' for Inactive)
REMARK    1  A    between atoms: O_2  and  C_3 
REMARK    2  A    between atoms: C_6  and  N_7 
REMARK       I    between atoms: N_7  and  C_8 
REMARK       I    between atoms: C_8  and  N_10 
REMARK    3  A    between atoms: N_10  and  C_11 
REMARK    4  A    between atoms: C_11  and  C_12 
REMARK    5  A    between atoms: C_12  and  N_13 
ROOT
HETATM    1  N   UNL     1     -40.610 -50.213  10.966  1.00  0.00    -0.308 N 
HETATM    2  C   UNL     1     -41.159 -51.063  11.886  1.00  0.00     0.320 C 
HETATM    3  O   UNL     1     -41.181 -52.270  11.681  1.00  0.00    -0.247 OA
HETATM    4  N   UNL     1     -41.560 -50.482  13.061  1.00  0.00    -0.341 N 
HETATM    5  H   UNL     1     -39.978 -50.666  10.320  1.00  0.00     0.170 HD
HETATM    6  H   UNL     1     -41.152 -49.585  13.285  1.00  0.00     0.164 HD
ENDROOT
BRANCH   1   7
HETATM    7  C   UNL     1     -40.759 -48.822  10.917  1.00  0.00     0.051 A 
HETATM    8  C   UNL     1     -39.862 -47.961  11.552  1.00  0.00     0.035 A 
HETATM    9  C   UNL     1     -40.029 -46.587  11.420  1.00  0.00     0.058 A 
HETATM   10  C   UNL     1     -41.073 -46.127  10.636  1.00  0.00     0.141 A 
HETATM   11  N   UNL     1     -41.984 -46.933  10.046  1.00  0.00    -0.345 N 
HETATM   12  C   UNL     1     -41.820 -48.262  10.220  1.00  0.00     0.119 A 
ATOM     13  HN  UNL     1     -42.757 -46.555   9.496  1.00  0.00     0.167 HD
BRANCH  10  14
HETATM   14  O   UNL     1     -41.143 -44.761  10.452  1.00  0.00    -0.341 OA
HETATM   15  C   UNL     1     -40.419 -44.038  11.443  1.00  0.00     0.211 C 
ENDBRANCH  10  14
ENDBRANCH   1   7
BRANCH   4  16
HETATM   16  C   UNL     1     -42.098 -51.261  14.158  1.00  0.00     0.154 C 
BRANCH  16  17
HETATM   17  C   UNL     1     -43.624 -51.105  14.344  1.00  0.00     0.292 C 
BRANCH  17  18
HETATM   18  N   UNL     1     -44.440 -51.600  13.215  1.00  0.00     0.090 N 
HETATM   19  C   UNL     1     -45.818 -51.082  13.284  1.00  0.00     0.272 C 
HETATM   20  C   UNL     1     -46.675 -51.720  14.383  1.00  0.00     0.031 C 
HETATM   21  C   UNL     1     -46.672 -53.243  14.283  1.00  0.00     0.007 C 
HETATM   22  C   UNL     1     -45.242 -53.788  14.199  1.00  0.00     0.010 C 
HETATM   23  C   UNL     1     -45.255 -55.296  13.951  1.00  0.00     0.011 C 
HETATM   24  C   UNL     1     -44.465 -53.066  13.084  1.00  0.00     0.276 C 
ENDBRANCH  17  18
ENDBRANCH  16  17
ENDBRANCH   4  16
TORSDOF 5
ENDMDL
MODEL 5
REMARK VINA RESULT:      -5.8      2.398      3.287
REMARK  5 active torsions:
REMARK  status: ('A' for Active; 'I' for Inactive)
REMARK    1  A    between atoms: O_2  and  C_3 
REMARK    2  A    between atoms: C_6  and  N_7 
REMARK       I    between atoms: N_7  and  C_8 
REMARK       I    between atoms: C_8  and  N_10 
REMARK    3  A    between atoms: N_10  and  C_11 
REMARK    4  A    between atoms: C_11  and  C_12 
REMARK    5  A    between atoms: C_12  and  N_13 
ROOT
HETATM    1  N   UNL     1     -40.036 -50.889  11.533  1.00  0.00    -0.308 N 
HETATM    2  C   UNL     1     -40.539 -51.805  12.416  1.00  0.00     0.320 C 
HETATM    3  O   UNL     1     -40.425 -53.005  12.199  1.00  0.00    -0.247 OA
HETATM    4  N   UNL     1     -41.055 -51.285  13.575  1.00  0.00    -0.341 N 
HETATM    5  H   UNL     1     -39.329 -51.266  10.916  1.00  0.00     0.170 HD
HETATM    6  H   UNL     1     -40.754 -50.354  13.827  1.00  0.00     0.164 HD
ENDROOT
BRANCH   1   7
HETATM    7  C   UNL     1     -40.327 -49.520  11.490  1.00  0.00     0.051 A 
HETATM    8  C   UNL     1     -39.405 -48.557  11.906  1.00  0.00     0.035 A 
HETATM    9  C   UNL     1     -39.728 -47.210  11.785  1.00  0.00     0.058 A 
HETATM   10  C   UNL     1     -40.952 -46.878  11.230  1.00  0.00     0.141 A 
HETATM   11  N   UNL     1     -41.882 -47.786  10.858  1.00  0.00    -0.345 N 
HETATM   12  C   UNL     1     -41.558 -49.087  11.020  1.00  0.00     0.119 A 
ATOM     13  HN  UNL     1     -42.785 -47.502  10.476  1.00  0.00     0.167 HD
BRANCH  10  14
HETATM   14  O   UNL     1     -41.189 -45.532  11.038  1.00  0.00    -0.341 OA
HETATM   15  C   UNL     1     -42.508 -45.271  10.568  1.00  0.00     0.211 C 
ENDBRANCH  10  14
ENDBRANCH   1   7
BRANCH   4  16
HETATM   16  C   UNL     1     -41.562 -52.132  14.637  1.00  0.00     0.154 C 
BRANCH  16  17
HETATM   17  C   UNL     1     -43.104 -52.215  14.684  1.00  0.00     0.292 C 
BRANCH  17  18
HETATM   18  N   UNL     1     -43.802 -50.938  14.431  1.00  0.00     0.090 N 
HETATM   19  C   UNL     1     -44.583 -50.513  15.607  1.00  0.00     0.272 C 
HETATM   20  C   UNL     1     -45.854 -51.337  15.849  1.00  0.00     0.031 C 
HETATM   21  C   UNL     1     -46.734 -51.388  14.603  1.00  0.00     0.007 C 
HETATM   22  C   UNL     1     -45.925 -51.818  13.374  1.00  0.00     0.010 C 
HETATM   23  C   UNL     1     -46.778 -51.725  12.109  1.00  0.00     0.011 C 
HETATM   24  C   UNL     1     -44.664 -50.946  13.237  1.00  0.00     0.276 C 
ENDBRANCH  17  18
ENDBRANCH  16  17
ENDBRANCH   4  16
TORSDOF 5
ENDMDL
MODEL 6
REMARK VINA RESULT:      -5.8      2.764      6.860
REMARK  5 active torsions:
REMARK  status: ('A' for Active; 'I' for Inactive)
REMARK    1  A    between atoms: O_2  and  C_3 
REMARK    2  A    between atoms: C_6  and  N_7 
REMARK       I    between atoms: N_7  and  C_8 
REMARK       I    between atoms: C_8  and  N_10 
REMARK    3  A    between atoms: N_10  and  C_11 
REMARK    4  A    between atoms: C_11  and  C_12 
REMARK    5  A    between atoms: C_12  and  N_13 
ROOT
HETATM    1  N   UNL     1     -41.067 -51.938  11.572  1.00  0.00    -0.308 N 
HETATM    2  C   UNL     1     -40.649 -50.665  11.847  1.00  0.00     0.320 C 
HETATM    3  O   UNL     1     -39.697 -50.181  11.247  1.00  0.00    -0.247 OA
HETATM    4  N   UNL     1     -41.428 -49.966  12.731  1.00  0.00    -0.341 N 
HETATM    5  H   UNL     1     -40.760 -52.282  10.672  1.00  0.00     0.170 HD
HETATM    6  H   UNL     1     -42.374 -50.296  12.860  1.00  0.00     0.164 HD
ENDROOT
BRANCH   1   7
HETATM    7  C   UNL     1     -41.931 -52.722  12.347  1.00  0.00     0.051 A 
HETATM    8  C   UNL     1     -43.312 -52.716  12.146  1.00  0.00     0.035 A 
HETATM    9  C   UNL     1     -44.114 -53.558  12.908  1.00  0.00     0.058 A 
HETATM   10  C   UNL     1     -43.500 -54.393  13.826  1.00  0.00     0.141 A 
HETATM   11  N   UNL     1     -42.171 -54.390  14.075  1.00  0.00    -0.345 N 
HETATM   12  C   UNL     1     -41.419 -53.537  13.347  1.00  0.00     0.119 A 
ATOM     13  HN  UNL     1     -41.757 -55.003  14.779  1.00  0.00     0.167 HD
BRANCH  10  14
HETATM   14  O   UNL     1     -44.322 -55.281  14.489  1.00  0.00    -0.341 OA
HETATM   15  C   UNL     1     -45.658 -55.260  13.999  1.00  0.00     0.211 C 
ENDBRANCH  10  14
ENDBRANCH   1   7
BRANCH   4  16
HETATM   16  C   UNL     1     -41.153 -48.584  13.070  1.00  0.00     0.154 C 
BRANCH  16  17
HETATM   17  C   UNL     1     -42.002 -47.567  12.277  1.00  0.00     0.292 C 
BRANCH  17  18
HETATM   18  N   UNL     1     -41.565 -47.348  10.882  1.00  0.00     0.090 N 
HETATM   19  C   UNL     1     -41.290 -45.923  10.625  1.00  0.00     0.272 C 
HETATM   20  C   UNL     1     -42.546 -45.048  10.530  1.00  0.00     0.031 C 
HETATM   21  C   UNL     1     -43.540 -45.602   9.512  1.00  0.00     0.007 C 
HETATM   22  C   UNL     1     -43.820 -47.087   9.767  1.00  0.00     0.010 C 
HETATM   23  C   UNL     1     -44.699 -47.666   8.659  1.00  0.00     0.011 C 
HETATM   24  C   UNL     1     -42.497 -47.867   9.868  1.00  0.00     0.276 C 
ENDBRANCH  17  18
ENDBRANCH  16  17
ENDBRANCH   4  16
TORSDOF 5
ENDMDL
MODEL 7
REMARK VINA RESULT:      -5.6      2.041      3.119
REMARK  5 active torsions:
REMARK  status: ('A' for Active; 'I' for Inactive)
REMARK    1  A    between atoms: O_2  and  C_3 
REMARK    2  A    between atoms: C_6  and  N_7 
REMARK       I    between atoms: N_7  and  C_8 
REMARK       I    between atoms: C_8  and  N_10 
REMARK    3  A    between atoms: N_10  and  C_11 
REMARK    4  A    between atoms: C_11  and  C_12 
REMARK    5  A    between atoms: C_12  and  N_13 
ROOT
HETATM    1  N   UNL     1     -40.111 -51.417  12.748  1.00  0.00    -0.308 N 
HETATM    2  C   UNL     1     -40.533 -52.680  13.058  1.00  0.00     0.320 C 
HETATM    3  O   UNL     1     -39.722 -53.558  13.327  1.00  0.00    -0.247 OA
HETATM    4  N   UNL     1     -41.891 -52.841  13.154  1.00  0.00    -0.341 N 
HETATM    5  H   UNL     1     -39.173 -51.212  13.066  1.00  0.00     0.170 HD
HETATM    6  H   UNL     1     -42.437 -52.004  13.302  1.00  0.00     0.164 HD
ENDROOT
BRANCH   1   7
HETATM    7  C   UNL     1     -40.870 -50.402  12.153  1.00  0.00     0.051 A 
HETATM    8  C   UNL     1     -42.014 -49.883  12.763  1.00  0.00     0.035 A 
HETATM    9  C   UNL     1     -42.694 -48.835  12.152  1.00  0.00     0.058 A 
HETATM   10  C   UNL     1     -42.190 -48.332  10.965  1.00  0.00     0.141 A 
HETATM   11  N   UNL     1     -41.113 -48.841  10.327  1.00  0.00    -0.345 N 
HETATM   12  C   UNL     1     -40.491 -49.881  10.924  1.00  0.00     0.119 A 
ATOM     13  HN  UNL     1     -40.785 -48.459   9.439  1.00  0.00     0.167 HD
BRANCH  10  14
HETATM   14  O   UNL     1     -42.840 -47.231  10.445  1.00  0.00    -0.341 OA
HETATM   15  C   UNL     1     -43.393 -47.479   9.157  1.00  0.00     0.211 C 
ENDBRANCH  10  14
ENDBRANCH   1   7
BRANCH   4  16
HETATM   16  C   UNL     1     -42.489 -54.104  13.541  1.00  0.00     0.154 C 
BRANCH  16  17
HETATM   17  C   UNL     1     -44.031 -54.116  13.451  1.00  0.00     0.292 C 
BRANCH  17  18
HETATM   18  N   UNL     1     -44.729 -53.962  14.744  1.00  0.00     0.090 N 
HETATM   19  C   UNL     1     -46.192 -53.938  14.562  1.00  0.00     0.272 C 
HETATM   20  C   UNL     1     -46.727 -52.642  13.943  1.00  0.00     0.031 C 
HETATM   21  C   UNL     1     -46.257 -51.414  14.719  1.00  0.00     0.007 C 
HETATM   22  C   UNL     1     -44.738 -51.439  14.922  1.00  0.00     0.010 C 
HETATM   23  C   UNL     1     -44.297 -50.285  15.822  1.00  0.00     0.011 C 
HETATM   24  C   UNL     1     -44.305 -52.787  15.523  1.00  0.00     0.276 C 
ENDBRANCH  17  18
ENDBRANCH  16  17
ENDBRANCH   4  16
TORSDOF 5
ENDMDL
MODEL 8
REMARK VINA RESULT:      -5.6      3.898      5.170
REMARK  5 active torsions:
REMARK  status: ('A' for Active; 'I' for Inactive)
REMARK    1  A    between atoms: O_2  and  C_3 
REMARK    2  A    between atoms: C_6  and  N_7 
REMARK       I    between atoms: N_7  and  C_8 
REMARK       I    between atoms: C_8  and  N_10 
REMARK    3  A    between atoms: N_10  and  C_11 
REMARK    4  A    between atoms: C_11  and  C_12 
REMARK    5  A    between atoms: C_12  and  N_13 
ROOT
HETATM    1  N   UNL     1     -43.032 -52.984  11.875  1.00  0.00    -0.308 N 
HETATM    2  C   UNL     1     -43.757 -53.709  12.780  1.00  0.00     0.320 C 
HETATM    3  O   UNL     1     -44.734 -54.353  12.419  1.00  0.00    -0.247 OA
HETATM    4  N   UNL     1     -43.248 -53.745  14.051  1.00  0.00    -0.341 N 
HETATM    5  H   UNL     1     -43.165 -53.279  10.917  1.00  0.00     0.170 HD
HETATM    6  H   UNL     1     -42.267 -53.523  14.152  1.00  0.00     0.164 HD
ENDROOT
BRANCH   1   7
HETATM    7  C   UNL     1     -42.087 -51.991  12.161  1.00  0.00     0.051 A 
HETATM    8  C   UNL     1     -42.458 -50.750  12.684  1.00  0.00     0.035 A 
HETATM    9  C   UNL     1     -41.470 -49.825  13.004  1.00  0.00     0.058 A 
HETATM   10  C   UNL     1     -40.148 -50.186  12.809  1.00  0.00     0.141 A 
HETATM   11  N   UNL     1     -39.759 -51.360  12.264  1.00  0.00    -0.345 N 
HETATM   12  C   UNL     1     -40.740 -52.227  11.929  1.00  0.00     0.119 A 
ATOM     13  HN  UNL     1     -38.774 -51.581  12.112  1.00  0.00     0.167 HD
BRANCH  10  14
HETATM   14  O   UNL     1     -39.199 -49.277  13.230  1.00  0.00    -0.341 OA
HETATM   15  C   UNL     1     -38.563 -49.670  14.442  1.00  0.00     0.211 C 
ENDBRANCH  10  14
ENDBRANCH   1   7
BRANCH   4  16
HETATM   16  C   UNL     1     -43.866 -54.526  15.104  1.00  0.00     0.154 C 
BRANCH  16  17
HETATM   17  C   UNL     1     -44.401 -53.677  16.278  1.00  0.00     0.292 C 
BRANCH  17  18
HETATM   18  N   UNL     1     -45.855 -53.790  16.513  1.00  0.00     0.090 N 
HETATM   19  C   UNL     1     -46.608 -53.729  15.247  1.00  0.00     0.272 C 
HETATM   20  C   UNL     1     -46.663 -52.333  14.615  1.00  0.00     0.031 C 
HETATM   21  C   UNL     1     -47.179 -51.290  15.604  1.00  0.00     0.007 C 
HETATM   22  C   UNL     1     -46.408 -51.357  16.927  1.00  0.00     0.010 C 
HETATM   23  C   UNL     1     -47.027 -50.413  17.957  1.00  0.00     0.011 C 
HETATM   24  C   UNL     1     -46.394 -52.800  17.460  1.00  0.00     0.276 C 
ENDBRANCH  17  18
ENDBRANCH  16  17
ENDBRANCH   4  16
TORSDOF 5
ENDMDL
MODEL 9
REMARK VINA RESULT:      -5.2      2.405      6.299
REMARK  5 active torsions:
REMARK  status: ('A' for Active; 'I' for Inactive)
REMARK    1  A    between atoms: O_2  and  C_3 
REMARK    2  A    between atoms: C_6  and  N_7 
REMARK       I    between atoms: N_7  and  C_8 
REMARK       I    between atoms: C_8  and  N_10 
REMARK    3  A    between atoms: N_10  and  C_11 
REMARK    4  A    between atoms: C_11  and  C_12 
REMARK    5  A    between atoms: C_12  and  N_13 
ROOT
HETATM    1  N   UNL     1     -41.040 -53.005  13.340  1.00  0.00    -0.308 N 
HETATM    2  C   UNL     1     -40.065 -52.072  13.117  1.00  0.00     0.320 C 
HETATM    3  O   UNL     1     -38.889 -52.340  13.335  1.00  0.00    -0.247 OA
HETATM    4  N   UNL     1     -40.487 -50.903  12.542  1.00  0.00    -0.341 N 
HETATM    5  H   UNL     1     -40.696 -53.954  13.373  1.00  0.00     0.170 HD
HETATM    6  H   UNL     1     -41.371 -50.931  12.054  1.00  0.00     0.164 HD
ENDROOT
BRANCH   1   7
HETATM    7  C   UNL     1     -42.419 -52.773  13.415  1.00  0.00     0.051 A 
HETATM    8  C   UNL     1     -43.025 -52.299  14.581  1.00  0.00     0.035 A 
HETATM    9  C   UNL     1     -44.389 -52.032  14.578  1.00  0.00     0.058 A 
HETATM   10  C   UNL     1     -45.092 -52.227  13.401  1.00  0.00     0.141 A 
HETATM   11  N   UNL     1     -44.544 -52.726  12.270  1.00  0.00    -0.345 N 
HETATM   12  C   UNL     1     -43.225 -53.011  12.311  1.00  0.00     0.119 A 
ATOM     13  HN  UNL     1     -45.100 -52.880  11.429  1.00  0.00     0.167 HD
BRANCH  10  14
HETATM   14  O   UNL     1     -46.421 -51.857  13.416  1.00  0.00    -0.341 OA
HETATM   15  C   UNL     1     -46.840 -51.370  14.686  1.00  0.00     0.211 C 
ENDBRANCH  10  14
ENDBRANCH   1   7
BRANCH   4  16
HETATM   16  C   UNL     1     -39.561 -49.846  12.182  1.00  0.00     0.154 C 
BRANCH  16  17
HETATM   17  C   UNL     1     -40.138 -48.425  12.361  1.00  0.00     0.292 C 
BRANCH  17  18
HETATM   18  N   UNL     1     -40.308 -47.661  11.108  1.00  0.00     0.090 N 
HETATM   19  C   UNL     1     -40.101 -46.218  11.328  1.00  0.00     0.272 C 
HETATM   20  C   UNL     1     -41.243 -45.528  12.083  1.00  0.00     0.031 C 
HETATM   21  C   UNL     1     -42.593 -45.788  11.418  1.00  0.00     0.007 C 
HETATM   22  C   UNL     1     -42.808 -47.286  11.175  1.00  0.00     0.010 C 
HETATM   23  C   UNL     1     -44.092 -47.522  10.380  1.00  0.00     0.011 C 
HETATM   24  C   UNL     1     -41.599 -47.883  10.435  1.00  0.00     0.276 C 
ENDBRANCH  17  18
ENDBRANCH  16  17
ENDBRANCH   4  16
TORSDOF 5
ENDMDL
