MODEL 1
REMARK VINA RESULT:      -4.9      0.000      0.000
REMARK  1 active torsions:
REMARK  status: ('A' for Active; 'I' for Inactive)
REMARK    1  A    between atoms: N_10  and  C_13 
ROOT
HETATM    1  C   UNL     3     -30.383 -63.519  15.553  1.00  0.00     0.070 C 
HETATM    2  C   UNL     3     -28.926 -63.208  15.482  1.00  0.00     0.024 A 
HETATM    3  C   UNL     3     -28.367 -61.956  15.618  1.00  0.00     0.052 A 
HETATM    4  C   UNL     3     -27.015 -62.164  15.470  1.00  0.00     0.027 A 
HETATM    5  C   UNL     3     -25.959 -61.108  15.513  1.00  0.00     0.070 C 
HETATM    6  N   UNL     3     -26.799 -63.479  15.259  1.00  0.00    -0.288 N 
HETATM    7  N   UNL     3     -27.957 -64.124  15.260  1.00  0.00    -0.302 N 
ATOM      8  HN  UNL     3     -28.092 -65.125  15.118  1.00  0.00     0.186 HD
ENDROOT
BRANCH   6   9
HETATM    9  C   UNL     3     -25.483 -64.093  15.046  1.00  0.00     0.164 C 
HETATM   10  C   UNL     3     -25.387 -65.298  14.127  1.00  0.00     0.298 C 
HETATM   11  N   UNL     3     -24.617 -66.055  15.124  1.00  0.00     0.087 N 
HETATM   12  C   UNL     3     -25.053 -65.071  16.120  1.00  0.00     0.298 C 
HETATM   13  H   UNL     3     -23.600 -65.873  14.940  1.00  0.00     0.316 HD
ENDBRANCH   6   9
TORSDOF 1
ENDMDL
MODEL 2
REMARK VINA RESULT:      -4.6     21.421     23.283
REMARK  1 active torsions:
REMARK  status: ('A' for Active; 'I' for Inactive)
REMARK    1  A    between atoms: N_10  and  C_13 
ROOT
HETATM    1  C   UNL     3     -39.948 -49.518  11.418  1.00  0.00     0.070 C 
HETATM    2  C   UNL     3     -40.805 -48.397  10.935  1.00  0.00     0.024 A 
HETATM    3  C   UNL     3     -40.761 -47.099  11.396  1.00  0.00     0.052 A 
HETATM    4  C   UNL     3     -41.728 -46.442  10.670  1.00  0.00     0.027 A 
HETATM    5  C   UNL     3     -42.094 -45.000  10.809  1.00  0.00     0.070 C 
HETATM    6  N   UNL     3     -42.305 -47.319   9.824  1.00  0.00    -0.288 N 
HETATM    7  N   UNL     3     -41.754 -48.514   9.980  1.00  0.00    -0.302 N 
ATOM      8  HN  UNL     3     -42.001 -49.364   9.474  1.00  0.00     0.186 HD
ENDROOT
BRANCH   6   9
HETATM    9  C   UNL     3     -43.389 -46.997   8.888  1.00  0.00     0.164 C 
HETATM   10  C   UNL     3     -44.783 -47.518   9.187  1.00  0.00     0.298 C 
HETATM   11  N   UNL     3     -44.930 -48.046   7.824  1.00  0.00     0.087 N 
HETATM   12  C   UNL     3     -43.478 -47.904   7.677  1.00  0.00     0.298 C 
HETATM   13  H   UNL     3     -45.371 -47.292   7.241  1.00  0.00     0.316 HD
ENDBRANCH   6   9
TORSDOF 1
ENDMDL
MODEL 3
REMARK VINA RESULT:      -4.4     18.995     21.168
REMARK  1 active torsions:
REMARK  status: ('A' for Active; 'I' for Inactive)
REMARK    1  A    between atoms: N_10  and  C_13 
ROOT
HETATM    1  C   UNL     3     -47.469 -51.724  11.231  1.00  0.00     0.070 C 
HETATM    2  C   UNL     3     -46.437 -51.824  12.305  1.00  0.00     0.024 A 
HETATM    3  C   UNL     3     -46.599 -51.414  13.610  1.00  0.00     0.052 A 
HETATM    4  C   UNL     3     -45.393 -51.693  14.211  1.00  0.00     0.027 A 
HETATM    5  C   UNL     3     -45.042 -51.416  15.637  1.00  0.00     0.070 C 
HETATM    6  N   UNL     3     -44.569 -52.242  13.295  1.00  0.00    -0.288 N 
HETATM    7  N   UNL     3     -45.194 -52.322  12.128  1.00  0.00    -0.302 N 
ATOM      8  HN  UNL     3     -44.807 -52.690  11.260  1.00  0.00     0.186 HD
ENDROOT
BRANCH   6   9
HETATM    9  C   UNL     3     -43.189 -52.669  13.552  1.00  0.00     0.164 C 
HETATM   10  C   UNL     3     -42.168 -52.530  12.436  1.00  0.00     0.298 C 
HETATM   11  N   UNL     3     -41.713 -53.916  12.615  1.00  0.00     0.087 N 
HETATM   12  C   UNL     3     -42.937 -54.154  13.387  1.00  0.00     0.298 C 
HETATM   13  H   UNL     3     -40.919 -53.898  13.301  1.00  0.00     0.316 HD
ENDBRANCH   6   9
TORSDOF 1
ENDMDL
MODEL 4
REMARK VINA RESULT:      -4.3     21.516     23.413
REMARK  1 active torsions:
REMARK  status: ('A' for Active; 'I' for Inactive)
REMARK    1  A    between atoms: N_10  and  C_13 
ROOT
HETATM    1  C   UNL     3     -39.660 -44.508  10.689  1.00  0.00     0.070 C 
HETATM    2  C   UNL     3     -40.443 -45.778  10.643  1.00  0.00     0.024 A 
HETATM    3  C   UNL     3     -40.155 -46.921  11.355  1.00  0.00     0.052 A 
HETATM    4  C   UNL     3     -41.134 -47.814  10.983  1.00  0.00     0.027 A 
HETATM    5  C   UNL     3     -41.259 -49.224  11.463  1.00  0.00     0.070 C 
HETATM    6  N   UNL     3     -41.953 -47.214  10.095  1.00  0.00    -0.288 N 
HETATM    7  N   UNL     3     -41.538 -45.974   9.877  1.00  0.00    -0.302 N 
ATOM      8  HN  UNL     3     -41.966 -45.296   9.247  1.00  0.00     0.186 HD
ENDROOT
BRANCH   6   9
HETATM    9  C   UNL     3     -43.114 -47.848   9.459  1.00  0.00     0.164 C 
HETATM   10  C   UNL     3     -43.508 -47.401   8.062  1.00  0.00     0.298 C 
HETATM   11  N   UNL     3     -44.912 -47.228   8.462  1.00  0.00     0.087 N 
HETATM   12  C   UNL     3     -44.456 -47.267   9.856  1.00  0.00     0.298 C 
HETATM   13  H   UNL     3     -45.405 -48.136   8.277  1.00  0.00     0.316 HD
ENDBRANCH   6   9
TORSDOF 1
ENDMDL
MODEL 5
REMARK VINA RESULT:      -4.0     18.654     20.267
REMARK  1 active torsions:
REMARK  status: ('A' for Active; 'I' for Inactive)
REMARK    1  A    between atoms: N_10  and  C_13 
ROOT
HETATM    1  C   UNL     3     -46.832 -51.947  12.422  1.00  0.00     0.070 C 
HETATM    2  C   UNL     3     -45.454 -52.371  12.808  1.00  0.00     0.024 A 
HETATM    3  C   UNL     3     -45.137 -53.513  13.510  1.00  0.00     0.052 A 
HETATM    4  C   UNL     3     -43.766 -53.471  13.634  1.00  0.00     0.027 A 
HETATM    5  C   UNL     3     -42.922 -54.482  14.339  1.00  0.00     0.070 C 
HETATM    6  N   UNL     3     -43.311 -52.355  13.029  1.00  0.00    -0.288 N 
HETATM    7  N   UNL     3     -44.331 -51.675  12.527  1.00  0.00    -0.302 N 
ATOM      8  HN  UNL     3     -44.278 -50.790  12.022  1.00  0.00     0.186 HD
ENDROOT
BRANCH   6   9
HETATM    9  C   UNL     3     -41.901 -51.953  12.956  1.00  0.00     0.164 C 
HETATM   10  C   UNL     3     -41.564 -50.606  12.341  1.00  0.00     0.298 C 
HETATM   11  N   UNL     3     -40.539 -51.206  11.474  1.00  0.00     0.087 N 
HETATM   12  C   UNL     3     -41.137 -52.512  11.773  1.00  0.00     0.298 C 
HETATM   13  H   UNL     3     -39.627 -51.163  11.991  1.00  0.00     0.316 HD
ENDBRANCH   6   9
TORSDOF 1
ENDMDL
MODEL 6
REMARK VINA RESULT:      -4.0     19.123     21.386
REMARK  1 active torsions:
REMARK  status: ('A' for Active; 'I' for Inactive)
REMARK    1  A    between atoms: N_10  and  C_13 
ROOT
HETATM    1  C   UNL     3     -46.141 -51.026  16.821  1.00  0.00     0.070 C 
HETATM    2  C   UNL     3     -45.941 -51.529  15.430  1.00  0.00     0.024 A 
HETATM    3  C   UNL     3     -46.782 -51.292  14.365  1.00  0.00     0.052 A 
HETATM    4  C   UNL     3     -46.198 -51.957  13.311  1.00  0.00     0.027 A 
HETATM    5  C   UNL     3     -46.736 -52.028  11.919  1.00  0.00     0.070 C 
HETATM    6  N   UNL     3     -45.068 -52.551  13.745  1.00  0.00    -0.288 N 
HETATM    7  N   UNL     3     -44.904 -52.301  15.037  1.00  0.00    -0.302 N 
ATOM      8  HN  UNL     3     -44.138 -52.631  15.623  1.00  0.00     0.186 HD
ENDROOT
BRANCH   6   9
HETATM    9  C   UNL     3     -44.171 -53.363  12.915  1.00  0.00     0.164 C 
HETATM   10  C   UNL     3     -43.139 -54.237  13.605  1.00  0.00     0.298 C 
HETATM   11  N   UNL     3     -42.062 -53.725  12.745  1.00  0.00     0.087 N 
HETATM   12  C   UNL     3     -42.961 -52.627  12.374  1.00  0.00     0.298 C 
HETATM   13  H   UNL     3     -41.997 -54.361  11.912  1.00  0.00     0.316 HD
ENDBRANCH   6   9
TORSDOF 1
ENDMDL
MODEL 7
REMARK VINA RESULT:      -3.9     19.110     20.955
REMARK  1 active torsions:
REMARK  status: ('A' for Active; 'I' for Inactive)
REMARK    1  A    between atoms: N_10  and  C_13 
ROOT
HETATM    1  C   UNL     3     -37.423 -50.543  11.656  1.00  0.00     0.070 C 
HETATM    2  C   UNL     3     -38.203 -49.353  12.107  1.00  0.00     0.024 A 
HETATM    3  C   UNL     3     -38.079 -48.732  13.330  1.00  0.00     0.052 A 
HETATM    4  C   UNL     3     -38.997 -47.707  13.291  1.00  0.00     0.027 A 
HETATM    5  C   UNL     3     -39.272 -46.738  14.395  1.00  0.00     0.070 C 
HETATM    6  N   UNL     3     -39.624 -47.732  12.097  1.00  0.00    -0.288 N 
HETATM    7  N   UNL     3     -39.151 -48.734  11.369  1.00  0.00    -0.302 N 
ATOM      8  HN  UNL     3     -39.448 -48.990  10.428  1.00  0.00     0.186 HD
ENDROOT
BRANCH   6   9
HETATM    9  C   UNL     3     -40.678 -46.800  11.679  1.00  0.00     0.164 C 
HETATM   10  C   UNL     3     -41.643 -47.239  10.592  1.00  0.00     0.298 C 
HETATM   11  N   UNL     3     -41.443 -45.989   9.845  1.00  0.00     0.087 N 
HETATM   12  C   UNL     3     -40.247 -45.762  10.663  1.00  0.00     0.298 C 
HETATM   13  H   UNL     3     -42.171 -45.308  10.172  1.00  0.00     0.316 HD
ENDBRANCH   6   9
TORSDOF 1
ENDMDL
MODEL 8
REMARK VINA RESULT:      -3.9     17.452     18.984
REMARK  1 active torsions:
REMARK  status: ('A' for Active; 'I' for Inactive)
REMARK    1  A    between atoms: N_10  and  C_13 
ROOT
HETATM    1  C   UNL     3     -45.497 -55.235  13.847  1.00  0.00     0.070 C 
HETATM    2  C   UNL     3     -44.131 -54.656  14.012  1.00  0.00     0.024 A 
HETATM    3  C   UNL     3     -43.167 -55.117  14.882  1.00  0.00     0.052 A 
HETATM    4  C   UNL     3     -42.097 -54.274  14.687  1.00  0.00     0.027 A 
HETATM    5  C   UNL     3     -40.793 -54.336  15.414  1.00  0.00     0.070 C 
HETATM    6  N   UNL     3     -42.425 -53.367  13.744  1.00  0.00    -0.288 N 
HETATM    7  N   UNL     3     -43.664 -53.588  13.329  1.00  0.00    -0.302 N 
ATOM      8  HN  UNL     3     -44.171 -53.051  12.626  1.00  0.00     0.186 HD
ENDROOT
BRANCH   6   9
HETATM    9  C   UNL     3     -41.546 -52.293  13.267  1.00  0.00     0.164 C 
HETATM   10  C   UNL     3     -42.177 -51.085  12.596  1.00  0.00     0.298 C 
HETATM   11  N   UNL     3     -41.248 -51.172  11.461  1.00  0.00     0.087 N 
HETATM   12  C   UNL     3     -40.926 -52.532  11.905  1.00  0.00     0.298 C 
HETATM   13  H   UNL     3     -40.418 -50.572  11.689  1.00  0.00     0.316 HD
ENDBRANCH   6   9
TORSDOF 1
ENDMDL
MODEL 9
REMARK VINA RESULT:      -3.8     19.420     21.411
REMARK  1 active torsions:
REMARK  status: ('A' for Active; 'I' for Inactive)
REMARK    1  A    between atoms: N_10  and  C_13 
ROOT
HETATM    1  C   UNL     3     -37.682 -49.941  11.495  1.00  0.00     0.070 C 
HETATM    2  C   UNL     3     -39.131 -49.609  11.627  1.00  0.00     0.024 A 
HETATM    3  C   UNL     3     -40.074 -50.384  12.266  1.00  0.00     0.052 A 
HETATM    4  C   UNL     3     -41.250 -49.685  12.120  1.00  0.00     0.027 A 
HETATM    5  C   UNL     3     -42.590 -50.114  12.624  1.00  0.00     0.070 C 
HETATM    6  N   UNL     3     -41.000 -48.554  11.429  1.00  0.00    -0.288 N 
HETATM    7  N   UNL     3     -39.712 -48.500  11.119  1.00  0.00    -0.302 N 
ATOM      8  HN  UNL     3     -39.247 -47.760  10.594  1.00  0.00     0.186 HD
ENDROOT
BRANCH   6   9
HETATM    9  C   UNL     3     -42.005 -47.549  11.064  1.00  0.00     0.164 C 
HETATM   10  C   UNL     3     -42.688 -47.665   9.713  1.00  0.00     0.298 C 
HETATM   11  N   UNL     3     -42.423 -46.252   9.405  1.00  0.00     0.087 N 
HETATM   12  C   UNL     3     -41.444 -46.260  10.498  1.00  0.00     0.298 C 
HETATM   13  H   UNL     3     -43.249 -45.698   9.740  1.00  0.00     0.316 HD
ENDBRANCH   6   9
TORSDOF 1
ENDMDL
