MODEL 1
REMARK VINA RESULT:      -6.8      0.000      0.000
REMARK  5 active torsions:
REMARK  status: ('A' for Active; 'I' for Inactive)
REMARK    1  A    between atoms: C_8  and  N_9 
REMARK       I    between atoms: N_9  and  C_10 
REMARK       I    between atoms: C_10  and  N_12 
REMARK    2  A    between atoms: N_12  and  C_13 
REMARK    3  A    between atoms: C_13  and  C_14 
REMARK    4  A    between atoms: C_14  and  C_15 
REMARK    5  A    between atoms: C_15  and  N_16 
ROOT
HETATM    1  N   UNL     1     -43.065 -52.984  12.542  1.00  0.00    -0.295 N 
HETATM    2  C   UNL     1     -41.956 -52.291  12.138  1.00  0.00     0.321 C 
HETATM    3  O   UNL     1     -40.928 -52.893  11.834  1.00  0.00    -0.247 OA
HETATM    4  N   UNL     1     -42.065 -50.935  12.105  1.00  0.00    -0.343 N 
HETATM    5  H   UNL     1     -42.930 -53.986  12.556  1.00  0.00     0.172 HD
HETATM    6  H   UNL     1     -42.988 -50.578  12.348  1.00  0.00     0.164 HD
ENDROOT
BRANCH   1   7
HETATM    7  C   UNL     1     -44.313 -52.476  12.915  1.00  0.00     0.109 A 
HETATM    8  N   UNL     1     -45.269 -52.357  11.972  1.00  0.00    -0.346 N 
HETATM    9  C   UNL     1     -46.478 -51.874  12.327  1.00  0.00     0.007 A 
ATOM     10  HN  UNL     1     -45.082 -52.630  11.007  1.00  0.00     0.167 HD
HETATM   11  C   UNL     1     -46.778 -51.483  13.616  1.00  0.00     0.031 A 
HETATM   12  C   UNL     1     -47.481 -51.766  11.228  1.00  0.00     0.068 C 
HETATM   13  C   UNL     1     -45.794 -51.598  14.596  1.00  0.00    -0.057 A 
HETATM   14  C   UNL     1     -46.090 -51.180  16.004  1.00  0.00     0.048 C 
HETATM   15  C   UNL     1     -44.540 -52.108  14.237  1.00  0.00     0.055 A 
ENDBRANCH   1   7
BRANCH   4  16
HETATM   16  C   UNL     1     -41.023 -50.031  11.691  1.00  0.00     0.126 C 
BRANCH  16  17
HETATM   17  C   UNL     1     -41.518 -48.961  10.712  1.00  0.00     0.039 C 
BRANCH  17  18
HETATM   18  C   UNL     1     -42.497 -47.959  11.340  1.00  0.00     0.127 C 
BRANCH  18  19
HETATM   19  N   UNL     1     -43.284 -47.254  10.331  1.00  0.00    -0.352 N 
HETATM   20  C   UNL     1     -44.611 -47.674   9.971  1.00  0.00     0.126 C 
HETATM   21  C   UNL     1     -45.115 -46.639   8.981  1.00  0.00     0.029 C 
HETATM   22  C   UNL     1     -44.105 -45.505   9.005  1.00  0.00     0.104 C 
HETATM   23  C   UNL     1     -42.926 -46.055   9.744  1.00  0.00     0.219 C 
HETATM   24  O   UNL     1     -41.855 -45.477   9.832  1.00  0.00    -0.273 OA
ENDBRANCH  18  19
ENDBRANCH  17  18
ENDBRANCH  16  17
ENDBRANCH   4  16
TORSDOF 5
ENDMDL
MODEL 2
REMARK VINA RESULT:      -6.5      2.048      6.283
REMARK  5 active torsions:
REMARK  status: ('A' for Active; 'I' for Inactive)
REMARK    1  A    between atoms: C_8  and  N_9 
REMARK       I    between atoms: N_9  and  C_10 
REMARK       I    between atoms: C_10  and  N_12 
REMARK    2  A    between atoms: N_12  and  C_13 
REMARK    3  A    between atoms: C_13  and  C_14 
REMARK    4  A    between atoms: C_14  and  C_15 
REMARK    5  A    between atoms: C_15  and  N_16 
ROOT
HETATM    1  N   UNL     1     -40.191 -48.970  11.029  1.00  0.00    -0.295 N 
HETATM    2  C   UNL     1     -40.364 -50.230  11.534  1.00  0.00     0.321 C 
HETATM    3  O   UNL     1     -39.388 -50.936  11.779  1.00  0.00    -0.247 OA
HETATM    4  N   UNL     1     -41.648 -50.635  11.732  1.00  0.00    -0.343 N 
HETATM    5  H   UNL     1     -39.221 -48.721  10.894  1.00  0.00     0.172 HD
HETATM    6  H   UNL     1     -42.352 -49.931  11.519  1.00  0.00     0.164 HD
ENDROOT
BRANCH   1   7
HETATM    7  C   UNL     1     -41.172 -48.029  10.700  1.00  0.00     0.109 A 
HETATM    8  N   UNL     1     -41.948 -48.257   9.622  1.00  0.00    -0.346 N 
HETATM    9  C   UNL     1     -42.901 -47.356   9.303  1.00  0.00     0.007 A 
ATOM     10  HN  UNL     1     -41.818 -49.096   9.057  1.00  0.00     0.167 HD
HETATM   11  C   UNL     1     -43.112 -46.202  10.029  1.00  0.00     0.031 A 
HETATM   12  C   UNL     1     -43.715 -47.674   8.094  1.00  0.00     0.068 C 
HETATM   13  C   UNL     1     -42.311 -45.956  11.142  1.00  0.00    -0.057 A 
HETATM   14  C   UNL     1     -42.515 -44.710  11.949  1.00  0.00     0.048 C 
HETATM   15  C   UNL     1     -41.326 -46.891  11.485  1.00  0.00     0.055 A 
ENDBRANCH   1   7
BRANCH   4  16
HETATM   16  C   UNL     1     -42.039 -51.912  12.273  1.00  0.00     0.126 C 
BRANCH  16  17
HETATM   17  C   UNL     1     -42.386 -51.846  13.764  1.00  0.00     0.039 C 
BRANCH  17  18
HETATM   18  C   UNL     1     -43.364 -52.940  14.216  1.00  0.00     0.127 C 
BRANCH  18  19
HETATM   19  N   UNL     1     -44.744 -52.462  14.251  1.00  0.00    -0.352 N 
HETATM   20  C   UNL     1     -45.267 -51.726  15.370  1.00  0.00     0.126 C 
HETATM   21  C   UNL     1     -46.680 -51.332  14.979  1.00  0.00     0.029 C 
HETATM   22  C   UNL     1     -46.819 -51.670  13.504  1.00  0.00     0.104 C 
HETATM   23  C   UNL     1     -45.627 -52.517  13.188  1.00  0.00     0.219 C 
HETATM   24  O   UNL     1     -45.476 -53.103  12.129  1.00  0.00    -0.273 OA
ENDBRANCH  18  19
ENDBRANCH  17  18
ENDBRANCH  16  17
ENDBRANCH   4  16
TORSDOF 5
ENDMDL
MODEL 3
REMARK VINA RESULT:      -6.4      1.150      1.593
REMARK  5 active torsions:
REMARK  status: ('A' for Active; 'I' for Inactive)
REMARK    1  A    between atoms: C_8  and  N_9 
REMARK       I    between atoms: N_9  and  C_10 
REMARK       I    between atoms: C_10  and  N_12 
REMARK    2  A    between atoms: N_12  and  C_13 
REMARK    3  A    between atoms: C_13  and  C_14 
REMARK    4  A    between atoms: C_14  and  C_15 
REMARK    5  A    between atoms: C_15  and  N_16 
ROOT
HETATM    1  N   UNL     1     -42.829 -53.085  12.676  1.00  0.00    -0.295 N 
HETATM    2  C   UNL     1     -41.743 -52.452  12.136  1.00  0.00     0.321 C 
HETATM    3  O   UNL     1     -40.721 -53.087  11.883  1.00  0.00    -0.247 OA
HETATM    4  N   UNL     1     -41.866 -51.115  11.913  1.00  0.00    -0.343 N 
HETATM    5  H   UNL     1     -42.684 -54.073  12.829  1.00  0.00     0.172 HD
HETATM    6  H   UNL     1     -42.783 -50.731  12.137  1.00  0.00     0.164 HD
ENDROOT
BRANCH   1   7
HETATM    7  C   UNL     1     -44.069 -52.534  13.019  1.00  0.00     0.109 A 
HETATM    8  N   UNL     1     -45.027 -52.464  12.074  1.00  0.00    -0.346 N 
HETATM    9  C   UNL     1     -46.226 -51.939  12.399  1.00  0.00     0.007 A 
ATOM     10  HN  UNL     1     -44.848 -52.802  11.128  1.00  0.00     0.167 HD
HETATM   11  C   UNL     1     -46.515 -51.459  13.660  1.00  0.00     0.031 A 
HETATM   12  C   UNL     1     -47.233 -51.890  11.299  1.00  0.00     0.068 C 
HETATM   13  C   UNL     1     -45.528 -51.524  14.642  1.00  0.00    -0.057 A 
HETATM   14  C   UNL     1     -45.812 -51.009  16.021  1.00  0.00     0.048 C 
HETATM   15  C   UNL     1     -44.284 -52.076  14.314  1.00  0.00     0.055 A 
ENDBRANCH   1   7
BRANCH   4  16
HETATM   16  C   UNL     1     -40.849 -50.275  11.334  1.00  0.00     0.126 C 
BRANCH  16  17
HETATM   17  C   UNL     1     -41.043 -48.792  11.665  1.00  0.00     0.039 C 
BRANCH  17  18
HETATM   18  C   UNL     1     -41.986 -48.064  10.695  1.00  0.00     0.127 C 
BRANCH  18  19
HETATM   19  N   UNL     1     -42.258 -46.693  11.118  1.00  0.00    -0.352 N 
HETATM   20  C   UNL     1     -42.074 -46.266  12.479  1.00  0.00     0.126 C 
HETATM   21  C   UNL     1     -42.362 -44.775  12.484  1.00  0.00     0.029 C 
HETATM   22  C   UNL     1     -42.468 -44.360  11.026  1.00  0.00     0.104 C 
HETATM   23  C   UNL     1     -42.556 -45.646  10.265  1.00  0.00     0.219 C 
HETATM   24  O   UNL     1     -42.803 -45.709   9.073  1.00  0.00    -0.273 OA
ENDBRANCH  18  19
ENDBRANCH  17  18
ENDBRANCH  16  17
ENDBRANCH   4  16
TORSDOF 5
ENDMDL
MODEL 4
REMARK VINA RESULT:      -6.4      2.714      4.224
REMARK  5 active torsions:
REMARK  status: ('A' for Active; 'I' for Inactive)
REMARK    1  A    between atoms: C_8  and  N_9 
REMARK       I    between atoms: N_9  and  C_10 
REMARK       I    between atoms: C_10  and  N_12 
REMARK    2  A    between atoms: N_12  and  C_13 
REMARK    3  A    between atoms: C_13  and  C_14 
REMARK    4  A    between atoms: C_14  and  C_15 
REMARK    5  A    between atoms: C_15  and  N_16 
ROOT
HETATM    1  N   UNL     1     -42.891 -52.794  12.875  1.00  0.00    -0.295 N 
HETATM    2  C   UNL     1     -41.861 -52.113  12.285  1.00  0.00     0.321 C 
HETATM    3  O   UNL     1     -40.787 -52.677  12.080  1.00  0.00    -0.247 OA
HETATM    4  N   UNL     1     -42.096 -50.813  11.961  1.00  0.00    -0.343 N 
HETATM    5  H   UNL     1     -42.663 -53.751  13.103  1.00  0.00     0.172 HD
HETATM    6  H   UNL     1     -43.043 -50.493  12.156  1.00  0.00     0.164 HD
ENDROOT
BRANCH   1   7
HETATM    7  C   UNL     1     -44.174 -52.325  13.177  1.00  0.00     0.109 A 
HETATM    8  N   UNL     1     -45.090 -52.272  12.189  1.00  0.00    -0.346 N 
HETATM    9  C   UNL     1     -46.331 -51.827  12.474  1.00  0.00     0.007 A 
ATOM     10  HN  UNL     1     -44.848 -52.563  11.241  1.00  0.00     0.167 HD
HETATM   11  C   UNL     1     -46.705 -51.413  13.736  1.00  0.00     0.031 A 
HETATM   12  C   UNL     1     -47.286 -51.790  11.329  1.00  0.00     0.068 C 
HETATM   13  C   UNL     1     -45.763 -51.461  14.762  1.00  0.00    -0.057 A 
HETATM   14  C   UNL     1     -46.140 -51.017  16.143  1.00  0.00     0.048 C 
HETATM   15  C   UNL     1     -44.476 -51.931  14.475  1.00  0.00     0.055 A 
ENDBRANCH   1   7
BRANCH   4  16
HETATM   16  C   UNL     1     -41.151 -49.937  11.317  1.00  0.00     0.126 C 
BRANCH  16  17
HETATM   17  C   UNL     1     -40.988 -48.599  12.046  1.00  0.00     0.039 C 
BRANCH  17  18
HETATM   18  C   UNL     1     -39.526 -48.152  12.192  1.00  0.00     0.127 C 
BRANCH  18  19
HETATM   19  N   UNL     1     -38.685 -49.202  12.761  1.00  0.00    -0.352 N 
HETATM   20  C   UNL     1     -38.889 -49.702  14.094  1.00  0.00     0.126 C 
HETATM   21  C   UNL     1     -37.892 -50.834  14.264  1.00  0.00     0.029 C 
HETATM   22  C   UNL     1     -37.307 -51.093  12.886  1.00  0.00     0.104 C 
HETATM   23  C   UNL     1     -37.737 -49.923  12.059  1.00  0.00     0.219 C 
HETATM   24  O   UNL     1     -37.328 -49.707  10.930  1.00  0.00    -0.273 OA
ENDBRANCH  18  19
ENDBRANCH  17  18
ENDBRANCH  16  17
ENDBRANCH   4  16
TORSDOF 5
ENDMDL
MODEL 5
REMARK VINA RESULT:      -6.2      1.691      2.427
REMARK  5 active torsions:
REMARK  status: ('A' for Active; 'I' for Inactive)
REMARK    1  A    between atoms: C_8  and  N_9 
REMARK       I    between atoms: N_9  and  C_10 
REMARK       I    between atoms: C_10  and  N_12 
REMARK    2  A    between atoms: N_12  and  C_13 
REMARK    3  A    between atoms: C_13  and  C_14 
REMARK    4  A    between atoms: C_14  and  C_15 
REMARK    5  A    between atoms: C_15  and  N_16 
ROOT
HETATM    1  N   UNL     1     -41.406 -51.956  11.634  1.00  0.00    -0.295 N 
HETATM    2  C   UNL     1     -40.908 -50.695  11.817  1.00  0.00     0.321 C 
HETATM    3  O   UNL     1     -40.054 -50.252  11.050  1.00  0.00    -0.247 OA
HETATM    4  N   UNL     1     -41.399 -49.993  12.874  1.00  0.00    -0.343 N 
HETATM    5  H   UNL     1     -41.004 -52.437  10.841  1.00  0.00     0.172 HD
HETATM    6  H   UNL     1     -42.127 -50.474  13.400  1.00  0.00     0.164 HD
ENDROOT
BRANCH   1   7
HETATM    7  C   UNL     1     -42.377 -52.619  12.392  1.00  0.00     0.109 A 
HETATM    8  N   UNL     1     -43.675 -52.327  12.176  1.00  0.00    -0.346 N 
HETATM    9  C   UNL     1     -44.616 -52.968  12.899  1.00  0.00     0.007 A 
ATOM     10  HN  UNL     1     -43.941 -51.633  11.477  1.00  0.00     0.167 HD
HETATM   11  C   UNL     1     -44.309 -53.907  13.862  1.00  0.00     0.031 A 
HETATM   12  C   UNL     1     -46.029 -52.586  12.607  1.00  0.00     0.068 C 
HETATM   13  C   UNL     1     -42.969 -54.211  14.095  1.00  0.00    -0.057 A 
HETATM   14  C   UNL     1     -42.605 -55.226  15.136  1.00  0.00     0.048 C 
HETATM   15  C   UNL     1     -41.987 -53.557  13.341  1.00  0.00     0.055 A 
ENDBRANCH   1   7
BRANCH   4  16
HETATM   16  C   UNL     1     -41.019 -48.648  13.223  1.00  0.00     0.126 C 
BRANCH  16  17
HETATM   17  C   UNL     1     -41.947 -47.591  12.615  1.00  0.00     0.039 C 
BRANCH  17  18
HETATM   18  C   UNL     1     -41.319 -46.826  11.441  1.00  0.00     0.127 C 
BRANCH  18  19
HETATM   19  N   UNL     1     -42.248 -46.678  10.323  1.00  0.00    -0.352 N 
HETATM   20  C   UNL     1     -42.714 -47.808   9.565  1.00  0.00     0.126 C 
HETATM   21  C   UNL     1     -43.723 -47.251   8.577  1.00  0.00     0.029 C 
HETATM   22  C   UNL     1     -43.972 -45.811   8.992  1.00  0.00     0.104 C 
HETATM   23  C   UNL     1     -42.888 -45.502   9.977  1.00  0.00     0.219 C 
HETATM   24  O   UNL     1     -42.674 -44.385  10.417  1.00  0.00    -0.273 OA
ENDBRANCH  18  19
ENDBRANCH  17  18
ENDBRANCH  16  17
ENDBRANCH   4  16
TORSDOF 5
ENDMDL
MODEL 6
REMARK VINA RESULT:      -6.1      3.661      7.287
REMARK  5 active torsions:
REMARK  status: ('A' for Active; 'I' for Inactive)
REMARK    1  A    between atoms: C_8  and  N_9 
REMARK       I    between atoms: N_9  and  C_10 
REMARK       I    between atoms: C_10  and  N_12 
REMARK    2  A    between atoms: N_12  and  C_13 
REMARK    3  A    between atoms: C_13  and  C_14 
REMARK    4  A    between atoms: C_14  and  C_15 
REMARK    5  A    between atoms: C_15  and  N_16 
ROOT
HETATM    1  N   UNL     1     -43.537 -53.037  11.965  1.00  0.00    -0.295 N 
HETATM    2  C   UNL     1     -44.724 -52.717  12.567  1.00  0.00     0.321 C 
HETATM    3  O   UNL     1     -45.769 -53.240  12.185  1.00  0.00    -0.247 OA
HETATM    4  N   UNL     1     -44.669 -51.807  13.576  1.00  0.00    -0.343 N 
HETATM    5  H   UNL     1     -43.633 -53.711  11.218  1.00  0.00     0.172 HD
HETATM    6  H   UNL     1     -43.729 -51.487  13.807  1.00  0.00     0.164 HD
ENDROOT
BRANCH   1   7
HETATM    7  C   UNL     1     -42.258 -52.555  12.266  1.00  0.00     0.109 A 
HETATM    8  N   UNL     1     -41.871 -51.379  11.733  1.00  0.00    -0.346 N 
HETATM    9  C   UNL     1     -40.642 -50.905  12.025  1.00  0.00     0.007 A 
ATOM     10  HN  UNL     1     -42.497 -50.855  11.121  1.00  0.00     0.167 HD
HETATM   11  C   UNL     1     -39.755 -51.578  12.839  1.00  0.00     0.031 A 
HETATM   12  C   UNL     1     -40.284 -49.601  11.393  1.00  0.00     0.068 C 
HETATM   13  C   UNL     1     -40.146 -52.797  13.390  1.00  0.00    -0.057 A 
HETATM   14  C   UNL     1     -39.203 -53.551  14.278  1.00  0.00     0.048 C 
HETATM   15  C   UNL     1     -41.424 -53.290  13.100  1.00  0.00     0.055 A 
ENDBRANCH   1   7
BRANCH   4  16
HETATM   16  C   UNL     1     -45.800 -51.355  14.346  1.00  0.00     0.126 C 
BRANCH  16  17
HETATM   17  C   UNL     1     -45.663 -51.663  15.841  1.00  0.00     0.039 C 
BRANCH  17  18
HETATM   18  C   UNL     1     -45.582 -53.164  16.154  1.00  0.00     0.127 C 
BRANCH  18  19
HETATM   19  N   UNL     1     -44.202 -53.637  16.225  1.00  0.00    -0.352 N 
HETATM   20  C   UNL     1     -43.247 -53.066  17.136  1.00  0.00     0.126 C 
HETATM   21  C   UNL     1     -41.981 -53.888  16.974  1.00  0.00     0.029 C 
HETATM   22  C   UNL     1     -42.362 -55.085  16.119  1.00  0.00     0.104 C 
HETATM   23  C   UNL     1     -43.713 -54.751  15.568  1.00  0.00     0.219 C 
HETATM   24  O   UNL     1     -44.276 -55.414  14.713  1.00  0.00    -0.273 OA
ENDBRANCH  18  19
ENDBRANCH  17  18
ENDBRANCH  16  17
ENDBRANCH   4  16
TORSDOF 5
ENDMDL
MODEL 7
REMARK VINA RESULT:      -6.0      2.443      6.931
REMARK  5 active torsions:
REMARK  status: ('A' for Active; 'I' for Inactive)
REMARK    1  A    between atoms: C_8  and  N_9 
REMARK       I    between atoms: N_9  and  C_10 
REMARK       I    between atoms: C_10  and  N_12 
REMARK    2  A    between atoms: N_12  and  C_13 
REMARK    3  A    between atoms: C_13  and  C_14 
REMARK    4  A    between atoms: C_14  and  C_15 
REMARK    5  A    between atoms: C_15  and  N_16 
ROOT
HETATM    1  N   UNL     1     -40.489 -49.908  10.900  1.00  0.00    -0.295 N 
HETATM    2  C   UNL     1     -40.380 -50.663  12.036  1.00  0.00     0.321 C 
HETATM    3  O   UNL     1     -39.816 -51.756  11.998  1.00  0.00    -0.247 OA
HETATM    4  N   UNL     1     -40.926 -50.143  13.168  1.00  0.00    -0.343 N 
HETATM    5  H   UNL     1     -40.075 -50.342  10.086  1.00  0.00     0.172 HD
HETATM    6  H   UNL     1     -41.327 -49.213  13.056  1.00  0.00     0.164 HD
ENDROOT
BRANCH   1   7
HETATM    7  C   UNL     1     -41.083 -48.650  10.753  1.00  0.00     0.109 A 
HETATM    8  N   UNL     1     -42.376 -48.587  10.376  1.00  0.00    -0.346 N 
HETATM    9  C   UNL     1     -42.956 -47.377  10.239  1.00  0.00     0.007 A 
ATOM     10  HN  UNL     1     -42.906 -49.440  10.199  1.00  0.00     0.167 HD
HETATM   11  C   UNL     1     -42.281 -46.194  10.458  1.00  0.00     0.031 A 
HETATM   12  C   UNL     1     -44.386 -47.389   9.814  1.00  0.00     0.068 C 
HETATM   13  C   UNL     1     -40.943 -46.250  10.844  1.00  0.00    -0.057 A 
HETATM   14  C   UNL     1     -40.182 -44.982  11.087  1.00  0.00     0.048 C 
HETATM   15  C   UNL     1     -40.336 -47.503  10.997  1.00  0.00     0.055 A 
ENDBRANCH   1   7
BRANCH   4  16
HETATM   16  C   UNL     1     -40.898 -50.770  14.465  1.00  0.00     0.126 C 
BRANCH  16  17
HETATM   17  C   UNL     1     -42.234 -51.419  14.840  1.00  0.00     0.039 C 
BRANCH  17  18
HETATM   18  C   UNL     1     -42.215 -52.953  14.766  1.00  0.00     0.127 C 
BRANCH  18  19
HETATM   19  N   UNL     1     -43.519 -53.500  14.401  1.00  0.00    -0.352 N 
HETATM   20  C   UNL     1     -44.469 -52.752  13.623  1.00  0.00     0.126 C 
HETATM   21  C   UNL     1     -45.634 -53.695  13.380  1.00  0.00     0.029 C 
HETATM   22  C   UNL     1     -45.172 -55.066  13.845  1.00  0.00     0.104 C 
HETATM   23  C   UNL     1     -43.915 -54.808  14.614  1.00  0.00     0.219 C 
HETATM   24  O   UNL     1     -43.337 -55.661  15.268  1.00  0.00    -0.273 OA
ENDBRANCH  18  19
ENDBRANCH  17  18
ENDBRANCH  16  17
ENDBRANCH   4  16
TORSDOF 5
ENDMDL
MODEL 8
REMARK VINA RESULT:      -5.9      3.054      5.816
REMARK  5 active torsions:
REMARK  status: ('A' for Active; 'I' for Inactive)
REMARK    1  A    between atoms: C_8  and  N_9 
REMARK       I    between atoms: N_9  and  C_10 
REMARK       I    between atoms: C_10  and  N_12 
REMARK    2  A    between atoms: N_12  and  C_13 
REMARK    3  A    between atoms: C_13  and  C_14 
REMARK    4  A    between atoms: C_14  and  C_15 
REMARK    5  A    between atoms: C_15  and  N_16 
ROOT
HETATM    1  N   UNL     1     -42.734 -49.372  12.983  1.00  0.00    -0.295 N 
HETATM    2  C   UNL     1     -41.456 -49.793  12.735  1.00  0.00     0.321 C 
HETATM    3  O   UNL     1     -40.632 -49.015  12.257  1.00  0.00    -0.247 OA
HETATM    4  N   UNL     1     -41.173 -51.089  13.037  1.00  0.00    -0.343 N 
HETATM    5  H   UNL     1     -42.895 -48.406  12.735  1.00  0.00     0.172 HD
HETATM    6  H   UNL     1     -41.943 -51.604  13.461  1.00  0.00     0.164 HD
ENDROOT
BRANCH   1   7
HETATM    7  C   UNL     1     -43.795 -50.105  13.526  1.00  0.00     0.109 A 
HETATM    8  N   UNL     1     -44.633 -50.745  12.686  1.00  0.00    -0.346 N 
HETATM    9  C   UNL     1     -45.654 -51.459  13.204  1.00  0.00     0.007 A 
ATOM     10  HN  UNL     1     -44.497 -50.691  11.677  1.00  0.00     0.167 HD
HETATM   11  C   UNL     1     -45.887 -51.556  14.560  1.00  0.00     0.031 A 
HETATM   12  C   UNL     1     -46.541 -52.134  12.212  1.00  0.00     0.068 C 
HETATM   13  C   UNL     1     -45.028 -50.894  15.435  1.00  0.00    -0.057 A 
HETATM   14  C   UNL     1     -45.256 -50.979  16.913  1.00  0.00     0.048 C 
HETATM   15  C   UNL     1     -43.960 -50.158  14.905  1.00  0.00     0.055 A 
ENDBRANCH   1   7
BRANCH   4  16
HETATM   16  C   UNL     1     -39.886 -51.716  12.870  1.00  0.00     0.126 C 
BRANCH  16  17
HETATM   17  C   UNL     1     -39.584 -52.753  13.956  1.00  0.00     0.039 C 
BRANCH  17  18
HETATM   18  C   UNL     1     -40.128 -54.153  13.637  1.00  0.00     0.127 C 
BRANCH  18  19
HETATM   19  N   UNL     1     -41.367 -54.438  14.357  1.00  0.00    -0.352 N 
HETATM   20  C   UNL     1     -41.367 -55.001  15.680  1.00  0.00     0.126 C 
HETATM   21  C   UNL     1     -42.823 -55.047  16.108  1.00  0.00     0.029 C 
HETATM   22  C   UNL     1     -43.595 -54.258  15.063  1.00  0.00     0.104 C 
HETATM   23  C   UNL     1     -42.630 -54.066  13.935  1.00  0.00     0.219 C 
HETATM   24  O   UNL     1     -42.943 -53.603  12.851  1.00  0.00    -0.273 OA
ENDBRANCH  18  19
ENDBRANCH  17  18
ENDBRANCH  16  17
ENDBRANCH   4  16
TORSDOF 5
ENDMDL
MODEL 9
REMARK VINA RESULT:      -5.8      3.407      6.089
REMARK  5 active torsions:
REMARK  status: ('A' for Active; 'I' for Inactive)
REMARK    1  A    between atoms: C_8  and  N_9 
REMARK       I    between atoms: N_9  and  C_10 
REMARK       I    between atoms: C_10  and  N_12 
REMARK    2  A    between atoms: N_12  and  C_13 
REMARK    3  A    between atoms: C_13  and  C_14 
REMARK    4  A    between atoms: C_14  and  C_15 
REMARK    5  A    between atoms: C_15  and  N_16 
ROOT
HETATM    1  N   UNL     1     -41.991 -51.688  11.748  1.00  0.00    -0.295 N 
HETATM    2  C   UNL     1     -41.052 -50.739  12.049  1.00  0.00     0.321 C 
HETATM    3  O   UNL     1     -40.303 -50.312  11.171  1.00  0.00    -0.247 OA
HETATM    4  N   UNL     1     -41.001 -50.322  13.343  1.00  0.00    -0.343 N 
HETATM    5  H   UNL     1     -41.982 -51.970  10.777  1.00  0.00     0.172 HD
HETATM    6  H   UNL     1     -41.706 -50.737  13.950  1.00  0.00     0.164 HD
ENDROOT
BRANCH   1   7
HETATM    7  C   UNL     1     -42.925 -52.281  12.604  1.00  0.00     0.109 A 
HETATM    8  N   UNL     1     -44.143 -51.714  12.721  1.00  0.00    -0.346 N 
HETATM    9  C   UNL     1     -45.050 -52.283  13.540  1.00  0.00     0.007 A 
ATOM     10  HN  UNL     1     -44.373 -50.868  12.199  1.00  0.00     0.167 HD
HETATM   11  C   UNL     1     -44.786 -53.420  14.275  1.00  0.00     0.031 A 
HETATM   12  C   UNL     1     -46.372 -51.595  13.622  1.00  0.00     0.068 C 
HETATM   13  C   UNL     1     -43.528 -54.010  14.163  1.00  0.00    -0.057 A 
HETATM   14  C   UNL     1     -43.210 -55.245  14.950  1.00  0.00     0.048 C 
HETATM   15  C   UNL     1     -42.583 -53.430  13.308  1.00  0.00     0.055 A 
ENDBRANCH   1   7
BRANCH   4  16
HETATM   16  C   UNL     1     -40.101 -49.320  13.854  1.00  0.00     0.126 C 
BRANCH  16  17
HETATM   17  C   UNL     1     -39.481 -49.708  15.201  1.00  0.00     0.039 C 
BRANCH  17  18
HETATM   18  C   UNL     1     -38.292 -50.672  15.075  1.00  0.00     0.127 C 
BRANCH  18  19
HETATM   19  N   UNL     1     -38.642 -52.031  15.477  1.00  0.00    -0.352 N 
HETATM   20  C   UNL     1     -38.748 -52.414  16.859  1.00  0.00     0.126 C 
HETATM   21  C   UNL     1     -39.221 -53.857  16.851  1.00  0.00     0.029 C 
HETATM   22  C   UNL     1     -39.608 -54.167  15.414  1.00  0.00     0.104 C 
HETATM   23  C   UNL     1     -39.055 -53.030  14.613  1.00  0.00     0.219 C 
HETATM   24  O   UNL     1     -39.039 -53.008  13.394  1.00  0.00    -0.273 OA
ENDBRANCH  18  19
ENDBRANCH  17  18
ENDBRANCH  16  17
ENDBRANCH   4  16
TORSDOF 5
ENDMDL
