MODEL 1
REMARK VINA RESULT:      -6.6      0.000      0.000
REMARK  6 active torsions:
REMARK  status: ('A' for Active; 'I' for Inactive)
REMARK    1  A    between atoms: C_7  and  O_8 
REMARK    2  A    between atoms: O_8  and  C_9 
REMARK    3  A    between atoms: C_9  and  C_10 
REMARK    4  A    between atoms: C_10  and  N_11 
REMARK       I    between atoms: N_11  and  C_12 
REMARK    5  A    between atoms: C_12  and  C_14 
REMARK    6  A    between atoms: C_14  and  N_15 
ROOT
HETATM    1  N   UNL     1     -43.252 -48.237  11.553  1.00  0.00    -0.358 N 
HETATM    2  C   UNL     1     -42.623 -47.526  10.555  1.00  0.00     0.236 C 
HETATM    3  O   UNL     1     -41.415 -47.586  10.339  1.00  0.00    -0.272 OA
HETATM    4  H   UNL     1     -44.261 -48.159  11.668  1.00  0.00     0.162 HD
ENDROOT
BRANCH   1   5
HETATM    5  C   UNL     1     -42.561 -49.256  12.316  1.00  0.00     0.148 C 
BRANCH   5   6
HETATM    6  C   UNL     1     -43.439 -49.842  13.418  1.00  0.00     0.187 C 
BRANCH   6   7
HETATM    7  O   UNL     1     -43.847 -51.170  13.063  1.00  0.00    -0.384 OA
BRANCH   7   8
HETATM    8  C   UNL     1     -44.590 -51.832  14.097  1.00  0.00     0.125 C 
HETATM    9  C   UNL     1     -44.288 -53.347  14.169  1.00  0.00     0.010 C 
HETATM   10  C   UNL     1     -44.406 -54.037  12.802  1.00  0.00     0.012 C 
HETATM   11  C   UNL     1     -45.175 -54.021  15.223  1.00  0.00     0.007 C 
HETATM   12  C   UNL     1     -46.661 -53.767  14.996  1.00  0.00     0.001 C 
HETATM   13  C   UNL     1     -46.968 -52.277  14.879  1.00  0.00     0.002 C 
HETATM   14  C   UNL     1     -46.084 -51.576  13.849  1.00  0.00     0.032 C 
ENDBRANCH   7   8
ENDBRANCH   6   7
ENDBRANCH   5   6
ENDBRANCH   1   5
BRANCH   2  15
HETATM   15  C   UNL     1     -43.537 -46.574   9.787  1.00  0.00     0.235 C 
BRANCH  15  16
HETATM   16  N   UNL     1     -44.486 -47.342   8.987  1.00  0.00    -0.301 N 
HETATM   17  C   UNL     1     -45.746 -47.604   9.485  1.00  0.00     0.102 A 
HETATM   18  C   UNL     1     -46.622 -48.354   8.816  1.00  0.00     0.092 A 
HETATM   19  C   UNL     1     -46.224 -48.926   7.520  1.00  0.00     0.250 A 
HETATM   20  O   UNL     1     -46.981 -49.655   6.891  1.00  0.00    -0.268 OA
HETATM   21  N   UNL     1     -44.972 -48.602   7.085  1.00  0.00    -0.275 N 
HETATM   22  C   UNL     1     -44.050 -47.864   7.776  1.00  0.00     0.329 A 
HETATM   23  H   UNL     1     -44.672 -49.004   6.213  1.00  0.00     0.173 HD
HETATM   24  O   UNL     1     -42.914 -47.705   7.335  1.00  0.00    -0.246 OA
ENDBRANCH  15  16
ENDBRANCH   2  15
TORSDOF 6
ENDMDL
MODEL 2
REMARK VINA RESULT:      -6.3      3.602      7.509
REMARK  6 active torsions:
REMARK  status: ('A' for Active; 'I' for Inactive)
REMARK    1  A    between atoms: C_7  and  O_8 
REMARK    2  A    between atoms: O_8  and  C_9 
REMARK    3  A    between atoms: C_9  and  C_10 
REMARK    4  A    between atoms: C_10  and  N_11 
REMARK       I    between atoms: N_11  and  C_12 
REMARK    5  A    between atoms: C_12  and  C_14 
REMARK    6  A    between atoms: C_14  and  N_15 
ROOT
HETATM    1  N   UNL     1     -42.404 -52.444  11.688  1.00  0.00    -0.358 N 
HETATM    2  C   UNL     1     -43.003 -53.119  12.728  1.00  0.00     0.236 C 
HETATM    3  O   UNL     1     -42.453 -53.321  13.809  1.00  0.00    -0.272 OA
HETATM    4  H   UNL     1     -42.921 -52.291  10.824  1.00  0.00     0.162 HD
ENDROOT
BRANCH   1   5
HETATM    5  C   UNL     1     -41.140 -51.756  11.850  1.00  0.00     0.148 C 
BRANCH   5   6
HETATM    6  C   UNL     1     -41.327 -50.308  12.292  1.00  0.00     0.187 C 
BRANCH   6   7
HETATM    7  O   UNL     1     -40.409 -49.460  11.589  1.00  0.00    -0.384 OA
BRANCH   7   8
HETATM    8  C   UNL     1     -41.037 -48.323  10.980  1.00  0.00     0.125 C 
HETATM    9  C   UNL     1     -40.263 -47.008  11.235  1.00  0.00     0.010 C 
HETATM   10  C   UNL     1     -39.936 -46.796  12.720  1.00  0.00     0.012 C 
HETATM   11  C   UNL     1     -41.024 -45.815  10.644  1.00  0.00     0.007 C 
HETATM   12  C   UNL     1     -42.457 -45.716  11.155  1.00  0.00     0.001 C 
HETATM   13  C   UNL     1     -43.221 -47.022  10.949  1.00  0.00     0.002 C 
HETATM   14  C   UNL     1     -42.475 -48.231  11.510  1.00  0.00     0.032 C 
ENDBRANCH   7   8
ENDBRANCH   6   7
ENDBRANCH   5   6
ENDBRANCH   1   5
BRANCH   2  15
HETATM   15  C   UNL     1     -44.381 -53.687  12.402  1.00  0.00     0.235 C 
BRANCH  15  16
HETATM   16  N   UNL     1     -45.352 -53.218  13.386  1.00  0.00    -0.301 N 
HETATM   17  C   UNL     1     -45.705 -51.884  13.417  1.00  0.00     0.102 A 
HETATM   18  C   UNL     1     -46.539 -51.401  14.338  1.00  0.00     0.092 A 
HETATM   19  C   UNL     1     -47.082 -52.316  15.354  1.00  0.00     0.250 A 
HETATM   20  O   UNL     1     -47.818 -51.908  16.245  1.00  0.00    -0.268 OA
HETATM   21  N   UNL     1     -46.704 -53.623  15.243  1.00  0.00    -0.275 N 
HETATM   22  C   UNL     1     -45.823 -54.126  14.326  1.00  0.00     0.329 A 
HETATM   23  H   UNL     1     -47.046 -54.259  15.943  1.00  0.00     0.173 HD
HETATM   24  O   UNL     1     -45.478 -55.305  14.367  1.00  0.00    -0.246 OA
ENDBRANCH  15  16
ENDBRANCH   2  15
TORSDOF 6
ENDMDL
MODEL 3
REMARK VINA RESULT:      -6.3      2.479      3.518
REMARK  6 active torsions:
REMARK  status: ('A' for Active; 'I' for Inactive)
REMARK    1  A    between atoms: C_7  and  O_8 
REMARK    2  A    between atoms: O_8  and  C_9 
REMARK    3  A    between atoms: C_9  and  C_10 
REMARK    4  A    between atoms: C_10  and  N_11 
REMARK       I    between atoms: N_11  and  C_12 
REMARK    5  A    between atoms: C_12  and  C_14 
REMARK    6  A    between atoms: C_14  and  N_15 
ROOT
HETATM    1  N   UNL     1     -41.220 -50.734  12.876  1.00  0.00    -0.358 N 
HETATM    2  C   UNL     1     -40.789 -49.761  12.002  1.00  0.00     0.236 C 
HETATM    3  O   UNL     1     -40.210 -50.008  10.947  1.00  0.00    -0.272 OA
HETATM    4  H   UNL     1     -41.712 -50.465  13.726  1.00  0.00     0.162 HD
ENDROOT
BRANCH   1   5
HETATM    5  C   UNL     1     -41.187 -52.140  12.531  1.00  0.00     0.148 C 
BRANCH   5   6
HETATM    6  C   UNL     1     -42.586 -52.719  12.348  1.00  0.00     0.187 C 
BRANCH   6   7
HETATM    7  O   UNL     1     -43.139 -53.072  13.624  1.00  0.00    -0.384 OA
BRANCH   7   8
HETATM    8  C   UNL     1     -44.566 -52.936  13.682  1.00  0.00     0.125 C 
HETATM    9  C   UNL     1     -45.020 -51.462  13.798  1.00  0.00     0.010 C 
HETATM   10  C   UNL     1     -44.294 -50.708  14.921  1.00  0.00     0.012 C 
HETATM   11  C   UNL     1     -46.543 -51.380  13.951  1.00  0.00     0.007 C 
HETATM   12  C   UNL     1     -47.065 -52.208  15.121  1.00  0.00     0.001 C 
HETATM   13  C   UNL     1     -46.589 -53.656  15.044  1.00  0.00     0.002 C 
HETATM   14  C   UNL     1     -45.076 -53.767  14.869  1.00  0.00     0.032 C 
ENDBRANCH   7   8
ENDBRANCH   6   7
ENDBRANCH   5   6
ENDBRANCH   1   5
BRANCH   2  15
HETATM   15  C   UNL     1     -41.002 -48.332  12.494  1.00  0.00     0.235 C 
BRANCH  15  16
HETATM   16  N   UNL     1     -41.718 -47.565  11.479  1.00  0.00    -0.301 N 
HETATM   17  C   UNL     1     -43.034 -47.866  11.196  1.00  0.00     0.102 A 
HETATM   18  C   UNL     1     -43.707 -47.233  10.234  1.00  0.00     0.092 A 
HETATM   19  C   UNL     1     -43.017 -46.197   9.449  1.00  0.00     0.250 A 
HETATM   20  O   UNL     1     -43.582 -45.620   8.528  1.00  0.00    -0.268 OA
HETATM   21  N   UNL     1     -41.725 -45.941   9.805  1.00  0.00    -0.275 N 
HETATM   22  C   UNL     1     -41.012 -46.605  10.765  1.00  0.00     0.329 A 
HETATM   23  H   UNL     1     -41.229 -45.253   9.264  1.00  0.00     0.173 HD
HETATM   24  O   UNL     1     -39.822 -46.358  10.948  1.00  0.00    -0.246 OA
ENDBRANCH  15  16
ENDBRANCH   2  15
TORSDOF 6
ENDMDL
MODEL 4
REMARK VINA RESULT:      -6.2      3.788      5.904
REMARK  6 active torsions:
REMARK  status: ('A' for Active; 'I' for Inactive)
REMARK    1  A    between atoms: C_7  and  O_8 
REMARK    2  A    between atoms: O_8  and  C_9 
REMARK    3  A    between atoms: C_9  and  C_10 
REMARK    4  A    between atoms: C_10  and  N_11 
REMARK       I    between atoms: N_11  and  C_12 
REMARK    5  A    between atoms: C_12  and  C_14 
REMARK    6  A    between atoms: C_14  and  N_15 
ROOT
HETATM    1  N   UNL     1     -41.007 -54.110  14.850  1.00  0.00    -0.358 N 
HETATM    2  C   UNL     1     -40.405 -52.921  15.196  1.00  0.00     0.236 C 
HETATM    3  O   UNL     1     -40.776 -52.223  16.138  1.00  0.00    -0.272 OA
HETATM    4  H   UNL     1     -40.639 -54.652  14.071  1.00  0.00     0.162 HD
ENDROOT
BRANCH   1   5
HETATM    5  C   UNL     1     -42.017 -54.726  15.686  1.00  0.00     0.148 C 
BRANCH   5   6
HETATM    6  C   UNL     1     -43.304 -55.008  14.917  1.00  0.00     0.187 C 
BRANCH   6   7
HETATM    7  O   UNL     1     -43.354 -54.199  13.734  1.00  0.00    -0.384 OA
BRANCH   7   8
HETATM    8  C   UNL     1     -44.621 -53.554  13.539  1.00  0.00     0.125 C 
HETATM    9  C   UNL     1     -44.478 -52.062  13.159  1.00  0.00     0.010 C 
HETATM   10  C   UNL     1     -43.551 -51.297  14.114  1.00  0.00     0.012 C 
HETATM   11  C   UNL     1     -45.857 -51.401  13.055  1.00  0.00     0.007 C 
HETATM   12  C   UNL     1     -46.690 -51.567  14.322  1.00  0.00     0.001 C 
HETATM   13  C   UNL     1     -46.804 -53.032  14.734  1.00  0.00     0.002 C 
HETATM   14  C   UNL     1     -45.444 -53.722  14.825  1.00  0.00     0.032 C 
ENDBRANCH   7   8
ENDBRANCH   6   7
ENDBRANCH   5   6
ENDBRANCH   1   5
BRANCH   2  15
HETATM   15  C   UNL     1     -39.289 -52.481  14.253  1.00  0.00     0.235 C 
BRANCH  15  16
HETATM   16  N   UNL     1     -39.805 -51.499  13.305  1.00  0.00    -0.301 N 
HETATM   17  C   UNL     1     -39.690 -50.153  13.582  1.00  0.00     0.102 A 
HETATM   18  C   UNL     1     -40.203 -49.224  12.775  1.00  0.00     0.092 A 
HETATM   19  C   UNL     1     -40.920 -49.654  11.563  1.00  0.00     0.250 A 
HETATM   20  O   UNL     1     -41.444 -48.837  10.815  1.00  0.00    -0.268 OA
HETATM   21  N   UNL     1     -40.970 -51.000  11.347  1.00  0.00    -0.275 N 
HETATM   22  C   UNL     1     -40.480 -51.965  12.183  1.00  0.00     0.329 A 
HETATM   23  H   UNL     1     -41.477 -51.315  10.537  1.00  0.00     0.173 HD
HETATM   24  O   UNL     1     -40.656 -53.157  11.940  1.00  0.00    -0.246 OA
ENDBRANCH  15  16
ENDBRANCH   2  15
TORSDOF 6
ENDMDL
MODEL 5
REMARK VINA RESULT:      -6.2      3.397      5.100
REMARK  6 active torsions:
REMARK  status: ('A' for Active; 'I' for Inactive)
REMARK    1  A    between atoms: C_7  and  O_8 
REMARK    2  A    between atoms: O_8  and  C_9 
REMARK    3  A    between atoms: C_9  and  C_10 
REMARK    4  A    between atoms: C_10  and  N_11 
REMARK       I    between atoms: N_11  and  C_12 
REMARK    5  A    between atoms: C_12  and  C_14 
REMARK    6  A    between atoms: C_14  and  N_15 
ROOT
HETATM    1  N   UNL     1     -40.646 -52.892  14.889  1.00  0.00    -0.358 N 
HETATM    2  C   UNL     1     -40.035 -52.393  13.761  1.00  0.00     0.236 C 
HETATM    3  O   UNL     1     -39.803 -53.070  12.761  1.00  0.00    -0.272 OA
HETATM    4  H   UNL     1     -40.829 -52.274  15.678  1.00  0.00     0.162 HD
ENDROOT
BRANCH   1   5
HETATM    5  C   UNL     1     -41.232 -54.216  14.918  1.00  0.00     0.148 C 
BRANCH   5   6
HETATM    6  C   UNL     1     -42.632 -54.238  14.313  1.00  0.00     0.187 C 
BRANCH   6   7
HETATM    7  O   UNL     1     -43.615 -54.122  15.350  1.00  0.00    -0.384 OA
BRANCH   7   8
HETATM    8  C   UNL     1     -44.453 -52.964  15.214  1.00  0.00     0.125 C 
HETATM    9  C   UNL     1     -45.942 -53.270  15.499  1.00  0.00     0.010 C 
HETATM   10  C   UNL     1     -46.455 -54.484  14.712  1.00  0.00     0.012 C 
HETATM   11  C   UNL     1     -46.802 -52.025  15.248  1.00  0.00     0.007 C 
HETATM   12  C   UNL     1     -46.618 -51.452  13.847  1.00  0.00     0.001 C 
HETATM   13  C   UNL     1     -45.148 -51.185  13.535  1.00  0.00     0.002 C 
HETATM   14  C   UNL     1     -44.264 -52.404  13.797  1.00  0.00     0.032 C 
ENDBRANCH   7   8
ENDBRANCH   6   7
ENDBRANCH   5   6
ENDBRANCH   1   5
BRANCH   2  15
HETATM   15  C   UNL     1     -39.575 -50.943  13.881  1.00  0.00     0.235 C 
BRANCH  15  16
HETATM   16  N   UNL     1     -40.251 -50.128  12.876  1.00  0.00    -0.301 N 
HETATM   17  C   UNL     1     -41.591 -49.834  13.022  1.00  0.00     0.102 A 
HETATM   18  C   UNL     1     -42.263 -49.147  12.097  1.00  0.00     0.092 A 
HETATM   19  C   UNL     1     -41.553 -48.705  10.886  1.00  0.00     0.250 A 
HETATM   20  O   UNL     1     -42.139 -48.108   9.991  1.00  0.00    -0.268 OA
HETATM   21  N   UNL     1     -40.225 -49.013  10.828  1.00  0.00    -0.275 N 
HETATM   22  C   UNL     1     -39.532 -49.747  11.751  1.00  0.00     0.329 A 
HETATM   23  H   UNL     1     -39.728 -48.741   9.996  1.00  0.00     0.173 HD
HETATM   24  O   UNL     1     -38.355 -50.047  11.560  1.00  0.00    -0.246 OA
ENDBRANCH  15  16
ENDBRANCH   2  15
TORSDOF 6
ENDMDL
MODEL 6
REMARK VINA RESULT:      -6.1      4.414      7.507
REMARK  6 active torsions:
REMARK  status: ('A' for Active; 'I' for Inactive)
REMARK    1  A    between atoms: C_7  and  O_8 
REMARK    2  A    between atoms: O_8  and  C_9 
REMARK    3  A    between atoms: C_9  and  C_10 
REMARK    4  A    between atoms: C_10  and  N_11 
REMARK       I    between atoms: N_11  and  C_12 
REMARK    5  A    between atoms: C_12  and  C_14 
REMARK    6  A    between atoms: C_14  and  N_15 
ROOT
HETATM    1  N   UNL     1     -42.375 -52.601  11.666  1.00  0.00    -0.358 N 
HETATM    2  C   UNL     1     -43.055 -53.184  12.712  1.00  0.00     0.236 C 
HETATM    3  O   UNL     1     -42.558 -53.376  13.819  1.00  0.00    -0.272 OA
HETATM    4  H   UNL     1     -42.849 -52.451  10.778  1.00  0.00     0.162 HD
ENDROOT
BRANCH   1   5
HETATM    5  C   UNL     1     -41.070 -51.997  11.846  1.00  0.00     0.148 C 
BRANCH   5   6
HETATM    6  C   UNL     1     -41.159 -50.486  12.037  1.00  0.00     0.187 C 
BRANCH   6   7
HETATM    7  O   UNL     1     -39.910 -49.876  11.685  1.00  0.00    -0.384 OA
BRANCH   7   8
HETATM    8  C   UNL     1     -39.437 -48.940  12.665  1.00  0.00     0.125 C 
HETATM    9  C   UNL     1     -37.942 -49.140  13.007  1.00  0.00     0.010 C 
HETATM   10  C   UNL     1     -37.606 -50.598  13.350  1.00  0.00     0.012 C 
HETATM   11  C   UNL     1     -37.514 -48.180  14.123  1.00  0.00     0.007 C 
HETATM   12  C   UNL     1     -38.383 -48.300  15.371  1.00  0.00     0.001 C 
HETATM   13  C   UNL     1     -39.866 -48.148  15.043  1.00  0.00     0.002 C 
HETATM   14  C   UNL     1     -40.315 -49.079  13.918  1.00  0.00     0.032 C 
ENDBRANCH   7   8
ENDBRANCH   6   7
ENDBRANCH   5   6
ENDBRANCH   1   5
BRANCH   2  15
HETATM   15  C   UNL     1     -44.459 -53.668  12.359  1.00  0.00     0.235 C 
BRANCH  15  16
HETATM   16  N   UNL     1     -45.408 -53.195  13.362  1.00  0.00    -0.301 N 
HETATM   17  C   UNL     1     -45.723 -51.854  13.428  1.00  0.00     0.102 A 
HETATM   18  C   UNL     1     -46.535 -51.370  14.368  1.00  0.00     0.092 A 
HETATM   19  C   UNL     1     -47.098 -52.294  15.366  1.00  0.00     0.250 A 
HETATM   20  O   UNL     1     -47.814 -51.887  16.272  1.00  0.00    -0.268 OA
HETATM   21  N   UNL     1     -46.758 -53.607  15.219  1.00  0.00    -0.275 N 
HETATM   22  C   UNL     1     -45.898 -54.113  14.283  1.00  0.00     0.329 A 
HETATM   23  H   UNL     1     -47.112 -54.251  15.906  1.00  0.00     0.173 HD
HETATM   24  O   UNL     1     -45.587 -55.302  14.292  1.00  0.00    -0.246 OA
ENDBRANCH  15  16
ENDBRANCH   2  15
TORSDOF 6
ENDMDL
MODEL 7
REMARK VINA RESULT:      -6.0      3.720      4.413
REMARK  6 active torsions:
REMARK  status: ('A' for Active; 'I' for Inactive)
REMARK    1  A    between atoms: C_7  and  O_8 
REMARK    2  A    between atoms: O_8  and  C_9 
REMARK    3  A    between atoms: C_9  and  C_10 
REMARK    4  A    between atoms: C_10  and  N_11 
REMARK       I    between atoms: N_11  and  C_12 
REMARK    5  A    between atoms: C_12  and  C_14 
REMARK    6  A    between atoms: C_14  and  N_15 
ROOT
HETATM    1  N   UNL     1     -40.876 -51.089  12.572  1.00  0.00    -0.358 N 
HETATM    2  C   UNL     1     -41.668 -49.973  12.727  1.00  0.00     0.236 C 
HETATM    3  O   UNL     1     -42.804 -49.880  12.268  1.00  0.00    -0.272 OA
HETATM    4  H   UNL     1     -39.950 -51.112  12.995  1.00  0.00     0.162 HD
ENDROOT
BRANCH   1   5
HETATM    5  C   UNL     1     -41.391 -52.319  12.006  1.00  0.00     0.148 C 
BRANCH   5   6
HETATM    6  C   UNL     1     -42.192 -53.127  13.023  1.00  0.00     0.187 C 
BRANCH   6   7
HETATM    7  O   UNL     1     -43.582 -53.115  12.672  1.00  0.00    -0.384 OA
BRANCH   7   8
HETATM    8  C   UNL     1     -44.435 -52.672  13.737  1.00  0.00     0.125 C 
HETATM    9  C   UNL     1     -44.901 -53.831  14.648  1.00  0.00     0.010 C 
HETATM   10  C   UNL     1     -45.488 -55.006  13.852  1.00  0.00     0.012 C 
HETATM   11  C   UNL     1     -45.881 -53.318  15.710  1.00  0.00     0.007 C 
HETATM   12  C   UNL     1     -47.072 -52.580  15.107  1.00  0.00     0.001 C 
HETATM   13  C   UNL     1     -46.628 -51.460  14.171  1.00  0.00     0.002 C 
HETATM   14  C   UNL     1     -45.633 -51.939  13.116  1.00  0.00     0.032 C 
ENDBRANCH   7   8
ENDBRANCH   6   7
ENDBRANCH   5   6
ENDBRANCH   1   5
BRANCH   2  15
HETATM   15  C   UNL     1     -40.985 -48.810  13.441  1.00  0.00     0.235 C 
BRANCH  15  16
HETATM   16  N   UNL     1     -40.829 -47.690  12.518  1.00  0.00    -0.301 N 
HETATM   17  C   UNL     1     -41.744 -46.657  12.534  1.00  0.00     0.102 A 
HETATM   18  C   UNL     1     -41.676 -45.647  11.667  1.00  0.00     0.092 A 
HETATM   19  C   UNL     1     -40.603 -45.646  10.660  1.00  0.00     0.250 A 
HETATM   20  O   UNL     1     -40.527 -44.760   9.817  1.00  0.00    -0.268 OA
HETATM   21  N   UNL     1     -39.725 -46.688  10.724  1.00  0.00    -0.275 N 
HETATM   22  C   UNL     1     -39.802 -47.749  11.584  1.00  0.00     0.329 A 
HETATM   23  H   UNL     1     -38.998 -46.719  10.028  1.00  0.00     0.173 HD
HETATM   24  O   UNL     1     -39.010 -48.685  11.500  1.00  0.00    -0.246 OA
ENDBRANCH  15  16
ENDBRANCH   2  15
TORSDOF 6
ENDMDL
MODEL 8
REMARK VINA RESULT:      -5.9      4.806      7.586
REMARK  6 active torsions:
REMARK  status: ('A' for Active; 'I' for Inactive)
REMARK    1  A    between atoms: C_7  and  O_8 
REMARK    2  A    between atoms: O_8  and  C_9 
REMARK    3  A    between atoms: C_9  and  C_10 
REMARK    4  A    between atoms: C_10  and  N_11 
REMARK       I    between atoms: N_11  and  C_12 
REMARK    5  A    between atoms: C_12  and  C_14 
REMARK    6  A    between atoms: C_14  and  N_15 
ROOT
HETATM    1  N   UNL     1     -42.450 -53.949  13.973  1.00  0.00    -0.358 N 
HETATM    2  C   UNL     1     -43.070 -53.424  12.860  1.00  0.00     0.236 C 
HETATM    3  O   UNL     1     -42.565 -52.558  12.150  1.00  0.00    -0.272 OA
HETATM    4  H   UNL     1     -42.914 -54.680  14.509  1.00  0.00     0.162 HD
ENDROOT
BRANCH   1   5
HETATM    5  C   UNL     1     -41.070 -53.649  14.290  1.00  0.00     0.148 C 
BRANCH   5   6
HETATM    6  C   UNL     1     -40.922 -52.306  14.999  1.00  0.00     0.187 C 
BRANCH   6   7
HETATM    7  O   UNL     1     -39.572 -51.838  14.880  1.00  0.00    -0.384 OA
BRANCH   7   8
HETATM    8  C   UNL     1     -39.222 -51.443  13.546  1.00  0.00     0.125 C 
HETATM    9  C   UNL     1     -37.715 -51.127  13.394  1.00  0.00     0.010 C 
HETATM   10  C   UNL     1     -37.207 -50.153  14.466  1.00  0.00     0.012 C 
HETATM   11  C   UNL     1     -37.413 -50.622  11.978  1.00  0.00     0.007 C 
HETATM   12  C   UNL     1     -38.268 -49.422  11.584  1.00  0.00     0.001 C 
HETATM   13  C   UNL     1     -39.756 -49.704  11.769  1.00  0.00     0.002 C 
HETATM   14  C   UNL     1     -40.083 -50.229  13.166  1.00  0.00     0.032 C 
ENDBRANCH   7   8
ENDBRANCH   6   7
ENDBRANCH   5   6
ENDBRANCH   1   5
BRANCH   2  15
HETATM   15  C   UNL     1     -44.489 -53.938  12.627  1.00  0.00     0.235 C 
BRANCH  15  16
HETATM   16  N   UNL     1     -45.406 -53.286  13.557  1.00  0.00    -0.301 N 
HETATM   17  C   UNL     1     -45.909 -52.036  13.258  1.00  0.00     0.102 A 
HETATM   18  C   UNL     1     -46.699 -51.377  14.106  1.00  0.00     0.092 A 
HETATM   19  C   UNL     1     -47.029 -52.000  15.398  1.00  0.00     0.250 A 
HETATM   20  O   UNL     1     -47.717 -51.414  16.226  1.00  0.00    -0.268 OA
HETATM   21  N   UNL     1     -46.514 -53.245  15.609  1.00  0.00    -0.275 N 
HETATM   22  C   UNL     1     -45.674 -53.918  14.764  1.00  0.00     0.329 A 
HETATM   23  H   UNL     1     -46.708 -53.677  16.497  1.00  0.00     0.173 HD
HETATM   24  O   UNL     1     -45.191 -55.001  15.089  1.00  0.00    -0.246 OA
ENDBRANCH  15  16
ENDBRANCH   2  15
TORSDOF 6
ENDMDL
MODEL 9
REMARK VINA RESULT:      -5.9      3.994      4.945
REMARK  6 active torsions:
REMARK  status: ('A' for Active; 'I' for Inactive)
REMARK    1  A    between atoms: C_7  and  O_8 
REMARK    2  A    between atoms: O_8  and  C_9 
REMARK    3  A    between atoms: C_9  and  C_10 
REMARK    4  A    between atoms: C_10  and  N_11 
REMARK       I    between atoms: N_11  and  C_12 
REMARK    5  A    between atoms: C_12  and  C_14 
REMARK    6  A    between atoms: C_14  and  N_15 
ROOT
HETATM    1  N   UNL     1     -42.552 -46.554  11.034  1.00  0.00    -0.358 N 
HETATM    2  C   UNL     1     -42.708 -45.478  10.188  1.00  0.00     0.236 C 
HETATM    3  O   UNL     1     -42.791 -44.316  10.580  1.00  0.00    -0.272 OA
HETATM    4  H   UNL     1     -42.469 -47.491  10.645  1.00  0.00     0.162 HD
ENDROOT
BRANCH   1   5
HETATM    5  C   UNL     1     -42.289 -46.382  12.447  1.00  0.00     0.148 C 
BRANCH   5   6
HETATM    6  C   UNL     1     -41.055 -47.157  12.900  1.00  0.00     0.187 C 
BRANCH   6   7
HETATM    7  O   UNL     1     -40.361 -47.679  11.759  1.00  0.00    -0.384 OA
BRANCH   7   8
HETATM    8  C   UNL     1     -39.117 -48.313  12.092  1.00  0.00     0.125 C 
HETATM    9  C   UNL     1     -39.028 -49.763  11.561  1.00  0.00     0.010 C 
HETATM   10  C   UNL     1     -40.255 -50.605  11.936  1.00  0.00     0.012 C 
HETATM   11  C   UNL     1     -37.723 -50.423  12.022  1.00  0.00     0.007 C 
HETATM   12  C   UNL     1     -37.542 -50.381  13.536  1.00  0.00     0.001 C 
HETATM   13  C   UNL     1     -37.672 -48.961  14.080  1.00  0.00     0.002 C 
HETATM   14  C   UNL     1     -38.954 -48.271  13.618  1.00  0.00     0.032 C 
ENDBRANCH   7   8
ENDBRANCH   6   7
ENDBRANCH   5   6
ENDBRANCH   1   5
BRANCH   2  15
HETATM   15  C   UNL     1     -42.867 -45.850   8.716  1.00  0.00     0.235 C 
BRANCH  15  16
HETATM   16  N   UNL     1     -44.071 -46.656   8.541  1.00  0.00    -0.301 N 
HETATM   17  C   UNL     1     -45.244 -46.278   9.161  1.00  0.00     0.102 A 
HETATM   18  C   UNL     1     -46.351 -47.017   9.079  1.00  0.00     0.092 A 
HETATM   19  C   UNL     1     -46.309 -48.276   8.316  1.00  0.00     0.250 A 
HETATM   20  O   UNL     1     -47.289 -49.007   8.250  1.00  0.00    -0.268 OA
HETATM   21  N   UNL     1     -45.121 -48.568   7.713  1.00  0.00    -0.275 N 
HETATM   22  C   UNL     1     -43.969 -47.838   7.818  1.00  0.00     0.329 A 
HETATM   23  H   UNL     1     -45.065 -49.436   7.208  1.00  0.00     0.173 HD
HETATM   24  O   UNL     1     -42.924 -48.236   7.307  1.00  0.00    -0.246 OA
ENDBRANCH  15  16
ENDBRANCH   2  15
TORSDOF 6
ENDMDL
