MODEL 1
REMARK VINA RESULT:      -5.7      0.000      0.000
REMARK  5 active torsions:
REMARK  status: ('A' for Active; 'I' for Inactive)
REMARK    1  A    between atoms: C_2  and  C_3 
REMARK    2  A    between atoms: C_3  and  O_4 
REMARK    3  A    between atoms: O_4  and  C_5 
REMARK    4  A    between atoms: N_9  and  C_11 
REMARK    5  A    between atoms: C_15  and  C_19 
REMARK       I    between atoms: C_19  and  N_21 
ROOT
HETATM    1  C   UNL     1     -41.752 -48.355  10.868  1.00  0.00     0.125 A 
HETATM    2  N   UNL     1     -41.837 -48.158   9.522  1.00  0.00    -0.350 N 
ATOM      3  HN  UNL     1     -41.021 -48.311   8.931  1.00  0.00     0.166 HD
HETATM    4  C   UNL     1     -43.014 -47.756   8.969  1.00  0.00     0.106 A 
HETATM    5  C   UNL     1     -44.170 -47.523   9.689  1.00  0.00     0.049 A 
HETATM    6  C   UNL     1     -44.104 -47.748  11.060  1.00  0.00     0.046 A 
HETATM    7  C   UNL     1     -42.913 -48.186  11.653  1.00  0.00     0.079 A 
HETATM    8 CL   UNL     1     -43.041 -48.612  13.329  1.00  0.00    -0.080 Cl
ENDROOT
BRANCH   1   9
HETATM    9  N   UNL     1     -40.510 -48.719  11.352  1.00  0.00    -0.363 N 
HETATM   10  C   UNL     1     -39.760 -47.781  12.192  1.00  0.00     0.124 C 
HETATM   11  C   UNL     1     -39.308 -48.423  13.504  1.00  0.00     0.022 C 
HETATM   12  C   UNL     1     -38.601 -49.757  13.268  1.00  0.00     0.035 C 
HETATM   13  C   UNL     1     -39.517 -50.707  12.494  1.00  0.00     0.139 C 
HETATM   14  C   UNL     1     -39.924 -50.049  11.157  1.00  0.00     0.156 C 
BRANCH  13  15
HETATM   15  O   UNL     1     -40.620 -51.008  13.363  1.00  0.00    -0.384 OA
BRANCH  15  16
HETATM   16  C   UNL     1     -41.587 -51.905  12.829  1.00  0.00     0.168 C 
BRANCH  16  17
HETATM   17  C   UNL     1     -40.895 -53.241  12.597  1.00  0.00     0.022 C 
HETATM   18  C   UNL     1     -41.002 -54.155  13.805  1.00  0.00     0.007 C 
ENDBRANCH  16  17
ENDBRANCH  15  16
ENDBRANCH  13  15
ENDBRANCH   1   9
BRANCH   5  19
HETATM   19  C   UNL     1     -45.454 -47.085   9.097  1.00  0.00     0.250 C 
HETATM   20  O   UNL     1     -46.348 -47.892   8.865  1.00  0.00    -0.268 OA
HETATM   21  N   UNL     1     -45.643 -45.764   8.805  1.00  0.00    -0.366 N 
HETATM   22  H   UNL     1     -44.984 -45.017   8.963  1.00  0.00     0.159 HD
HETATM   23  H   UNL     1     -46.539 -45.517   8.404  1.00  0.00     0.159 HD
ENDBRANCH   5  19
TORSDOF 5
ENDMDL
MODEL 2
REMARK VINA RESULT:      -5.7      2.276      2.992
REMARK  5 active torsions:
REMARK  status: ('A' for Active; 'I' for Inactive)
REMARK    1  A    between atoms: C_2  and  C_3 
REMARK    2  A    between atoms: C_3  and  O_4 
REMARK    3  A    between atoms: O_4  and  C_5 
REMARK    4  A    between atoms: N_9  and  C_11 
REMARK    5  A    between atoms: C_15  and  C_19 
REMARK       I    between atoms: C_19  and  N_21 
ROOT
HETATM    1  C   UNL     1     -42.440 -46.555  10.596  1.00  0.00     0.125 A 
HETATM    2  N   UNL     1     -42.618 -46.153   9.307  1.00  0.00    -0.350 N 
ATOM      3  HN  UNL     1     -41.933 -45.540   8.864  1.00  0.00     0.166 HD
HETATM    4  C   UNL     1     -43.710 -46.571   8.610  1.00  0.00     0.106 A 
HETATM    5  C   UNL     1     -44.688 -47.399   9.125  1.00  0.00     0.049 A 
HETATM    6  C   UNL     1     -44.505 -47.840  10.431  1.00  0.00     0.046 A 
HETATM    7  C   UNL     1     -43.378 -47.446  11.163  1.00  0.00     0.079 A 
HETATM    8 CL   UNL     1     -43.188 -48.232  12.697  1.00  0.00    -0.080 Cl
ENDROOT
BRANCH   1   9
HETATM    9  N   UNL     1     -41.330 -46.049  11.244  1.00  0.00    -0.363 N 
HETATM   10  C   UNL     1     -41.499 -44.999  12.253  1.00  0.00     0.124 C 
HETATM   11  C   UNL     1     -40.819 -45.359  13.574  1.00  0.00     0.022 C 
HETATM   12  C   UNL     1     -39.370 -45.799  13.364  1.00  0.00     0.035 C 
HETATM   13  C   UNL     1     -39.317 -46.981  12.394  1.00  0.00     0.139 C 
HETATM   14  C   UNL     1     -39.974 -46.575  11.056  1.00  0.00     0.156 C 
BRANCH  13  15
HETATM   15  O   UNL     1     -39.958 -48.082  13.056  1.00  0.00    -0.384 OA
BRANCH  15  16
HETATM   16  C   UNL     1     -39.468 -49.371  12.706  1.00  0.00     0.168 C 
BRANCH  16  17
HETATM   17  C   UNL     1     -37.957 -49.262  12.553  1.00  0.00     0.022 C 
HETATM   18  C   UNL     1     -37.458 -49.976  11.310  1.00  0.00     0.007 C 
ENDBRANCH  16  17
ENDBRANCH  15  16
ENDBRANCH  13  15
ENDBRANCH   1   9
BRANCH   5  19
HETATM   19  C   UNL     1     -45.880 -47.858   8.376  1.00  0.00     0.250 C 
HETATM   20  O   UNL     1     -47.009 -47.541   8.734  1.00  0.00    -0.268 OA
HETATM   21  N   UNL     1     -45.717 -48.646   7.272  1.00  0.00    -0.366 N 
HETATM   22  H   UNL     1     -44.839 -48.957   6.884  1.00  0.00     0.159 HD
HETATM   23  H   UNL     1     -46.563 -48.931   6.795  1.00  0.00     0.159 HD
ENDBRANCH   5  19
TORSDOF 5
ENDMDL
MODEL 3
REMARK VINA RESULT:      -5.5      2.988      4.619
REMARK  5 active torsions:
REMARK  status: ('A' for Active; 'I' for Inactive)
REMARK    1  A    between atoms: C_2  and  C_3 
REMARK    2  A    between atoms: C_3  and  O_4 
REMARK    3  A    between atoms: O_4  and  C_5 
REMARK    4  A    between atoms: N_9  and  C_11 
REMARK    5  A    between atoms: C_15  and  C_19 
REMARK       I    between atoms: C_19  and  N_21 
ROOT
HETATM    1  C   UNL     1     -41.759 -50.986  12.578  1.00  0.00     0.125 A 
HETATM    2  N   UNL     1     -40.963 -50.892  11.476  1.00  0.00    -0.350 N 
ATOM      3  HN  UNL     1     -40.515 -51.726  11.097  1.00  0.00     0.166 HD
HETATM    4  C   UNL     1     -40.767 -49.683  10.882  1.00  0.00     0.106 A 
HETATM    5  C   UNL     1     -41.330 -48.502  11.324  1.00  0.00     0.049 A 
HETATM    6  C   UNL     1     -42.168 -48.588  12.431  1.00  0.00     0.046 A 
HETATM    7  C   UNL     1     -42.407 -49.823  13.047  1.00  0.00     0.079 A 
HETATM    8 CL   UNL     1     -43.623 -49.802  14.284  1.00  0.00    -0.080 Cl
ENDROOT
BRANCH   1   9
HETATM    9  N   UNL     1     -41.869 -52.241  13.144  1.00  0.00    -0.363 N 
HETATM   10  C   UNL     1     -41.333 -52.476  14.488  1.00  0.00     0.124 C 
HETATM   11  C   UNL     1     -42.372 -53.105  15.417  1.00  0.00     0.022 C 
HETATM   12  C   UNL     1     -43.031 -54.329  14.782  1.00  0.00     0.035 C 
HETATM   13  C   UNL     1     -43.669 -53.948  13.445  1.00  0.00     0.139 C 
HETATM   14  C   UNL     1     -42.589 -53.353  12.514  1.00  0.00     0.156 C 
BRANCH  13  15
HETATM   15  O   UNL     1     -44.746 -53.048  13.749  1.00  0.00    -0.384 OA
BRANCH  15  16
HETATM   16  C   UNL     1     -45.590 -52.717  12.651  1.00  0.00     0.168 C 
BRANCH  16  17
HETATM   17  C   UNL     1     -46.509 -51.590  13.102  1.00  0.00     0.022 C 
HETATM   18  C   UNL     1     -46.717 -51.592  14.606  1.00  0.00     0.007 C 
ENDBRANCH  16  17
ENDBRANCH  15  16
ENDBRANCH  13  15
ENDBRANCH   1   9
BRANCH   5  19
HETATM   19  C   UNL     1     -41.122 -47.182  10.686  1.00  0.00     0.250 C 
HETATM   20  O   UNL     1     -42.067 -46.548  10.228  1.00  0.00    -0.268 OA
HETATM   21  N   UNL     1     -39.860 -46.666  10.606  1.00  0.00    -0.366 N 
HETATM   22  H   UNL     1     -39.016 -47.093  10.956  1.00  0.00     0.159 HD
HETATM   23  H   UNL     1     -39.773 -45.760  10.163  1.00  0.00     0.159 HD
ENDBRANCH   5  19
TORSDOF 5
ENDMDL
MODEL 4
REMARK VINA RESULT:      -5.5      2.986      3.933
REMARK  5 active torsions:
REMARK  status: ('A' for Active; 'I' for Inactive)
REMARK    1  A    between atoms: C_2  and  C_3 
REMARK    2  A    between atoms: C_3  and  O_4 
REMARK    3  A    between atoms: O_4  and  C_5 
REMARK    4  A    between atoms: N_9  and  C_11 
REMARK    5  A    between atoms: C_15  and  C_19 
REMARK       I    between atoms: C_19  and  N_21 
ROOT
HETATM    1  C   UNL     1     -41.744 -49.830  12.069  1.00  0.00     0.125 A 
HETATM    2  N   UNL     1     -43.009 -49.325  12.045  1.00  0.00    -0.350 N 
ATOM      3  HN  UNL     1     -43.772 -49.839  12.485  1.00  0.00     0.166 HD
HETATM    4  C   UNL     1     -43.252 -48.133  11.433  1.00  0.00     0.106 A 
HETATM    5  C   UNL     1     -42.284 -47.369  10.812  1.00  0.00     0.049 A 
HETATM    6  C   UNL     1     -40.983 -47.859  10.854  1.00  0.00     0.046 A 
HETATM    7  C   UNL     1     -40.700 -49.070  11.498  1.00  0.00     0.079 A 
HETATM    8 CL   UNL     1     -39.013 -49.448  11.639  1.00  0.00    -0.080 Cl
ENDROOT
BRANCH   1   9
HETATM    9  N   UNL     1     -41.592 -51.064  12.671  1.00  0.00    -0.363 N 
HETATM   10  C   UNL     1     -40.968 -51.149  13.995  1.00  0.00     0.124 C 
HETATM   11  C   UNL     1     -41.832 -51.932  14.985  1.00  0.00     0.022 C 
HETATM   12  C   UNL     1     -42.274 -53.278  14.412  1.00  0.00     0.035 C 
HETATM   13  C   UNL     1     -43.025 -53.066  13.096  1.00  0.00     0.139 C 
HETATM   14  C   UNL     1     -42.114 -52.311  12.103  1.00  0.00     0.156 C 
BRANCH  13  15
HETATM   15  O   UNL     1     -44.240 -52.374  13.426  1.00  0.00    -0.384 OA
BRANCH  15  16
HETATM   16  C   UNL     1     -45.374 -52.732  12.645  1.00  0.00     0.168 C 
BRANCH  16  17
HETATM   17  C   UNL     1     -46.434 -51.659  12.857  1.00  0.00     0.022 C 
HETATM   18  C   UNL     1     -46.714 -51.420  14.329  1.00  0.00     0.007 C 
ENDBRANCH  16  17
ENDBRANCH  15  16
ENDBRANCH  13  15
ENDBRANCH   1   9
BRANCH   5  19
HETATM   19  C   UNL     1     -42.539 -46.073  10.143  1.00  0.00     0.250 C 
HETATM   20  O   UNL     1     -41.617 -45.306   9.884  1.00  0.00    -0.268 OA
HETATM   21  N   UNL     1     -43.819 -45.728   9.812  1.00  0.00    -0.366 N 
HETATM   22  H   UNL     1     -44.646 -46.283   9.968  1.00  0.00     0.159 HD
HETATM   23  H   UNL     1     -43.938 -44.833   9.355  1.00  0.00     0.159 HD
ENDBRANCH   5  19
TORSDOF 5
ENDMDL
MODEL 5
REMARK VINA RESULT:      -5.5      2.447      3.323
REMARK  5 active torsions:
REMARK  status: ('A' for Active; 'I' for Inactive)
REMARK    1  A    between atoms: C_2  and  C_3 
REMARK    2  A    between atoms: C_3  and  O_4 
REMARK    3  A    between atoms: O_4  and  C_5 
REMARK    4  A    between atoms: N_9  and  C_11 
REMARK    5  A    between atoms: C_15  and  C_19 
REMARK       I    between atoms: C_19  and  N_21 
ROOT
HETATM    1  C   UNL     1     -41.625 -50.087  12.046  1.00  0.00     0.125 A 
HETATM    2  N   UNL     1     -41.030 -49.631  10.908  1.00  0.00    -0.350 N 
ATOM      3  HN  UNL     1     -40.253 -50.147  10.496  1.00  0.00     0.166 HD
HETATM    4  C   UNL     1     -41.477 -48.487  10.321  1.00  0.00     0.106 A 
HETATM    5  C   UNL     1     -42.520 -47.723  10.805  1.00  0.00     0.049 A 
HETATM    6  C   UNL     1     -43.155 -48.192  11.950  1.00  0.00     0.046 A 
HETATM    7  C   UNL     1     -42.733 -49.379  12.561  1.00  0.00     0.079 A 
HETATM    8 CL   UNL     1     -43.743 -49.936  13.857  1.00  0.00    -0.080 Cl
ENDROOT
BRANCH   1   9
HETATM    9  N   UNL     1     -41.082 -51.229  12.600  1.00  0.00    -0.363 N 
HETATM   10  C   UNL     1     -40.382 -51.145  13.886  1.00  0.00     0.124 C 
HETATM   11  C   UNL     1     -40.917 -52.160  14.897  1.00  0.00     0.022 C 
HETATM   12  C   UNL     1     -40.979 -53.569  14.307  1.00  0.00     0.035 C 
HETATM   13  C   UNL     1     -41.838 -53.570  13.041  1.00  0.00     0.139 C 
HETATM   14  C   UNL     1     -41.250 -52.567  12.023  1.00  0.00     0.156 C 
BRANCH  13  15
HETATM   15  O   UNL     1     -43.179 -53.271  13.456  1.00  0.00    -0.384 OA
BRANCH  15  16
HETATM   16  C   UNL     1     -44.151 -53.268  12.417  1.00  0.00     0.168 C 
BRANCH  16  17
HETATM   17  C   UNL     1     -45.523 -53.186  13.072  1.00  0.00     0.022 C 
HETATM   18  C   UNL     1     -46.378 -52.088  12.465  1.00  0.00     0.007 C 
ENDBRANCH  16  17
ENDBRANCH  15  16
ENDBRANCH  13  15
ENDBRANCH   1   9
BRANCH   5  19
HETATM   19  C   UNL     1     -43.012 -46.477  10.175  1.00  0.00     0.250 C 
HETATM   20  O   UNL     1     -42.239 -45.567   9.891  1.00  0.00    -0.268 OA
HETATM   21  N   UNL     1     -44.344 -46.340   9.907  1.00  0.00    -0.366 N 
HETATM   22  H   UNL     1     -45.063 -47.023  10.087  1.00  0.00     0.159 HD
HETATM   23  H   UNL     1     -44.628 -45.469   9.474  1.00  0.00     0.159 HD
ENDBRANCH   5  19
TORSDOF 5
ENDMDL
MODEL 6
REMARK VINA RESULT:      -5.3      2.162      3.549
REMARK  5 active torsions:
REMARK  status: ('A' for Active; 'I' for Inactive)
REMARK    1  A    between atoms: C_2  and  C_3 
REMARK    2  A    between atoms: C_3  and  O_4 
REMARK    3  A    between atoms: O_4  and  C_5 
REMARK    4  A    between atoms: N_9  and  C_11 
REMARK    5  A    between atoms: C_15  and  C_19 
REMARK       I    between atoms: C_19  and  N_21 
ROOT
HETATM    1  C   UNL     1     -41.875 -49.688  12.428  1.00  0.00     0.125 A 
HETATM    2  N   UNL     1     -41.549 -49.604  11.108  1.00  0.00    -0.350 N 
ATOM      3  HN  UNL     1     -41.178 -50.419  10.620  1.00  0.00     0.166 HD
HETATM    4  C   UNL     1     -41.720 -48.429  10.441  1.00  0.00     0.106 A 
HETATM    5  C   UNL     1     -42.214 -47.275  11.017  1.00  0.00     0.049 A 
HETATM    6  C   UNL     1     -42.577 -47.355  12.358  1.00  0.00     0.046 A 
HETATM    7  C   UNL     1     -42.435 -48.558  13.062  1.00  0.00     0.079 A 
HETATM    8 CL   UNL     1     -43.112 -48.556  14.658  1.00  0.00    -0.080 Cl
ENDROOT
BRANCH   1   9
HETATM    9  N   UNL     1     -41.628 -50.902  13.039  1.00  0.00    -0.363 N 
HETATM   10  C   UNL     1     -42.237 -52.121  12.495  1.00  0.00     0.124 C 
HETATM   11  C   UNL     1     -41.199 -53.215  12.243  1.00  0.00     0.022 C 
HETATM   12  C   UNL     1     -40.313 -53.449  13.466  1.00  0.00     0.035 C 
HETATM   13  C   UNL     1     -39.627 -52.144  13.874  1.00  0.00     0.139 C 
HETATM   14  C   UNL     1     -40.700 -51.070  14.162  1.00  0.00     0.156 C 
BRANCH  13  15
HETATM   15  O   UNL     1     -38.725 -51.806  12.808  1.00  0.00    -0.384 OA
BRANCH  15  16
HETATM   16  C   UNL     1     -37.734 -50.838  13.134  1.00  0.00     0.168 C 
BRANCH  16  17
HETATM   17  C   UNL     1     -37.908 -49.663  12.181  1.00  0.00     0.022 C 
HETATM   18  C   UNL     1     -38.508 -48.453  12.874  1.00  0.00     0.007 C 
ENDBRANCH  16  17
ENDBRANCH  15  16
ENDBRANCH  13  15
ENDBRANCH   1   9
BRANCH   5  19
HETATM   19  C   UNL     1     -42.402 -45.993  10.301  1.00  0.00     0.250 C 
HETATM   20  O   UNL     1     -41.441 -45.293  10.001  1.00  0.00    -0.268 OA
HETATM   21  N   UNL     1     -43.664 -45.587   9.972  1.00  0.00    -0.366 N 
HETATM   22  H   UNL     1     -44.520 -46.086  10.159  1.00  0.00     0.159 HD
HETATM   23  H   UNL     1     -43.738 -44.704   9.481  1.00  0.00     0.159 HD
ENDBRANCH   5  19
TORSDOF 5
ENDMDL
MODEL 7
REMARK VINA RESULT:      -5.3      4.564      6.106
REMARK  5 active torsions:
REMARK  status: ('A' for Active; 'I' for Inactive)
REMARK    1  A    between atoms: C_2  and  C_3 
REMARK    2  A    between atoms: C_3  and  O_4 
REMARK    3  A    between atoms: O_4  and  C_5 
REMARK    4  A    between atoms: N_9  and  C_11 
REMARK    5  A    between atoms: C_15  and  C_19 
REMARK       I    between atoms: C_19  and  N_21 
ROOT
HETATM    1  C   UNL     1     -41.682 -44.591  11.675  1.00  0.00     0.125 A 
HETATM    2  N   UNL     1     -42.882 -44.059  11.311  1.00  0.00    -0.350 N 
ATOM      3  HN  UNL     1     -43.689 -44.666  11.168  1.00  0.00     0.166 HD
HETATM    4  C   UNL     1     -43.003 -42.714  11.137  1.00  0.00     0.106 A 
HETATM    5  C   UNL     1     -41.968 -41.815  11.306  1.00  0.00     0.049 A 
HETATM    6  C   UNL     1     -40.744 -42.342  11.706  1.00  0.00     0.046 A 
HETATM    7  C   UNL     1     -40.598 -43.719  11.915  1.00  0.00     0.079 A 
HETATM    8 CL   UNL     1     -39.079 -44.199  12.600  1.00  0.00    -0.080 Cl
ENDROOT
BRANCH   1   9
HETATM    9  N   UNL     1     -41.636 -45.968  11.786  1.00  0.00    -0.363 N 
HETATM   10  C   UNL     1     -41.785 -46.591  13.105  1.00  0.00     0.124 C 
HETATM   11  C   UNL     1     -42.872 -47.666  13.110  1.00  0.00     0.022 C 
HETATM   12  C   UNL     1     -42.692 -48.660  11.964  1.00  0.00     0.035 C 
HETATM   13  C   UNL     1     -42.677 -47.920  10.625  1.00  0.00     0.139 C 
HETATM   14  C   UNL     1     -41.544 -46.870  10.634  1.00  0.00     0.156 C 
BRANCH  13  15
HETATM   15  O   UNL     1     -43.990 -47.369  10.448  1.00  0.00    -0.384 OA
BRANCH  15  16
HETATM   16  C   UNL     1     -44.334 -47.034   9.109  1.00  0.00     0.168 C 
BRANCH  16  17
HETATM   17  C   UNL     1     -45.562 -47.852   8.731  1.00  0.00     0.022 C 
HETATM   18  C   UNL     1     -46.852 -47.155   9.122  1.00  0.00     0.007 C 
ENDBRANCH  16  17
ENDBRANCH  15  16
ENDBRANCH  13  15
ENDBRANCH   1   9
BRANCH   5  19
HETATM   19  C   UNL     1     -42.088 -40.351  11.118  1.00  0.00     0.250 C 
HETATM   20  O   UNL     1     -43.189 -39.810  11.084  1.00  0.00    -0.268 OA
HETATM   21  N   UNL     1     -40.959 -39.596  10.980  1.00  0.00    -0.366 N 
HETATM   22  H   UNL     1     -40.008 -39.933  11.003  1.00  0.00     0.159 HD
HETATM   23  H   UNL     1     -41.097 -38.601  10.857  1.00  0.00     0.159 HD
ENDBRANCH   5  19
TORSDOF 5
ENDMDL
MODEL 8
REMARK VINA RESULT:      -5.2      4.067      6.299
REMARK  5 active torsions:
REMARK  status: ('A' for Active; 'I' for Inactive)
REMARK    1  A    between atoms: C_2  and  C_3 
REMARK    2  A    between atoms: C_3  and  O_4 
REMARK    3  A    between atoms: O_4  and  C_5 
REMARK    4  A    between atoms: N_9  and  C_11 
REMARK    5  A    between atoms: C_15  and  C_19 
REMARK       I    between atoms: C_19  and  N_21 
ROOT
HETATM    1  C   UNL     1     -41.980 -52.349  12.803  1.00  0.00     0.125 A 
HETATM    2  N   UNL     1     -41.377 -52.205  11.590  1.00  0.00    -0.350 N 
ATOM      3  HN  UNL     1     -41.630 -52.819  10.817  1.00  0.00     0.166 HD
HETATM    4  C   UNL     1     -40.434 -51.239  11.413  1.00  0.00     0.106 A 
HETATM    5  C   UNL     1     -40.025 -50.363  12.400  1.00  0.00     0.049 A 
HETATM    6  C   UNL     1     -40.654 -50.481  13.635  1.00  0.00     0.046 A 
HETATM    7  C   UNL     1     -41.645 -51.450  13.838  1.00  0.00     0.079 A 
HETATM    8 CL   UNL     1     -42.473 -51.343  15.359  1.00  0.00    -0.080 Cl
ENDROOT
BRANCH   1   9
HETATM    9  N   UNL     1     -42.892 -53.381  12.910  1.00  0.00    -0.363 N 
HETATM   10  C   UNL     1     -42.580 -54.535  13.760  1.00  0.00     0.124 C 
HETATM   11  C   UNL     1     -43.699 -54.828  14.759  1.00  0.00     0.022 C 
HETATM   12  C   UNL     1     -45.065 -54.903  14.076  1.00  0.00     0.035 C 
HETATM   13  C   UNL     1     -45.347 -53.602  13.323  1.00  0.00     0.139 C 
HETATM   14  C   UNL     1     -44.222 -53.353  12.293  1.00  0.00     0.156 C 
BRANCH  13  15
HETATM   15  O   UNL     1     -45.473 -52.573  14.317  1.00  0.00    -0.384 OA
BRANCH  15  16
HETATM   16  C   UNL     1     -46.569 -51.684  14.136  1.00  0.00     0.168 C 
BRANCH  16  17
HETATM   17  C   UNL     1     -47.135 -51.365  15.513  1.00  0.00     0.022 C 
HETATM   18  C   UNL     1     -46.541 -52.253  16.591  1.00  0.00     0.007 C 
ENDBRANCH  16  17
ENDBRANCH  15  16
ENDBRANCH  13  15
ENDBRANCH   1   9
BRANCH   5  19
HETATM   19  C   UNL     1     -39.000 -49.311  12.217  1.00  0.00     0.250 C 
HETATM   20  O   UNL     1     -38.896 -48.388  13.018  1.00  0.00    -0.268 OA
HETATM   21  N   UNL     1     -38.163 -49.369  11.139  1.00  0.00    -0.366 N 
HETATM   22  H   UNL     1     -38.154 -50.083  10.428  1.00  0.00     0.159 HD
HETATM   23  H   UNL     1     -37.479 -48.626  11.062  1.00  0.00     0.159 HD
ENDBRANCH   5  19
TORSDOF 5
ENDMDL
MODEL 9
REMARK VINA RESULT:      -5.2      3.508      4.936
REMARK  5 active torsions:
REMARK  status: ('A' for Active; 'I' for Inactive)
REMARK    1  A    between atoms: C_2  and  C_3 
REMARK    2  A    between atoms: C_3  and  O_4 
REMARK    3  A    between atoms: O_4  and  C_5 
REMARK    4  A    between atoms: N_9  and  C_11 
REMARK    5  A    between atoms: C_15  and  C_19 
REMARK       I    between atoms: C_19  and  N_21 
ROOT
HETATM    1  C   UNL     1     -40.101 -50.705  12.737  1.00  0.00     0.125 A 
HETATM    2  N   UNL     1     -41.202 -49.913  12.862  1.00  0.00    -0.350 N 
ATOM      3  HN  UNL     1     -42.072 -50.301  13.225  1.00  0.00     0.166 HD
HETATM    4  C   UNL     1     -41.138 -48.602  12.501  1.00  0.00     0.106 A 
HETATM    5  C   UNL     1     -40.006 -47.990  11.998  1.00  0.00     0.049 A 
HETATM    6  C   UNL     1     -38.867 -48.781  11.893  1.00  0.00     0.046 A 
HETATM    7  C   UNL     1     -38.897 -50.127  12.280  1.00  0.00     0.079 A 
HETATM    8 CL   UNL     1     -37.357 -50.925  12.278  1.00  0.00    -0.080 Cl
ENDROOT
BRANCH   1   9
HETATM    9  N   UNL     1     -40.264 -52.033  13.084  1.00  0.00    -0.363 N 
HETATM   10  C   UNL     1     -39.668 -52.532  14.327  1.00  0.00     0.124 C 
HETATM   11  C   UNL     1     -40.693 -53.255  15.202  1.00  0.00     0.022 C 
HETATM   12  C   UNL     1     -41.472 -54.307  14.413  1.00  0.00     0.035 C 
HETATM   13  C   UNL     1     -42.158 -53.658  13.210  1.00  0.00     0.139 C 
HETATM   14  C   UNL     1     -41.095 -52.971  12.323  1.00  0.00     0.156 C 
BRANCH  13  15
HETATM   15  O   UNL     1     -43.151 -52.765  13.738  1.00  0.00    -0.384 OA
BRANCH  15  16
HETATM   16  C   UNL     1     -44.291 -52.565  12.911  1.00  0.00     0.168 C 
BRANCH  16  17
HETATM   17  C   UNL     1     -44.954 -51.266  13.349  1.00  0.00     0.022 C 
HETATM   18  C   UNL     1     -46.358 -51.494  13.877  1.00  0.00     0.007 C 
ENDBRANCH  16  17
ENDBRANCH  15  16
ENDBRANCH  13  15
ENDBRANCH   1   9
BRANCH   5  19
HETATM   19  C   UNL     1     -39.927 -46.566  11.602  1.00  0.00     0.250 C 
HETATM   20  O   UNL     1     -39.690 -45.694  12.431  1.00  0.00    -0.268 OA
HETATM   21  N   UNL     1     -40.123 -46.221  10.295  1.00  0.00    -0.366 N 
HETATM   22  H   UNL     1     -40.314 -46.852   9.532  1.00  0.00     0.159 HD
HETATM   23  H   UNL     1     -40.056 -45.234  10.076  1.00  0.00     0.159 HD
ENDBRANCH   5  19
TORSDOF 5
ENDMDL
