MODEL 1
REMARK VINA RESULT:      -6.4      0.000      0.000
REMARK  5 active torsions:
REMARK  status: ('A' for Active; 'I' for Inactive)
REMARK    1  A    between atoms: C_2  and  C_3 
REMARK    2  A    between atoms: N_6  and  C_7 
REMARK    3  A    between atoms: C_7  and  C_8 
REMARK    4  A    between atoms: C_8  and  O_9 
REMARK    5  A    between atoms: C_20  and  C_21 
ROOT
HETATM    1  C   UNL     1     -44.448 -53.155  12.660  1.00  0.00     0.033 A 
HETATM    2  N   UNL     1     -43.421 -52.615  12.077  1.00  0.00    -0.299 N 
ATOM      3  HN  UNL     1     -43.549 -51.953  11.311  1.00  0.00     0.187 HD
HETATM    4  N   UNL     1     -42.164 -52.947  12.509  1.00  0.00    -0.253 N 
HETATM    5  C   UNL     1     -41.922 -53.799  13.571  1.00  0.00     0.283 A 
HETATM    6  O   UNL     1     -40.800 -54.045  14.002  1.00  0.00    -0.265 OA
HETATM    7  C   UNL     1     -43.111 -54.447  14.179  1.00  0.00     0.122 A 
HETATM    8  C   UNL     1     -42.864 -55.382  15.223  1.00  0.00     0.106 C 
HETATM    9  N   UNL     1     -42.736 -56.152  16.081  1.00  0.00    -0.191 NA
HETATM   10  C   UNL     1     -44.361 -54.168  13.756  1.00  0.00    -0.008 A 
ENDROOT
BRANCH  10  11
HETATM   11  C   UNL     1     -45.593 -54.883  14.263  1.00  0.00     0.038 C 
HETATM   12  C   UNL     1     -46.250 -54.217  15.466  1.00  0.00     0.010 C 
ENDBRANCH  10  11
BRANCH   4  13
HETATM   13  C   UNL     1     -41.045 -52.237  11.870  1.00  0.00     0.190 C 
BRANCH  13  14
HETATM   14  C   UNL     1     -41.022 -50.711  12.156  1.00  0.00     0.076 C 
HETATM   15  C   UNL     1     -39.862 -49.971  11.465  1.00  0.00     0.040 C 
HETATM   16  C   UNL     1     -38.499 -50.328  12.053  1.00  0.00     0.003 C 
HETATM   17  C   UNL     1     -38.458 -50.102  13.562  1.00  0.00     0.000 C 
HETATM   18  C   UNL     1     -39.606 -50.800  14.286  1.00  0.00     0.003 C 
HETATM   19  C   UNL     1     -40.960 -50.444  13.673  1.00  0.00     0.040 C 
BRANCH  14  20
HETATM   20  O   UNL     1     -42.250 -50.136  11.680  1.00  0.00    -0.388 OA
HETATM   21  H   UNL     1     -42.492 -50.657  10.885  1.00  0.00     0.210 HD
ENDBRANCH  14  20
ENDBRANCH  13  14
ENDBRANCH   4  13
BRANCH   1  22
HETATM   22  C   UNL     1     -45.805 -52.680  12.158  1.00  0.00     0.055 C 
HETATM   23  C   UNL     1     -46.305 -51.486  12.953  1.00  0.00     0.011 C 
ENDBRANCH   1  22
TORSDOF 5
ENDMDL
MODEL 2
REMARK VINA RESULT:      -5.9      2.468      3.200
REMARK  5 active torsions:
REMARK  status: ('A' for Active; 'I' for Inactive)
REMARK    1  A    between atoms: C_2  and  C_3 
REMARK    2  A    between atoms: N_6  and  C_7 
REMARK    3  A    between atoms: C_7  and  C_8 
REMARK    4  A    between atoms: C_8  and  O_9 
REMARK    5  A    between atoms: C_20  and  C_21 
ROOT
HETATM    1  C   UNL     1     -44.774 -51.525  13.045  1.00  0.00     0.033 A 
HETATM    2  N   UNL     1     -44.350 -50.299  13.023  1.00  0.00    -0.299 N 
ATOM      3  HN  UNL     1     -45.011 -49.521  13.032  1.00  0.00     0.187 HD
HETATM    4  N   UNL     1     -43.000 -50.066  12.986  1.00  0.00    -0.253 N 
HETATM    5  C   UNL     1     -42.050 -51.071  13.019  1.00  0.00     0.283 A 
HETATM    6  O   UNL     1     -40.842 -50.862  13.055  1.00  0.00    -0.265 OA
HETATM    7  C   UNL     1     -42.565 -52.463  12.984  1.00  0.00     0.122 A 
HETATM    8  C   UNL     1     -41.593 -53.502  12.942  1.00  0.00     0.106 C 
HETATM    9  N   UNL     1     -40.856 -54.396  12.910  1.00  0.00    -0.191 NA
HETATM   10  C   UNL     1     -43.888 -52.727  12.985  1.00  0.00    -0.008 A 
ENDROOT
BRANCH  10  11
HETATM   11  C   UNL     1     -44.462 -54.118  12.837  1.00  0.00     0.038 C 
HETATM   12  C   UNL     1     -44.714 -54.834  14.159  1.00  0.00     0.010 C 
ENDBRANCH  10  11
BRANCH   4  13
HETATM   13  C   UNL     1     -42.578 -48.658  13.051  1.00  0.00     0.190 C 
BRANCH  13  14
HETATM   14  C   UNL     1     -42.608 -47.928  11.680  1.00  0.00     0.076 C 
HETATM   15  C   UNL     1     -41.370 -48.202  10.808  1.00  0.00     0.040 C 
HETATM   16  C   UNL     1     -40.099 -47.570  11.368  1.00  0.00     0.003 C 
HETATM   17  C   UNL     1     -40.269 -46.072  11.603  1.00  0.00     0.000 C 
HETATM   18  C   UNL     1     -41.501 -45.751  12.446  1.00  0.00     0.003 C 
HETATM   19  C   UNL     1     -42.760 -46.407  11.879  1.00  0.00     0.040 C 
BRANCH  14  20
HETATM   20  O   UNL     1     -43.763 -48.372  10.949  1.00  0.00    -0.388 OA
HETATM   21  H   UNL     1     -43.519 -49.248  10.581  1.00  0.00     0.210 HD
ENDBRANCH  14  20
ENDBRANCH  13  14
ENDBRANCH   4  13
BRANCH   1  22
HETATM   22  C   UNL     1     -46.285 -51.688  13.149  1.00  0.00     0.055 C 
HETATM   23  C   UNL     1     -46.774 -51.454  14.568  1.00  0.00     0.011 C 
ENDBRANCH   1  22
TORSDOF 5
ENDMDL
MODEL 3
REMARK VINA RESULT:      -5.7      2.211      5.731
REMARK  5 active torsions:
REMARK  status: ('A' for Active; 'I' for Inactive)
REMARK    1  A    between atoms: C_2  and  C_3 
REMARK    2  A    between atoms: N_6  and  C_7 
REMARK    3  A    between atoms: C_7  and  C_8 
REMARK    4  A    between atoms: C_8  and  O_9 
REMARK    5  A    between atoms: C_20  and  C_21 
ROOT
HETATM    1  C   UNL     1     -41.467 -49.460  11.744  1.00  0.00     0.033 A 
HETATM    2  N   UNL     1     -42.333 -50.415  11.900  1.00  0.00    -0.299 N 
ATOM      3  HN  UNL     1     -43.329 -50.239  11.768  1.00  0.00     0.187 HD
HETATM    4  N   UNL     1     -41.885 -51.663  12.245  1.00  0.00    -0.253 N 
HETATM    5  C   UNL     1     -40.547 -51.982  12.395  1.00  0.00     0.283 A 
HETATM    6  O   UNL     1     -40.142 -53.114  12.637  1.00  0.00    -0.265 OA
HETATM    7  C   UNL     1     -39.587 -50.857  12.269  1.00  0.00     0.122 A 
HETATM    8  C   UNL     1     -38.215 -51.162  12.495  1.00  0.00     0.106 C 
HETATM    9  N   UNL     1     -37.082 -51.341  12.663  1.00  0.00    -0.191 NA
HETATM   10  C   UNL     1     -39.997 -49.609  11.963  1.00  0.00    -0.008 A 
ENDROOT
BRANCH  10  11
HETATM   11  C   UNL     1     -39.074 -48.411  11.934  1.00  0.00     0.038 C 
HETATM   12  C   UNL     1     -38.998 -47.651  13.253  1.00  0.00     0.010 C 
ENDBRANCH  10  11
BRANCH   4  13
HETATM   13  C   UNL     1     -42.903 -52.724  12.322  1.00  0.00     0.190 C 
BRANCH  13  14
HETATM   14  C   UNL     1     -44.040 -52.434  13.339  1.00  0.00     0.076 C 
HETATM   15  C   UNL     1     -43.531 -52.041  14.738  1.00  0.00     0.040 C 
HETATM   16  C   UNL     1     -42.867 -53.202  15.473  1.00  0.00     0.003 C 
HETATM   17  C   UNL     1     -43.785 -54.418  15.557  1.00  0.00     0.000 C 
HETATM   18  C   UNL     1     -44.333 -54.829  14.192  1.00  0.00     0.003 C 
HETATM   19  C   UNL     1     -44.978 -53.650  13.465  1.00  0.00     0.040 C 
BRANCH  14  20
HETATM   20  O   UNL     1     -44.833 -51.342  12.842  1.00  0.00    -0.388 OA
HETATM   21  H   UNL     1     -44.253 -50.864  12.212  1.00  0.00     0.210 HD
ENDBRANCH  14  20
ENDBRANCH  13  14
ENDBRANCH   4  13
BRANCH   1  22
HETATM   22  C   UNL     1     -42.047 -48.124  11.299  1.00  0.00     0.055 C 
HETATM   23  C   UNL     1     -43.013 -47.566  12.331  1.00  0.00     0.011 C 
ENDBRANCH   1  22
TORSDOF 5
ENDMDL
MODEL 4
REMARK VINA RESULT:      -5.6      2.142      5.961
REMARK  5 active torsions:
REMARK  status: ('A' for Active; 'I' for Inactive)
REMARK    1  A    between atoms: C_2  and  C_3 
REMARK    2  A    between atoms: N_6  and  C_7 
REMARK    3  A    between atoms: C_7  and  C_8 
REMARK    4  A    between atoms: C_8  and  O_9 
REMARK    5  A    between atoms: C_20  and  C_21 
ROOT
HETATM    1  C   UNL     1     -41.475 -49.420  11.865  1.00  0.00     0.033 A 
HETATM    2  N   UNL     1     -42.337 -50.378  12.020  1.00  0.00    -0.299 N 
ATOM      3  HN  UNL     1     -43.337 -50.197  11.928  1.00  0.00     0.187 HD
HETATM    4  N   UNL     1     -41.881 -51.637  12.311  1.00  0.00    -0.253 N 
HETATM    5  C   UNL     1     -40.539 -51.961  12.404  1.00  0.00     0.283 A 
HETATM    6  O   UNL     1     -40.128 -53.101  12.597  1.00  0.00    -0.265 OA
HETATM    7  C   UNL     1     -39.580 -50.835  12.280  1.00  0.00     0.122 A 
HETATM    8  C   UNL     1     -38.203 -51.149  12.449  1.00  0.00     0.106 C 
HETATM    9  N   UNL     1     -37.065 -51.334  12.573  1.00  0.00    -0.191 NA
HETATM   10  C   UNL     1     -39.998 -49.577  12.028  1.00  0.00    -0.008 A 
ENDROOT
BRANCH  10  11
HETATM   11  C   UNL     1     -39.074 -48.380  12.005  1.00  0.00     0.038 C 
HETATM   12  C   UNL     1     -38.933 -47.675  13.349  1.00  0.00     0.010 C 
ENDBRANCH  10  11
BRANCH   4  13
HETATM   13  C   UNL     1     -42.897 -52.698  12.389  1.00  0.00     0.190 C 
BRANCH  13  14
HETATM   14  C   UNL     1     -43.372 -53.010  13.834  1.00  0.00     0.076 C 
HETATM   15  C   UNL     1     -44.515 -54.040  13.900  1.00  0.00     0.040 C 
HETATM   16  C   UNL     1     -45.830 -53.499  13.346  1.00  0.00     0.003 C 
HETATM   17  C   UNL     1     -46.240 -52.198  14.030  1.00  0.00     0.000 C 
HETATM   18  C   UNL     1     -45.125 -51.154  14.010  1.00  0.00     0.003 C 
HETATM   19  C   UNL     1     -43.812 -51.719  14.551  1.00  0.00     0.040 C 
BRANCH  14  20
HETATM   20  O   UNL     1     -42.263 -53.544  14.577  1.00  0.00    -0.388 OA
HETATM   21  H   UNL     1     -42.637 -53.829  15.438  1.00  0.00     0.210 HD
ENDBRANCH  14  20
ENDBRANCH  13  14
ENDBRANCH   4  13
BRANCH   1  22
HETATM   22  C   UNL     1     -42.067 -48.070  11.482  1.00  0.00     0.055 C 
HETATM   23  C   UNL     1     -42.255 -47.951   9.980  1.00  0.00     0.011 C 
ENDBRANCH   1  22
TORSDOF 5
ENDMDL
MODEL 5
REMARK VINA RESULT:      -5.6      2.138      2.724
REMARK  5 active torsions:
REMARK  status: ('A' for Active; 'I' for Inactive)
REMARK    1  A    between atoms: C_2  and  C_3 
REMARK    2  A    between atoms: N_6  and  C_7 
REMARK    3  A    between atoms: C_7  and  C_8 
REMARK    4  A    between atoms: C_8  and  O_9 
REMARK    5  A    between atoms: C_20  and  C_21 
ROOT
HETATM    1  C   UNL     1     -42.998 -52.442  12.780  1.00  0.00     0.033 A 
HETATM    2  N   UNL     1     -42.613 -51.428  12.066  1.00  0.00    -0.299 N 
ATOM      3  HN  UNL     1     -43.297 -50.844  11.585  1.00  0.00     0.187 HD
HETATM    4  N   UNL     1     -41.274 -51.157  11.970  1.00  0.00    -0.253 N 
HETATM    5  C   UNL     1     -40.298 -51.879  12.633  1.00  0.00     0.283 A 
HETATM    6  O   UNL     1     -39.105 -51.595  12.603  1.00  0.00    -0.265 OA
HETATM    7  C   UNL     1     -40.762 -53.067  13.393  1.00  0.00     0.122 A 
HETATM    8  C   UNL     1     -39.757 -53.858  14.016  1.00  0.00     0.106 C 
HETATM    9  N   UNL     1     -38.991 -54.545  14.551  1.00  0.00    -0.191 NA
HETATM   10  C   UNL     1     -42.071 -53.382  13.480  1.00  0.00    -0.008 A 
ENDROOT
BRANCH  10  11
HETATM   11  C   UNL     1     -42.584 -54.641  14.144  1.00  0.00     0.038 C 
HETATM   12  C   UNL     1     -42.950 -54.466  15.613  1.00  0.00     0.010 C 
ENDBRANCH  10  11
BRANCH   4  13
HETATM   13  C   UNL     1     -40.905 -49.945  11.221  1.00  0.00     0.190 C 
BRANCH  13  14
HETATM   14  C   UNL     1     -41.657 -48.666  11.681  1.00  0.00     0.076 C 
HETATM   15  C   UNL     1     -41.140 -47.375  11.021  1.00  0.00     0.040 C 
HETATM   16  C   UNL     1     -39.740 -46.991  11.490  1.00  0.00     0.003 C 
HETATM   17  C   UNL     1     -39.661 -46.885  13.011  1.00  0.00     0.000 C 
HETATM   18  C   UNL     1     -40.187 -48.137  13.709  1.00  0.00     0.003 C 
HETATM   19  C   UNL     1     -41.582 -48.516  13.213  1.00  0.00     0.040 C 
BRANCH  14  20
HETATM   20  O   UNL     1     -43.047 -48.803  11.341  1.00  0.00    -0.388 OA
HETATM   21  H   UNL     1     -43.377 -47.887  11.216  1.00  0.00     0.210 HD
ENDBRANCH  14  20
ENDBRANCH  13  14
ENDBRANCH   4  13
BRANCH   1  22
HETATM   22  C   UNL     1     -44.506 -52.631  12.881  1.00  0.00     0.055 C 
HETATM   23  C   UNL     1     -45.197 -51.354  13.325  1.00  0.00     0.011 C 
ENDBRANCH   1  22
TORSDOF 5
ENDMDL
MODEL 6
REMARK VINA RESULT:      -5.4      2.041      6.262
REMARK  5 active torsions:
REMARK  status: ('A' for Active; 'I' for Inactive)
REMARK    1  A    between atoms: C_2  and  C_3 
REMARK    2  A    between atoms: N_6  and  C_7 
REMARK    3  A    between atoms: C_7  and  C_8 
REMARK    4  A    between atoms: C_8  and  O_9 
REMARK    5  A    between atoms: C_20  and  C_21 
ROOT
HETATM    1  C   UNL     1     -39.933 -52.687  13.630  1.00  0.00     0.033 A 
HETATM    2  N   UNL     1     -41.117 -53.091  13.284  1.00  0.00    -0.299 N 
ATOM      3  HN  UNL     1     -41.381 -54.072  13.384  1.00  0.00     0.187 HD
HETATM    4  N   UNL     1     -42.007 -52.178  12.781  1.00  0.00    -0.253 N 
HETATM    5  C   UNL     1     -41.731 -50.828  12.662  1.00  0.00     0.283 A 
HETATM    6  O   UNL     1     -42.549 -50.000  12.275  1.00  0.00    -0.265 OA
HETATM    7  C   UNL     1     -40.351 -50.406  13.009  1.00  0.00     0.122 A 
HETATM    8  C   UNL     1     -40.037 -49.031  12.818  1.00  0.00     0.106 C 
HETATM    9  N   UNL     1     -39.715 -47.925  12.689  1.00  0.00    -0.191 NA
HETATM   10  C   UNL     1     -39.440 -51.285  13.475  1.00  0.00    -0.008 A 
ENDROOT
BRANCH  10  11
HETATM   11  C   UNL     1     -37.993 -50.929  13.735  1.00  0.00     0.038 C 
HETATM   12  C   UNL     1     -37.087 -51.073  12.518  1.00  0.00     0.010 C 
ENDBRANCH  10  11
BRANCH   4  13
HETATM   13  C   UNL     1     -43.360 -52.678  12.489  1.00  0.00     0.190 C 
BRANCH  13  14
HETATM   14  C   UNL     1     -44.103 -53.247  13.728  1.00  0.00     0.076 C 
HETATM   15  C   UNL     1     -45.565 -53.636  13.447  1.00  0.00     0.040 C 
HETATM   16  C   UNL     1     -46.459 -52.426  13.189  1.00  0.00     0.003 C 
HETATM   17  C   UNL     1     -46.382 -51.413  14.328  1.00  0.00     0.000 C 
HETATM   18  C   UNL     1     -44.945 -51.016  14.658  1.00  0.00     0.003 C 
HETATM   19  C   UNL     1     -44.061 -52.241  14.895  1.00  0.00     0.040 C 
BRANCH  14  20
HETATM   20  O   UNL     1     -43.416 -54.430  14.172  1.00  0.00    -0.388 OA
HETATM   21  H   UNL     1     -42.626 -54.506  13.594  1.00  0.00     0.210 HD
ENDBRANCH  14  20
ENDBRANCH  13  14
ENDBRANCH   4  13
BRANCH   1  22
HETATM   22  C   UNL     1     -39.034 -53.756  14.236  1.00  0.00     0.055 C 
HETATM   23  C   UNL     1     -39.836 -54.776  15.025  1.00  0.00     0.011 C 
ENDBRANCH   1  22
TORSDOF 5
ENDMDL
MODEL 7
REMARK VINA RESULT:      -5.3      2.548      3.338
REMARK  5 active torsions:
REMARK  status: ('A' for Active; 'I' for Inactive)
REMARK    1  A    between atoms: C_2  and  C_3 
REMARK    2  A    between atoms: N_6  and  C_7 
REMARK    3  A    between atoms: C_7  and  C_8 
REMARK    4  A    between atoms: C_8  and  O_9 
REMARK    5  A    between atoms: C_20  and  C_21 
ROOT
HETATM    1  C   UNL     1     -44.763 -51.631  13.376  1.00  0.00     0.033 A 
HETATM    2  N   UNL     1     -43.791 -51.136  12.672  1.00  0.00    -0.299 N 
ATOM      3  HN  UNL     1     -43.656 -51.422  11.701  1.00  0.00     0.187 HD
HETATM    4  N   UNL     1     -42.950 -50.224  13.253  1.00  0.00    -0.253 N 
HETATM    5  C   UNL     1     -43.104 -49.758  14.546  1.00  0.00     0.283 A 
HETATM    6  O   UNL     1     -42.393 -48.892  15.045  1.00  0.00    -0.265 OA
HETATM    7  C   UNL     1     -44.186 -50.385  15.346  1.00  0.00     0.122 A 
HETATM    8  C   UNL     1     -44.303 -49.965  16.701  1.00  0.00     0.106 C 
HETATM    9  N   UNL     1     -44.456 -49.667  17.810  1.00  0.00    -0.191 NA
HETATM   10  C   UNL     1     -45.011 -51.311  14.815  1.00  0.00    -0.008 A 
ENDROOT
BRANCH  10  11
HETATM   11  C   UNL     1     -46.052 -52.059  15.617  1.00  0.00     0.038 C 
HETATM   12  C   UNL     1     -47.417 -51.381  15.654  1.00  0.00     0.010 C 
ENDBRANCH  10  11
BRANCH   4  13
HETATM   13  C   UNL     1     -41.923 -49.634  12.380  1.00  0.00     0.190 C 
BRANCH  13  14
HETATM   14  C   UNL     1     -40.739 -50.589  12.065  1.00  0.00     0.076 C 
HETATM   15  C   UNL     1     -40.100 -51.214  13.318  1.00  0.00     0.040 C 
HETATM   16  C   UNL     1     -39.344 -50.196  14.166  1.00  0.00     0.003 C 
HETATM   17  C   UNL     1     -38.298 -49.444  13.348  1.00  0.00     0.000 C 
HETATM   18  C   UNL     1     -38.884 -48.827  12.081  1.00  0.00     0.003 C 
HETATM   19  C   UNL     1     -39.652 -49.857  11.254  1.00  0.00     0.040 C 
BRANCH  14  20
HETATM   20  O   UNL     1     -41.223 -51.664  11.241  1.00  0.00    -0.388 OA
HETATM   21  H   UNL     1     -41.566 -51.236  10.428  1.00  0.00     0.210 HD
ENDBRANCH  14  20
ENDBRANCH  13  14
ENDBRANCH   4  13
BRANCH   1  22
HETATM   22  C   UNL     1     -45.684 -52.588  12.632  1.00  0.00     0.055 C 
HETATM   23  C   UNL     1     -46.787 -51.842  11.901  1.00  0.00     0.011 C 
ENDBRANCH   1  22
TORSDOF 5
ENDMDL
MODEL 8
REMARK VINA RESULT:      -5.2      2.547      6.518
REMARK  5 active torsions:
REMARK  status: ('A' for Active; 'I' for Inactive)
REMARK    1  A    between atoms: C_2  and  C_3 
REMARK    2  A    between atoms: N_6  and  C_7 
REMARK    3  A    between atoms: C_7  and  C_8 
REMARK    4  A    between atoms: C_8  and  O_9 
REMARK    5  A    between atoms: C_20  and  C_21 
ROOT
HETATM    1  C   UNL     1     -39.674 -49.511  11.851  1.00  0.00     0.033 A 
HETATM    2  N   UNL     1     -40.223 -50.686  11.792  1.00  0.00    -0.299 N 
ATOM      3  HN  UNL     1     -39.680 -51.498  11.497  1.00  0.00     0.187 HD
HETATM    4  N   UNL     1     -41.543 -50.817  12.132  1.00  0.00    -0.253 N 
HETATM    5  C   UNL     1     -42.324 -49.768  12.585  1.00  0.00     0.283 A 
HETATM    6  O   UNL     1     -43.486 -49.898  12.954  1.00  0.00    -0.265 OA
HETATM    7  C   UNL     1     -41.686 -48.428  12.585  1.00  0.00     0.122 A 
HETATM    8  C   UNL     1     -42.506 -47.332  12.978  1.00  0.00     0.106 C 
HETATM    9  N   UNL     1     -43.115 -46.397  13.291  1.00  0.00    -0.191 NA
HETATM   10  C   UNL     1     -40.398 -48.258  12.224  1.00  0.00    -0.008 A 
ENDROOT
BRANCH  10  11
HETATM   11  C   UNL     1     -39.737 -46.904  12.099  1.00  0.00     0.038 C 
HETATM   12  C   UNL     1     -40.021 -46.190  10.783  1.00  0.00     0.010 C 
ENDBRANCH  10  11
BRANCH   4  13
HETATM   13  C   UNL     1     -42.086 -52.185  12.130  1.00  0.00     0.190 C 
BRANCH  13  14
HETATM   14  C   UNL     1     -41.337 -53.162  13.078  1.00  0.00     0.076 C 
HETATM   15  C   UNL     1     -42.078 -54.491  13.306  1.00  0.00     0.040 C 
HETATM   16  C   UNL     1     -43.355 -54.323  14.124  1.00  0.00     0.003 C 
HETATM   17  C   UNL     1     -43.087 -53.623  15.454  1.00  0.00     0.000 C 
HETATM   18  C   UNL     1     -42.331 -52.309  15.276  1.00  0.00     0.003 C 
HETATM   19  C   UNL     1     -41.065 -52.494  14.439  1.00  0.00     0.040 C 
BRANCH  14  20
HETATM   20  O   UNL     1     -40.057 -53.470  12.500  1.00  0.00    -0.388 OA
HETATM   21  H   UNL     1     -39.812 -54.349  12.861  1.00  0.00     0.210 HD
ENDBRANCH  14  20
ENDBRANCH  13  14
ENDBRANCH   4  13
BRANCH   1  22
HETATM   22  C   UNL     1     -38.189 -49.470  11.516  1.00  0.00     0.055 C 
HETATM   23  C   UNL     1     -37.446 -50.639  12.141  1.00  0.00     0.011 C 
ENDBRANCH   1  22
TORSDOF 5
ENDMDL
MODEL 9
REMARK VINA RESULT:      -5.2     15.914     18.296
REMARK  5 active torsions:
REMARK  status: ('A' for Active; 'I' for Inactive)
REMARK    1  A    between atoms: C_2  and  C_3 
REMARK    2  A    between atoms: N_6  and  C_7 
REMARK    3  A    between atoms: C_7  and  C_8 
REMARK    4  A    between atoms: C_8  and  O_9 
REMARK    5  A    between atoms: C_20  and  C_21 
ROOT
HETATM    1  C   UNL     1     -51.178 -52.966  -1.532  1.00  0.00     0.033 A 
HETATM    2  N   UNL     1     -50.924 -53.877  -2.420  1.00  0.00    -0.299 N 
ATOM      3  HN  UNL     1     -51.635 -54.561  -2.681  1.00  0.00     0.187 HD
HETATM    4  N   UNL     1     -49.684 -53.906  -3.002  1.00  0.00    -0.253 N 
HETATM    5  C   UNL     1     -48.690 -52.982  -2.730  1.00  0.00     0.283 A 
HETATM    6  O   UNL     1     -47.604 -52.966  -3.300  1.00  0.00    -0.265 OA
HETATM    7  C   UNL     1     -48.989 -51.990  -1.667  1.00  0.00     0.122 A 
HETATM    8  C   UNL     1     -47.945 -51.084  -1.329  1.00  0.00     0.106 C 
HETATM    9  N   UNL     1     -47.141 -50.314  -1.006  1.00  0.00    -0.191 NA
HETATM   10  C   UNL     1     -50.188 -51.955  -1.051  1.00  0.00    -0.008 A 
ENDROOT
BRANCH  10  11
HETATM   11  C   UNL     1     -50.503 -51.041   0.112  1.00  0.00     0.038 C 
HETATM   12  C   UNL     1     -51.161 -49.726  -0.289  1.00  0.00     0.010 C 
ENDBRANCH  10  11
BRANCH   4  13
HETATM   13  C   UNL     1     -49.483 -54.905  -4.064  1.00  0.00     0.190 C 
BRANCH  13  14
HETATM   14  C   UNL     1     -49.366 -56.363  -3.543  1.00  0.00     0.076 C 
HETATM   15  C   UNL     1     -48.235 -57.168  -4.208  1.00  0.00     0.040 C 
HETATM   16  C   UNL     1     -48.514 -57.478  -5.676  1.00  0.00     0.003 C 
HETATM   17  C   UNL     1     -49.855 -58.184  -5.860  1.00  0.00     0.000 C 
HETATM   18  C   UNL     1     -51.005 -57.431  -5.194  1.00  0.00     0.003 C 
HETATM   19  C   UNL     1     -50.699 -57.114  -3.730  1.00  0.00     0.040 C 
BRANCH  14  20
HETATM   20  O   UNL     1     -49.102 -56.326  -2.130  1.00  0.00    -0.388 OA
HETATM   21  H   UNL     1     -49.122 -55.376  -1.885  1.00  0.00     0.210 HD
ENDBRANCH  14  20
ENDBRANCH  13  14
ENDBRANCH   4  13
BRANCH   1  22
HETATM   22  C   UNL     1     -52.600 -52.971  -0.985  1.00  0.00     0.055 C 
HETATM   23  C   UNL     1     -53.031 -54.368  -0.571  1.00  0.00     0.011 C 
ENDBRANCH   1  22
TORSDOF 5
ENDMDL
