MODEL 1
REMARK VINA RESULT:      -6.5      0.000      0.000
REMARK  3 active torsions:
REMARK  status: ('A' for Active; 'I' for Inactive)
REMARK    1  A    between atoms: C_4  and  N_5 
REMARK       I    between atoms: N_5  and  C_6 
REMARK       I    between atoms: C_6  and  N_8 
REMARK    2  A    between atoms: N_8  and  C_9 
REMARK    3  A    between atoms: C_13  and  C_16 
ROOT
HETATM    1  C   UNL     1     -42.942 -47.522   9.514  1.00  0.00     0.109 A 
HETATM    2  C   UNL     1     -42.850 -46.144   9.414  1.00  0.00     0.049 A 
HETATM    3  C   UNL     1     -43.999 -45.417   9.106  1.00  0.00     0.006 A 
HETATM    4  C   UNL     1     -45.207 -46.085   8.914  1.00  0.00     0.034 A 
HETATM    5  C   UNL     1     -45.235 -47.470   9.040  1.00  0.00     0.118 A 
HETATM    6  N   UNL     1     -44.108 -48.177   9.334  1.00  0.00    -0.339 N 
ATOM      7  HN  UNL     1     -44.146 -49.192   9.419  1.00  0.00     0.167 HD
ENDROOT
BRANCH   1   8
HETATM    8  N   UNL     1     -41.789 -48.258   9.801  1.00  0.00    -0.295 N 
HETATM    9  C   UNL     1     -41.364 -48.726  11.014  1.00  0.00     0.322 C 
HETATM   10  N   UNL     1     -42.133 -48.407  12.096  1.00  0.00    -0.338 N 
HETATM   11  O   UNL     1     -40.337 -49.401  11.076  1.00  0.00    -0.247 OA
HETATM   12  H   UNL     1     -42.958 -47.849  11.895  1.00  0.00     0.164 HD
HETATM   13  H   UNL     1     -41.183 -48.529   9.040  1.00  0.00     0.172 HD
BRANCH  10  14
HETATM   14  C   UNL     1     -41.931 -48.885  13.417  1.00  0.00     0.090 A 
HETATM   15  C   UNL     1     -42.853 -49.911  14.032  1.00  0.00     0.006 A 
HETATM   16  C   UNL     1     -44.030 -50.454  13.291  1.00  0.00     0.012 C 
HETATM   17  C   UNL     1     -42.873 -48.489  14.527  1.00  0.00     0.032 A 
ENDBRANCH  10  14
ENDBRANCH   1   8
BRANCH   5  18
HETATM   18  C   UNL     1     -46.527 -48.249   8.846  1.00  0.00     0.432 C 
HETATM   19  F   UNL     1     -47.652 -47.485   8.980  1.00  0.00    -0.165 F 
HETATM   20  F   UNL     1     -46.617 -48.823   7.613  1.00  0.00    -0.165 F 
HETATM   21  F   UNL     1     -46.667 -49.268   9.742  1.00  0.00    -0.165 F 
ENDBRANCH   5  18
TORSDOF 3
ENDMDL
MODEL 2
REMARK VINA RESULT:      -6.3      2.604      3.370
REMARK  3 active torsions:
REMARK  status: ('A' for Active; 'I' for Inactive)
REMARK    1  A    between atoms: C_4  and  N_5 
REMARK       I    between atoms: N_5  and  C_6 
REMARK       I    between atoms: C_6  and  N_8 
REMARK    2  A    between atoms: N_8  and  C_9 
REMARK    3  A    between atoms: C_13  and  C_16 
ROOT
HETATM    1  C   UNL     1     -41.282 -48.496  11.008  1.00  0.00     0.109 A 
HETATM    2  C   UNL     1     -41.974 -47.955  12.079  1.00  0.00     0.049 A 
HETATM    3  C   UNL     1     -43.176 -47.294  11.832  1.00  0.00     0.006 A 
HETATM    4  C   UNL     1     -43.655 -47.198  10.527  1.00  0.00     0.034 A 
HETATM    5  C   UNL     1     -42.918 -47.773   9.497  1.00  0.00     0.118 A 
HETATM    6  N   UNL     1     -41.740 -48.413   9.743  1.00  0.00    -0.339 N 
ATOM      7  HN  UNL     1     -41.210 -48.825   8.975  1.00  0.00     0.167 HD
ENDROOT
BRANCH   1   8
HETATM    8  N   UNL     1     -40.065 -49.142  11.247  1.00  0.00    -0.295 N 
HETATM    9  C   UNL     1     -39.853 -50.452  11.580  1.00  0.00     0.322 C 
HETATM   10  N   UNL     1     -40.963 -51.229  11.741  1.00  0.00    -0.338 N 
HETATM   11  O   UNL     1     -38.701 -50.864  11.710  1.00  0.00    -0.247 OA
HETATM   12  H   UNL     1     -41.851 -50.756  11.595  1.00  0.00     0.164 HD
HETATM   13  H   UNL     1     -39.208 -48.620  11.138  1.00  0.00     0.172 HD
BRANCH  10  14
HETATM   14  C   UNL     1     -40.959 -52.630  11.973  1.00  0.00     0.090 A 
HETATM   15  C   UNL     1     -42.103 -53.312  12.686  1.00  0.00     0.006 A 
HETATM   16  C   UNL     1     -43.278 -52.546  13.198  1.00  0.00     0.012 C 
HETATM   17  C   UNL     1     -40.767 -53.174  13.367  1.00  0.00     0.032 A 
ENDBRANCH  10  14
ENDBRANCH   1   8
BRANCH   5  18
HETATM   18  C   UNL     1     -43.396 -47.702   8.055  1.00  0.00     0.432 C 
HETATM   19  F   UNL     1     -42.763 -48.584   7.226  1.00  0.00    -0.165 F 
HETATM   20  F   UNL     1     -44.727 -47.968   7.928  1.00  0.00    -0.165 F 
HETATM   21  F   UNL     1     -43.207 -46.473   7.497  1.00  0.00    -0.165 F 
ENDBRANCH   5  18
TORSDOF 3
ENDMDL
MODEL 3
REMARK VINA RESULT:      -6.2      2.416      3.378
REMARK  3 active torsions:
REMARK  status: ('A' for Active; 'I' for Inactive)
REMARK    1  A    between atoms: C_4  and  N_5 
REMARK       I    between atoms: N_5  and  C_6 
REMARK       I    between atoms: C_6  and  N_8 
REMARK    2  A    between atoms: N_8  and  C_9 
REMARK    3  A    between atoms: C_13  and  C_16 
ROOT
HETATM    1  C   UNL     1     -41.656 -48.928  11.285  1.00  0.00     0.109 A 
HETATM    2  C   UNL     1     -41.943 -48.082  12.344  1.00  0.00     0.049 A 
HETATM    3  C   UNL     1     -42.750 -46.970  12.111  1.00  0.00     0.006 A 
HETATM    4  C   UNL     1     -43.253 -46.737  10.833  1.00  0.00     0.034 A 
HETATM    5  C   UNL     1     -42.937 -47.631   9.815  1.00  0.00     0.118 A 
HETATM    6  N   UNL     1     -42.143 -48.714  10.046  1.00  0.00    -0.339 N 
ATOM      7  HN  UNL     1     -41.918 -49.357   9.287  1.00  0.00     0.167 HD
ENDROOT
BRANCH   1   8
HETATM    8  N   UNL     1     -40.830 -50.033  11.508  1.00  0.00    -0.295 N 
HETATM    9  C   UNL     1     -41.190 -51.295  11.895  1.00  0.00     0.322 C 
HETATM   10  N   UNL     1     -42.517 -51.505  12.137  1.00  0.00    -0.338 N 
HETATM   11  O   UNL     1     -40.326 -52.165  12.000  1.00  0.00    -0.247 OA
HETATM   12  H   UNL     1     -43.117 -50.696  12.003  1.00  0.00     0.164 HD
HETATM   13  H   UNL     1     -39.839 -49.940  11.339  1.00  0.00     0.172 HD
BRANCH  10  14
HETATM   14  C   UNL     1     -43.109 -52.760  12.437  1.00  0.00     0.090 A 
HETATM   15  C   UNL     1     -44.535 -52.860  12.923  1.00  0.00     0.006 A 
HETATM   16  C   UNL     1     -45.381 -51.648  13.132  1.00  0.00     0.012 C 
HETATM   17  C   UNL     1     -43.397 -53.148  13.866  1.00  0.00     0.032 A 
ENDBRANCH  10  14
ENDBRANCH   1   8
BRANCH   5  18
HETATM   18  C   UNL     1     -43.464 -47.430   8.402  1.00  0.00     0.432 C 
HETATM   19  F   UNL     1     -42.950 -48.314   7.496  1.00  0.00    -0.165 F 
HETATM   20  F   UNL     1     -44.817 -47.563   8.320  1.00  0.00    -0.165 F 
HETATM   21  F   UNL     1     -43.181 -46.191   7.906  1.00  0.00    -0.165 F 
ENDBRANCH   5  18
TORSDOF 3
ENDMDL
MODEL 4
REMARK VINA RESULT:      -6.0      2.656      5.353
REMARK  3 active torsions:
REMARK  status: ('A' for Active; 'I' for Inactive)
REMARK    1  A    between atoms: C_4  and  N_5 
REMARK       I    between atoms: N_5  and  C_6 
REMARK       I    between atoms: C_6  and  N_8 
REMARK    2  A    between atoms: N_8  and  C_9 
REMARK    3  A    between atoms: C_13  and  C_16 
ROOT
HETATM    1  C   UNL     1     -43.152 -50.085  12.799  1.00  0.00     0.109 A 
HETATM    2  C   UNL     1     -42.172 -51.026  12.531  1.00  0.00     0.049 A 
HETATM    3  C   UNL     1     -42.542 -52.366  12.427  1.00  0.00     0.006 A 
HETATM    4  C   UNL     1     -43.878 -52.727  12.586  1.00  0.00     0.034 A 
HETATM    5  C   UNL     1     -44.816 -51.732  12.843  1.00  0.00     0.118 A 
HETATM    6  N   UNL     1     -44.448 -50.424  12.950  1.00  0.00    -0.339 N 
ATOM      7  HN  UNL     1     -45.148 -49.708  13.142  1.00  0.00     0.167 HD
ENDROOT
BRANCH   1   8
HETATM    8  N   UNL     1     -42.783 -48.743  12.926  1.00  0.00    -0.295 N 
HETATM    9  C   UNL     1     -42.825 -47.759  11.975  1.00  0.00     0.322 C 
HETATM   10  N   UNL     1     -43.240 -48.132  10.729  1.00  0.00    -0.338 N 
HETATM   11  O   UNL     1     -42.502 -46.612  12.277  1.00  0.00    -0.247 OA
HETATM   12  H   UNL     1     -43.483 -49.113  10.626  1.00  0.00     0.164 HD
HETATM   13  H   UNL     1     -42.473 -48.407  13.826  1.00  0.00     0.172 HD
BRANCH  10  14
HETATM   14  C   UNL     1     -43.461 -47.250   9.639  1.00  0.00     0.090 A 
HETATM   15  C   UNL     1     -44.803 -47.171   8.951  1.00  0.00     0.006 A 
HETATM   16  C   UNL     1     -45.952 -48.029   9.367  1.00  0.00     0.012 C 
HETATM   17  C   UNL     1     -43.628 -47.789   8.240  1.00  0.00     0.032 A 
ENDBRANCH  10  14
ENDBRANCH   1   8
BRANCH   5  18
HETATM   18  C   UNL     1     -46.289 -52.068  13.020  1.00  0.00     0.432 C 
HETATM   19  F   UNL     1     -46.971 -52.172  11.841  1.00  0.00    -0.165 F 
HETATM   20  F   UNL     1     -46.485 -53.253  13.664  1.00  0.00    -0.165 F 
HETATM   21  F   UNL     1     -46.959 -51.132  13.750  1.00  0.00    -0.165 F 
ENDBRANCH   5  18
TORSDOF 3
ENDMDL
MODEL 5
REMARK VINA RESULT:      -5.8      4.023      5.812
REMARK  3 active torsions:
REMARK  status: ('A' for Active; 'I' for Inactive)
REMARK    1  A    between atoms: C_4  and  N_5 
REMARK       I    between atoms: N_5  and  C_6 
REMARK       I    between atoms: C_6  and  N_8 
REMARK    2  A    between atoms: N_8  and  C_9 
REMARK    3  A    between atoms: C_13  and  C_16 
ROOT
HETATM    1  C   UNL     1     -41.813 -52.281  12.249  1.00  0.00     0.109 A 
HETATM    2  C   UNL     1     -40.576 -52.515  12.827  1.00  0.00     0.049 A 
HETATM    3  C   UNL     1     -39.677 -51.455  12.934  1.00  0.00     0.006 A 
HETATM    4  C   UNL     1     -40.040 -50.193  12.468  1.00  0.00     0.034 A 
HETATM    5  C   UNL     1     -41.301 -50.022  11.907  1.00  0.00     0.118 A 
HETATM    6  N   UNL     1     -42.175 -51.062  11.800  1.00  0.00    -0.339 N 
ATOM      7  HN  UNL     1     -43.094 -50.920  11.383  1.00  0.00     0.167 HD
ENDROOT
BRANCH   1   8
HETATM    8  N   UNL     1     -42.711 -53.345  12.121  1.00  0.00    -0.295 N 
HETATM    9  C   UNL     1     -43.886 -53.547  12.791  1.00  0.00     0.322 C 
HETATM   10  N   UNL     1     -44.217 -52.621  13.737  1.00  0.00    -0.338 N 
HETATM   11  O   UNL     1     -44.578 -54.526  12.516  1.00  0.00    -0.247 OA
HETATM   12  H   UNL     1     -43.552 -51.860  13.853  1.00  0.00     0.164 HD
HETATM   13  H   UNL     1     -42.522 -54.059  11.432  1.00  0.00     0.172 HD
BRANCH  10  14
HETATM   14  C   UNL     1     -45.438 -52.584  14.460  1.00  0.00     0.090 A 
HETATM   15  C   UNL     1     -46.701 -52.034  13.842  1.00  0.00     0.006 A 
HETATM   16  C   UNL     1     -46.723 -51.483  12.455  1.00  0.00     0.012 C 
HETATM   17  C   UNL     1     -46.005 -51.271  14.938  1.00  0.00     0.032 A 
ENDBRANCH  10  14
ENDBRANCH   1   8
BRANCH   5  18
HETATM   18  C   UNL     1     -41.752 -48.665  11.387  1.00  0.00     0.432 C 
HETATM   19  F   UNL     1     -41.464 -48.463  10.067  1.00  0.00    -0.165 F 
HETATM   20  F   UNL     1     -43.096 -48.475  11.505  1.00  0.00    -0.165 F 
HETATM   21  F   UNL     1     -41.169 -47.626  12.052  1.00  0.00    -0.165 F 
ENDBRANCH   5  18
TORSDOF 3
ENDMDL
MODEL 6
REMARK VINA RESULT:      -5.8      5.516      6.701
REMARK  3 active torsions:
REMARK  status: ('A' for Active; 'I' for Inactive)
REMARK    1  A    between atoms: C_4  and  N_5 
REMARK       I    between atoms: N_5  and  C_6 
REMARK       I    between atoms: C_6  and  N_8 
REMARK    2  A    between atoms: N_8  and  C_9 
REMARK    3  A    between atoms: C_13  and  C_16 
ROOT
HETATM    1  C   UNL     1     -43.979 -53.162  12.820  1.00  0.00     0.109 A 
HETATM    2  C   UNL     1     -44.097 -54.529  13.012  1.00  0.00     0.049 A 
HETATM    3  C   UNL     1     -45.098 -55.001  13.858  1.00  0.00     0.006 A 
HETATM    4  C   UNL     1     -45.957 -54.099  14.482  1.00  0.00     0.034 A 
HETATM    5  C   UNL     1     -45.794 -52.739  14.238  1.00  0.00     0.118 A 
HETATM    6  N   UNL     1     -44.809 -52.281  13.415  1.00  0.00    -0.339 N 
ATOM      7  HN  UNL     1     -44.701 -51.281  13.250  1.00  0.00     0.167 HD
ENDROOT
BRANCH   1   8
HETATM    8  N   UNL     1     -42.963 -52.681  11.989  1.00  0.00    -0.295 N 
HETATM    9  C   UNL     1     -41.697 -52.297  12.335  1.00  0.00     0.322 C 
HETATM   10  N   UNL     1     -41.385 -52.347  13.662  1.00  0.00    -0.338 N 
HETATM   11  O   UNL     1     -40.913 -51.938  11.457  1.00  0.00    -0.247 OA
HETATM   12  H   UNL     1     -42.130 -52.670  14.274  1.00  0.00     0.164 HD
HETATM   13  H   UNL     1     -43.134 -52.627  10.994  1.00  0.00     0.172 HD
BRANCH  10  14
HETATM   14  C   UNL     1     -40.101 -52.100  14.214  1.00  0.00     0.090 A 
HETATM   15  C   UNL     1     -39.098 -53.214  14.401  1.00  0.00     0.006 A 
HETATM   16  C   UNL     1     -39.415 -54.627  14.035  1.00  0.00     0.012 C 
HETATM   17  C   UNL     1     -39.757 -52.587  15.600  1.00  0.00     0.032 A 
ENDBRANCH  10  14
ENDBRANCH   1   8
BRANCH   5  18
HETATM   18  C   UNL     1     -46.706 -51.710  14.888  1.00  0.00     0.432 C 
HETATM   19  F   UNL     1     -47.691 -52.261  15.658  1.00  0.00    -0.165 F 
HETATM   20  F   UNL     1     -46.035 -50.853  15.708  1.00  0.00    -0.165 F 
HETATM   21  F   UNL     1     -47.349 -50.926  13.976  1.00  0.00    -0.165 F 
ENDBRANCH   5  18
TORSDOF 3
ENDMDL
MODEL 7
REMARK VINA RESULT:      -5.8      5.149      6.607
REMARK  3 active torsions:
REMARK  status: ('A' for Active; 'I' for Inactive)
REMARK    1  A    between atoms: C_4  and  N_5 
REMARK       I    between atoms: N_5  and  C_6 
REMARK       I    between atoms: C_6  and  N_8 
REMARK    2  A    between atoms: N_8  and  C_9 
REMARK    3  A    between atoms: C_13  and  C_16 
ROOT
HETATM    1  C   UNL     1     -42.396 -52.674  12.358  1.00  0.00     0.109 A 
HETATM    2  C   UNL     1     -41.693 -53.454  13.262  1.00  0.00     0.049 A 
HETATM    3  C   UNL     1     -40.407 -53.060  13.626  1.00  0.00     0.006 A 
HETATM    4  C   UNL     1     -39.862 -51.897  13.085  1.00  0.00     0.034 A 
HETATM    5  C   UNL     1     -40.624 -51.152  12.191  1.00  0.00     0.118 A 
HETATM    6  N   UNL     1     -41.879 -51.545  11.833  1.00  0.00    -0.339 N 
ATOM      7  HN  UNL     1     -42.422 -50.989  11.173  1.00  0.00     0.167 HD
ENDROOT
BRANCH   1   8
HETATM    8  N   UNL     1     -43.678 -53.076  11.973  1.00  0.00    -0.295 N 
HETATM    9  C   UNL     1     -44.879 -52.718  12.522  1.00  0.00     0.322 C 
HETATM   10  N   UNL     1     -44.831 -51.894  13.609  1.00  0.00    -0.338 N 
HETATM   11  O   UNL     1     -45.921 -53.136  12.021  1.00  0.00    -0.247 OA
HETATM   12  H   UNL     1     -43.899 -51.622  13.910  1.00  0.00     0.164 HD
HETATM   13  H   UNL     1     -43.776 -53.682  11.170  1.00  0.00     0.172 HD
BRANCH  10  14
HETATM   14  C   UNL     1     -45.958 -51.319  14.253  1.00  0.00     0.090 A 
HETATM   15  C   UNL     1     -45.992 -51.122  15.750  1.00  0.00     0.006 A 
HETATM   16  C   UNL     1     -44.857 -51.541  16.624  1.00  0.00     0.012 C 
HETATM   17  C   UNL     1     -46.866 -52.166  15.108  1.00  0.00     0.032 A 
ENDBRANCH  10  14
ENDBRANCH   1   8
BRANCH   5  18
HETATM   18  C   UNL     1     -40.082 -49.872  11.574  1.00  0.00     0.432 C 
HETATM   19  F   UNL     1     -40.123 -48.798  12.418  1.00  0.00    -0.165 F 
HETATM   20  F   UNL     1     -38.781 -49.984  11.185  1.00  0.00    -0.165 F 
HETATM   21  F   UNL     1     -40.772 -49.490  10.461  1.00  0.00    -0.165 F 
ENDBRANCH   5  18
TORSDOF 3
ENDMDL
MODEL 8
REMARK VINA RESULT:      -5.7      2.775      3.624
REMARK  3 active torsions:
REMARK  status: ('A' for Active; 'I' for Inactive)
REMARK    1  A    between atoms: C_4  and  N_5 
REMARK       I    between atoms: N_5  and  C_6 
REMARK       I    between atoms: C_6  and  N_8 
REMARK    2  A    between atoms: N_8  and  C_9 
REMARK    3  A    between atoms: C_13  and  C_16 
ROOT
HETATM    1  C   UNL     1     -41.223 -48.963  10.873  1.00  0.00     0.109 A 
HETATM    2  C   UNL     1     -41.836 -48.753  12.097  1.00  0.00     0.049 A 
HETATM    3  C   UNL     1     -43.027 -48.030  12.132  1.00  0.00     0.006 A 
HETATM    4  C   UNL     1     -43.575 -47.544  10.947  1.00  0.00     0.034 A 
HETATM    5  C   UNL     1     -42.916 -47.798   9.749  1.00  0.00     0.118 A 
HETATM    6  N   UNL     1     -41.748 -48.500   9.720  1.00  0.00    -0.339 N 
ATOM      7  HN  UNL     1     -41.275 -48.674   8.833  1.00  0.00     0.167 HD
ENDROOT
BRANCH   1   8
HETATM    8  N   UNL     1     -40.017 -49.669  10.833  1.00  0.00    -0.295 N 
HETATM    9  C   UNL     1     -38.926 -49.529  11.647  1.00  0.00     0.322 C 
HETATM   10  N   UNL     1     -38.995 -48.552  12.597  1.00  0.00    -0.338 N 
HETATM   11  O   UNL     1     -37.959 -50.273  11.494  1.00  0.00    -0.247 OA
HETATM   12  H   UNL     1     -39.860 -48.017  12.612  1.00  0.00     0.164 HD
HETATM   13  H   UNL     1     -39.909 -50.408  10.154  1.00  0.00     0.172 HD
BRANCH  10  14
HETATM   14  C   UNL     1     -38.025 -48.319  13.607  1.00  0.00     0.090 A 
HETATM   15  C   UNL     1     -38.384 -48.386  15.073  1.00  0.00     0.006 A 
HETATM   16  C   UNL     1     -39.775 -48.680  15.529  1.00  0.00     0.012 C 
HETATM   17  C   UNL     1     -38.071 -47.059  14.436  1.00  0.00     0.032 A 
ENDBRANCH  10  14
ENDBRANCH   1   8
BRANCH   5  18
HETATM   18  C   UNL     1     -43.471 -47.296   8.425  1.00  0.00     0.432 C 
HETATM   19  F   UNL     1     -43.042 -46.042   8.093  1.00  0.00    -0.165 F 
HETATM   20  F   UNL     1     -43.130 -48.093   7.374  1.00  0.00    -0.165 F 
HETATM   21  F   UNL     1     -44.833 -47.231   8.416  1.00  0.00    -0.165 F 
ENDBRANCH   5  18
TORSDOF 3
ENDMDL
MODEL 9
REMARK VINA RESULT:      -5.6      4.801      6.824
REMARK  3 active torsions:
REMARK  status: ('A' for Active; 'I' for Inactive)
REMARK    1  A    between atoms: C_4  and  N_5 
REMARK       I    between atoms: N_5  and  C_6 
REMARK       I    between atoms: C_6  and  N_8 
REMARK    2  A    between atoms: N_8  and  C_9 
REMARK    3  A    between atoms: C_13  and  C_16 
ROOT
HETATM    1  C   UNL     1     -41.187 -49.402  11.167  1.00  0.00     0.109 A 
HETATM    2  C   UNL     1     -41.844 -50.167  12.116  1.00  0.00     0.049 A 
HETATM    3  C   UNL     1     -41.086 -50.949  12.986  1.00  0.00     0.006 A 
HETATM    4  C   UNL     1     -39.696 -50.940  12.888  1.00  0.00     0.034 A 
HETATM    5  C   UNL     1     -39.097 -50.141  11.920  1.00  0.00     0.118 A 
HETATM    6  N   UNL     1     -39.842 -49.383  11.068  1.00  0.00    -0.339 N 
ATOM      7  HN  UNL     1     -39.387 -48.806  10.361  1.00  0.00     0.167 HD
ENDROOT
BRANCH   1   8
HETATM    8  N   UNL     1     -41.943 -48.632  10.278  1.00  0.00    -0.295 N 
HETATM    9  C   UNL     1     -42.174 -47.284  10.309  1.00  0.00     0.322 C 
HETATM   10  N   UNL     1     -41.636 -46.597  11.358  1.00  0.00    -0.338 N 
HETATM   11  O   UNL     1     -42.833 -46.762   9.411  1.00  0.00    -0.247 OA
HETATM   12  H   UNL     1     -41.109 -47.158  12.022  1.00  0.00     0.164 HD
HETATM   13  H   UNL     1     -42.361 -49.085   9.477  1.00  0.00     0.172 HD
BRANCH  10  14
HETATM   14  C   UNL     1     -41.662 -45.187  11.517  1.00  0.00     0.090 A 
HETATM   15  C   UNL     1     -40.606 -44.305  10.893  1.00  0.00     0.006 A 
HETATM   16  C   UNL     1     -39.476 -44.874  10.100  1.00  0.00     0.012 C 
HETATM   17  C   UNL     1     -40.642 -44.495  12.386  1.00  0.00     0.032 A 
ENDBRANCH  10  14
ENDBRANCH   1   8
BRANCH   5  18
HETATM   18  C   UNL     1     -37.584 -50.088  11.773  1.00  0.00     0.432 C 
HETATM   19  F   UNL     1     -37.168 -49.784  10.507  1.00  0.00    -0.165 F 
HETATM   20  F   UNL     1     -37.007 -49.157  12.583  1.00  0.00    -0.165 F 
HETATM   21  F   UNL     1     -36.983 -51.273  12.081  1.00  0.00    -0.165 F 
ENDBRANCH   5  18
TORSDOF 3
ENDMDL
