MODEL 1
REMARK VINA RESULT:      -6.3      0.000      0.000
REMARK  5 active torsions:
REMARK  status: ('A' for Active; 'I' for Inactive)
REMARK    1  A    between atoms: C_2  and  C_3 
REMARK    2  A    between atoms: C_3  and  C_4 
REMARK    3  A    between atoms: C_3  and  C_6 
REMARK    4  A    between atoms: C_8  and  N_12 
REMARK       I    between atoms: N_12  and  C_13 
REMARK       I    between atoms: C_13  and  N_15 
REMARK    5  A    between atoms: N_15  and  C_16 
ROOT
HETATM    1  N   UNL     1     -40.493 -49.476  10.702  1.00  0.00    -0.338 N 
HETATM    2  C   UNL     1     -41.629 -48.701  10.812  1.00  0.00     0.321 C 
HETATM    3  O   UNL     1     -42.161 -48.456  11.890  1.00  0.00    -0.247 OA
HETATM    4  N   UNL     1     -42.032 -48.214   9.586  1.00  0.00    -0.306 N 
HETATM    5  H   UNL     1     -40.347 -49.964   9.831  1.00  0.00     0.164 HD
HETATM    6  H   UNL     1     -41.459 -48.402   8.780  1.00  0.00     0.171 HD
ENDROOT
BRANCH   1   7
HETATM    7  C   UNL     1     -39.860 -50.023  11.897  1.00  0.00     0.090 C 
HETATM    8  C   UNL     1     -38.340 -50.003  11.766  1.00  0.00     0.057 C 
HETATM    9  C   UNL     1     -37.688 -50.525  13.052  1.00  0.00     0.127 C 
HETATM   10  O   UNL     1     -38.154 -51.861  13.292  1.00  0.00    -0.385 OA
HETATM   11  C   UNL     1     -39.569 -52.031  13.376  1.00  0.00     0.170 C 
HETATM   12  C   UNL     1     -40.319 -51.451  12.183  1.00  0.00     0.051 C 
BRANCH   9  13
HETATM   13  C   UNL     1     -37.825 -49.582  14.292  1.00  0.00     0.014 C 
BRANCH  13  14
HETATM   14  C   UNL     1     -37.005 -50.127  15.490  1.00  0.00     0.002 C 
HETATM   15  C   UNL     1     -36.113 -49.088  16.163  1.00  0.00     0.005 C 
ENDBRANCH  13  14
BRANCH  13  16
HETATM   16  C   UNL     1     -37.481 -48.108  13.956  1.00  0.00     0.002 C 
HETATM   17  C   UNL     1     -38.636 -47.126  14.115  1.00  0.00     0.005 C 
ENDBRANCH  13  16
ENDBRANCH   9  13
ENDBRANCH   1   7
BRANCH   4  18
HETATM   18  C   UNL     1     -43.077 -47.321   9.426  1.00  0.00     0.070 A 
HETATM   19  C   UNL     1     -43.096 -45.910   9.357  1.00  0.00     0.138 A 
HETATM   20  N   UNL     1     -44.326 -45.424   9.160  1.00  0.00    -0.308 N 
HETATM   21  N   UNL     1     -45.090 -46.527   9.093  1.00  0.00    -0.306 N 
ATOM     22  HN  UNL     1     -44.615 -44.449   9.079  1.00  0.00     0.186 HD
HETATM   23  C   UNL     1     -46.500 -46.407   8.812  1.00  0.00     0.177 C 
HETATM   24  C   UNL     1     -44.393 -47.690   9.274  1.00  0.00     0.140 A 
ENDBRANCH   4  18
TORSDOF 5
ENDMDL
MODEL 2
REMARK VINA RESULT:      -5.5      4.003      5.689
REMARK  5 active torsions:
REMARK  status: ('A' for Active; 'I' for Inactive)
REMARK    1  A    between atoms: C_2  and  C_3 
REMARK    2  A    between atoms: C_3  and  C_4 
REMARK    3  A    between atoms: C_3  and  C_6 
REMARK    4  A    between atoms: C_8  and  N_12 
REMARK       I    between atoms: N_12  and  C_13 
REMARK       I    between atoms: C_13  and  N_15 
REMARK    5  A    between atoms: N_15  and  C_16 
ROOT
HETATM    1  N   UNL     1     -44.413 -50.443  12.675  1.00  0.00    -0.338 N 
HETATM    2  C   UNL     1     -43.307 -49.619  12.605  1.00  0.00     0.321 C 
HETATM    3  O   UNL     1     -42.291 -49.820  13.263  1.00  0.00    -0.247 OA
HETATM    4  N   UNL     1     -43.483 -48.611  11.681  1.00  0.00    -0.306 N 
HETATM    5  H   UNL     1     -45.309 -50.034  12.458  1.00  0.00     0.164 HD
HETATM    6  H   UNL     1     -44.325 -48.604  11.128  1.00  0.00     0.171 HD
ENDROOT
BRANCH   1   7
HETATM    7  C   UNL     1     -44.398 -51.618  13.540  1.00  0.00     0.090 C 
HETATM    8  C   UNL     1     -44.324 -52.899  12.714  1.00  0.00     0.057 C 
HETATM    9  C   UNL     1     -44.249 -54.122  13.636  1.00  0.00     0.127 C 
HETATM   10  O   UNL     1     -45.411 -54.133  14.478  1.00  0.00    -0.385 OA
HETATM   11  C   UNL     1     -45.633 -52.962  15.263  1.00  0.00     0.170 C 
HETATM   12  C   UNL     1     -45.625 -51.676  14.446  1.00  0.00     0.051 C 
BRANCH   9  13
HETATM   13  C   UNL     1     -42.905 -54.276  14.421  1.00  0.00     0.014 C 
BRANCH  13  14
HETATM   14  C   UNL     1     -42.940 -55.533  15.329  1.00  0.00     0.002 C 
HETATM   15  C   UNL     1     -41.804 -55.604  16.345  1.00  0.00     0.005 C 
ENDBRANCH  13  14
BRANCH  13  16
HETATM   16  C   UNL     1     -41.668 -54.250  13.487  1.00  0.00     0.002 C 
HETATM   17  C   UNL     1     -40.696 -53.103  13.739  1.00  0.00     0.005 C 
ENDBRANCH  13  16
ENDBRANCH   9  13
ENDBRANCH   1   7
BRANCH   4  18
HETATM   18  C   UNL     1     -42.489 -47.714  11.333  1.00  0.00     0.070 A 
HETATM   19  C   UNL     1     -41.293 -47.884  10.600  1.00  0.00     0.138 A 
HETATM   20  N   UNL     1     -40.616 -46.741  10.455  1.00  0.00    -0.308 N 
HETATM   21  N   UNL     1     -41.385 -45.839  11.086  1.00  0.00    -0.306 N 
ATOM     22  HN  UNL     1     -39.727 -46.589   9.978  1.00  0.00     0.186 HD
HETATM   23  C   UNL     1     -41.009 -44.446  11.082  1.00  0.00     0.177 C 
HETATM   24  C   UNL     1     -42.507 -46.376  11.653  1.00  0.00     0.140 A 
ENDBRANCH   4  18
TORSDOF 5
ENDMDL
MODEL 3
REMARK VINA RESULT:      -5.4      1.697      2.549
REMARK  5 active torsions:
REMARK  status: ('A' for Active; 'I' for Inactive)
REMARK    1  A    between atoms: C_2  and  C_3 
REMARK    2  A    between atoms: C_3  and  C_4 
REMARK    3  A    between atoms: C_3  and  C_6 
REMARK    4  A    between atoms: C_8  and  N_12 
REMARK       I    between atoms: N_12  and  C_13 
REMARK       I    between atoms: C_13  and  N_15 
REMARK    5  A    between atoms: N_15  and  C_16 
ROOT
HETATM    1  N   UNL     1     -40.701 -50.247  11.138  1.00  0.00    -0.338 N 
HETATM    2  C   UNL     1     -41.498 -49.133  11.312  1.00  0.00     0.321 C 
HETATM    3  O   UNL     1     -42.016 -48.853  12.389  1.00  0.00    -0.247 OA
HETATM    4  N   UNL     1     -41.577 -48.381  10.160  1.00  0.00    -0.306 N 
HETATM    5  H   UNL     1     -40.650 -50.639  10.210  1.00  0.00     0.164 HD
HETATM    6  H   UNL     1     -41.030 -48.658   9.362  1.00  0.00     0.171 HD
ENDROOT
BRANCH   1   7
HETATM    7  C   UNL     1     -40.426 -51.135  12.262  1.00  0.00     0.090 C 
HETATM    8  C   UNL     1     -38.931 -51.182  12.564  1.00  0.00     0.057 C 
HETATM    9  C   UNL     1     -38.663 -52.072  13.784  1.00  0.00     0.127 C 
HETATM   10  O   UNL     1     -39.163 -53.389  13.509  1.00  0.00    -0.385 OA
HETATM   11  C   UNL     1     -40.542 -53.480  13.152  1.00  0.00     0.170 C 
HETATM   12  C   UNL     1     -40.931 -52.553  12.006  1.00  0.00     0.051 C 
BRANCH   9  13
HETATM   13  C   UNL     1     -39.156 -51.487  15.149  1.00  0.00     0.014 C 
BRANCH  13  14
HETATM   14  C   UNL     1     -38.834 -52.461  16.312  1.00  0.00     0.002 C 
HETATM   15  C   UNL     1     -40.064 -53.072  16.977  1.00  0.00     0.005 C 
ENDBRANCH  13  14
BRANCH  13  16
HETATM   16  C   UNL     1     -38.621 -50.055  15.406  1.00  0.00     0.002 C 
HETATM   17  C   UNL     1     -37.122 -49.967  15.673  1.00  0.00     0.005 C 
ENDBRANCH  13  16
ENDBRANCH   9  13
ENDBRANCH   1   7
BRANCH   4  18
HETATM   18  C   UNL     1     -42.220 -47.157  10.091  1.00  0.00     0.070 A 
HETATM   19  C   UNL     1     -43.425 -46.770   9.462  1.00  0.00     0.138 A 
HETATM   20  N   UNL     1     -43.716 -45.481   9.665  1.00  0.00    -0.308 N 
HETATM   21  N   UNL     1     -42.702 -45.048  10.432  1.00  0.00    -0.306 N 
ATOM     22  HN  UNL     1     -44.518 -44.952   9.321  1.00  0.00     0.186 HD
HETATM   23  C   UNL     1     -42.702 -43.692  10.924  1.00  0.00     0.177 C 
HETATM   24  C   UNL     1     -41.763 -46.008  10.693  1.00  0.00     0.140 A 
ENDBRANCH   4  18
TORSDOF 5
ENDMDL
MODEL 4
REMARK VINA RESULT:      -5.3      1.536      2.497
REMARK  5 active torsions:
REMARK  status: ('A' for Active; 'I' for Inactive)
REMARK    1  A    between atoms: C_2  and  C_3 
REMARK    2  A    between atoms: C_3  and  C_4 
REMARK    3  A    between atoms: C_3  and  C_6 
REMARK    4  A    between atoms: C_8  and  N_12 
REMARK       I    between atoms: N_12  and  C_13 
REMARK       I    between atoms: C_13  and  N_15 
REMARK    5  A    between atoms: N_15  and  C_16 
ROOT
HETATM    1  N   UNL     1     -40.332 -47.830  10.885  1.00  0.00    -0.338 N 
HETATM    2  C   UNL     1     -41.666 -47.479  10.930  1.00  0.00     0.321 C 
HETATM    3  O   UNL     1     -42.253 -47.244  11.982  1.00  0.00    -0.247 OA
HETATM    4  N   UNL     1     -42.207 -47.379   9.666  1.00  0.00    -0.306 N 
HETATM    5  H   UNL     1     -40.025 -48.384  10.100  1.00  0.00     0.164 HD
HETATM    6  H   UNL     1     -41.603 -47.500   8.870  1.00  0.00     0.171 HD
ENDROOT
BRANCH   1   7
HETATM    7  C   UNL     1     -39.554 -47.913  12.116  1.00  0.00     0.090 C 
HETATM    8  C   UNL     1     -40.114 -48.990  13.041  1.00  0.00     0.057 C 
HETATM    9  C   UNL     1     -39.251 -49.107  14.303  1.00  0.00     0.127 C 
HETATM   10  O   UNL     1     -39.233 -47.834  14.966  1.00  0.00    -0.385 OA
HETATM   11  C   UNL     1     -38.786 -46.724  14.190  1.00  0.00     0.170 C 
HETATM   12  C   UNL     1     -39.519 -46.581  12.861  1.00  0.00     0.051 C 
BRANCH   9  13
HETATM   13  C   UNL     1     -37.828 -49.715  14.077  1.00  0.00     0.014 C 
BRANCH  13  14
HETATM   14  C   UNL     1     -37.146 -50.037  15.432  1.00  0.00     0.002 C 
HETATM   15  C   UNL     1     -36.218 -48.939  15.944  1.00  0.00     0.005 C 
ENDBRANCH  13  14
BRANCH  13  16
HETATM   16  C   UNL     1     -37.850 -50.933  13.118  1.00  0.00     0.002 C 
HETATM   17  C   UNL     1     -37.191 -50.697  11.763  1.00  0.00     0.005 C 
ENDBRANCH  13  16
ENDBRANCH   9  13
ENDBRANCH   1   7
BRANCH   4  18
HETATM   18  C   UNL     1     -43.495 -46.935   9.420  1.00  0.00     0.070 A 
HETATM   19  C   UNL     1     -43.983 -45.680   8.993  1.00  0.00     0.138 A 
HETATM   20  N   UNL     1     -45.312 -45.673   8.841  1.00  0.00    -0.308 N 
HETATM   21  N   UNL     1     -45.669 -46.927   9.162  1.00  0.00    -0.306 N 
ATOM     22  HN  UNL     1     -45.911 -44.900   8.551  1.00  0.00     0.186 HD
HETATM   23  C   UNL     1     -47.050 -47.331   9.049  1.00  0.00     0.177 C 
HETATM   24  C   UNL     1     -44.619 -47.717   9.543  1.00  0.00     0.140 A 
ENDBRANCH   4  18
TORSDOF 5
ENDMDL
MODEL 5
REMARK VINA RESULT:      -5.3      5.172      7.379
REMARK  5 active torsions:
REMARK  status: ('A' for Active; 'I' for Inactive)
REMARK    1  A    between atoms: C_2  and  C_3 
REMARK    2  A    between atoms: C_3  and  C_4 
REMARK    3  A    between atoms: C_3  and  C_6 
REMARK    4  A    between atoms: C_8  and  N_12 
REMARK       I    between atoms: N_12  and  C_13 
REMARK       I    between atoms: C_13  and  N_15 
REMARK    5  A    between atoms: N_15  and  C_16 
ROOT
HETATM    1  N   UNL     1     -42.601 -52.775  13.768  1.00  0.00    -0.338 N 
HETATM    2  C   UNL     1     -42.315 -51.550  13.200  1.00  0.00     0.321 C 
HETATM    3  O   UNL     1     -43.188 -50.748  12.885  1.00  0.00    -0.247 OA
HETATM    4  N   UNL     1     -40.956 -51.344  13.096  1.00  0.00    -0.306 N 
HETATM    5  H   UNL     1     -41.932 -53.518  13.629  1.00  0.00     0.164 HD
HETATM    6  H   UNL     1     -40.332 -52.035  13.479  1.00  0.00     0.171 HD
ENDROOT
BRANCH   1   7
HETATM    7  C   UNL     1     -43.984 -53.154  14.037  1.00  0.00     0.090 C 
HETATM    8  C   UNL     1     -44.345 -52.893  15.496  1.00  0.00     0.057 C 
HETATM    9  C   UNL     1     -45.817 -53.239  15.750  1.00  0.00     0.127 C 
HETATM   10  O   UNL     1     -46.027 -54.620  15.419  1.00  0.00    -0.385 OA
HETATM   11  C   UNL     1     -45.670 -55.014  14.095  1.00  0.00     0.170 C 
HETATM   12  C   UNL     1     -44.248 -54.622  13.710  1.00  0.00     0.051 C 
BRANCH   9  13
HETATM   13  C   UNL     1     -46.848 -52.272  15.080  1.00  0.00     0.014 C 
BRANCH  13  14
HETATM   14  C   UNL     1     -47.615 -51.458  16.154  1.00  0.00     0.002 C 
HETATM   15  C   UNL     1     -47.290 -51.852  17.591  1.00  0.00     0.005 C 
ENDBRANCH  13  14
BRANCH  13  16
HETATM   16  C   UNL     1     -46.198 -51.370  14.000  1.00  0.00     0.002 C 
HETATM   17  C   UNL     1     -46.685 -51.617  12.577  1.00  0.00     0.005 C 
ENDBRANCH  13  16
ENDBRANCH   9  13
ENDBRANCH   1   7
BRANCH   4  18
HETATM   18  C   UNL     1     -40.396 -50.155  12.665  1.00  0.00     0.070 A 
HETATM   19  C   UNL     1     -39.920 -49.753  11.396  1.00  0.00     0.138 A 
HETATM   20  N   UNL     1     -39.480 -48.491  11.392  1.00  0.00    -0.308 N 
HETATM   21  N   UNL     1     -39.684 -48.083  12.655  1.00  0.00    -0.306 N 
ATOM     22  HN  UNL     1     -39.084 -47.962  10.614  1.00  0.00     0.186 HD
HETATM   23  C   UNL     1     -39.390 -46.721  13.027  1.00  0.00     0.177 C 
HETATM   24  C   UNL     1     -40.207 -49.053  13.466  1.00  0.00     0.140 A 
ENDBRANCH   4  18
TORSDOF 5
ENDMDL
MODEL 6
REMARK VINA RESULT:      -5.2      2.826      4.303
REMARK  5 active torsions:
REMARK  status: ('A' for Active; 'I' for Inactive)
REMARK    1  A    between atoms: C_2  and  C_3 
REMARK    2  A    between atoms: C_3  and  C_4 
REMARK    3  A    between atoms: C_3  and  C_6 
REMARK    4  A    between atoms: C_8  and  N_12 
REMARK       I    between atoms: N_12  and  C_13 
REMARK       I    between atoms: C_13  and  N_15 
REMARK    5  A    between atoms: N_15  and  C_16 
ROOT
HETATM    1  N   UNL     1     -41.517 -51.007  11.526  1.00  0.00    -0.338 N 
HETATM    2  C   UNL     1     -41.716 -49.659  11.743  1.00  0.00     0.321 C 
HETATM    3  O   UNL     1     -42.111 -49.213  12.816  1.00  0.00    -0.247 OA
HETATM    4  N   UNL     1     -41.366 -48.911  10.639  1.00  0.00    -0.306 N 
HETATM    5  H   UNL     1     -41.596 -51.340  10.577  1.00  0.00     0.164 HD
HETATM    6  H   UNL     1     -40.961 -49.379   9.846  1.00  0.00     0.171 HD
ENDROOT
BRANCH   1   7
HETATM    7  C   UNL     1     -41.755 -51.966  12.600  1.00  0.00     0.090 C 
HETATM    8  C   UNL     1     -40.839 -53.178  12.459  1.00  0.00     0.057 C 
HETATM    9  C   UNL     1     -41.058 -54.148  13.626  1.00  0.00     0.127 C 
HETATM   10  O   UNL     1     -42.434 -54.556  13.631  1.00  0.00    -0.385 OA
HETATM   11  C   UNL     1     -43.403 -53.509  13.698  1.00  0.00     0.170 C 
HETATM   12  C   UNL     1     -43.207 -52.436  12.634  1.00  0.00     0.051 C 
BRANCH   9  13
HETATM   13  C   UNL     1     -40.552 -53.636  15.015  1.00  0.00     0.014 C 
BRANCH  13  14
HETATM   14  C   UNL     1     -40.765 -54.714  16.109  1.00  0.00     0.002 C 
HETATM   15  C   UNL     1     -39.619 -55.714  16.236  1.00  0.00     0.005 C 
ENDBRANCH  13  14
BRANCH  13  16
HETATM   16  C   UNL     1     -39.089 -53.125  14.959  1.00  0.00     0.002 C 
HETATM   17  C   UNL     1     -38.914 -51.642  15.266  1.00  0.00     0.005 C 
ENDBRANCH  13  16
ENDBRANCH   9  13
ENDBRANCH   1   7
BRANCH   4  18
HETATM   18  C   UNL     1     -41.363 -47.527  10.626  1.00  0.00     0.070 A 
HETATM   19  C   UNL     1     -42.371 -46.595  10.292  1.00  0.00     0.138 A 
HETATM   20  N   UNL     1     -41.968 -45.329  10.446  1.00  0.00    -0.308 N 
HETATM   21  N   UNL     1     -40.706 -45.454  10.888  1.00  0.00    -0.306 N 
ATOM     22  HN  UNL     1     -42.493 -44.472  10.271  1.00  0.00     0.186 HD
HETATM   23  C   UNL     1     -39.948 -44.278  11.241  1.00  0.00     0.177 C 
HETATM   24  C   UNL     1     -40.285 -46.752  10.987  1.00  0.00     0.140 A 
ENDBRANCH   4  18
TORSDOF 5
ENDMDL
MODEL 7
REMARK VINA RESULT:      -5.2      2.572      3.994
REMARK  5 active torsions:
REMARK  status: ('A' for Active; 'I' for Inactive)
REMARK    1  A    between atoms: C_2  and  C_3 
REMARK    2  A    between atoms: C_3  and  C_4 
REMARK    3  A    between atoms: C_3  and  C_6 
REMARK    4  A    between atoms: C_8  and  N_12 
REMARK       I    between atoms: N_12  and  C_13 
REMARK       I    between atoms: C_13  and  N_15 
REMARK    5  A    between atoms: N_15  and  C_16 
ROOT
HETATM    1  N   UNL     1     -41.466 -45.326  10.901  1.00  0.00    -0.338 N 
HETATM    2  C   UNL     1     -42.018 -46.416  10.259  1.00  0.00     0.321 C 
HETATM    3  O   UNL     1     -41.658 -47.568  10.482  1.00  0.00    -0.247 OA
HETATM    4  N   UNL     1     -43.033 -46.040   9.404  1.00  0.00    -0.306 N 
HETATM    5  H   UNL     1     -41.490 -44.442  10.417  1.00  0.00     0.164 HD
HETATM    6  H   UNL     1     -43.307 -45.072   9.375  1.00  0.00     0.171 HD
ENDROOT
BRANCH   1   7
HETATM    7  C   UNL     1     -40.427 -45.517  11.907  1.00  0.00     0.090 C 
HETATM    8  C   UNL     1     -41.040 -45.768  13.282  1.00  0.00     0.057 C 
HETATM    9  C   UNL     1     -39.938 -46.026  14.316  1.00  0.00     0.127 C 
HETATM   10  O   UNL     1     -39.069 -44.885  14.354  1.00  0.00    -0.385 OA
HETATM   11  C   UNL     1     -38.474 -44.503  13.115  1.00  0.00     0.170 C 
HETATM   12  C   UNL     1     -39.485 -44.319  11.990  1.00  0.00     0.051 C 
BRANCH   9  13
HETATM   13  C   UNL     1     -39.181 -47.385  14.150  1.00  0.00     0.014 C 
BRANCH  13  14
HETATM   14  C   UNL     1     -38.301 -47.679  15.392  1.00  0.00     0.002 C 
HETATM   15  C   UNL     1     -36.800 -47.650  15.119  1.00  0.00     0.005 C 
ENDBRANCH  13  14
BRANCH  13  16
HETATM   16  C   UNL     1     -40.136 -48.556  13.806  1.00  0.00     0.002 C 
HETATM   17  C   UNL     1     -39.894 -49.837  14.597  1.00  0.00     0.005 C 
ENDBRANCH  13  16
ENDBRANCH   9  13
ENDBRANCH   1   7
BRANCH   4  18
HETATM   18  C   UNL     1     -43.827 -46.943   8.720  1.00  0.00     0.070 A 
HETATM   19  C   UNL     1     -43.578 -47.715   7.563  1.00  0.00     0.138 A 
HETATM   20  N   UNL     1     -44.611 -48.501   7.240  1.00  0.00    -0.308 N 
HETATM   21  N   UNL     1     -45.515 -48.238   8.198  1.00  0.00    -0.306 N 
ATOM     22  HN  UNL     1     -44.693 -49.147   6.455  1.00  0.00     0.186 HD
HETATM   23  C   UNL     1     -46.762 -48.962   8.227  1.00  0.00     0.177 C 
HETATM   24  C   UNL     1     -45.104 -47.290   9.094  1.00  0.00     0.140 A 
ENDBRANCH   4  18
TORSDOF 5
ENDMDL
MODEL 8
REMARK VINA RESULT:      -5.2      4.087      5.761
REMARK  5 active torsions:
REMARK  status: ('A' for Active; 'I' for Inactive)
REMARK    1  A    between atoms: C_2  and  C_3 
REMARK    2  A    between atoms: C_3  and  C_4 
REMARK    3  A    between atoms: C_3  and  C_6 
REMARK    4  A    between atoms: C_8  and  N_12 
REMARK       I    between atoms: N_12  and  C_13 
REMARK       I    between atoms: C_13  and  N_15 
REMARK    5  A    between atoms: N_15  and  C_16 
ROOT
HETATM    1  N   UNL     1     -42.406 -52.545  12.358  1.00  0.00    -0.338 N 
HETATM    2  C   UNL     1     -42.125 -51.201  12.499  1.00  0.00     0.321 C 
HETATM    3  O   UNL     1     -42.390 -50.573  13.519  1.00  0.00    -0.247 OA
HETATM    4  N   UNL     1     -41.476 -50.700  11.390  1.00  0.00    -0.306 N 
HETATM    5  H   UNL     1     -42.549 -52.893  11.421  1.00  0.00     0.164 HD
HETATM    6  H   UNL     1     -41.223 -51.334  10.650  1.00  0.00     0.171 HD
ENDROOT
BRANCH   1   7
HETATM    7  C   UNL     1     -43.024 -53.284  13.454  1.00  0.00     0.090 C 
HETATM    8  C   UNL     1     -42.044 -54.289  14.051  1.00  0.00     0.057 C 
HETATM    9  C   UNL     1     -42.686 -55.015  15.240  1.00  0.00     0.127 C 
HETATM   10  O   UNL     1     -43.873 -55.680  14.783  1.00  0.00    -0.385 OA
HETATM   11  C   UNL     1     -44.851 -54.860  14.145  1.00  0.00     0.170 C 
HETATM   12  C   UNL     1     -44.286 -54.018  13.007  1.00  0.00     0.051 C 
BRANCH   9  13
HETATM   13  C   UNL     1     -42.914 -54.131  16.510  1.00  0.00     0.014 C 
BRANCH  13  14
HETATM   14  C   UNL     1     -43.385 -54.999  17.706  1.00  0.00     0.002 C 
HETATM   15  C   UNL     1     -42.293 -55.874  18.314  1.00  0.00     0.005 C 
ENDBRANCH  13  14
BRANCH  13  16
HETATM   16  C   UNL     1     -41.677 -53.263  16.855  1.00  0.00     0.002 C 
HETATM   17  C   UNL     1     -41.933 -51.760  16.882  1.00  0.00     0.005 C 
ENDBRANCH  13  16
ENDBRANCH   9  13
ENDBRANCH   1   7
BRANCH   4  18
HETATM   18  C   UNL     1     -40.981 -49.410  11.315  1.00  0.00     0.070 A 
HETATM   19  C   UNL     1     -39.711 -48.878  11.632  1.00  0.00     0.138 A 
HETATM   20  N   UNL     1     -39.628 -47.567  11.380  1.00  0.00    -0.308 N 
HETATM   21  N   UNL     1     -40.843 -47.265  10.894  1.00  0.00    -0.306 N 
ATOM     22  HN  UNL     1     -38.833 -46.944  11.523  1.00  0.00     0.186 HD
HETATM   23  C   UNL     1     -41.121 -45.925  10.435  1.00  0.00     0.177 C 
HETATM   24  C   UNL     1     -41.701 -48.330  10.860  1.00  0.00     0.140 A 
ENDBRANCH   4  18
TORSDOF 5
ENDMDL
MODEL 9
REMARK VINA RESULT:      -5.1      1.530      2.687
REMARK  5 active torsions:
REMARK  status: ('A' for Active; 'I' for Inactive)
REMARK    1  A    between atoms: C_2  and  C_3 
REMARK    2  A    between atoms: C_3  and  C_4 
REMARK    3  A    between atoms: C_3  and  C_6 
REMARK    4  A    between atoms: C_8  and  N_12 
REMARK       I    between atoms: N_12  and  C_13 
REMARK       I    between atoms: C_13  and  N_15 
REMARK    5  A    between atoms: N_15  and  C_16 
ROOT
HETATM    1  N   UNL     1     -39.921 -48.240  11.094  1.00  0.00    -0.338 N 
HETATM    2  C   UNL     1     -41.263 -48.186  10.777  1.00  0.00     0.321 C 
HETATM    3  O   UNL     1     -42.054 -49.068  11.095  1.00  0.00    -0.247 OA
HETATM    4  N   UNL     1     -41.584 -47.013  10.126  1.00  0.00    -0.306 N 
HETATM    5  H   UNL     1     -39.283 -47.742  10.492  1.00  0.00     0.164 HD
HETATM    6  H   UNL     1     -40.867 -46.317  10.004  1.00  0.00     0.171 HD
ENDROOT
BRANCH   1   7
HETATM    7  C   UNL     1     -39.393 -49.367  11.855  1.00  0.00     0.090 C 
HETATM    8  C   UNL     1     -39.533 -49.123  13.355  1.00  0.00     0.057 C 
HETATM    9  C   UNL     1     -39.028 -50.340  14.140  1.00  0.00     0.127 C 
HETATM   10  O   UNL     1     -37.655 -50.571  13.794  1.00  0.00    -0.385 OA
HETATM   11  C   UNL     1     -37.375 -50.755  12.407  1.00  0.00     0.170 C 
HETATM   12  C   UNL     1     -37.927 -49.641  11.526  1.00  0.00     0.051 C 
BRANCH   9  13
HETATM   13  C   UNL     1     -39.926 -51.616  14.029  1.00  0.00     0.014 C 
BRANCH  13  14
HETATM   14  C   UNL     1     -39.281 -52.808  14.782  1.00  0.00     0.002 C 
HETATM   15  C   UNL     1     -40.106 -54.091  14.750  1.00  0.00     0.005 C 
ENDBRANCH  13  14
BRANCH  13  16
HETATM   16  C   UNL     1     -41.387 -51.352  14.474  1.00  0.00     0.002 C 
HETATM   17  C   UNL     1     -41.546 -50.878  15.915  1.00  0.00     0.005 C 
ENDBRANCH  13  16
ENDBRANCH   9  13
ENDBRANCH   1   7
BRANCH   4  18
HETATM   18  C   UNL     1     -42.878 -46.654   9.794  1.00  0.00     0.070 A 
HETATM   19  C   UNL     1     -43.437 -45.408   9.433  1.00  0.00     0.138 A 
HETATM   20  N   UNL     1     -44.742 -45.495   9.151  1.00  0.00    -0.308 N 
HETATM   21  N   UNL     1     -45.012 -46.799   9.323  1.00  0.00    -0.306 N 
ATOM     22  HN  UNL     1     -45.379 -44.749   8.872  1.00  0.00     0.186 HD
HETATM   23  C   UNL     1     -46.334 -47.302   9.038  1.00  0.00     0.177 C 
HETATM   24  C   UNL     1     -43.934 -47.534   9.735  1.00  0.00     0.140 A 
ENDBRANCH   4  18
TORSDOF 5
ENDMDL
