MODEL 1
REMARK VINA RESULT:      -5.6      0.000      0.000
REMARK  5 active torsions:
REMARK  status: ('A' for Active; 'I' for Inactive)
REMARK    1  A    between atoms: S_2  and  C_3 
REMARK    2  A    between atoms: C_6  and  O_7 
REMARK    3  A    between atoms: O_7  and  C_8 
REMARK    4  A    between atoms: C_8  and  C_9 
REMARK    5  A    between atoms: C_9  and  N_10 
ROOT
HETATM    1  C   UNL     1     -40.747 -48.797  11.988  1.00  0.00     0.160 C 
ENDROOT
BRANCH   1   2
HETATM    2  C   UNL     1     -40.421 -50.098  11.241  1.00  0.00     0.196 C 
BRANCH   2   3
HETATM    3  O   UNL     1     -39.878 -51.063  12.151  1.00  0.00    -0.350 OA
BRANCH   3   4
HETATM    4  C   UNL     1     -40.776 -51.961  12.663  1.00  0.00     0.068 A 
HETATM    5  C   UNL     1     -40.391 -52.605  13.843  1.00  0.00     0.038 A 
HETATM    6  C   UNL     1     -41.246 -53.521  14.466  1.00  0.00     0.021 A 
HETATM    7  C   UNL     1     -42.511 -53.781  13.935  1.00  0.00    -0.000 A 
HETATM    8  C   UNL     1     -42.900 -53.133  12.761  1.00  0.00     0.021 A 
HETATM    9  C   UNL     1     -42.039 -52.224  12.132  1.00  0.00     0.038 A 
BRANCH   7  10
HETATM   10  S   UNL     1     -43.576 -54.963  14.741  1.00  0.00    -0.134 SA
HETATM   11  C   UNL     1     -45.079 -54.761  13.746  1.00  0.00     0.095 C 
ENDBRANCH   7  10
ENDBRANCH   3   4
ENDBRANCH   2   3
ENDBRANCH   1   2
BRANCH   1  12
HETATM   12  N   UNL     1     -41.520 -47.824  11.206  1.00  0.00    -0.306 N 
HETATM   13  C   UNL     1     -42.848 -48.089  10.932  1.00  0.00     0.125 A 
HETATM   14  C   UNL     1     -43.587 -47.300  10.145  1.00  0.00     0.117 A 
HETATM   15 CL   UNL     1     -45.222 -47.655   9.775  1.00  0.00    -0.077 Cl
HETATM   16  C   UNL     1     -42.954 -46.094   9.551  1.00  0.00     0.272 A 
HETATM   17  O   UNL     1     -43.521 -45.358   8.754  1.00  0.00    -0.266 OA
HETATM   18  N   UNL     1     -41.661 -45.863   9.949  1.00  0.00    -0.274 N 
HETATM   19  C   UNL     1     -40.887 -46.685  10.730  1.00  0.00     0.329 A 
HETATM   20  H   UNL     1     -41.204 -45.054   9.554  1.00  0.00     0.173 HD
HETATM   21  O   UNL     1     -39.710 -46.409  10.953  1.00  0.00    -0.246 OA
ENDBRANCH   1  12
TORSDOF 5
ENDMDL
MODEL 2
REMARK VINA RESULT:      -5.6      1.783      2.134
REMARK  5 active torsions:
REMARK  status: ('A' for Active; 'I' for Inactive)
REMARK    1  A    between atoms: S_2  and  C_3 
REMARK    2  A    between atoms: C_6  and  O_7 
REMARK    3  A    between atoms: O_7  and  C_8 
REMARK    4  A    between atoms: C_8  and  C_9 
REMARK    5  A    between atoms: C_9  and  N_10 
ROOT
HETATM    1  C   UNL     1     -40.702 -48.830  11.729  1.00  0.00     0.160 C 
ENDROOT
BRANCH   1   2
HETATM    2  C   UNL     1     -41.448 -49.634  12.804  1.00  0.00     0.196 C 
BRANCH   2   3
HETATM    3  O   UNL     1     -41.733 -50.952  12.320  1.00  0.00    -0.350 OA
BRANCH   3   4
HETATM    4  C   UNL     1     -42.865 -51.533  12.826  1.00  0.00     0.068 A 
HETATM    5  C   UNL     1     -43.690 -50.702  13.588  1.00  0.00     0.038 A 
HETATM    6  C   UNL     1     -44.887 -51.185  14.128  1.00  0.00     0.021 A 
HETATM    7  C   UNL     1     -45.289 -52.501  13.887  1.00  0.00    -0.000 A 
HETATM    8  C   UNL     1     -44.470 -53.330  13.120  1.00  0.00     0.021 A 
HETATM    9  C   UNL     1     -43.267 -52.848  12.588  1.00  0.00     0.038 A 
BRANCH   7  10
HETATM   10  S   UNL     1     -46.813 -53.098  14.598  1.00  0.00    -0.134 SA
HETATM   11  C   UNL     1     -47.192 -51.726  15.721  1.00  0.00     0.095 C 
ENDBRANCH   7  10
ENDBRANCH   3   4
ENDBRANCH   2   3
ENDBRANCH   1   2
BRANCH   1  12
HETATM   12  N   UNL     1     -41.518 -47.817  11.050  1.00  0.00    -0.306 N 
HETATM   13  C   UNL     1     -42.848 -48.091  10.795  1.00  0.00     0.125 A 
HETATM   14  C   UNL     1     -43.628 -47.260  10.096  1.00  0.00     0.117 A 
HETATM   15 CL   UNL     1     -45.266 -47.623   9.746  1.00  0.00    -0.077 Cl
HETATM   16  C   UNL     1     -43.040 -45.996   9.581  1.00  0.00     0.272 A 
HETATM   17  O   UNL     1     -43.647 -45.213   8.862  1.00  0.00    -0.266 OA
HETATM   18  N   UNL     1     -41.740 -45.766   9.958  1.00  0.00    -0.274 N 
HETATM   19  C   UNL     1     -40.924 -46.629  10.648  1.00  0.00     0.329 A 
HETATM   20  H   UNL     1     -41.312 -44.919   9.615  1.00  0.00     0.173 HD
HETATM   21  O   UNL     1     -39.747 -46.344  10.857  1.00  0.00    -0.246 OA
ENDBRANCH   1  12
TORSDOF 5
ENDMDL
MODEL 3
REMARK VINA RESULT:      -5.6      5.530      7.739
REMARK  5 active torsions:
REMARK  status: ('A' for Active; 'I' for Inactive)
REMARK    1  A    between atoms: S_2  and  C_3 
REMARK    2  A    between atoms: C_6  and  O_7 
REMARK    3  A    between atoms: O_7  and  C_8 
REMARK    4  A    between atoms: C_8  and  C_9 
REMARK    5  A    between atoms: C_9  and  N_10 
ROOT
HETATM    1  C   UNL     1     -45.713 -54.806  14.120  1.00  0.00     0.160 C 
ENDROOT
BRANCH   1   2
HETATM    2  C   UNL     1     -46.203 -54.114  15.399  1.00  0.00     0.196 C 
BRANCH   2   3
HETATM    3  O   UNL     1     -46.885 -52.898  15.067  1.00  0.00    -0.350 OA
BRANCH   3   4
HETATM    4  C   UNL     1     -46.686 -51.855  15.932  1.00  0.00     0.068 A 
HETATM    5  C   UNL     1     -47.777 -51.512  16.737  1.00  0.00     0.038 A 
HETATM    6  C   UNL     1     -47.673 -50.481  17.676  1.00  0.00     0.021 A 
HETATM    7  C   UNL     1     -46.466 -49.799  17.846  1.00  0.00    -0.000 A 
HETATM    8  C   UNL     1     -45.374 -50.146  17.049  1.00  0.00     0.021 A 
HETATM    9  C   UNL     1     -45.482 -51.172  16.101  1.00  0.00     0.038 A 
BRANCH   7  10
HETATM   10  S   UNL     1     -46.364 -48.479  19.042  1.00  0.00    -0.134 SA
HETATM   11  C   UNL     1     -48.124 -48.263  19.422  1.00  0.00     0.095 C 
ENDBRANCH   7  10
ENDBRANCH   3   4
ENDBRANCH   2   3
ENDBRANCH   1   2
BRANCH   1  12
HETATM   12  N   UNL     1     -44.499 -54.221  13.538  1.00  0.00    -0.306 N 
HETATM   13  C   UNL     1     -43.271 -54.557  14.073  1.00  0.00     0.125 A 
HETATM   14  C   UNL     1     -42.132 -53.990  13.662  1.00  0.00     0.117 A 
HETATM   15 CL   UNL     1     -40.615 -54.380  14.358  1.00  0.00    -0.077 Cl
HETATM   16  C   UNL     1     -42.195 -52.966  12.587  1.00  0.00     0.272 A 
HETATM   17  O   UNL     1     -41.221 -52.332  12.201  1.00  0.00    -0.266 OA
HETATM   18  N   UNL     1     -43.443 -52.761  12.053  1.00  0.00    -0.274 N 
HETATM   19  C   UNL     1     -44.620 -53.316  12.493  1.00  0.00     0.329 A 
HETATM   20  H   UNL     1     -43.516 -52.065  11.327  1.00  0.00     0.173 HD
HETATM   21  O   UNL     1     -45.691 -52.992  11.985  1.00  0.00    -0.246 OA
ENDBRANCH   1  12
TORSDOF 5
ENDMDL
MODEL 4
REMARK VINA RESULT:      -5.5      3.507      5.324
REMARK  5 active torsions:
REMARK  status: ('A' for Active; 'I' for Inactive)
REMARK    1  A    between atoms: S_2  and  C_3 
REMARK    2  A    between atoms: C_6  and  O_7 
REMARK    3  A    between atoms: O_7  and  C_8 
REMARK    4  A    between atoms: C_8  and  C_9 
REMARK    5  A    between atoms: C_9  and  N_10 
ROOT
HETATM    1  C   UNL     1     -43.044 -53.264  13.245  1.00  0.00     0.160 C 
ENDROOT
BRANCH   1   2
HETATM    2  C   UNL     1     -44.207 -53.685  12.335  1.00  0.00     0.196 C 
BRANCH   2   3
HETATM    3  O   UNL     1     -45.246 -54.289  13.116  1.00  0.00    -0.350 OA
BRANCH   3   4
HETATM    4  C   UNL     1     -45.856 -53.464  14.023  1.00  0.00     0.068 A 
HETATM    5  C   UNL     1     -45.862 -53.911  15.348  1.00  0.00     0.038 A 
HETATM    6  C   UNL     1     -46.433 -53.132  16.360  1.00  0.00     0.021 A 
HETATM    7  C   UNL     1     -46.980 -51.881  16.065  1.00  0.00    -0.000 A 
HETATM    8  C   UNL     1     -46.968 -51.431  14.744  1.00  0.00     0.021 A 
HETATM    9  C   UNL     1     -46.404 -52.216  13.730  1.00  0.00     0.038 A 
BRANCH   7  10
HETATM   10  S   UNL     1     -47.715 -50.914  17.372  1.00  0.00    -0.134 SA
HETATM   11  C   UNL     1     -47.507 -52.058  18.763  1.00  0.00     0.095 C 
ENDBRANCH   7  10
ENDBRANCH   3   4
ENDBRANCH   2   3
ENDBRANCH   1   2
BRANCH   1  12
HETATM   12  N   UNL     1     -42.297 -52.091  12.774  1.00  0.00    -0.306 N 
HETATM   13  C   UNL     1     -42.862 -50.837  12.917  1.00  0.00     0.125 A 
HETATM   14  C   UNL     1     -42.287 -49.735  12.425  1.00  0.00     0.117 A 
HETATM   15 CL   UNL     1     -43.011 -48.188  12.567  1.00  0.00    -0.077 Cl
HETATM   16  C   UNL     1     -40.994 -49.867  11.705  1.00  0.00     0.272 A 
HETATM   17  O   UNL     1     -40.433 -48.932  11.148  1.00  0.00    -0.266 OA
HETATM   18  N   UNL     1     -40.465 -51.134  11.690  1.00  0.00    -0.274 N 
HETATM   19  C   UNL     1     -41.065 -52.275  12.165  1.00  0.00     0.329 A 
HETATM   20  H   UNL     1     -39.591 -51.254  11.200  1.00  0.00     0.173 HD
HETATM   21  O   UNL     1     -40.526 -53.370  12.021  1.00  0.00    -0.246 OA
ENDBRANCH   1  12
TORSDOF 5
ENDMDL
MODEL 5
REMARK VINA RESULT:      -5.5      1.923      2.831
REMARK  5 active torsions:
REMARK  status: ('A' for Active; 'I' for Inactive)
REMARK    1  A    between atoms: S_2  and  C_3 
REMARK    2  A    between atoms: C_6  and  O_7 
REMARK    3  A    between atoms: O_7  and  C_8 
REMARK    4  A    between atoms: C_8  and  C_9 
REMARK    5  A    between atoms: C_9  and  N_10 
ROOT
HETATM    1  C   UNL     1     -39.949 -51.280  12.361  1.00  0.00     0.160 C 
ENDROOT
BRANCH   1   2
HETATM    2  C   UNL     1     -40.933 -52.320  11.806  1.00  0.00     0.196 C 
BRANCH   2   3
HETATM    3  O   UNL     1     -40.966 -53.469  12.663  1.00  0.00    -0.350 OA
BRANCH   3   4
HETATM    4  C   UNL     1     -42.180 -53.743  13.234  1.00  0.00     0.068 A 
HETATM    5  C   UNL     1     -43.294 -53.186  12.598  1.00  0.00     0.038 A 
HETATM    6  C   UNL     1     -44.585 -53.426  13.082  1.00  0.00     0.021 A 
HETATM    7  C   UNL     1     -44.781 -54.253  14.190  1.00  0.00    -0.000 A 
HETATM    8  C   UNL     1     -43.671 -54.816  14.820  1.00  0.00     0.021 A 
HETATM    9  C   UNL     1     -42.378 -54.567  14.342  1.00  0.00     0.038 A 
BRANCH   7  10
HETATM   10  S   UNL     1     -46.436 -54.533  14.795  1.00  0.00    -0.134 SA
HETATM   11  C   UNL     1     -47.036 -52.823  14.865  1.00  0.00     0.095 C 
ENDBRANCH   7  10
ENDBRANCH   3   4
ENDBRANCH   2   3
ENDBRANCH   1   2
BRANCH   1  12
HETATM   12  N   UNL     1     -40.241 -49.897  11.969  1.00  0.00    -0.306 N 
HETATM   13  C   UNL     1     -41.557 -49.519  11.779  1.00  0.00     0.125 A 
HETATM   14  C   UNL     1     -41.894 -48.306  11.327  1.00  0.00     0.117 A 
HETATM   15 CL   UNL     1     -43.526 -47.856  11.055  1.00  0.00    -0.077 Cl
HETATM   16  C   UNL     1     -40.813 -47.333  11.025  1.00  0.00     0.272 A 
HETATM   17  O   UNL     1     -41.016 -46.232  10.530  1.00  0.00    -0.266 OA
HETATM   18  N   UNL     1     -39.545 -47.763  11.327  1.00  0.00    -0.274 N 
HETATM   19  C   UNL     1     -39.189 -49.017  11.760  1.00  0.00     0.329 A 
HETATM   20  H   UNL     1     -38.790 -47.125  11.123  1.00  0.00     0.173 HD
HETATM   21  O   UNL     1     -38.006 -49.310  11.920  1.00  0.00    -0.246 OA
ENDBRANCH   1  12
TORSDOF 5
ENDMDL
MODEL 6
REMARK VINA RESULT:      -5.5      3.900      6.596
REMARK  5 active torsions:
REMARK  status: ('A' for Active; 'I' for Inactive)
REMARK    1  A    between atoms: S_2  and  C_3 
REMARK    2  A    between atoms: C_6  and  O_7 
REMARK    3  A    between atoms: O_7  and  C_8 
REMARK    4  A    between atoms: C_8  and  C_9 
REMARK    5  A    between atoms: C_9  and  N_10 
ROOT
HETATM    1  C   UNL     1     -40.680 -51.213  14.229  1.00  0.00     0.160 C 
ENDROOT
BRANCH   1   2
HETATM    2  C   UNL     1     -40.113 -50.090  13.349  1.00  0.00     0.196 C 
BRANCH   2   3
HETATM    3  O   UNL     1     -40.827 -48.871  13.589  1.00  0.00    -0.350 OA
BRANCH   3   4
HETATM    4  C   UNL     1     -41.370 -48.278  12.481  1.00  0.00     0.068 A 
HETATM    5  C   UNL     1     -42.758 -48.390  12.346  1.00  0.00     0.038 A 
HETATM    6  C   UNL     1     -43.420 -47.796  11.266  1.00  0.00     0.021 A 
HETATM    7  C   UNL     1     -42.706 -47.055  10.321  1.00  0.00    -0.000 A 
HETATM    8  C   UNL     1     -41.322 -46.936  10.459  1.00  0.00     0.021 A 
HETATM    9  C   UNL     1     -40.659 -47.540  11.535  1.00  0.00     0.038 A 
BRANCH   7  10
HETATM   10  S   UNL     1     -43.571 -46.320   8.946  1.00  0.00    -0.134 SA
HETATM   11  C   UNL     1     -43.548 -47.710   7.782  1.00  0.00     0.095 C 
ENDBRANCH   7  10
ENDBRANCH   3   4
ENDBRANCH   2   3
ENDBRANCH   1   2
BRANCH   1  12
HETATM   12  N   UNL     1     -41.818 -51.930  13.642  1.00  0.00    -0.306 N 
HETATM   13  C   UNL     1     -43.100 -51.518  13.952  1.00  0.00     0.125 A 
HETATM   14  C   UNL     1     -44.184 -52.180  13.537  1.00  0.00     0.117 A 
HETATM   15 CL   UNL     1     -45.771 -51.689  13.958  1.00  0.00    -0.077 Cl
HETATM   16  C   UNL     1     -43.999 -53.400  12.708  1.00  0.00     0.272 A 
HETATM   17  O   UNL     1     -44.922 -54.119  12.350  1.00  0.00    -0.266 OA
HETATM   18  N   UNL     1     -42.697 -53.682  12.376  1.00  0.00    -0.274 N 
HETATM   19  C   UNL     1     -41.578 -53.025  12.825  1.00  0.00     0.329 A 
HETATM   20  H   UNL     1     -42.541 -54.510  11.820  1.00  0.00     0.173 HD
HETATM   21  O   UNL     1     -40.456 -53.423  12.522  1.00  0.00    -0.246 OA
ENDBRANCH   1  12
TORSDOF 5
ENDMDL
MODEL 7
REMARK VINA RESULT:      -5.5      2.606      3.403
REMARK  5 active torsions:
REMARK  status: ('A' for Active; 'I' for Inactive)
REMARK    1  A    between atoms: S_2  and  C_3 
REMARK    2  A    between atoms: C_6  and  O_7 
REMARK    3  A    between atoms: O_7  and  C_8 
REMARK    4  A    between atoms: C_8  and  C_9 
REMARK    5  A    between atoms: C_9  and  N_10 
ROOT
HETATM    1  C   UNL     1     -38.314 -51.199  14.129  1.00  0.00     0.160 C 
ENDROOT
BRANCH   1   2
HETATM    2  C   UNL     1     -38.986 -52.505  14.578  1.00  0.00     0.196 C 
BRANCH   2   3
HETATM    3  O   UNL     1     -39.473 -53.222  13.436  1.00  0.00    -0.350 OA
BRANCH   3   4
HETATM    4  C   UNL     1     -40.816 -53.491  13.439  1.00  0.00     0.068 A 
HETATM    5  C   UNL     1     -41.267 -54.343  14.451  1.00  0.00     0.038 A 
HETATM    6  C   UNL     1     -42.625 -54.660  14.564  1.00  0.00     0.021 A 
HETATM    7  C   UNL     1     -43.556 -54.104  13.683  1.00  0.00    -0.000 A 
HETATM    8  C   UNL     1     -43.108 -53.247  12.676  1.00  0.00     0.021 A 
HETATM    9  C   UNL     1     -41.746 -52.938  12.558  1.00  0.00     0.038 A 
BRANCH   7  10
HETATM   10  S   UNL     1     -45.279 -54.536  13.839  1.00  0.00    -0.134 SA
HETATM   11  C   UNL     1     -46.039 -52.940  13.436  1.00  0.00     0.095 C 
ENDBRANCH   7  10
ENDBRANCH   3   4
ENDBRANCH   2   3
ENDBRANCH   1   2
BRANCH   1  12
HETATM   12  N   UNL     1     -39.086 -50.422  13.153  1.00  0.00    -0.306 N 
HETATM   13  C   UNL     1     -40.252 -49.803  13.562  1.00  0.00     0.125 A 
HETATM   14  C   UNL     1     -41.058 -49.162  12.709  1.00  0.00     0.117 A 
HETATM   15 CL   UNL     1     -42.524 -48.431  13.214  1.00  0.00    -0.077 Cl
HETATM   16  C   UNL     1     -40.680 -49.111  11.273  1.00  0.00     0.272 A 
HETATM   17  O   UNL     1     -41.390 -48.622  10.405  1.00  0.00    -0.266 OA
HETATM   18  N   UNL     1     -39.463 -49.674  10.974  1.00  0.00    -0.274 N 
HETATM   19  C   UNL     1     -38.647 -50.361  11.838  1.00  0.00     0.329 A 
HETATM   20  H   UNL     1     -39.185 -49.661  10.004  1.00  0.00     0.173 HD
HETATM   21  O   UNL     1     -37.616 -50.894  11.433  1.00  0.00    -0.246 OA
ENDBRANCH   1  12
TORSDOF 5
ENDMDL
MODEL 8
REMARK VINA RESULT:      -5.5      1.526      1.798
REMARK  5 active torsions:
REMARK  status: ('A' for Active; 'I' for Inactive)
REMARK    1  A    between atoms: S_2  and  C_3 
REMARK    2  A    between atoms: C_6  and  O_7 
REMARK    3  A    between atoms: O_7  and  C_8 
REMARK    4  A    between atoms: C_8  and  C_9 
REMARK    5  A    between atoms: C_9  and  N_10 
ROOT
HETATM    1  C   UNL     1     -40.345 -48.321  11.463  1.00  0.00     0.160 C 
ENDROOT
BRANCH   1   2
HETATM    2  C   UNL     1     -40.600 -49.795  11.118  1.00  0.00     0.196 C 
BRANCH   2   3
HETATM    3  O   UNL     1     -40.733 -50.564  12.320  1.00  0.00    -0.350 OA
BRANCH   3   4
HETATM    4  C   UNL     1     -41.994 -51.026  12.587  1.00  0.00     0.068 A 
HETATM    5  C   UNL     1     -42.215 -52.382  12.331  1.00  0.00     0.038 A 
HETATM    6  C   UNL     1     -43.459 -52.965  12.595  1.00  0.00     0.021 A 
HETATM    7  C   UNL     1     -44.491 -52.204  13.150  1.00  0.00    -0.000 A 
HETATM    8  C   UNL     1     -44.270 -50.852  13.414  1.00  0.00     0.021 A 
HETATM    9  C   UNL     1     -43.026 -50.267  13.139  1.00  0.00     0.038 A 
BRANCH   7  10
HETATM   10  S   UNL     1     -46.073 -52.967  13.465  1.00  0.00    -0.134 SA
HETATM   11  C   UNL     1     -45.905 -53.313  15.237  1.00  0.00     0.095 C 
ENDBRANCH   7  10
ENDBRANCH   3   4
ENDBRANCH   2   3
ENDBRANCH   1   2
BRANCH   1  12
HETATM   12  N   UNL     1     -41.331 -47.387  10.907  1.00  0.00    -0.306 N 
HETATM   13  C   UNL     1     -42.334 -47.879  10.093  1.00  0.00     0.125 A 
HETATM   14  C   UNL     1     -43.208 -47.079   9.472  1.00  0.00     0.117 A 
HETATM   15 CL   UNL     1     -44.424 -47.691   8.431  1.00  0.00    -0.077 Cl
HETATM   16  C   UNL     1     -43.095 -45.611   9.671  1.00  0.00     0.272 A 
HETATM   17  O   UNL     1     -43.792 -44.795   9.083  1.00  0.00    -0.266 OA
HETATM   18  N   UNL     1     -42.128 -45.220  10.564  1.00  0.00    -0.274 N 
HETATM   19  C   UNL     1     -41.208 -46.032  11.180  1.00  0.00     0.329 A 
HETATM   20  H   UNL     1     -42.024 -44.227  10.712  1.00  0.00     0.173 HD
HETATM   21  O   UNL     1     -40.334 -45.553  11.900  1.00  0.00    -0.246 OA
ENDBRANCH   1  12
TORSDOF 5
ENDMDL
MODEL 9
REMARK VINA RESULT:      -5.4      3.822      6.790
REMARK  5 active torsions:
REMARK  status: ('A' for Active; 'I' for Inactive)
REMARK    1  A    between atoms: S_2  and  C_3 
REMARK    2  A    between atoms: C_6  and  O_7 
REMARK    3  A    between atoms: O_7  and  C_8 
REMARK    4  A    between atoms: C_8  and  C_9 
REMARK    5  A    between atoms: C_9  and  N_10 
ROOT
HETATM    1  C   UNL     1     -40.714 -50.562  13.251  1.00  0.00     0.160 C 
ENDROOT
BRANCH   1   2
HETATM    2  C   UNL     1     -39.922 -50.086  12.025  1.00  0.00     0.196 C 
BRANCH   2   3
HETATM    3  O   UNL     1     -40.823 -49.686  10.985  1.00  0.00    -0.350 OA
BRANCH   3   4
HETATM    4  C   UNL     1     -41.272 -48.394  11.058  1.00  0.00     0.068 A 
HETATM    5  C   UNL     1     -40.305 -47.427  11.348  1.00  0.00     0.038 A 
HETATM    6  C   UNL     1     -40.649 -46.073  11.418  1.00  0.00     0.021 A 
HETATM    7  C   UNL     1     -41.961 -45.664  11.167  1.00  0.00    -0.000 A 
HETATM    8  C   UNL     1     -42.926 -46.628  10.870  1.00  0.00     0.021 A 
HETATM    9  C   UNL     1     -42.582 -47.985  10.811  1.00  0.00     0.038 A 
BRANCH   7  10
HETATM   10  S   UNL     1     -42.378 -43.933  11.276  1.00  0.00    -0.134 SA
HETATM   11  C   UNL     1     -42.563 -43.767  13.072  1.00  0.00     0.095 C 
ENDBRANCH   7  10
ENDBRANCH   3   4
ENDBRANCH   2   3
ENDBRANCH   1   2
BRANCH   1  12
HETATM   12  N   UNL     1     -41.808 -51.491  12.945  1.00  0.00    -0.306 N 
HETATM   13  C   UNL     1     -43.112 -51.080  13.151  1.00  0.00     0.125 A 
HETATM   14  C   UNL     1     -44.154 -51.901  12.990  1.00  0.00     0.117 A 
HETATM   15 CL   UNL     1     -45.766 -51.398  13.286  1.00  0.00    -0.077 Cl
HETATM   16  C   UNL     1     -43.898 -53.303  12.569  1.00  0.00     0.272 A 
HETATM   17  O   UNL     1     -44.775 -54.151  12.475  1.00  0.00    -0.266 OA
HETATM   18  N   UNL     1     -42.583 -53.596  12.301  1.00  0.00    -0.274 N 
HETATM   19  C   UNL     1     -41.505 -52.768  12.496  1.00  0.00     0.329 A 
HETATM   20  H   UNL     1     -42.379 -54.544  12.022  1.00  0.00     0.173 HD
HETATM   21  O   UNL     1     -40.362 -53.173  12.297  1.00  0.00    -0.246 OA
ENDBRANCH   1  12
TORSDOF 5
ENDMDL
