MODEL 1
REMARK VINA RESULT:      -6.6      0.000      0.000
REMARK  4 active torsions:
REMARK  status: ('A' for Active; 'I' for Inactive)
REMARK    1  A    between atoms: C_5  and  C_10 
REMARK       I    between atoms: C_10  and  N_12 
REMARK    2  A    between atoms: N_12  and  C_13 
REMARK    3  A    between atoms: C_13  and  C_14 
REMARK    4  A    between atoms: C_14  and  C_15 
ROOT
HETATM    1  C   UNL     1     -41.463 -52.099  12.155  1.00  0.00     0.265 C 
HETATM    2  O   UNL     1     -40.408 -52.718  12.124  1.00  0.00    -0.266 OA
HETATM    3  N   UNL     1     -41.609 -50.791  11.749  1.00  0.00    -0.356 N 
HETATM    4  H   UNL     1     -42.538 -50.383  11.783  1.00  0.00     0.162 HD
ENDROOT
BRANCH   1   5
HETATM    5  C   UNL     1     -42.719 -52.806  12.673  1.00  0.00     0.094 A 
HETATM    6  N   UNL     1     -43.892 -52.345  12.362  1.00  0.00    -0.295 N 
HETATM    7  N   UNL     1     -45.008 -52.994  12.844  1.00  0.00    -0.265 N 
ATOM      8  HN  UNL     1     -43.986 -51.519  11.772  1.00  0.00     0.187 HD
HETATM    9  C   UNL     1     -46.299 -52.443  12.467  1.00  0.00     0.181 C 
HETATM   10  C   UNL     1     -45.011 -54.107  13.669  1.00  0.00     0.238 A 
HETATM   11  C   UNL     1     -43.688 -54.692  14.065  1.00  0.00     0.111 A 
HETATM   12  O   UNL     1     -46.051 -54.630  14.081  1.00  0.00    -0.272 OA
HETATM   13  C   UNL     1     -42.460 -54.011  13.525  1.00  0.00     0.073 A 
ENDBRANCH   1   5
BRANCH   3  14
HETATM   14  C   UNL     1     -40.464 -50.068  11.207  1.00  0.00     0.129 C 
BRANCH  14  15
HETATM   15  C   UNL     1     -40.449 -48.580  11.549  1.00  0.00     0.077 C 
BRANCH  15  16
HETATM   16  C   UNL     1     -41.439 -47.791  10.745  1.00  0.00     0.018 A 
HETATM   17  C   UNL     1     -41.934 -46.538  11.053  1.00  0.00     0.076 A 
HETATM   18  S   UNL     1     -43.073 -46.041   9.876  1.00  0.00    -0.087 SA
HETATM   19  C   UNL     1     -42.832 -47.520   9.034  1.00  0.00     0.046 A 
HETATM   20  C   UNL     1     -43.593 -47.804   7.785  1.00  0.00     0.076 C 
HETATM   21  N   UNL     1     -41.958 -48.341   9.580  1.00  0.00    -0.357 N 
ATOM     22  HN  UNL     1     -41.699 -49.252   9.200  1.00  0.00     0.166 HD
ENDBRANCH  15  16
ENDBRANCH  14  15
ENDBRANCH   3  14
TORSDOF 4
ENDMDL
MODEL 2
REMARK VINA RESULT:      -6.2      3.081      6.666
REMARK  4 active torsions:
REMARK  status: ('A' for Active; 'I' for Inactive)
REMARK    1  A    between atoms: C_5  and  C_10 
REMARK       I    between atoms: C_10  and  N_12 
REMARK    2  A    between atoms: N_12  and  C_13 
REMARK    3  A    between atoms: C_13  and  C_14 
REMARK    4  A    between atoms: C_14  and  C_15 
ROOT
HETATM    1  C   UNL     1     -40.819 -49.175  11.347  1.00  0.00     0.265 C 
HETATM    2  O   UNL     1     -39.701 -48.923  11.777  1.00  0.00    -0.266 OA
HETATM    3  N   UNL     1     -41.430 -50.405  11.446  1.00  0.00    -0.356 N 
HETATM    4  H   UNL     1     -42.376 -50.496  11.087  1.00  0.00     0.162 HD
ENDROOT
BRANCH   1   5
HETATM    5  C   UNL     1     -41.610 -48.063  10.650  1.00  0.00     0.094 A 
HETATM    6  N   UNL     1     -42.313 -48.338   9.594  1.00  0.00    -0.295 N 
HETATM    7  N   UNL     1     -43.011 -47.322   8.981  1.00  0.00    -0.265 N 
ATOM      8  HN  UNL     1     -42.347 -49.288   9.226  1.00  0.00     0.187 HD
HETATM    9  C   UNL     1     -43.785 -47.678   7.803  1.00  0.00     0.181 C 
HETATM   10  C   UNL     1     -43.026 -45.992   9.370  1.00  0.00     0.238 A 
HETATM   11  C   UNL     1     -42.236 -45.606  10.585  1.00  0.00     0.111 A 
HETATM   12  O   UNL     1     -43.662 -45.125   8.762  1.00  0.00    -0.272 OA
HETATM   13  C   UNL     1     -41.489 -46.711  11.283  1.00  0.00     0.073 A 
ENDBRANCH   1   5
BRANCH   3  14
HETATM   14  C   UNL     1     -40.753 -51.498  12.132  1.00  0.00     0.129 C 
BRANCH  14  15
HETATM   15  C   UNL     1     -41.579 -52.778  12.231  1.00  0.00     0.077 C 
BRANCH  15  16
HETATM   16  C   UNL     1     -42.833 -52.598  13.033  1.00  0.00     0.018 A 
HETATM   17  C   UNL     1     -42.959 -52.735  14.403  1.00  0.00     0.076 A 
HETATM   18  S   UNL     1     -44.583 -52.480  14.880  1.00  0.00    -0.087 SA
HETATM   19  C   UNL     1     -45.011 -52.203  13.239  1.00  0.00     0.046 A 
HETATM   20  C   UNL     1     -46.424 -51.903  12.873  1.00  0.00     0.076 C 
HETATM   21  N   UNL     1     -44.017 -52.286  12.377  1.00  0.00    -0.357 N 
ATOM     22  HN  UNL     1     -44.106 -52.141  11.372  1.00  0.00     0.166 HD
ENDBRANCH  15  16
ENDBRANCH  14  15
ENDBRANCH   3  14
TORSDOF 4
ENDMDL
MODEL 3
REMARK VINA RESULT:      -6.2      3.366      7.152
REMARK  4 active torsions:
REMARK  status: ('A' for Active; 'I' for Inactive)
REMARK    1  A    between atoms: C_5  and  C_10 
REMARK       I    between atoms: C_10  and  N_12 
REMARK    2  A    between atoms: N_12  and  C_13 
REMARK    3  A    between atoms: C_13  and  C_14 
REMARK    4  A    between atoms: C_14  and  C_15 
ROOT
HETATM    1  C   UNL     1     -40.897 -49.115  11.405  1.00  0.00     0.265 C 
HETATM    2  O   UNL     1     -39.775 -48.862  11.827  1.00  0.00    -0.266 OA
HETATM    3  N   UNL     1     -41.519 -50.336  11.537  1.00  0.00    -0.356 N 
HETATM    4  H   UNL     1     -42.466 -50.427  11.181  1.00  0.00     0.162 HD
ENDROOT
BRANCH   1   5
HETATM    5  C   UNL     1     -41.678 -48.014  10.681  1.00  0.00     0.094 A 
HETATM    6  N   UNL     1     -42.496 -48.328   9.723  1.00  0.00    -0.295 N 
HETATM    7  N   UNL     1     -43.184 -47.322   9.082  1.00  0.00    -0.265 N 
ATOM      8  HN  UNL     1     -42.626 -49.303   9.451  1.00  0.00     0.187 HD
HETATM    9  C   UNL     1     -44.089 -47.723   8.018  1.00  0.00     0.181 C 
HETATM   10  C   UNL     1     -43.076 -45.966   9.344  1.00  0.00     0.238 A 
HETATM   11  C   UNL     1     -42.149 -45.533  10.441  1.00  0.00     0.111 A 
HETATM   12  O   UNL     1     -43.710 -45.112   8.717  1.00  0.00    -0.272 OA
HETATM   13  C   UNL     1     -41.410 -46.623  11.169  1.00  0.00     0.073 A 
ENDBRANCH   1   5
BRANCH   3  14
HETATM   14  C   UNL     1     -40.851 -51.418  12.250  1.00  0.00     0.129 C 
BRANCH  14  15
HETATM   15  C   UNL     1     -41.342 -52.811  11.868  1.00  0.00     0.077 C 
BRANCH  15  16
HETATM   16  C   UNL     1     -42.173 -53.448  12.941  1.00  0.00     0.018 A 
HETATM   17  C   UNL     1     -41.782 -53.698  14.243  1.00  0.00     0.076 A 
HETATM   18  S   UNL     1     -43.039 -54.478  15.104  1.00  0.00    -0.087 SA
HETATM   19  C   UNL     1     -44.019 -54.431  13.694  1.00  0.00     0.046 A 
HETATM   20  C   UNL     1     -45.393 -55.009  13.716  1.00  0.00     0.076 C 
HETATM   21  N   UNL     1     -43.463 -53.867  12.641  1.00  0.00    -0.357 N 
ATOM     22  HN  UNL     1     -43.915 -53.756  11.733  1.00  0.00     0.166 HD
ENDBRANCH  15  16
ENDBRANCH  14  15
ENDBRANCH   3  14
TORSDOF 4
ENDMDL
MODEL 4
REMARK VINA RESULT:      -6.0      3.949      6.945
REMARK  4 active torsions:
REMARK  status: ('A' for Active; 'I' for Inactive)
REMARK    1  A    between atoms: C_5  and  C_10 
REMARK       I    between atoms: C_10  and  N_12 
REMARK    2  A    between atoms: N_12  and  C_13 
REMARK    3  A    between atoms: C_13  and  C_14 
REMARK    4  A    between atoms: C_14  and  C_15 
ROOT
HETATM    1  C   UNL     1     -40.647 -49.074  11.161  1.00  0.00     0.265 C 
HETATM    2  O   UNL     1     -41.173 -50.132  11.482  1.00  0.00    -0.266 OA
HETATM    3  N   UNL     1     -39.301 -48.808  11.281  1.00  0.00    -0.356 N 
HETATM    4  H   UNL     1     -38.963 -47.908  10.951  1.00  0.00     0.162 HD
ENDROOT
BRANCH   1   5
HETATM    5  C   UNL     1     -41.524 -47.958  10.585  1.00  0.00     0.094 A 
HETATM    6  N   UNL     1     -42.512 -48.258   9.798  1.00  0.00    -0.295 N 
HETATM    7  N   UNL     1     -43.284 -47.238   9.288  1.00  0.00    -0.265 N 
ATOM      8  HN  UNL     1     -42.712 -49.230   9.563  1.00  0.00     0.187 HD
HETATM    9  C   UNL     1     -44.380 -47.623   8.412  1.00  0.00     0.181 C 
HETATM   10  C   UNL     1     -43.100 -45.884   9.513  1.00  0.00     0.238 A 
HETATM   11  C   UNL     1     -41.977 -45.469  10.415  1.00  0.00     0.111 A 
HETATM   12  O   UNL     1     -43.821 -45.018   9.007  1.00  0.00    -0.272 OA
HETATM   13  C   UNL     1     -41.140 -46.572  11.004  1.00  0.00     0.073 A 
ENDBRANCH   1   5
BRANCH   3  14
HETATM   14  C   UNL     1     -38.400 -49.838  11.784  1.00  0.00     0.129 C 
BRANCH  14  15
HETATM   15  C   UNL     1     -38.213 -49.814  13.299  1.00  0.00     0.077 C 
BRANCH  15  16
HETATM   16  C   UNL     1     -38.751 -51.043  13.969  1.00  0.00     0.018 A 
HETATM   17  C   UNL     1     -38.520 -51.435  15.275  1.00  0.00     0.076 A 
HETATM   18  S   UNL     1     -39.299 -52.925  15.596  1.00  0.00    -0.087 SA
HETATM   19  C   UNL     1     -39.892 -52.951  13.984  1.00  0.00     0.046 A 
HETATM   20  C   UNL     1     -40.728 -54.090  13.510  1.00  0.00     0.076 C 
HETATM   21  N   UNL     1     -39.546 -51.919  13.241  1.00  0.00    -0.357 N 
ATOM     22  HN  UNL     1     -39.822 -51.783  12.268  1.00  0.00     0.166 HD
ENDBRANCH  15  16
ENDBRANCH  14  15
ENDBRANCH   3  14
TORSDOF 4
ENDMDL
MODEL 5
REMARK VINA RESULT:      -5.7      1.673      2.256
REMARK  4 active torsions:
REMARK  status: ('A' for Active; 'I' for Inactive)
REMARK    1  A    between atoms: C_5  and  C_10 
REMARK       I    between atoms: C_10  and  N_12 
REMARK    2  A    between atoms: N_12  and  C_13 
REMARK    3  A    between atoms: C_13  and  C_14 
REMARK    4  A    between atoms: C_14  and  C_15 
ROOT
HETATM    1  C   UNL     1     -41.560 -51.805  12.146  1.00  0.00     0.265 C 
HETATM    2  O   UNL     1     -40.451 -52.322  12.100  1.00  0.00    -0.266 OA
HETATM    3  N   UNL     1     -41.830 -50.510  11.764  1.00  0.00    -0.356 N 
HETATM    4  H   UNL     1     -42.794 -50.193  11.808  1.00  0.00     0.162 HD
ENDROOT
BRANCH   1   5
HETATM    5  C   UNL     1     -42.741 -52.637  12.656  1.00  0.00     0.094 A 
HETATM    6  N   UNL     1     -43.955 -52.240  12.425  1.00  0.00    -0.295 N 
HETATM    7  N   UNL     1     -45.002 -53.000  12.898  1.00  0.00    -0.265 N 
ATOM      8  HN  UNL     1     -44.131 -51.381  11.903  1.00  0.00     0.187 HD
HETATM    9  C   UNL     1     -46.343 -52.516  12.614  1.00  0.00     0.181 C 
HETATM   10  C   UNL     1     -44.894 -54.167  13.636  1.00  0.00     0.238 A 
HETATM   11  C   UNL     1     -43.518 -54.683  13.937  1.00  0.00     0.111 A 
HETATM   12  O   UNL     1     -45.877 -54.792  14.047  1.00  0.00    -0.272 OA
HETATM   13  C   UNL     1     -42.364 -53.879  13.404  1.00  0.00     0.073 A 
ENDBRANCH   1   5
BRANCH   3  14
HETATM   14  C   UNL     1     -40.761 -49.674  11.230  1.00  0.00     0.129 C 
BRANCH  14  15
HETATM   15  C   UNL     1     -41.248 -48.378  10.587  1.00  0.00     0.077 C 
BRANCH  15  16
HETATM   16  C   UNL     1     -40.705 -47.155  11.264  1.00  0.00     0.018 A 
HETATM   17  C   UNL     1     -40.084 -47.106  12.498  1.00  0.00     0.076 A 
HETATM   18  S   UNL     1     -39.667 -45.493  12.892  1.00  0.00    -0.087 SA
HETATM   19  C   UNL     1     -40.335 -44.968  11.399  1.00  0.00     0.046 A 
HETATM   20  C   UNL     1     -40.328 -43.521  11.042  1.00  0.00     0.076 C 
HETATM   21  N   UNL     1     -40.837 -45.921  10.640  1.00  0.00    -0.357 N 
ATOM     22  HN  UNL     1     -41.262 -45.774   9.725  1.00  0.00     0.166 HD
ENDBRANCH  15  16
ENDBRANCH  14  15
ENDBRANCH   3  14
TORSDOF 4
ENDMDL
MODEL 6
REMARK VINA RESULT:      -5.6      3.678      7.547
REMARK  4 active torsions:
REMARK  status: ('A' for Active; 'I' for Inactive)
REMARK    1  A    between atoms: C_5  and  C_10 
REMARK       I    between atoms: C_10  and  N_12 
REMARK    2  A    between atoms: N_12  and  C_13 
REMARK    3  A    between atoms: C_13  and  C_14 
REMARK    4  A    between atoms: C_14  and  C_15 
ROOT
HETATM    1  C   UNL     1     -40.583 -50.148  11.485  1.00  0.00     0.265 C 
HETATM    2  O   UNL     1     -39.397 -50.306  11.743  1.00  0.00    -0.266 OA
HETATM    3  N   UNL     1     -41.533 -51.143  11.555  1.00  0.00    -0.356 N 
HETATM    4  H   UNL     1     -42.497 -50.894  11.354  1.00  0.00     0.162 HD
ENDROOT
BRANCH   1   5
HETATM    5  C   UNL     1     -41.066 -48.759  11.056  1.00  0.00     0.094 A 
HETATM    6  N   UNL     1     -42.152 -48.643  10.355  1.00  0.00    -0.295 N 
HETATM    7  N   UNL     1     -42.565 -47.385   9.976  1.00  0.00    -0.265 N 
ATOM      8  HN  UNL     1     -42.689 -49.468  10.090  1.00  0.00     0.187 HD
HETATM    9  C   UNL     1     -43.787 -47.306   9.192  1.00  0.00     0.181 C 
HETATM   10  C   UNL     1     -41.912 -46.195  10.253  1.00  0.00     0.238 A 
HETATM   11  C   UNL     1     -40.651 -46.257  11.063  1.00  0.00     0.111 A 
HETATM   12  O   UNL     1     -42.329 -45.099   9.865  1.00  0.00    -0.272 OA
HETATM   13  C   UNL     1     -40.202 -47.622  11.508  1.00  0.00     0.073 A 
ENDBRANCH   1   5
BRANCH   3  14
HETATM   14  C   UNL     1     -41.152 -52.480  11.994  1.00  0.00     0.129 C 
BRANCH  14  15
HETATM   15  C   UNL     1     -42.188 -53.161  12.884  1.00  0.00     0.077 C 
BRANCH  15  16
HETATM   16  C   UNL     1     -41.581 -53.797  14.098  1.00  0.00     0.018 A 
HETATM   17  C   UNL     1     -40.317 -53.561  14.605  1.00  0.00     0.076 A 
HETATM   18  S   UNL     1     -40.032 -54.542  15.979  1.00  0.00    -0.087 SA
HETATM   19  C   UNL     1     -41.604 -55.214  15.812  1.00  0.00     0.046 A 
HETATM   20  C   UNL     1     -42.078 -56.259  16.762  1.00  0.00     0.076 C 
HETATM   21  N   UNL     1     -42.312 -54.744  14.804  1.00  0.00    -0.357 N 
ATOM     22  HN  UNL     1     -43.263 -55.035  14.575  1.00  0.00     0.166 HD
ENDBRANCH  15  16
ENDBRANCH  14  15
ENDBRANCH   3  14
TORSDOF 4
ENDMDL
MODEL 7
REMARK VINA RESULT:      -5.6      3.359      6.397
REMARK  4 active torsions:
REMARK  status: ('A' for Active; 'I' for Inactive)
REMARK    1  A    between atoms: C_5  and  C_10 
REMARK       I    between atoms: C_10  and  N_12 
REMARK    2  A    between atoms: N_12  and  C_13 
REMARK    3  A    between atoms: C_13  and  C_14 
REMARK    4  A    between atoms: C_14  and  C_15 
ROOT
HETATM    1  C   UNL     1     -42.861 -49.508  12.714  1.00  0.00     0.265 C 
HETATM    2  O   UNL     1     -43.073 -49.357  13.911  1.00  0.00    -0.266 OA
HETATM    3  N   UNL     1     -42.562 -50.716  12.125  1.00  0.00    -0.356 N 
HETATM    4  H   UNL     1     -42.439 -50.736  11.117  1.00  0.00     0.162 HD
ENDROOT
BRANCH   1   5
HETATM    5  C   UNL     1     -42.929 -48.286  11.793  1.00  0.00     0.094 A 
HETATM    6  N   UNL     1     -43.231 -48.441  10.540  1.00  0.00    -0.295 N 
HETATM    7  N   UNL     1     -43.281 -47.330   9.729  1.00  0.00    -0.265 N 
ATOM      8  HN  UNL     1     -43.429 -49.369  10.164  1.00  0.00     0.187 HD
HETATM    9  C   UNL     1     -43.625 -47.553   8.334  1.00  0.00     0.181 C 
HETATM   10  C   UNL     1     -43.012 -46.027  10.113  1.00  0.00     0.238 A 
HETATM   11  C   UNL     1     -42.658 -45.777  11.549  1.00  0.00     0.111 A 
HETATM   12  O   UNL     1     -43.057 -45.075   9.328  1.00  0.00    -0.272 OA
HETATM   13  C   UNL     1     -42.626 -46.978  12.455  1.00  0.00     0.073 A 
ENDBRANCH   1   5
BRANCH   3  14
HETATM   14  C   UNL     1     -42.520 -51.928  12.935  1.00  0.00     0.129 C 
BRANCH  14  15
HETATM   15  C   UNL     1     -41.215 -52.709  12.818  1.00  0.00     0.077 C 
BRANCH  15  16
HETATM   16  C   UNL     1     -40.003 -51.849  13.017  1.00  0.00     0.018 A 
HETATM   17  C   UNL     1     -39.425 -51.510  14.226  1.00  0.00     0.076 A 
HETATM   18  S   UNL     1     -38.086 -50.473  13.978  1.00  0.00    -0.087 SA
HETATM   19  C   UNL     1     -38.362 -50.542  12.283  1.00  0.00     0.046 A 
HETATM   20  C   UNL     1     -37.485 -49.781  11.349  1.00  0.00     0.076 C 
HETATM   21  N   UNL     1     -39.379 -51.291  11.908  1.00  0.00    -0.357 N 
ATOM     22  HN  UNL     1     -39.668 -51.440  10.941  1.00  0.00     0.166 HD
ENDBRANCH  15  16
ENDBRANCH  14  15
ENDBRANCH   3  14
TORSDOF 4
ENDMDL
MODEL 8
REMARK VINA RESULT:      -5.5      4.789      7.236
REMARK  4 active torsions:
REMARK  status: ('A' for Active; 'I' for Inactive)
REMARK    1  A    between atoms: C_5  and  C_10 
REMARK       I    between atoms: C_10  and  N_12 
REMARK    2  A    between atoms: N_12  and  C_13 
REMARK    3  A    between atoms: C_13  and  C_14 
REMARK    4  A    between atoms: C_14  and  C_15 
ROOT
HETATM    1  C   UNL     1     -40.137 -48.374  11.443  1.00  0.00     0.265 C 
HETATM    2  O   UNL     1     -39.492 -47.871  12.354  1.00  0.00    -0.266 OA
HETATM    3  N   UNL     1     -39.963 -49.662  10.988  1.00  0.00    -0.356 N 
HETATM    4  H   UNL     1     -40.578 -49.992  10.249  1.00  0.00     0.162 HD
ENDROOT
BRANCH   1   5
HETATM    5  C   UNL     1     -41.215 -47.535  10.750  1.00  0.00     0.094 A 
HETATM    6  N   UNL     1     -41.879 -48.035   9.754  1.00  0.00    -0.295 N 
HETATM    7  N   UNL     1     -42.840 -47.261   9.142  1.00  0.00    -0.265 N 
ATOM      8  HN  UNL     1     -41.692 -48.984   9.430  1.00  0.00     0.187 HD
HETATM    9  C   UNL     1     -43.557 -47.864   8.032  1.00  0.00     0.181 C 
HETATM   10  C   UNL     1     -43.167 -45.956   9.473  1.00  0.00     0.238 A 
HETATM   11  C   UNL     1     -42.439 -45.318  10.619  1.00  0.00     0.111 A 
HETATM   12  O   UNL     1     -44.030 -45.310   8.870  1.00  0.00    -0.272 OA
HETATM   13  C   UNL     1     -41.405 -46.161  11.315  1.00  0.00     0.073 A 
ENDBRANCH   1   5
BRANCH   3  14
HETATM   14  C   UNL     1     -38.983 -50.531  11.627  1.00  0.00     0.129 C 
BRANCH  14  15
HETATM   15  C   UNL     1     -39.513 -51.272  12.852  1.00  0.00     0.077 C 
BRANCH  15  16
HETATM   16  C   UNL     1     -38.770 -50.924  14.107  1.00  0.00     0.018 A 
HETATM   17  C   UNL     1     -38.793 -51.627  15.297  1.00  0.00     0.076 A 
HETATM   18  S   UNL     1     -37.831 -50.840  16.473  1.00  0.00    -0.087 SA
HETATM   19  C   UNL     1     -37.446 -49.620  15.326  1.00  0.00     0.046 A 
HETATM   20  C   UNL     1     -36.564 -48.481  15.709  1.00  0.00     0.076 C 
HETATM   21  N   UNL     1     -37.988 -49.777  14.135  1.00  0.00    -0.357 N 
ATOM     22  HN  UNL     1     -37.852 -49.145  13.346  1.00  0.00     0.166 HD
ENDBRANCH  15  16
ENDBRANCH  14  15
ENDBRANCH   3  14
TORSDOF 4
ENDMDL
MODEL 9
REMARK VINA RESULT:      -5.3      3.303      7.027
REMARK  4 active torsions:
REMARK  status: ('A' for Active; 'I' for Inactive)
REMARK    1  A    between atoms: C_5  and  C_10 
REMARK       I    between atoms: C_10  and  N_12 
REMARK    2  A    between atoms: N_12  and  C_13 
REMARK    3  A    between atoms: C_13  and  C_14 
REMARK    4  A    between atoms: C_14  and  C_15 
ROOT
HETATM    1  C   UNL     1     -41.848 -51.867  12.155  1.00  0.00     0.265 C 
HETATM    2  O   UNL     1     -41.117 -52.836  11.993  1.00  0.00    -0.266 OA
HETATM    3  N   UNL     1     -43.175 -51.946  12.512  1.00  0.00    -0.356 N 
HETATM    4  H   UNL     1     -43.681 -51.077  12.655  1.00  0.00     0.162 HD
ENDROOT
BRANCH   1   5
HETATM    5  C   UNL     1     -41.267 -50.463  11.954  1.00  0.00     0.094 A 
HETATM    6  N   UNL     1     -41.913 -49.597  11.235  1.00  0.00    -0.295 N 
HETATM    7  N   UNL     1     -41.370 -48.343  11.063  1.00  0.00    -0.265 N 
ATOM      8  HN  UNL     1     -42.806 -49.840  10.806  1.00  0.00     0.187 HD
HETATM    9  C   UNL     1     -42.130 -47.406  10.251  1.00  0.00     0.181 C 
HETATM   10  C   UNL     1     -40.160 -47.901  11.573  1.00  0.00     0.238 A 
HETATM   11  C   UNL     1     -39.364 -48.852  12.416  1.00  0.00     0.111 A 
HETATM   12  O   UNL     1     -39.722 -46.766  11.365  1.00  0.00    -0.272 OA
HETATM   13  C   UNL     1     -39.957 -50.218  12.636  1.00  0.00     0.073 A 
ENDBRANCH   1   5
BRANCH   3  14
HETATM   14  C   UNL     1     -43.784 -53.248  12.759  1.00  0.00     0.129 C 
BRANCH  14  15
HETATM   15  C   UNL     1     -45.296 -53.200  12.958  1.00  0.00     0.077 C 
BRANCH  15  16
HETATM   16  C   UNL     1     -45.686 -52.985  14.390  1.00  0.00     0.018 A 
HETATM   17  C   UNL     1     -45.156 -53.630  15.492  1.00  0.00     0.076 A 
HETATM   18  S   UNL     1     -45.932 -53.101  16.923  1.00  0.00    -0.087 SA
HETATM   19  C   UNL     1     -46.917 -52.049  15.987  1.00  0.00     0.046 A 
HETATM   20  C   UNL     1     -47.945 -51.198  16.650  1.00  0.00     0.076 C 
HETATM   21  N   UNL     1     -46.692 -52.075  14.689  1.00  0.00    -0.357 N 
ATOM     22  HN  UNL     1     -47.187 -51.507  14.001  1.00  0.00     0.166 HD
ENDBRANCH  15  16
ENDBRANCH  14  15
ENDBRANCH   3  14
TORSDOF 4
ENDMDL
