MODEL 1
REMARK VINA RESULT:      -6.4      0.000      0.000
REMARK  4 active torsions:
REMARK  status: ('A' for Active; 'I' for Inactive)
REMARK    1  A    between atoms: N_5  and  C_6 
REMARK    2  A    between atoms: C_6  and  C_7 
REMARK    3  A    between atoms: C_7  and  O_8 
REMARK    4  A    between atoms: C_7  and  C_9 
ROOT
HETATM    1  C   UNL     1     -41.080 -54.955  16.196  1.00  0.00     0.161 C 
HETATM    2  N   UNL     1     -41.735 -54.436  15.029  1.00  0.00    -0.302 N 
HETATM    3  C   UNL     1     -43.021 -54.793  14.576  1.00  0.00     0.329 A 
HETATM    4  O   UNL     1     -43.786 -55.610  15.064  1.00  0.00    -0.246 OA
HETATM    5  N   UNL     1     -43.272 -54.000  13.435  1.00  0.00    -0.295 N 
HETATM    6  C   UNL     1     -42.146 -53.209  13.172  1.00  0.00     0.066 A 
HETATM    7  C   UNL     1     -41.907 -52.300  12.163  1.00  0.00     0.032 A 
HETATM    8  C   UNL     1     -40.669 -51.645  12.172  1.00  0.00     0.002 A 
HETATM    9  C   UNL     1     -39.715 -51.907  13.176  1.00  0.00     0.002 A 
HETATM   10  C   UNL     1     -39.976 -52.832  14.193  1.00  0.00     0.032 A 
HETATM   11  C   UNL     1     -41.197 -53.473  14.163  1.00  0.00     0.065 A 
ENDROOT
BRANCH   5  12
HETATM   12  C   UNL     1     -44.502 -54.015  12.680  1.00  0.00     0.170 C 
BRANCH  12  13
HETATM   13  C   UNL     1     -45.179 -52.631  12.585  1.00  0.00     0.169 C 
BRANCH  13  14
HETATM   14  O   UNL     1     -46.344 -52.643  11.760  1.00  0.00    -0.389 OA
HETATM   15  H   UNL     1     -46.946 -51.940  12.067  1.00  0.00     0.210 HD
ENDBRANCH  13  14
BRANCH  13  16
HETATM   16  C   UNL     1     -45.603 -52.045  13.920  1.00  0.00    -0.028 A 
HETATM   17  C   UNL     1     -46.810 -52.475  14.504  1.00  0.00     0.013 A 
HETATM   18  C   UNL     1     -47.226 -51.977  15.740  1.00  0.00     0.043 A 
HETATM   19  C   UNL     1     -46.436 -51.054  16.407  1.00  0.00     0.116 A 
HETATM   20  F   UNL     1     -46.833 -50.575  17.594  1.00  0.00    -0.206 F 
HETATM   21  C   UNL     1     -45.229 -50.627  15.862  1.00  0.00     0.043 A 
HETATM   22  C   UNL     1     -44.807 -51.127  14.628  1.00  0.00     0.013 A 
ENDBRANCH  13  16
ENDBRANCH  12  13
ENDBRANCH   5  12
TORSDOF 4
ENDMDL
MODEL 2
REMARK VINA RESULT:      -6.2      1.339      2.629
REMARK  4 active torsions:
REMARK  status: ('A' for Active; 'I' for Inactive)
REMARK    1  A    between atoms: N_5  and  C_6 
REMARK    2  A    between atoms: C_6  and  C_7 
REMARK    3  A    between atoms: C_7  and  O_8 
REMARK    4  A    between atoms: C_7  and  C_9 
ROOT
HETATM    1  C   UNL     1     -39.601 -52.157  13.620  1.00  0.00     0.161 C 
HETATM    2  N   UNL     1     -40.852 -52.856  13.705  1.00  0.00    -0.302 N 
HETATM    3  C   UNL     1     -41.951 -52.690  12.839  1.00  0.00     0.329 A 
HETATM    4  O   UNL     1     -42.052 -51.918  11.897  1.00  0.00    -0.246 OA
HETATM    5  N   UNL     1     -42.932 -53.612  13.264  1.00  0.00    -0.295 N 
HETATM    6  C   UNL     1     -42.458 -54.296  14.391  1.00  0.00     0.066 A 
HETATM    7  C   UNL     1     -43.056 -55.267  15.165  1.00  0.00     0.032 A 
HETATM    8  C   UNL     1     -42.315 -55.777  16.238  1.00  0.00     0.002 A 
HETATM    9  C   UNL     1     -41.009 -55.315  16.504  1.00  0.00     0.002 A 
HETATM   10  C   UNL     1     -40.418 -54.330  15.706  1.00  0.00     0.032 A 
HETATM   11  C   UNL     1     -41.167 -53.834  14.659  1.00  0.00     0.065 A 
ENDROOT
BRANCH   5  12
HETATM   12  C   UNL     1     -44.209 -53.807  12.619  1.00  0.00     0.170 C 
BRANCH  12  13
HETATM   13  C   UNL     1     -45.063 -52.523  12.554  1.00  0.00     0.169 C 
BRANCH  13  14
HETATM   14  O   UNL     1     -46.238 -52.682  11.759  1.00  0.00    -0.389 OA
HETATM   15  H   UNL     1     -46.760 -51.862  11.813  1.00  0.00     0.210 HD
ENDBRANCH  13  14
BRANCH  13  16
HETATM   16  C   UNL     1     -45.524 -52.003  13.903  1.00  0.00    -0.028 A 
HETATM   17  C   UNL     1     -46.700 -52.530  14.474  1.00  0.00     0.013 A 
HETATM   18  C   UNL     1     -47.147 -52.097  15.723  1.00  0.00     0.043 A 
HETATM   19  C   UNL     1     -46.421 -51.141  16.416  1.00  0.00     0.116 A 
HETATM   20  F   UNL     1     -46.848 -50.724  17.616  1.00  0.00    -0.206 F 
HETATM   21  C   UNL     1     -45.246 -50.618  15.885  1.00  0.00     0.043 A 
HETATM   22  C   UNL     1     -44.792 -51.054  14.638  1.00  0.00     0.013 A 
ENDBRANCH  13  16
ENDBRANCH  12  13
ENDBRANCH   5  12
TORSDOF 4
ENDMDL
MODEL 3
REMARK VINA RESULT:      -6.2      3.055      5.582
REMARK  4 active torsions:
REMARK  status: ('A' for Active; 'I' for Inactive)
REMARK    1  A    between atoms: N_5  and  C_6 
REMARK    2  A    between atoms: C_6  and  C_7 
REMARK    3  A    between atoms: C_7  and  O_8 
REMARK    4  A    between atoms: C_7  and  C_9 
ROOT
HETATM    1  C   UNL     1     -43.322 -50.167  17.390  1.00  0.00     0.161 C 
HETATM    2  N   UNL     1     -43.466 -50.457  15.992  1.00  0.00    -0.302 N 
HETATM    3  C   UNL     1     -42.435 -50.425  15.032  1.00  0.00     0.329 A 
HETATM    4  O   UNL     1     -41.263 -50.124  15.201  1.00  0.00    -0.246 OA
HETATM    5  N   UNL     1     -43.018 -50.830  13.811  1.00  0.00    -0.295 N 
HETATM    6  C   UNL     1     -44.385 -51.062  14.014  1.00  0.00     0.066 A 
HETATM    7  C   UNL     1     -45.368 -51.450  13.128  1.00  0.00     0.032 A 
HETATM    8  C   UNL     1     -46.661 -51.613  13.638  1.00  0.00     0.002 A 
HETATM    9  C   UNL     1     -46.937 -51.395  15.003  1.00  0.00     0.002 A 
HETATM   10  C   UNL     1     -45.927 -51.004  15.888  1.00  0.00     0.032 A 
HETATM   11  C   UNL     1     -44.661 -50.839  15.366  1.00  0.00     0.065 A 
ENDROOT
BRANCH   5  12
HETATM   12  C   UNL     1     -42.300 -50.981  12.569  1.00  0.00     0.170 C 
BRANCH  12  13
HETATM   13  C   UNL     1     -42.055 -52.454  12.178  1.00  0.00     0.169 C 
BRANCH  13  14
HETATM   14  O   UNL     1     -41.186 -52.588  11.053  1.00  0.00    -0.389 OA
HETATM   15  H   UNL     1     -40.274 -52.409  11.344  1.00  0.00     0.210 HD
ENDBRANCH  13  14
BRANCH  13  16
HETATM   16  C   UNL     1     -41.462 -53.308  13.284  1.00  0.00    -0.028 A 
HETATM   17  C   UNL     1     -40.084 -53.213  13.557  1.00  0.00     0.013 A 
HETATM   18  C   UNL     1     -39.502 -53.964  14.580  1.00  0.00     0.043 A 
HETATM   19  C   UNL     1     -40.293 -54.810  15.343  1.00  0.00     0.116 A 
HETATM   20  F   UNL     1     -39.736 -55.532  16.325  1.00  0.00    -0.206 F 
HETATM   21  C   UNL     1     -41.660 -54.908  15.106  1.00  0.00     0.043 A 
HETATM   22  C   UNL     1     -42.246 -54.153  14.088  1.00  0.00     0.013 A 
ENDBRANCH  13  16
ENDBRANCH  12  13
ENDBRANCH   5  12
TORSDOF 4
ENDMDL
MODEL 4
REMARK VINA RESULT:      -6.2      3.293      4.527
REMARK  4 active torsions:
REMARK  status: ('A' for Active; 'I' for Inactive)
REMARK    1  A    between atoms: N_5  and  C_6 
REMARK    2  A    between atoms: C_6  and  C_7 
REMARK    3  A    between atoms: C_7  and  O_8 
REMARK    4  A    between atoms: C_7  and  C_9 
ROOT
HETATM    1  C   UNL     1     -38.271 -51.288  17.815  1.00  0.00     0.161 C 
HETATM    2  N   UNL     1     -38.487 -51.630  16.438  1.00  0.00    -0.302 N 
HETATM    3  C   UNL     1     -39.034 -52.838  15.963  1.00  0.00     0.329 A 
HETATM    4  O   UNL     1     -39.390 -53.807  16.616  1.00  0.00    -0.246 OA
HETATM    5  N   UNL     1     -39.109 -52.713  14.558  1.00  0.00    -0.295 N 
HETATM    6  C   UNL     1     -38.580 -51.471  14.182  1.00  0.00     0.066 A 
HETATM    7  C   UNL     1     -38.419 -50.909  12.933  1.00  0.00     0.032 A 
HETATM    8  C   UNL     1     -37.860 -49.626  12.877  1.00  0.00     0.002 A 
HETATM    9  C   UNL     1     -37.486 -48.944  14.052  1.00  0.00     0.002 A 
HETATM   10  C   UNL     1     -37.658 -49.530  15.311  1.00  0.00     0.032 A 
HETATM   11  C   UNL     1     -38.202 -50.797  15.346  1.00  0.00     0.065 A 
ENDROOT
BRANCH   5  12
HETATM   12  C   UNL     1     -39.655 -53.714  13.673  1.00  0.00     0.170 C 
BRANCH  12  13
HETATM   13  C   UNL     1     -40.841 -53.203  12.829  1.00  0.00     0.169 C 
BRANCH  13  14
HETATM   14  O   UNL     1     -40.702 -53.508  11.441  1.00  0.00    -0.389 OA
HETATM   15  H   UNL     1     -41.450 -54.072  11.173  1.00  0.00     0.210 HD
ENDBRANCH  13  14
BRANCH  13  16
HETATM   16  C   UNL     1     -42.195 -53.742  13.254  1.00  0.00    -0.028 A 
HETATM   17  C   UNL     1     -43.327 -53.445  12.469  1.00  0.00     0.013 A 
HETATM   18  C   UNL     1     -44.587 -53.940  12.812  1.00  0.00     0.043 A 
HETATM   19  C   UNL     1     -44.725 -54.741  13.934  1.00  0.00     0.116 A 
HETATM   20  F   UNL     1     -45.934 -55.218  14.264  1.00  0.00    -0.206 F 
HETATM   21  C   UNL     1     -43.621 -55.066  14.715  1.00  0.00     0.043 A 
HETATM   22  C   UNL     1     -42.358 -54.579  14.372  1.00  0.00     0.013 A 
ENDBRANCH  13  16
ENDBRANCH  12  13
ENDBRANCH   5  12
TORSDOF 4
ENDMDL
MODEL 5
REMARK VINA RESULT:      -6.2      3.334      4.943
REMARK  4 active torsions:
REMARK  status: ('A' for Active; 'I' for Inactive)
REMARK    1  A    between atoms: N_5  and  C_6 
REMARK    2  A    between atoms: C_6  and  C_7 
REMARK    3  A    between atoms: C_7  and  O_8 
REMARK    4  A    between atoms: C_7  and  C_9 
ROOT
HETATM    1  C   UNL     1     -41.266 -55.398  16.214  1.00  0.00     0.161 C 
HETATM    2  N   UNL     1     -41.581 -54.676  15.014  1.00  0.00    -0.302 N 
HETATM    3  C   UNL     1     -40.657 -54.003  14.190  1.00  0.00     0.329 A 
HETATM    4  O   UNL     1     -39.452 -53.887  14.355  1.00  0.00    -0.246 OA
HETATM    5  N   UNL     1     -41.399 -53.487  13.105  1.00  0.00    -0.295 N 
HETATM    6  C   UNL     1     -42.752 -53.802  13.286  1.00  0.00     0.066 A 
HETATM    7  C   UNL     1     -43.852 -53.500  12.512  1.00  0.00     0.032 A 
HETATM    8  C   UNL     1     -45.094 -53.970  12.955  1.00  0.00     0.002 A 
HETATM    9  C   UNL     1     -45.206 -54.726  14.139  1.00  0.00     0.002 A 
HETATM   10  C   UNL     1     -44.077 -55.024  14.911  1.00  0.00     0.032 A 
HETATM   11  C   UNL     1     -42.864 -54.545  14.464  1.00  0.00     0.065 A 
ENDROOT
BRANCH   5  12
HETATM   12  C   UNL     1     -40.830 -52.761  11.994  1.00  0.00     0.170 C 
BRANCH  12  13
HETATM   13  C   UNL     1     -40.282 -51.373  12.388  1.00  0.00     0.169 C 
BRANCH  13  14
HETATM   14  O   UNL     1     -38.991 -51.113  11.834  1.00  0.00    -0.389 OA
HETATM   15  H   UNL     1     -38.961 -50.182  11.548  1.00  0.00     0.210 HD
ENDBRANCH  13  14
BRANCH  13  16
HETATM   16  C   UNL     1     -41.166 -50.207  11.982  1.00  0.00    -0.028 A 
HETATM   17  C   UNL     1     -42.351 -49.964  12.703  1.00  0.00     0.013 A 
HETATM   18  C   UNL     1     -43.181 -48.890  12.377  1.00  0.00     0.043 A 
HETATM   19  C   UNL     1     -42.831 -48.046  11.336  1.00  0.00     0.116 A 
HETATM   20  F   UNL     1     -43.627 -47.014  11.021  1.00  0.00    -0.206 F 
HETATM   21  C   UNL     1     -41.657 -48.252  10.619  1.00  0.00     0.043 A 
HETATM   22  C   UNL     1     -40.820 -49.322  10.946  1.00  0.00     0.013 A 
ENDBRANCH  13  16
ENDBRANCH  12  13
ENDBRANCH   5  12
TORSDOF 4
ENDMDL
MODEL 6
REMARK VINA RESULT:      -6.1      2.116      3.279
REMARK  4 active torsions:
REMARK  status: ('A' for Active; 'I' for Inactive)
REMARK    1  A    between atoms: N_5  and  C_6 
REMARK    2  A    between atoms: C_6  and  C_7 
REMARK    3  A    between atoms: C_7  and  O_8 
REMARK    4  A    between atoms: C_7  and  C_9 
ROOT
HETATM    1  C   UNL     1     -38.877 -53.565  15.903  1.00  0.00     0.161 C 
HETATM    2  N   UNL     1     -40.080 -53.353  15.149  1.00  0.00    -0.302 N 
HETATM    3  C   UNL     1     -40.291 -52.333  14.201  1.00  0.00     0.329 A 
HETATM    4  O   UNL     1     -39.520 -51.444  13.873  1.00  0.00    -0.246 OA
HETATM    5  N   UNL     1     -41.586 -52.543  13.676  1.00  0.00    -0.295 N 
HETATM    6  C   UNL     1     -42.167 -53.642  14.322  1.00  0.00     0.066 A 
HETATM    7  C   UNL     1     -43.413 -54.212  14.170  1.00  0.00     0.032 A 
HETATM    8  C   UNL     1     -43.707 -55.328  14.963  1.00  0.00     0.002 A 
HETATM    9  C   UNL     1     -42.761 -55.843  15.873  1.00  0.00     0.002 A 
HETATM   10  C   UNL     1     -41.501 -55.252  16.012  1.00  0.00     0.032 A 
HETATM   11  C   UNL     1     -41.232 -54.149  15.228  1.00  0.00     0.065 A 
ENDROOT
BRANCH   5  12
HETATM   12  C   UNL     1     -42.188 -51.744  12.636  1.00  0.00     0.170 C 
BRANCH  12  13
HETATM   13  C   UNL     1     -42.955 -50.517  13.173  1.00  0.00     0.169 C 
BRANCH  13  14
HETATM   14  O   UNL     1     -43.262 -49.568  12.152  1.00  0.00    -0.389 OA
HETATM   15  H   UNL     1     -44.196 -49.678  11.899  1.00  0.00     0.210 HD
ENDBRANCH  13  14
BRANCH  13  16
HETATM   16  C   UNL     1     -44.268 -50.847  13.861  1.00  0.00    -0.028 A 
HETATM   17  C   UNL     1     -44.349 -50.747  15.264  1.00  0.00     0.013 A 
HETATM   18  C   UNL     1     -45.543 -51.019  15.934  1.00  0.00     0.043 A 
HETATM   19  C   UNL     1     -46.667 -51.384  15.210  1.00  0.00     0.116 A 
HETATM   20  F   UNL     1     -47.814 -51.646  15.851  1.00  0.00    -0.206 F 
HETATM   21  C   UNL     1     -46.619 -51.472  13.822  1.00  0.00     0.043 A 
HETATM   22  C   UNL     1     -45.428 -51.194  13.147  1.00  0.00     0.013 A 
ENDBRANCH  13  16
ENDBRANCH  12  13
ENDBRANCH   5  12
TORSDOF 4
ENDMDL
MODEL 7
REMARK VINA RESULT:      -6.1      3.292      6.119
REMARK  4 active torsions:
REMARK  status: ('A' for Active; 'I' for Inactive)
REMARK    1  A    between atoms: N_5  and  C_6 
REMARK    2  A    between atoms: C_6  and  C_7 
REMARK    3  A    between atoms: C_7  and  O_8 
REMARK    4  A    between atoms: C_7  and  C_9 
ROOT
HETATM    1  C   UNL     1     -44.915 -50.511  16.179  1.00  0.00     0.161 C 
HETATM    2  N   UNL     1     -44.479 -51.316  15.074  1.00  0.00    -0.302 N 
HETATM    3  C   UNL     1     -43.489 -50.965  14.135  1.00  0.00     0.329 A 
HETATM    4  O   UNL     1     -42.854 -49.923  14.072  1.00  0.00    -0.246 OA
HETATM    5  N   UNL     1     -43.354 -52.072  13.269  1.00  0.00    -0.295 N 
HETATM    6  C   UNL     1     -44.273 -53.061  13.646  1.00  0.00     0.066 A 
HETATM    7  C   UNL     1     -44.530 -54.299  13.097  1.00  0.00     0.032 A 
HETATM    8  C   UNL     1     -45.516 -55.079  13.712  1.00  0.00     0.002 A 
HETATM    9  C   UNL     1     -46.208 -54.613  14.849  1.00  0.00     0.002 A 
HETATM   10  C   UNL     1     -45.933 -53.354  15.393  1.00  0.00     0.032 A 
HETATM   11  C   UNL     1     -44.964 -52.596  14.769  1.00  0.00     0.065 A 
ENDROOT
BRANCH   5  12
HETATM   12  C   UNL     1     -42.409 -52.153  12.182  1.00  0.00     0.170 C 
BRANCH  12  13
HETATM   13  C   UNL     1     -41.023 -52.677  12.613  1.00  0.00     0.169 C 
BRANCH  13  14
HETATM   14  O   UNL     1     -40.471 -53.607  11.680  1.00  0.00    -0.389 OA
HETATM   15  H   UNL     1     -39.923 -54.246  12.170  1.00  0.00     0.210 HD
ENDBRANCH  13  14
BRANCH  13  16
HETATM   16  C   UNL     1     -39.975 -51.597  12.814  1.00  0.00    -0.028 A 
HETATM   17  C   UNL     1     -40.034 -50.432  12.025  1.00  0.00     0.013 A 
HETATM   18  C   UNL     1     -39.104 -49.404  12.193  1.00  0.00     0.043 A 
HETATM   19  C   UNL     1     -38.114 -49.528  13.155  1.00  0.00     0.116 A 
HETATM   20  F   UNL     1     -37.220 -48.543  13.318  1.00  0.00    -0.206 F 
HETATM   21  C   UNL     1     -38.045 -50.660  13.961  1.00  0.00     0.043 A 
HETATM   22  C   UNL     1     -38.977 -51.687  13.800  1.00  0.00     0.013 A 
ENDBRANCH  13  16
ENDBRANCH  12  13
ENDBRANCH   5  12
TORSDOF 4
ENDMDL
MODEL 8
REMARK VINA RESULT:      -5.9      2.977      5.349
REMARK  4 active torsions:
REMARK  status: ('A' for Active; 'I' for Inactive)
REMARK    1  A    between atoms: N_5  and  C_6 
REMARK    2  A    between atoms: C_6  and  C_7 
REMARK    3  A    between atoms: C_7  and  O_8 
REMARK    4  A    between atoms: C_7  and  C_9 
ROOT
HETATM    1  C   UNL     1     -43.676 -54.459  17.001  1.00  0.00     0.161 C 
HETATM    2  N   UNL     1     -43.803 -53.772  15.748  1.00  0.00    -0.302 N 
HETATM    3  C   UNL     1     -42.880 -53.818  14.684  1.00  0.00     0.329 A 
HETATM    4  O   UNL     1     -41.813 -54.412  14.644  1.00  0.00    -0.246 OA
HETATM    5  N   UNL     1     -43.436 -53.043  13.643  1.00  0.00    -0.295 N 
HETATM    6  C   UNL     1     -44.652 -52.500  14.079  1.00  0.00     0.066 A 
HETATM    7  C   UNL     1     -45.543 -51.669  13.433  1.00  0.00     0.032 A 
HETATM    8  C   UNL     1     -46.697 -51.299  14.136  1.00  0.00     0.002 A 
HETATM    9  C   UNL     1     -46.933 -51.767  15.444  1.00  0.00     0.002 A 
HETATM   10  C   UNL     1     -46.018 -52.612  16.082  1.00  0.00     0.032 A 
HETATM   11  C   UNL     1     -44.884 -52.958  15.378  1.00  0.00     0.065 A 
ENDROOT
BRANCH   5  12
HETATM   12  C   UNL     1     -42.833 -52.859  12.345  1.00  0.00     0.170 C 
BRANCH  12  13
HETATM   13  C   UNL     1     -41.337 -52.486  12.412  1.00  0.00     0.169 C 
BRANCH  13  14
HETATM   14  O   UNL     1     -40.542 -53.225  11.484  1.00  0.00    -0.389 OA
HETATM   15  H   UNL     1     -41.103 -53.470  10.726  1.00  0.00     0.210 HD
ENDBRANCH  13  14
BRANCH  13  16
HETATM   16  C   UNL     1     -41.041 -51.019  12.159  1.00  0.00    -0.028 A 
HETATM   17  C   UNL     1     -42.104 -50.094  12.175  1.00  0.00     0.013 A 
HETATM   18  C   UNL     1     -41.873 -48.733  11.968  1.00  0.00     0.043 A 
HETATM   19  C   UNL     1     -40.579 -48.283  11.753  1.00  0.00     0.116 A 
HETATM   20  F   UNL     1     -40.355 -46.977  11.555  1.00  0.00    -0.206 F 
HETATM   21  C   UNL     1     -39.510 -49.172  11.752  1.00  0.00     0.043 A 
HETATM   22  C   UNL     1     -39.736 -50.534  11.964  1.00  0.00     0.013 A 
ENDBRANCH  13  16
ENDBRANCH  12  13
ENDBRANCH   5  12
TORSDOF 4
ENDMDL
MODEL 9
REMARK VINA RESULT:      -5.8      2.941      5.650
REMARK  4 active torsions:
REMARK  status: ('A' for Active; 'I' for Inactive)
REMARK    1  A    between atoms: N_5  and  C_6 
REMARK    2  A    between atoms: C_6  and  C_7 
REMARK    3  A    between atoms: C_7  and  O_8 
REMARK    4  A    between atoms: C_7  and  C_9 
ROOT
HETATM    1  C   UNL     1     -44.986 -50.551  16.277  1.00  0.00     0.161 C 
HETATM    2  N   UNL     1     -44.526 -51.352  15.180  1.00  0.00    -0.302 N 
HETATM    3  C   UNL     1     -43.494 -51.011  14.283  1.00  0.00     0.329 A 
HETATM    4  O   UNL     1     -42.836 -49.982  14.256  1.00  0.00    -0.246 OA
HETATM    5  N   UNL     1     -43.349 -52.111  13.409  1.00  0.00    -0.295 N 
HETATM    6  C   UNL     1     -44.302 -53.084  13.739  1.00  0.00     0.066 A 
HETATM    7  C   UNL     1     -44.563 -54.311  13.166  1.00  0.00     0.032 A 
HETATM    8  C   UNL     1     -45.588 -55.077  13.734  1.00  0.00     0.002 A 
HETATM    9  C   UNL     1     -46.313 -54.610  14.849  1.00  0.00     0.002 A 
HETATM   10  C   UNL     1     -46.032 -53.363  15.419  1.00  0.00     0.032 A 
HETATM   11  C   UNL     1     -45.025 -52.618  14.840  1.00  0.00     0.065 A 
ENDROOT
BRANCH   5  12
HETATM   12  C   UNL     1     -42.365 -52.199  12.357  1.00  0.00     0.170 C 
BRANCH  12  13
HETATM   13  C   UNL     1     -41.348 -53.341  12.563  1.00  0.00     0.169 C 
BRANCH  13  14
HETATM   14  O   UNL     1     -40.444 -53.480  11.467  1.00  0.00    -0.389 OA
HETATM   15  H   UNL     1     -39.926 -52.659  11.390  1.00  0.00     0.210 HD
ENDBRANCH  13  14
BRANCH  13  16
HETATM   16  C   UNL     1     -40.493 -53.205  13.811  1.00  0.00    -0.028 A 
HETATM   17  C   UNL     1     -40.510 -54.239  14.767  1.00  0.00     0.013 A 
HETATM   18  C   UNL     1     -39.722 -54.164  15.917  1.00  0.00     0.043 A 
HETATM   19  C   UNL     1     -38.905 -53.062  16.117  1.00  0.00     0.116 A 
HETATM   20  F   UNL     1     -38.148 -52.989  17.220  1.00  0.00    -0.206 F 
HETATM   21  C   UNL     1     -38.856 -52.036  15.179  1.00  0.00     0.043 A 
HETATM   22  C   UNL     1     -39.638 -52.110  14.024  1.00  0.00     0.013 A 
ENDBRANCH  13  16
ENDBRANCH  12  13
ENDBRANCH   5  12
TORSDOF 4
ENDMDL
