MODEL 1
REMARK VINA RESULT:      -7.3      0.000      0.000
REMARK  5 active torsions:
REMARK  status: ('A' for Active; 'I' for Inactive)
REMARK    1  A    between atoms: C_5  and  N_6 
REMARK       I    between atoms: N_6  and  C_7 
REMARK       I    between atoms: C_7  and  N_9 
REMARK    2  A    between atoms: N_9  and  C_10 
REMARK    3  A    between atoms: C_10  and  C_15 
REMARK       I    between atoms: C_15  and  N_17 
REMARK    4  A    between atoms: N_17  and  C_18 
REMARK    5  A    between atoms: C_18  and  C_19 
ROOT
HETATM    1  N   UNL     1     -40.199 -49.629  11.164  1.00  0.00    -0.308 N 
HETATM    2  C   UNL     1     -40.743 -48.417  11.538  1.00  0.00     0.321 C 
HETATM    3  O   UNL     1     -41.301 -48.185  12.603  1.00  0.00    -0.247 OA
HETATM    4  N   UNL     1     -40.604 -47.447  10.577  1.00  0.00    -0.325 N 
HETATM    5  H   UNL     1     -39.967 -49.742  10.189  1.00  0.00     0.170 HD
HETATM    6  H   UNL     1     -40.229 -47.681   9.664  1.00  0.00     0.165 HD
ENDROOT
BRANCH   4   7
HETATM    7  C   UNL     1     -41.144 -46.080  10.711  1.00  0.00     0.115 C 
HETATM    8  C   UNL     1     -40.152 -44.992  10.256  1.00  0.00     0.041 C 
HETATM    9  C   UNL     1     -40.259 -43.846  11.266  1.00  0.00     0.003 C 
HETATM   10  C   UNL     1     -41.344 -44.218  12.266  1.00  0.00     0.003 C 
HETATM   11  C   UNL     1     -41.484 -45.729  12.171  1.00  0.00     0.041 C 
BRANCH   7  12
HETATM   12  C   UNL     1     -42.443 -46.062   9.835  1.00  0.00     0.246 C 
HETATM   13  O   UNL     1     -43.039 -45.008   9.596  1.00  0.00    -0.271 OA
HETATM   14  N   UNL     1     -42.851 -47.266   9.306  1.00  0.00    -0.359 N 
HETATM   15  H   UNL     1     -42.462 -48.128   9.661  1.00  0.00     0.162 HD
BRANCH  14  16
HETATM   16  C   UNL     1     -44.002 -47.370   8.439  1.00  0.00     0.127 C 
BRANCH  16  17
HETATM   17  C   UNL     1     -45.217 -47.662   9.264  1.00  0.00     0.003 A 
HETATM   18  C   UNL     1     -46.422 -48.337   8.653  1.00  0.00     0.007 A 
HETATM   19  C   UNL     1     -46.496 -46.890   9.053  1.00  0.00     0.007 A 
ENDBRANCH  16  17
ENDBRANCH  14  16
ENDBRANCH   7  12
ENDBRANCH   4   7
BRANCH   1  20
HETATM   20  C   UNL     1     -40.188 -50.791  11.976  1.00  0.00     0.051 A 
HETATM   21  C   UNL     1     -41.155 -51.790  11.897  1.00  0.00     0.033 A 
HETATM   22  C   UNL     1     -41.036 -52.950  12.659  1.00  0.00     0.027 A 
HETATM   23  C   UNL     1     -39.951 -53.085  13.513  1.00  0.00     0.005 A 
HETATM   24  C   UNL     1     -39.740 -54.364  14.269  1.00  0.00     0.068 C 
HETATM   25  N   UNL     1     -39.021 -52.111  13.661  1.00  0.00    -0.367 N 
HETATM   26  C   UNL     1     -39.166 -50.993  12.901  1.00  0.00     0.117 A 
ATOM     27  HN  UNL     1     -38.245 -52.212  14.315  1.00  0.00     0.165 HD
ENDBRANCH   1  20
TORSDOF 5
ENDMDL
MODEL 2
REMARK VINA RESULT:      -7.3      3.971      7.418
REMARK  5 active torsions:
REMARK  status: ('A' for Active; 'I' for Inactive)
REMARK    1  A    between atoms: C_5  and  N_6 
REMARK       I    between atoms: N_6  and  C_7 
REMARK       I    between atoms: C_7  and  N_9 
REMARK    2  A    between atoms: N_9  and  C_10 
REMARK    3  A    between atoms: C_10  and  C_15 
REMARK       I    between atoms: C_15  and  N_17 
REMARK    4  A    between atoms: N_17  and  C_18 
REMARK    5  A    between atoms: C_18  and  C_19 
ROOT
HETATM    1  N   UNL     1     -41.605 -50.184  11.356  1.00  0.00    -0.308 N 
HETATM    2  C   UNL     1     -42.239 -50.696  12.469  1.00  0.00     0.321 C 
HETATM    3  O   UNL     1     -42.528 -50.065  13.478  1.00  0.00    -0.247 OA
HETATM    4  N   UNL     1     -42.534 -52.031  12.351  1.00  0.00    -0.325 N 
HETATM    5  H   UNL     1     -41.237 -50.851  10.694  1.00  0.00     0.170 HD
HETATM    6  H   UNL     1     -42.201 -52.561  11.553  1.00  0.00     0.165 HD
ENDROOT
BRANCH   4   7
HETATM    7  C   UNL     1     -43.166 -52.827  13.422  1.00  0.00     0.115 C 
HETATM    8  C   UNL     1     -42.630 -52.483  14.825  1.00  0.00     0.041 C 
HETATM    9  C   UNL     1     -42.474 -53.809  15.577  1.00  0.00     0.003 C 
HETATM   10  C   UNL     1     -42.970 -54.916  14.658  1.00  0.00     0.003 C 
HETATM   11  C   UNL     1     -42.911 -54.335  13.253  1.00  0.00     0.041 C 
BRANCH   7  12
HETATM   12  C   UNL     1     -44.699 -52.523  13.313  1.00  0.00     0.246 C 
HETATM   13  O   UNL     1     -45.395 -53.052  12.442  1.00  0.00    -0.271 OA
HETATM   14  N   UNL     1     -45.234 -51.683  14.264  1.00  0.00    -0.359 N 
HETATM   15  H   UNL     1     -44.622 -51.126  14.843  1.00  0.00     0.162 HD
BRANCH  14  16
HETATM   16  C   UNL     1     -46.642 -51.369  14.302  1.00  0.00     0.127 C 
BRANCH  16  17
HETATM   17  C   UNL     1     -47.264 -52.028  15.493  1.00  0.00     0.003 A 
HETATM   18  C   UNL     1     -47.814 -51.205  16.634  1.00  0.00     0.007 A 
HETATM   19  C   UNL     1     -46.566 -52.021  16.831  1.00  0.00     0.007 A 
ENDBRANCH  16  17
ENDBRANCH  14  16
ENDBRANCH   7  12
ENDBRANCH   4   7
BRANCH   1  20
HETATM   20  C   UNL     1     -41.208 -48.831  11.207  1.00  0.00     0.051 A 
HETATM   21  C   UNL     1     -40.117 -48.275  11.870  1.00  0.00     0.033 A 
HETATM   22  C   UNL     1     -39.725 -46.964  11.611  1.00  0.00     0.027 A 
HETATM   23  C   UNL     1     -40.451 -46.213  10.697  1.00  0.00     0.005 A 
HETATM   24  C   UNL     1     -39.994 -44.835  10.320  1.00  0.00     0.068 C 
HETATM   25  N   UNL     1     -41.552 -46.700  10.075  1.00  0.00    -0.367 N 
HETATM   26  C   UNL     1     -41.906 -47.983  10.349  1.00  0.00     0.117 A 
ATOM     27  HN  UNL     1     -42.094 -46.126   9.428  1.00  0.00     0.165 HD
ENDBRANCH   1  20
TORSDOF 5
ENDMDL
MODEL 3
REMARK VINA RESULT:      -7.2      3.062      4.613
REMARK  5 active torsions:
REMARK  status: ('A' for Active; 'I' for Inactive)
REMARK    1  A    between atoms: C_5  and  N_6 
REMARK       I    between atoms: N_6  and  C_7 
REMARK       I    between atoms: C_7  and  N_9 
REMARK    2  A    between atoms: N_9  and  C_10 
REMARK    3  A    between atoms: C_10  and  C_15 
REMARK       I    between atoms: C_15  and  N_17 
REMARK    4  A    between atoms: N_17  and  C_18 
REMARK    5  A    between atoms: C_18  and  C_19 
ROOT
HETATM    1  N   UNL     1     -42.594 -52.520  11.827  1.00  0.00    -0.308 N 
HETATM    2  C   UNL     1     -41.781 -51.541  12.360  1.00  0.00     0.321 C 
HETATM    3  O   UNL     1     -41.856 -51.093  13.497  1.00  0.00    -0.247 OA
HETATM    4  N   UNL     1     -40.838 -51.086  11.473  1.00  0.00    -0.325 N 
HETATM    5  H   UNL     1     -42.567 -52.640  10.826  1.00  0.00     0.170 HD
HETATM    6  H   UNL     1     -40.852 -51.395  10.507  1.00  0.00     0.165 HD
ENDROOT
BRANCH   4   7
HETATM    7  C   UNL     1     -39.880 -50.005  11.780  1.00  0.00     0.115 C 
HETATM    8  C   UNL     1     -38.647 -50.012  10.856  1.00  0.00     0.041 C 
HETATM    9  C   UNL     1     -37.432 -49.710  11.739  1.00  0.00     0.003 C 
HETATM   10  C   UNL     1     -37.942 -49.464  13.151  1.00  0.00     0.003 C 
HETATM   11  C   UNL     1     -39.314 -50.118  13.207  1.00  0.00     0.041 C 
BRANCH   7  12
HETATM   12  C   UNL     1     -40.694 -48.676  11.626  1.00  0.00     0.246 C 
HETATM   13  O   UNL     1     -40.719 -47.833  12.526  1.00  0.00    -0.271 OA
HETATM   14  N   UNL     1     -41.331 -48.475  10.421  1.00  0.00    -0.359 N 
HETATM   15  H   UNL     1     -41.448 -49.247   9.780  1.00  0.00     0.162 HD
BRANCH  14  16
HETATM   16  C   UNL     1     -42.068 -47.267  10.138  1.00  0.00     0.127 C 
BRANCH  16  17
HETATM   17  C   UNL     1     -43.241 -47.595   9.267  1.00  0.00     0.003 A 
HETATM   18  C   UNL     1     -44.194 -46.515   8.812  1.00  0.00     0.007 A 
HETATM   19  C   UNL     1     -44.647 -47.541   9.813  1.00  0.00     0.007 A 
ENDBRANCH  16  17
ENDBRANCH  14  16
ENDBRANCH   7  12
ENDBRANCH   4   7
BRANCH   1  20
HETATM   20  C   UNL     1     -43.635 -53.174  12.534  1.00  0.00     0.051 A 
HETATM   21  C   UNL     1     -43.415 -54.220  13.427  1.00  0.00     0.033 A 
HETATM   22  C   UNL     1     -44.471 -54.760  14.157  1.00  0.00     0.027 A 
HETATM   23  C   UNL     1     -45.749 -54.253  13.967  1.00  0.00     0.005 A 
HETATM   24  C   UNL     1     -46.888 -54.742  14.812  1.00  0.00     0.068 C 
HETATM   25  N   UNL     1     -46.012 -53.276  13.066  1.00  0.00    -0.367 N 
HETATM   26  C   UNL     1     -44.958 -52.770  12.370  1.00  0.00     0.117 A 
ATOM     27  HN  UNL     1     -46.961 -52.934  12.915  1.00  0.00     0.165 HD
ENDBRANCH   1  20
TORSDOF 5
ENDMDL
MODEL 4
REMARK VINA RESULT:      -7.2      1.216      4.157
REMARK  5 active torsions:
REMARK  status: ('A' for Active; 'I' for Inactive)
REMARK    1  A    between atoms: C_5  and  N_6 
REMARK       I    between atoms: N_6  and  C_7 
REMARK       I    between atoms: C_7  and  N_9 
REMARK    2  A    between atoms: N_9  and  C_10 
REMARK    3  A    between atoms: C_10  and  C_15 
REMARK       I    between atoms: C_15  and  N_17 
REMARK    4  A    between atoms: N_17  and  C_18 
REMARK    5  A    between atoms: C_18  and  C_19 
ROOT
HETATM    1  N   UNL     1     -40.401 -50.229  10.978  1.00  0.00    -0.308 N 
HETATM    2  C   UNL     1     -41.429 -49.313  11.074  1.00  0.00     0.321 C 
HETATM    3  O   UNL     1     -42.147 -49.149  12.053  1.00  0.00    -0.247 OA
HETATM    4  N   UNL     1     -41.592 -48.568   9.934  1.00  0.00    -0.325 N 
HETATM    5  H   UNL     1     -40.036 -50.409  10.055  1.00  0.00     0.170 HD
HETATM    6  H   UNL     1     -41.056 -48.783   9.100  1.00  0.00     0.165 HD
ENDROOT
BRANCH   4   7
HETATM    7  C   UNL     1     -42.654 -47.557   9.762  1.00  0.00     0.115 C 
HETATM    8  C   UNL     1     -43.843 -47.763  10.719  1.00  0.00     0.041 C 
HETATM    9  C   UNL     1     -45.115 -47.494   9.909  1.00  0.00     0.003 C 
HETATM   10  C   UNL     1     -44.685 -47.072   8.511  1.00  0.00     0.003 C 
HETATM   11  C   UNL     1     -43.263 -47.589   8.349  1.00  0.00     0.041 C 
BRANCH   7  12
HETATM   12  C   UNL     1     -41.955 -46.178  10.018  1.00  0.00     0.246 C 
HETATM   13  O   UNL     1     -42.600 -45.126  10.024  1.00  0.00    -0.271 OA
HETATM   14  N   UNL     1     -40.605 -46.207  10.286  1.00  0.00    -0.359 N 
HETATM   15  H   UNL     1     -40.073 -47.044  10.096  1.00  0.00     0.162 HD
BRANCH  14  16
HETATM   16  C   UNL     1     -39.859 -45.008  10.590  1.00  0.00     0.127 C 
BRANCH  16  17
HETATM   17  C   UNL     1     -39.967 -44.718  12.055  1.00  0.00     0.003 A 
HETATM   18  C   UNL     1     -39.802 -43.312  12.580  1.00  0.00     0.007 A 
HETATM   19  C   UNL     1     -38.745 -44.344  12.860  1.00  0.00     0.007 A 
ENDBRANCH  16  17
ENDBRANCH  14  16
ENDBRANCH   7  12
ENDBRANCH   4   7
BRANCH   1  20
HETATM   20  C   UNL     1     -40.007 -51.109  12.018  1.00  0.00     0.051 A 
HETATM   21  C   UNL     1     -38.925 -50.863  12.860  1.00  0.00     0.033 A 
HETATM   22  C   UNL     1     -38.645 -51.723  13.920  1.00  0.00     0.027 A 
HETATM   23  C   UNL     1     -39.448 -52.838  14.111  1.00  0.00     0.005 A 
HETATM   24  C   UNL     1     -39.236 -53.725  15.302  1.00  0.00     0.068 C 
HETATM   25  N   UNL     1     -40.473 -53.142  13.279  1.00  0.00    -0.367 N 
HETATM   26  C   UNL     1     -40.720 -52.282  12.255  1.00  0.00     0.117 A 
ATOM     27  HN  UNL     1     -41.036 -53.982  13.414  1.00  0.00     0.165 HD
ENDBRANCH   1  20
TORSDOF 5
ENDMDL
MODEL 5
REMARK VINA RESULT:      -7.1      3.602      8.070
REMARK  5 active torsions:
REMARK  status: ('A' for Active; 'I' for Inactive)
REMARK    1  A    between atoms: C_5  and  N_6 
REMARK       I    between atoms: N_6  and  C_7 
REMARK       I    between atoms: C_7  and  N_9 
REMARK    2  A    between atoms: N_9  and  C_10 
REMARK    3  A    between atoms: C_10  and  C_15 
REMARK       I    between atoms: C_15  and  N_17 
REMARK    4  A    between atoms: N_17  and  C_18 
REMARK    5  A    between atoms: C_18  and  C_19 
ROOT
HETATM    1  N   UNL     1     -42.099 -49.844  11.605  1.00  0.00    -0.308 N 
HETATM    2  C   UNL     1     -43.081 -50.094  12.542  1.00  0.00     0.321 C 
HETATM    3  O   UNL     1     -43.546 -49.273  13.322  1.00  0.00    -0.247 OA
HETATM    4  N   UNL     1     -43.515 -51.395  12.530  1.00  0.00    -0.325 N 
HETATM    5  H   UNL     1     -41.659 -50.647  11.180  1.00  0.00     0.170 HD
HETATM    6  H   UNL     1     -43.053 -52.085  11.948  1.00  0.00     0.165 HD
ENDROOT
BRANCH   4   7
HETATM    7  C   UNL     1     -44.523 -51.930  13.467  1.00  0.00     0.115 C 
HETATM    8  C   UNL     1     -45.968 -51.754  12.964  1.00  0.00     0.041 C 
HETATM    9  C   UNL     1     -46.811 -51.339  14.174  1.00  0.00     0.003 C 
HETATM   10  C   UNL     1     -45.894 -51.332  15.388  1.00  0.00     0.003 C 
HETATM   11  C   UNL     1     -44.482 -51.219  14.832  1.00  0.00     0.041 C 
BRANCH   7  12
HETATM   12  C   UNL     1     -44.164 -53.446  13.638  1.00  0.00     0.246 C 
HETATM   13  O   UNL     1     -44.621 -54.301  12.875  1.00  0.00    -0.271 OA
HETATM   14  N   UNL     1     -43.278 -53.764  14.643  1.00  0.00    -0.359 N 
HETATM   15  H   UNL     1     -43.066 -53.084  15.359  1.00  0.00     0.162 HD
BRANCH  14  16
HETATM   16  C   UNL     1     -42.829 -55.118  14.866  1.00  0.00     0.127 C 
BRANCH  16  17
HETATM   17  C   UNL     1     -42.210 -55.216  16.226  1.00  0.00     0.003 A 
HETATM   18  C   UNL     1     -40.775 -55.655  16.393  1.00  0.00     0.007 A 
HETATM   19  C   UNL     1     -41.892 -56.560  16.835  1.00  0.00     0.007 A 
ENDBRANCH  16  17
ENDBRANCH  14  16
ENDBRANCH   7  12
ENDBRANCH   4   7
BRANCH   1  20
HETATM   20  C   UNL     1     -41.492 -48.581  11.391  1.00  0.00     0.051 A 
HETATM   21  C   UNL     1     -40.430 -48.103  12.155  1.00  0.00     0.033 A 
HETATM   22  C   UNL     1     -39.820 -46.892  11.837  1.00  0.00     0.027 A 
HETATM   23  C   UNL     1     -40.298 -46.160  10.759  1.00  0.00     0.005 A 
HETATM   24  C   UNL     1     -39.598 -44.905  10.328  1.00  0.00     0.068 C 
HETATM   25  N   UNL     1     -41.366 -46.564  10.029  1.00  0.00    -0.367 N 
HETATM   26  C   UNL     1     -41.937 -47.751  10.365  1.00  0.00     0.117 A 
ATOM     27  HN  UNL     1     -41.725 -46.000   9.258  1.00  0.00     0.165 HD
ENDBRANCH   1  20
TORSDOF 5
ENDMDL
MODEL 6
REMARK VINA RESULT:      -6.8      2.972      7.130
REMARK  5 active torsions:
REMARK  status: ('A' for Active; 'I' for Inactive)
REMARK    1  A    between atoms: C_5  and  N_6 
REMARK       I    between atoms: N_6  and  C_7 
REMARK       I    between atoms: C_7  and  N_9 
REMARK    2  A    between atoms: N_9  and  C_10 
REMARK    3  A    between atoms: C_10  and  C_15 
REMARK       I    between atoms: C_15  and  N_17 
REMARK    4  A    between atoms: N_17  and  C_18 
REMARK    5  A    between atoms: C_18  and  C_19 
ROOT
HETATM    1  N   UNL     1     -41.307 -49.592  10.957  1.00  0.00    -0.308 N 
HETATM    2  C   UNL     1     -41.537 -50.324  12.104  1.00  0.00     0.321 C 
HETATM    3  O   UNL     1     -42.042 -49.895  13.134  1.00  0.00    -0.247 OA
HETATM    4  N   UNL     1     -41.137 -51.632  11.995  1.00  0.00    -0.325 N 
HETATM    5  H   UNL     1     -40.696 -50.005  10.268  1.00  0.00     0.170 HD
HETATM    6  H   UNL     1     -40.632 -51.947  11.174  1.00  0.00     0.165 HD
ENDROOT
BRANCH   4   7
HETATM    7  C   UNL     1     -41.227 -52.610  13.097  1.00  0.00     0.115 C 
HETATM    8  C   UNL     1     -40.541 -52.127  14.390  1.00  0.00     0.041 C 
HETATM    9  C   UNL     1     -39.803 -53.334  14.977  1.00  0.00     0.003 C 
HETATM   10  C   UNL     1     -40.099 -54.529  14.083  1.00  0.00     0.003 C 
HETATM   11  C   UNL     1     -40.538 -53.942  12.750  1.00  0.00     0.041 C 
BRANCH   7  12
HETATM   12  C   UNL     1     -42.760 -52.838  13.323  1.00  0.00     0.246 C 
HETATM   13  O   UNL     1     -43.455 -53.401  12.472  1.00  0.00    -0.271 OA
HETATM   14  N   UNL     1     -43.277 -52.429  14.532  1.00  0.00    -0.359 N 
HETATM   15  H   UNL     1     -42.738 -51.815  15.126  1.00  0.00     0.162 HD
BRANCH  14  16
HETATM   16  C   UNL     1     -44.663 -52.632  14.880  1.00  0.00     0.127 C 
BRANCH  16  17
HETATM   17  C   UNL     1     -45.460 -51.438  14.455  1.00  0.00     0.003 A 
HETATM   18  C   UNL     1     -46.930 -51.331  14.786  1.00  0.00     0.007 A 
HETATM   19  C   UNL     1     -46.496 -51.550  13.363  1.00  0.00     0.007 A 
ENDBRANCH  16  17
ENDBRANCH  14  16
ENDBRANCH   7  12
ENDBRANCH   4   7
BRANCH   1  20
HETATM   20  C   UNL     1     -41.643 -48.225  10.794  1.00  0.00     0.051 A 
HETATM   21  C   UNL     1     -42.826 -47.793  10.198  1.00  0.00     0.033 A 
HETATM   22  C   UNL     1     -43.139 -46.437  10.149  1.00  0.00     0.027 A 
HETATM   23  C   UNL     1     -42.245 -45.521  10.686  1.00  0.00     0.005 A 
HETATM   24  C   UNL     1     -42.599 -44.064  10.742  1.00  0.00     0.068 C 
HETATM   25  N   UNL     1     -41.059 -45.897  11.222  1.00  0.00    -0.367 N 
HETATM   26  C   UNL     1     -40.785 -47.229  11.255  1.00  0.00     0.117 A 
ATOM     27  HN  UNL     1     -40.398 -45.210  11.586  1.00  0.00     0.165 HD
ENDBRANCH   1  20
TORSDOF 5
ENDMDL
MODEL 7
REMARK VINA RESULT:      -6.4      1.758      1.998
REMARK  5 active torsions:
REMARK  status: ('A' for Active; 'I' for Inactive)
REMARK    1  A    between atoms: C_5  and  N_6 
REMARK       I    between atoms: N_6  and  C_7 
REMARK       I    between atoms: C_7  and  N_9 
REMARK    2  A    between atoms: N_9  and  C_10 
REMARK    3  A    between atoms: C_10  and  C_15 
REMARK       I    between atoms: C_15  and  N_17 
REMARK    4  A    between atoms: N_17  and  C_18 
REMARK    5  A    between atoms: C_18  and  C_19 
ROOT
HETATM    1  N   UNL     1     -42.265 -48.738  13.374  1.00  0.00    -0.308 N 
HETATM    2  C   UNL     1     -41.823 -48.045  12.265  1.00  0.00     0.321 C 
HETATM    3  O   UNL     1     -41.272 -48.540  11.289  1.00  0.00    -0.247 OA
HETATM    4  N   UNL     1     -42.060 -46.696  12.345  1.00  0.00    -0.325 N 
HETATM    5  H   UNL     1     -42.501 -48.191  14.188  1.00  0.00     0.170 HD
HETATM    6  H   UNL     1     -42.427 -46.290  13.199  1.00  0.00     0.165 HD
ENDROOT
BRANCH   4   7
HETATM    7  C   UNL     1     -41.639 -45.729  11.313  1.00  0.00     0.115 C 
HETATM    8  C   UNL     1     -40.291 -46.091  10.661  1.00  0.00     0.041 C 
HETATM    9  C   UNL     1     -39.511 -44.783  10.499  1.00  0.00     0.003 C 
HETATM   10  C   UNL     1     -40.407 -43.654  10.988  1.00  0.00     0.003 C 
HETATM   11  C   UNL     1     -41.440 -44.315  11.888  1.00  0.00     0.041 C 
BRANCH   7  12
HETATM   12  C   UNL     1     -42.795 -45.724  10.255  1.00  0.00     0.246 C 
HETATM   13  O   UNL     1     -43.264 -44.667   9.826  1.00  0.00    -0.271 OA
HETATM   14  N   UNL     1     -43.220 -46.950   9.796  1.00  0.00    -0.359 N 
HETATM   15  H   UNL     1     -42.955 -47.791  10.289  1.00  0.00     0.162 HD
BRANCH  14  16
HETATM   16  C   UNL     1     -44.240 -47.076   8.782  1.00  0.00     0.127 C 
BRANCH  16  17
HETATM   17  C   UNL     1     -45.490 -47.617   9.403  1.00  0.00     0.003 A 
HETATM   18  C   UNL     1     -46.485 -48.402   8.581  1.00  0.00     0.007 A 
HETATM   19  C   UNL     1     -46.837 -47.024   9.069  1.00  0.00     0.007 A 
ENDBRANCH  16  17
ENDBRANCH  14  16
ENDBRANCH   7  12
ENDBRANCH   4   7
BRANCH   1  20
HETATM   20  C   UNL     1     -42.163 -50.142  13.539  1.00  0.00     0.051 A 
HETATM   21  C   UNL     1     -41.017 -50.777  14.011  1.00  0.00     0.033 A 
HETATM   22  C   UNL     1     -41.012 -52.151  14.237  1.00  0.00     0.027 A 
HETATM   23  C   UNL     1     -42.161 -52.881  13.965  1.00  0.00     0.005 A 
HETATM   24  C   UNL     1     -42.221 -54.344  14.294  1.00  0.00     0.068 C 
HETATM   25  N   UNL     1     -43.276 -52.309  13.451  1.00  0.00    -0.367 N 
HETATM   26  C   UNL     1     -43.248 -50.966  13.244  1.00  0.00     0.117 A 
ATOM     27  HN  UNL     1     -44.103 -52.863  13.227  1.00  0.00     0.165 HD
ENDBRANCH   1  20
TORSDOF 5
ENDMDL
MODEL 8
REMARK VINA RESULT:      -6.4      2.651      7.116
REMARK  5 active torsions:
REMARK  status: ('A' for Active; 'I' for Inactive)
REMARK    1  A    between atoms: C_5  and  N_6 
REMARK       I    between atoms: N_6  and  C_7 
REMARK       I    between atoms: C_7  and  N_9 
REMARK    2  A    between atoms: N_9  and  C_10 
REMARK    3  A    between atoms: C_10  and  C_15 
REMARK       I    between atoms: C_15  and  N_17 
REMARK    4  A    between atoms: N_17  and  C_18 
REMARK    5  A    between atoms: C_18  and  C_19 
ROOT
HETATM    1  N   UNL     1     -41.452 -48.475  10.827  1.00  0.00    -0.308 N 
HETATM    2  C   UNL     1     -41.413 -49.283  11.945  1.00  0.00     0.321 C 
HETATM    3  O   UNL     1     -41.270 -48.896  13.099  1.00  0.00    -0.247 OA
HETATM    4  N   UNL     1     -41.551 -50.616  11.650  1.00  0.00    -0.325 N 
HETATM    5  H   UNL     1     -41.357 -48.932   9.932  1.00  0.00     0.170 HD
HETATM    6  H   UNL     1     -41.568 -50.927  10.685  1.00  0.00     0.165 HD
ENDROOT
BRANCH   4   7
HETATM    7  C   UNL     1     -41.491 -51.688  12.663  1.00  0.00     0.115 C 
HETATM    8  C   UNL     1     -40.356 -51.491  13.685  1.00  0.00     0.041 C 
HETATM    9  C   UNL     1     -39.734 -52.870  13.927  1.00  0.00     0.003 C 
HETATM   10  C   UNL     1     -40.529 -53.879  13.112  1.00  0.00     0.003 C 
HETATM   11  C   UNL     1     -41.230 -53.068  12.032  1.00  0.00     0.041 C 
BRANCH   7  12
HETATM   12  C   UNL     1     -42.892 -51.671  13.364  1.00  0.00     0.246 C 
HETATM   13  O   UNL     1     -43.027 -51.243  14.513  1.00  0.00    -0.271 OA
HETATM   14  N   UNL     1     -43.964 -52.108  12.618  1.00  0.00    -0.359 N 
HETATM   15  H   UNL     1     -43.806 -52.618  11.761  1.00  0.00     0.162 HD
BRANCH  14  16
HETATM   16  C   UNL     1     -45.313 -52.090  13.134  1.00  0.00     0.127 C 
BRANCH  16  17
HETATM   17  C   UNL     1     -45.835 -53.491  13.200  1.00  0.00     0.003 A 
HETATM   18  C   UNL     1     -46.059 -54.172  14.530  1.00  0.00     0.007 A 
HETATM   19  C   UNL     1     -44.942 -54.628  13.633  1.00  0.00     0.007 A 
ENDBRANCH  16  17
ENDBRANCH  14  16
ENDBRANCH   7  12
ENDBRANCH   4   7
BRANCH   1  20
HETATM   20  C   UNL     1     -41.354 -47.061  10.851  1.00  0.00     0.051 A 
HETATM   21  C   UNL     1     -42.462 -46.217  10.869  1.00  0.00     0.033 A 
HETATM   22  C   UNL     1     -42.298 -44.839  10.984  1.00  0.00     0.027 A 
HETATM   23  C   UNL     1     -41.014 -44.318  11.060  1.00  0.00     0.005 A 
HETATM   24  C   UNL     1     -40.807 -42.850  11.288  1.00  0.00     0.068 C 
HETATM   25  N   UNL     1     -39.911 -45.102  10.987  1.00  0.00    -0.367 N 
HETATM   26  C   UNL     1     -40.106 -46.443  10.877  1.00  0.00     0.117 A 
ATOM     27  HN  UNL     1     -38.972 -44.702  11.014  1.00  0.00     0.165 HD
ENDBRANCH   1  20
TORSDOF 5
ENDMDL
MODEL 9
REMARK VINA RESULT:      -6.3      2.775      8.245
REMARK  5 active torsions:
REMARK  status: ('A' for Active; 'I' for Inactive)
REMARK    1  A    between atoms: C_5  and  N_6 
REMARK       I    between atoms: N_6  and  C_7 
REMARK       I    between atoms: C_7  and  N_9 
REMARK    2  A    between atoms: N_9  and  C_10 
REMARK    3  A    between atoms: C_10  and  C_15 
REMARK       I    between atoms: C_15  and  N_17 
REMARK    4  A    between atoms: N_17  and  C_18 
REMARK    5  A    between atoms: C_18  and  C_19 
ROOT
HETATM    1  N   UNL     1     -42.319 -49.602  11.468  1.00  0.00    -0.308 N 
HETATM    2  C   UNL     1     -42.187 -50.444  12.553  1.00  0.00     0.321 C 
HETATM    3  O   UNL     1     -41.634 -50.164  13.609  1.00  0.00    -0.247 OA
HETATM    4  N   UNL     1     -42.748 -51.679  12.346  1.00  0.00    -0.325 N 
HETATM    5  H   UNL     1     -42.600 -50.024  10.595  1.00  0.00     0.170 HD
HETATM    6  H   UNL     1     -43.114 -51.929  11.434  1.00  0.00     0.165 HD
ENDROOT
BRANCH   4   7
HETATM    7  C   UNL     1     -42.697 -52.777  13.331  1.00  0.00     0.115 C 
HETATM    8  C   UNL     1     -43.498 -54.018  12.894  1.00  0.00     0.041 C 
HETATM    9  C   UNL     1     -44.223 -54.538  14.138  1.00  0.00     0.003 C 
HETATM   10  C   UNL     1     -43.808 -53.660  15.309  1.00  0.00     0.003 C 
HETATM   11  C   UNL     1     -43.298 -52.368  14.688  1.00  0.00     0.041 C 
BRANCH   7  12
HETATM   12  C   UNL     1     -41.176 -53.115  13.494  1.00  0.00     0.246 C 
HETATM   13  O   UNL     1     -40.521 -53.582  12.559  1.00  0.00    -0.271 OA
HETATM   14  N   UNL     1     -40.601 -52.816  14.709  1.00  0.00    -0.359 N 
HETATM   15  H   UNL     1     -41.188 -52.611  15.505  1.00  0.00     0.162 HD
BRANCH  14  16
HETATM   16  C   UNL     1     -39.196 -53.031  14.964  1.00  0.00     0.127 C 
BRANCH  16  17
HETATM   17  C   UNL     1     -39.041 -54.032  16.067  1.00  0.00     0.003 A 
HETATM   18  C   UNL     1     -38.458 -55.398  15.795  1.00  0.00     0.007 A 
HETATM   19  C   UNL     1     -39.918 -55.259  16.124  1.00  0.00     0.007 A 
ENDBRANCH  16  17
ENDBRANCH  14  16
ENDBRANCH   7  12
ENDBRANCH   4   7
BRANCH   1  20
HETATM   20  C   UNL     1     -41.848 -48.266  11.424  1.00  0.00     0.051 A 
HETATM   21  C   UNL     1     -42.612 -47.171  11.821  1.00  0.00     0.033 A 
HETATM   22  C   UNL     1     -42.059 -45.893  11.838  1.00  0.00     0.027 A 
HETATM   23  C   UNL     1     -40.742 -45.724  11.435  1.00  0.00     0.005 A 
HETATM   24  C   UNL     1     -40.087 -44.378  11.540  1.00  0.00     0.068 C 
HETATM   25  N   UNL     1     -39.985 -46.755  10.988  1.00  0.00    -0.367 N 
HETATM   26  C   UNL     1     -40.555 -47.990  10.984  1.00  0.00     0.117 A 
ATOM     27  HN  UNL     1     -39.028 -46.611  10.666  1.00  0.00     0.165 HD
ENDBRANCH   1  20
TORSDOF 5
ENDMDL
