MODEL 1
REMARK VINA RESULT:      -6.2      0.000      0.000
REMARK  6 active torsions:
REMARK  status: ('A' for Active; 'I' for Inactive)
REMARK    1  A    between atoms: C_6  and  O_8 
REMARK    2  A    between atoms: O_8  and  C_9 
REMARK    3  A    between atoms: C_9  and  C_10 
REMARK       I    between atoms: C_10  and  N_12 
REMARK    4  A    between atoms: N_12  and  C_13 
REMARK    5  A    between atoms: C_13  and  C_14 
REMARK    6  A    between atoms: C_14  and  C_15 
ROOT
HETATM    1  C   UNL     1     -41.049 -50.249  11.650  1.00  0.00     0.241 C 
HETATM    2  O   UNL     1     -39.843 -50.093  11.475  1.00  0.00    -0.271 OA
HETATM    3  N   UNL     1     -41.993 -49.336  11.225  1.00  0.00    -0.359 N 
HETATM    4  H   UNL     1     -42.978 -49.518  11.373  1.00  0.00     0.162 HD
ENDROOT
BRANCH   3   5
HETATM    5  C   UNL     1     -41.637 -48.129  10.500  1.00  0.00     0.130 C 
BRANCH   5   6
HETATM    6  C   UNL     1     -42.742 -47.068  10.519  1.00  0.00     0.097 C 
BRANCH   6   7
HETATM    7  C   UNL     1     -43.876 -47.431   9.630  1.00  0.00     0.098 A 
HETATM    8  N   UNL     1     -43.825 -48.067   8.478  1.00  0.00    -0.288 N 
HETATM    9  N   UNL     1     -45.109 -48.185   7.999  1.00  0.00    -0.295 N 
ATOM     10  HN  UNL     1     -42.982 -48.413   8.022  1.00  0.00     0.188 HD
HETATM   11  C   UNL     1     -45.913 -47.628   8.873  1.00  0.00     0.198 A 
ATOM     12  HN  UNL     1     -45.386 -48.626   7.121  1.00  0.00     0.187 HD
HETATM   13  N   UNL     1     -45.186 -47.140   9.913  1.00  0.00    -0.340 N 
HETATM   14  H   UNL     1     -45.536 -46.656  10.727  1.00  0.00     0.168 HD
ENDBRANCH   6   7
ENDBRANCH   5   6
ENDBRANCH   3   5
BRANCH   1  15
HETATM   15  C   UNL     1     -41.639 -51.509  12.294  1.00  0.00     0.270 C 
BRANCH  15  16
HETATM   16  O   UNL     1     -42.170 -51.298  13.594  1.00  0.00    -0.377 OA
BRANCH  16  17
HETATM   17  C   UNL     1     -43.478 -51.865  13.768  1.00  0.00     0.122 C 
HETATM   18  C   UNL     1     -43.651 -53.106  12.883  1.00  0.00     0.032 C 
HETATM   19  C   UNL     1     -45.077 -53.639  12.875  1.00  0.00     0.003 C 
HETATM   20  C   UNL     1     -46.083 -52.554  12.510  1.00  0.00     0.004 C 
HETATM   21  C   UNL     1     -45.959 -51.308  13.398  1.00  0.00    -0.016 C 
HETATM   22  C   UNL     1     -46.474 -51.574  14.816  1.00  0.00     0.010 C 
HETATM   23  C   UNL     1     -44.512 -50.791  13.400  1.00  0.00     0.036 C 
ENDBRANCH  16  17
ENDBRANCH  15  16
ENDBRANCH   1  15
TORSDOF 6
ENDMDL
MODEL 2
REMARK VINA RESULT:      -6.1      1.146      1.580
REMARK  6 active torsions:
REMARK  status: ('A' for Active; 'I' for Inactive)
REMARK    1  A    between atoms: C_6  and  O_8 
REMARK    2  A    between atoms: O_8  and  C_9 
REMARK    3  A    between atoms: C_9  and  C_10 
REMARK       I    between atoms: C_10  and  N_12 
REMARK    4  A    between atoms: N_12  and  C_13 
REMARK    5  A    between atoms: C_13  and  C_14 
REMARK    6  A    between atoms: C_14  and  C_15 
ROOT
HETATM    1  C   UNL     1     -40.637 -51.646  12.451  1.00  0.00     0.241 C 
HETATM    2  O   UNL     1     -39.411 -51.716  12.492  1.00  0.00    -0.271 OA
HETATM    3  N   UNL     1     -41.308 -50.687  11.720  1.00  0.00    -0.359 N 
HETATM    4  H   UNL     1     -42.321 -50.681  11.700  1.00  0.00     0.162 HD
ENDROOT
BRANCH   3   5
HETATM    5  C   UNL     1     -40.617 -49.701  10.908  1.00  0.00     0.130 C 
BRANCH   5   6
HETATM    6  C   UNL     1     -41.151 -48.278  11.105  1.00  0.00     0.097 C 
BRANCH   6   7
HETATM    7  C   UNL     1     -42.432 -48.061  10.383  1.00  0.00     0.098 A 
HETATM    8  N   UNL     1     -43.649 -48.050  10.886  1.00  0.00    -0.288 N 
HETATM    9  N   UNL     1     -44.533 -47.818   9.859  1.00  0.00    -0.295 N 
ATOM     10  HN  UNL     1     -43.893 -48.188  11.866  1.00  0.00     0.188 HD
HETATM   11  C   UNL     1     -43.836 -47.683   8.756  1.00  0.00     0.198 A 
ATOM     12  HN  UNL     1     -45.549 -47.761   9.940  1.00  0.00     0.187 HD
HETATM   13  N   UNL     1     -42.513 -47.829   9.033  1.00  0.00    -0.340 N 
HETATM   14  H   UNL     1     -41.744 -47.781   8.380  1.00  0.00     0.168 HD
ENDBRANCH   6   7
ENDBRANCH   5   6
ENDBRANCH   3   5
BRANCH   1  15
HETATM   15  C   UNL     1     -41.551 -52.661  13.146  1.00  0.00     0.270 C 
BRANCH  15  16
HETATM   16  O   UNL     1     -42.246 -52.137  14.268  1.00  0.00    -0.377 OA
BRANCH  16  17
HETATM   17  C   UNL     1     -43.659 -52.390  14.225  1.00  0.00     0.122 C 
HETATM   18  C   UNL     1     -43.967 -53.583  13.310  1.00  0.00     0.032 C 
HETATM   19  C   UNL     1     -45.457 -53.781  13.069  1.00  0.00     0.003 C 
HETATM   20  C   UNL     1     -46.121 -52.507  12.560  1.00  0.00     0.004 C 
HETATM   21  C   UNL     1     -45.859 -51.299  13.471  1.00  0.00    -0.016 C 
HETATM   22  C   UNL     1     -46.639 -51.407  14.785  1.00  0.00     0.010 C 
HETATM   23  C   UNL     1     -44.352 -51.121  13.709  1.00  0.00     0.036 C 
ENDBRANCH  16  17
ENDBRANCH  15  16
ENDBRANCH   1  15
TORSDOF 6
ENDMDL
MODEL 3
REMARK VINA RESULT:      -6.0      1.482      2.310
REMARK  6 active torsions:
REMARK  status: ('A' for Active; 'I' for Inactive)
REMARK    1  A    between atoms: C_6  and  O_8 
REMARK    2  A    between atoms: O_8  and  C_9 
REMARK    3  A    between atoms: C_9  and  C_10 
REMARK       I    between atoms: C_10  and  N_12 
REMARK    4  A    between atoms: N_12  and  C_13 
REMARK    5  A    between atoms: C_13  and  C_14 
REMARK    6  A    between atoms: C_14  and  C_15 
ROOT
HETATM    1  C   UNL     1     -41.196 -51.840  12.301  1.00  0.00     0.241 C 
HETATM    2  O   UNL     1     -40.012 -52.163  12.338  1.00  0.00    -0.271 OA
HETATM    3  N   UNL     1     -41.639 -50.683  11.693  1.00  0.00    -0.359 N 
HETATM    4  H   UNL     1     -42.629 -50.468  11.670  1.00  0.00     0.162 HD
ENDROOT
BRANCH   3   5
HETATM    5  C   UNL     1     -40.739 -49.768  11.012  1.00  0.00     0.130 C 
BRANCH   5   6
HETATM    6  C   UNL     1     -41.188 -48.306  11.100  1.00  0.00     0.097 C 
BRANCH   6   7
HETATM    7  C   UNL     1     -42.461 -48.071  10.369  1.00  0.00     0.098 A 
HETATM    8  N   UNL     1     -43.680 -48.042  10.864  1.00  0.00    -0.288 N 
HETATM    9  N   UNL     1     -44.555 -47.797   9.831  1.00  0.00    -0.295 N 
ATOM     10  HN  UNL     1     -43.933 -48.176  11.843  1.00  0.00     0.188 HD
HETATM   11  C   UNL     1     -43.848 -47.673   8.733  1.00  0.00     0.198 A 
ATOM     12  HN  UNL     1     -45.570 -47.726   9.905  1.00  0.00     0.187 HD
HETATM   13  N   UNL     1     -42.529 -47.838   9.019  1.00  0.00    -0.340 N 
HETATM   14  H   UNL     1     -41.755 -47.801   8.371  1.00  0.00     0.168 HD
ENDBRANCH   6   7
ENDBRANCH   5   6
ENDBRANCH   3   5
BRANCH   1  15
HETATM   15  C   UNL     1     -42.317 -52.723  12.863  1.00  0.00     0.270 C 
BRANCH  15  16
HETATM   16  O   UNL     1     -43.496 -52.731  12.072  1.00  0.00    -0.377 OA
BRANCH  16  17
HETATM   17  C   UNL     1     -44.697 -52.844  12.851  1.00  0.00     0.122 C 
HETATM   18  C   UNL     1     -45.372 -51.474  13.006  1.00  0.00     0.032 C 
HETATM   19  C   UNL     1     -46.541 -51.492  13.981  1.00  0.00     0.003 C 
HETATM   20  C   UNL     1     -46.140 -52.069  15.333  1.00  0.00     0.004 C 
HETATM   21  C   UNL     1     -45.490 -53.455  15.217  1.00  0.00    -0.016 C 
HETATM   22  C   UNL     1     -46.519 -54.530  14.851  1.00  0.00     0.010 C 
HETATM   23  C   UNL     1     -44.319 -53.419  14.224  1.00  0.00     0.036 C 
ENDBRANCH  16  17
ENDBRANCH  15  16
ENDBRANCH   1  15
TORSDOF 6
ENDMDL
MODEL 4
REMARK VINA RESULT:      -5.9      2.368      3.521
REMARK  6 active torsions:
REMARK  status: ('A' for Active; 'I' for Inactive)
REMARK    1  A    between atoms: C_6  and  O_8 
REMARK    2  A    between atoms: O_8  and  C_9 
REMARK    3  A    between atoms: C_9  and  C_10 
REMARK       I    between atoms: C_10  and  N_12 
REMARK    4  A    between atoms: N_12  and  C_13 
REMARK    5  A    between atoms: C_13  and  C_14 
REMARK    6  A    between atoms: C_14  and  C_15 
ROOT
HETATM    1  C   UNL     1     -41.718 -48.062  11.000  1.00  0.00     0.241 C 
HETATM    2  O   UNL     1     -42.826 -48.438  11.376  1.00  0.00    -0.271 OA
HETATM    3  N   UNL     1     -41.519 -46.874  10.326  1.00  0.00    -0.359 N 
HETATM    4  H   UNL     1     -40.584 -46.595  10.053  1.00  0.00     0.162 HD
ENDROOT
BRANCH   3   5
HETATM    5  C   UNL     1     -42.603 -45.951  10.037  1.00  0.00     0.130 C 
BRANCH   5   6
HETATM    6  C   UNL     1     -43.285 -46.225   8.693  1.00  0.00     0.097 C 
BRANCH   6   7
HETATM    7  C   UNL     1     -44.612 -46.873   8.865  1.00  0.00     0.098 A 
HETATM    8  N   UNL     1     -44.867 -48.153   9.043  1.00  0.00    -0.288 N 
HETATM    9  N   UNL     1     -46.229 -48.305   9.152  1.00  0.00    -0.295 N 
ATOM     10  HN  UNL     1     -44.175 -48.900   9.093  1.00  0.00     0.188 HD
HETATM   11  C   UNL     1     -46.772 -47.116   9.048  1.00  0.00     0.198 A 
ATOM     12  HN  UNL     1     -46.728 -49.185   9.289  1.00  0.00     0.187 HD
HETATM   13  N   UNL     1     -45.798 -46.185   8.866  1.00  0.00    -0.340 N 
HETATM   14  H   UNL     1     -45.921 -45.189   8.750  1.00  0.00     0.168 HD
ENDBRANCH   6   7
ENDBRANCH   5   6
ENDBRANCH   3   5
BRANCH   1  15
HETATM   15  C   UNL     1     -40.430 -48.835  11.304  1.00  0.00     0.270 C 
BRANCH  15  16
HETATM   16  O   UNL     1     -40.522 -50.230  11.055  1.00  0.00    -0.377 OA
BRANCH  16  17
HETATM   17  C   UNL     1     -40.633 -51.011  12.256  1.00  0.00     0.122 C 
HETATM   18  C   UNL     1     -39.253 -51.219  12.894  1.00  0.00     0.032 C 
HETATM   19  C   UNL     1     -39.278 -52.197  14.060  1.00  0.00     0.003 C 
HETATM   20  C   UNL     1     -39.914 -53.526  13.669  1.00  0.00     0.004 C 
HETATM   21  C   UNL     1     -41.310 -53.356  13.055  1.00  0.00    -0.016 C 
HETATM   22  C   UNL     1     -42.345 -52.956  14.111  1.00  0.00     0.010 C 
HETATM   23  C   UNL     1     -41.267 -52.360  11.886  1.00  0.00     0.036 C 
ENDBRANCH  16  17
ENDBRANCH  15  16
ENDBRANCH   1  15
TORSDOF 6
ENDMDL
MODEL 5
REMARK VINA RESULT:      -5.8      4.191      5.658
REMARK  6 active torsions:
REMARK  status: ('A' for Active; 'I' for Inactive)
REMARK    1  A    between atoms: C_6  and  O_8 
REMARK    2  A    between atoms: O_8  and  C_9 
REMARK    3  A    between atoms: C_9  and  C_10 
REMARK       I    between atoms: C_10  and  N_12 
REMARK    4  A    between atoms: N_12  and  C_13 
REMARK    5  A    between atoms: C_13  and  C_14 
REMARK    6  A    between atoms: C_14  and  C_15 
ROOT
HETATM    1  C   UNL     1     -42.825 -54.779  16.212  1.00  0.00     0.241 C 
HETATM    2  O   UNL     1     -42.824 -55.971  15.915  1.00  0.00    -0.271 OA
HETATM    3  N   UNL     1     -42.002 -53.855  15.602  1.00  0.00    -0.359 N 
HETATM    4  H   UNL     1     -42.052 -52.877  15.865  1.00  0.00     0.162 HD
ENDROOT
BRANCH   3   5
HETATM    5  C   UNL     1     -41.090 -54.212  14.528  1.00  0.00     0.130 C 
BRANCH   5   6
HETATM    6  C   UNL     1     -41.716 -54.076  13.137  1.00  0.00     0.097 C 
BRANCH   6   7
HETATM    7  C   UNL     1     -41.319 -52.808  12.471  1.00  0.00     0.098 A 
HETATM    8  N   UNL     1     -41.214 -52.574  11.180  1.00  0.00    -0.288 N 
HETATM    9  N   UNL     1     -40.816 -51.269  11.013  1.00  0.00    -0.295 N 
ATOM     10  HN  UNL     1     -41.396 -53.244  10.433  1.00  0.00     0.188 HD
HETATM   11  C   UNL     1     -40.698 -50.734  12.205  1.00  0.00     0.198 A 
ATOM     12  HN  UNL     1     -40.643 -50.800  10.122  1.00  0.00     0.187 HD
HETATM   13  N   UNL     1     -41.002 -51.660  13.152  1.00  0.00    -0.340 N 
HETATM   14  H   UNL     1     -40.992 -51.534  14.154  1.00  0.00     0.168 HD
ENDBRANCH   6   7
ENDBRANCH   5   6
ENDBRANCH   3   5
BRANCH   1  15
HETATM   15  C   UNL     1     -43.791 -54.178  17.239  1.00  0.00     0.270 C 
BRANCH  15  16
HETATM   16  O   UNL     1     -45.117 -54.678  17.146  1.00  0.00    -0.377 OA
BRANCH  16  17
HETATM   17  C   UNL     1     -46.028 -53.750  16.536  1.00  0.00     0.122 C 
HETATM   18  C   UNL     1     -46.027 -53.916  15.010  1.00  0.00     0.032 C 
HETATM   19  C   UNL     1     -46.824 -52.836  14.293  1.00  0.00     0.003 C 
HETATM   20  C   UNL     1     -46.372 -51.438  14.699  1.00  0.00     0.004 C 
HETATM   21  C   UNL     1     -46.391 -51.227  16.219  1.00  0.00    -0.016 C 
HETATM   22  C   UNL     1     -47.822 -51.126  16.755  1.00  0.00     0.010 C 
HETATM   23  C   UNL     1     -45.589 -52.331  16.926  1.00  0.00     0.036 C 
ENDBRANCH  16  17
ENDBRANCH  15  16
ENDBRANCH   1  15
TORSDOF 6
ENDMDL
MODEL 6
REMARK VINA RESULT:      -5.5      1.849      2.367
REMARK  6 active torsions:
REMARK  status: ('A' for Active; 'I' for Inactive)
REMARK    1  A    between atoms: C_6  and  O_8 
REMARK    2  A    between atoms: O_8  and  C_9 
REMARK    3  A    between atoms: C_9  and  C_10 
REMARK       I    between atoms: C_10  and  N_12 
REMARK    4  A    between atoms: N_12  and  C_13 
REMARK    5  A    between atoms: C_13  and  C_14 
REMARK    6  A    between atoms: C_14  and  C_15 
ROOT
HETATM    1  C   UNL     1     -40.912 -50.808  12.335  1.00  0.00     0.241 C 
HETATM    2  O   UNL     1     -40.397 -50.283  13.318  1.00  0.00    -0.271 OA
HETATM    3  N   UNL     1     -41.195 -50.113  11.177  1.00  0.00    -0.359 N 
HETATM    4  H   UNL     1     -41.602 -50.593  10.382  1.00  0.00     0.162 HD
ENDROOT
BRANCH   3   5
HETATM    5  C   UNL     1     -40.872 -48.705  11.014  1.00  0.00     0.130 C 
BRANCH   5   6
HETATM    6  C   UNL     1     -42.048 -47.777  11.330  1.00  0.00     0.097 C 
BRANCH   6   7
HETATM    7  C   UNL     1     -42.734 -47.311  10.096  1.00  0.00     0.098 A 
HETATM    8  N   UNL     1     -42.704 -47.861   8.900  1.00  0.00    -0.288 N 
HETATM    9  N   UNL     1     -43.477 -47.096   8.059  1.00  0.00    -0.295 N 
ATOM     10  HN  UNL     1     -42.197 -48.707   8.643  1.00  0.00     0.188 HD
HETATM   11  C   UNL     1     -43.968 -46.104   8.763  1.00  0.00     0.198 A 
ATOM     12  HN  UNL     1     -43.639 -47.269   7.066  1.00  0.00     0.187 HD
HETATM   13  N   UNL     1     -43.530 -46.195  10.046  1.00  0.00    -0.340 N 
HETATM   14  H   UNL     1     -43.742 -45.567  10.809  1.00  0.00     0.168 HD
ENDBRANCH   6   7
ENDBRANCH   5   6
ENDBRANCH   3   5
BRANCH   1  15
HETATM   15  C   UNL     1     -41.228 -52.307  12.261  1.00  0.00     0.270 C 
BRANCH  15  16
HETATM   16  O   UNL     1     -42.604 -52.597  12.062  1.00  0.00    -0.377 OA
BRANCH  16  17
HETATM   17  C   UNL     1     -43.090 -53.637  12.925  1.00  0.00     0.122 C 
HETATM   18  C   UNL     1     -44.574 -53.916  12.652  1.00  0.00     0.032 C 
HETATM   19  C   UNL     1     -45.197 -54.869  13.662  1.00  0.00     0.003 C 
HETATM   20  C   UNL     1     -44.976 -54.398  15.095  1.00  0.00     0.004 C 
HETATM   21  C   UNL     1     -43.496 -54.140  15.411  1.00  0.00    -0.016 C 
HETATM   22  C   UNL     1     -42.707 -55.449  15.519  1.00  0.00     0.010 C 
HETATM   23  C   UNL     1     -42.883 -53.183  14.377  1.00  0.00     0.036 C 
ENDBRANCH  16  17
ENDBRANCH  15  16
ENDBRANCH   1  15
TORSDOF 6
ENDMDL
MODEL 7
REMARK VINA RESULT:      -5.5      2.430      3.362
REMARK  6 active torsions:
REMARK  status: ('A' for Active; 'I' for Inactive)
REMARK    1  A    between atoms: C_6  and  O_8 
REMARK    2  A    between atoms: O_8  and  C_9 
REMARK    3  A    between atoms: C_9  and  C_10 
REMARK       I    between atoms: C_10  and  N_12 
REMARK    4  A    between atoms: N_12  and  C_13 
REMARK    5  A    between atoms: C_13  and  C_14 
REMARK    6  A    between atoms: C_14  and  C_15 
ROOT
HETATM    1  C   UNL     1     -41.121 -51.126  13.836  1.00  0.00     0.241 C 
HETATM    2  O   UNL     1     -41.590 -50.009  14.038  1.00  0.00    -0.271 OA
HETATM    3  N   UNL     1     -39.796 -51.333  13.509  1.00  0.00    -0.359 N 
HETATM    4  H   UNL     1     -39.448 -52.275  13.371  1.00  0.00     0.162 HD
ENDROOT
BRANCH   3   5
HETATM    5  C   UNL     1     -38.837 -50.246  13.414  1.00  0.00     0.130 C 
BRANCH   5   6
HETATM    6  C   UNL     1     -38.482 -49.881  11.969  1.00  0.00     0.097 C 
BRANCH   6   7
HETATM    7  C   UNL     1     -39.628 -49.258  11.256  1.00  0.00     0.098 A 
HETATM    8  N   UNL     1     -40.403 -49.806  10.343  1.00  0.00    -0.288 N 
HETATM    9  N   UNL     1     -41.330 -48.869   9.952  1.00  0.00    -0.295 N 
ATOM     10  HN  UNL     1     -40.329 -50.759   9.988  1.00  0.00     0.188 HD
HETATM   11  C   UNL     1     -41.106 -47.776  10.642  1.00  0.00     0.198 A 
ATOM     12  HN  UNL     1     -42.061 -49.000   9.252  1.00  0.00     0.187 HD
HETATM   13  N   UNL     1     -40.048 -47.971  11.473  1.00  0.00    -0.340 N 
HETATM   14  H   UNL     1     -39.647 -47.304  12.116  1.00  0.00     0.168 HD
ENDBRANCH   6   7
ENDBRANCH   5   6
ENDBRANCH   3   5
BRANCH   1  15
HETATM   15  C   UNL     1     -41.938 -52.413  13.996  1.00  0.00     0.270 C 
BRANCH  15  16
HETATM   16  O   UNL     1     -42.789 -52.419  15.132  1.00  0.00    -0.377 OA
BRANCH  16  17
HETATM   17  C   UNL     1     -44.178 -52.561  14.795  1.00  0.00     0.122 C 
HETATM   18  C   UNL     1     -44.342 -52.887  13.304  1.00  0.00     0.032 C 
HETATM   19  C   UNL     1     -45.792 -52.860  12.844  1.00  0.00     0.003 C 
HETATM   20  C   UNL     1     -46.473 -51.544  13.201  1.00  0.00     0.004 C 
HETATM   21  C   UNL     1     -46.356 -51.203  14.693  1.00  0.00    -0.016 C 
HETATM   22  C   UNL     1     -47.242 -52.113  15.550  1.00  0.00     0.010 C 
HETATM   23  C   UNL     1     -44.887 -51.244  15.141  1.00  0.00     0.036 C 
ENDBRANCH  16  17
ENDBRANCH  15  16
ENDBRANCH   1  15
TORSDOF 6
ENDMDL
MODEL 8
REMARK VINA RESULT:      -5.4      2.856      4.031
REMARK  6 active torsions:
REMARK  status: ('A' for Active; 'I' for Inactive)
REMARK    1  A    between atoms: C_6  and  O_8 
REMARK    2  A    between atoms: O_8  and  C_9 
REMARK    3  A    between atoms: C_9  and  C_10 
REMARK       I    between atoms: C_10  and  N_12 
REMARK    4  A    between atoms: N_12  and  C_13 
REMARK    5  A    between atoms: C_13  and  C_14 
REMARK    6  A    between atoms: C_14  and  C_15 
ROOT
HETATM    1  C   UNL     1     -41.142 -50.940  12.337  1.00  0.00     0.241 C 
HETATM    2  O   UNL     1     -40.115 -50.449  12.799  1.00  0.00    -0.271 OA
HETATM    3  N   UNL     1     -42.179 -50.177  11.839  1.00  0.00    -0.359 N 
HETATM    4  H   UNL     1     -42.998 -50.627  11.448  1.00  0.00     0.162 HD
ENDROOT
BRANCH   3   5
HETATM    5  C   UNL     1     -42.123 -48.726  11.786  1.00  0.00     0.130 C 
BRANCH   5   6
HETATM    6  C   UNL     1     -41.831 -48.185  10.383  1.00  0.00     0.097 C 
BRANCH   6   7
HETATM    7  C   UNL     1     -42.927 -47.314   9.885  1.00  0.00     0.098 A 
HETATM    8  N   UNL     1     -44.121 -47.139  10.412  1.00  0.00    -0.288 N 
HETATM    9  N   UNL     1     -44.811 -46.251   9.621  1.00  0.00    -0.295 N 
ATOM     10  HN  UNL     1     -44.471 -47.583  11.261  1.00  0.00     0.188 HD
HETATM   11  C   UNL     1     -44.020 -45.899   8.635  1.00  0.00     0.198 A 
ATOM     12  HN  UNL     1     -45.767 -45.926   9.773  1.00  0.00     0.187 HD
HETATM   13  N   UNL     1     -42.828 -46.540   8.757  1.00  0.00    -0.340 N 
HETATM   14  H   UNL     1     -42.031 -46.467   8.141  1.00  0.00     0.168 HD
ENDBRANCH   6   7
ENDBRANCH   5   6
ENDBRANCH   3   5
BRANCH   1  15
HETATM   15  C   UNL     1     -41.351 -52.452  12.196  1.00  0.00     0.270 C 
BRANCH  15  16
HETATM   16  O   UNL     1     -40.163 -53.215  12.343  1.00  0.00    -0.377 OA
BRANCH  16  17
HETATM   17  C   UNL     1     -40.167 -54.044  13.516  1.00  0.00     0.122 C 
HETATM   18  C   UNL     1     -41.587 -54.175  14.081  1.00  0.00     0.032 C 
HETATM   19  C   UNL     1     -41.630 -54.880  15.429  1.00  0.00     0.003 C 
HETATM   20  C   UNL     1     -40.691 -54.228  16.437  1.00  0.00     0.004 C 
HETATM   21  C   UNL     1     -39.252 -54.110  15.916  1.00  0.00    -0.016 C 
HETATM   22  C   UNL     1     -38.558 -55.475  15.866  1.00  0.00     0.010 C 
HETATM   23  C   UNL     1     -39.230 -53.404  14.551  1.00  0.00     0.036 C 
ENDBRANCH  16  17
ENDBRANCH  15  16
ENDBRANCH   1  15
TORSDOF 6
ENDMDL
MODEL 9
REMARK VINA RESULT:      -5.4      2.512      3.298
REMARK  6 active torsions:
REMARK  status: ('A' for Active; 'I' for Inactive)
REMARK    1  A    between atoms: C_6  and  O_8 
REMARK    2  A    between atoms: O_8  and  C_9 
REMARK    3  A    between atoms: C_9  and  C_10 
REMARK       I    between atoms: C_10  and  N_12 
REMARK    4  A    between atoms: N_12  and  C_13 
REMARK    5  A    between atoms: C_13  and  C_14 
REMARK    6  A    between atoms: C_14  and  C_15 
ROOT
HETATM    1  C   UNL     1     -41.275 -51.004  12.089  1.00  0.00     0.241 C 
HETATM    2  O   UNL     1     -40.049 -51.056  12.128  1.00  0.00    -0.271 OA
HETATM    3  N   UNL     1     -41.963 -49.930  11.561  1.00  0.00    -0.359 N 
HETATM    4  H   UNL     1     -42.976 -49.940  11.531  1.00  0.00     0.162 HD
ENDROOT
BRANCH   3   5
HETATM    5  C   UNL     1     -41.288 -48.787  10.971  1.00  0.00     0.130 C 
BRANCH   5   6
HETATM    6  C   UNL     1     -41.073 -47.638  11.962  1.00  0.00     0.097 C 
BRANCH   6   7
HETATM    7  C   UNL     1     -40.585 -46.407  11.287  1.00  0.00     0.098 A 
HETATM    8  N   UNL     1     -39.751 -46.321  10.272  1.00  0.00    -0.288 N 
HETATM    9  N   UNL     1     -39.576 -44.989   9.976  1.00  0.00    -0.295 N 
ATOM     10  HN  UNL     1     -39.311 -47.104   9.790  1.00  0.00     0.188 HD
HETATM   11  C   UNL     1     -40.315 -44.296  10.809  1.00  0.00     0.198 A 
ATOM     12  HN  UNL     1     -38.979 -44.609   9.240  1.00  0.00     0.187 HD
HETATM   13  N   UNL     1     -40.966 -45.140  11.651  1.00  0.00    -0.340 N 
HETATM   14  H   UNL     1     -41.598 -44.890  12.398  1.00  0.00     0.168 HD
ENDBRANCH   6   7
ENDBRANCH   5   6
ENDBRANCH   3   5
BRANCH   1  15
HETATM   15  C   UNL     1     -42.173 -52.156  12.557  1.00  0.00     0.270 C 
BRANCH  15  16
HETATM   16  O   UNL     1     -42.787 -51.934  13.817  1.00  0.00    -0.377 OA
BRANCH  16  17
HETATM   17  C   UNL     1     -44.167 -52.332  13.850  1.00  0.00     0.122 C 
HETATM   18  C   UNL     1     -45.068 -51.201  13.338  1.00  0.00     0.032 C 
HETATM   19  C   UNL     1     -46.551 -51.489  13.528  1.00  0.00     0.003 C 
HETATM   20  C   UNL     1     -46.876 -51.846  14.974  1.00  0.00     0.004 C 
HETATM   21  C   UNL     1     -46.013 -52.997  15.508  1.00  0.00    -0.016 C 
HETATM   22  C   UNL     1     -46.416 -54.338  14.887  1.00  0.00     0.010 C 
HETATM   23  C   UNL     1     -44.521 -52.693  15.300  1.00  0.00     0.036 C 
ENDBRANCH  16  17
ENDBRANCH  15  16
ENDBRANCH   1  15
TORSDOF 6
ENDMDL
