MODEL 1
REMARK VINA RESULT:      -7.1      0.000      0.000
REMARK  3 active torsions:
REMARK  status: ('A' for Active; 'I' for Inactive)
REMARK    1  A    between atoms: N_3  and  C_16 
REMARK    2  A    between atoms: C_4  and  C_10 
REMARK       I    between atoms: C_7  and  N_9 
REMARK       I    between atoms: C_7  and  N_8 
REMARK    3  A    between atoms: N_9  and  C_10 
ROOT
HETATM    1  C   UNL     1     -44.861 -54.230  14.146  1.00  0.00     0.329 C 
HETATM    2  N   UNL     1     -43.570 -54.686  14.096  1.00  0.00    -0.275 N 
HETATM    3  N   UNL     1     -45.098 -53.034  13.473  1.00  0.00    -0.305 N 
HETATM    4  C   UNL     1     -42.788 -52.740  12.892  1.00  0.00     0.043 C 
HETATM    5  C   UNL     1     -44.067 -52.335  12.866  1.00  0.00     0.110 C 
HETATM    6  C   UNL     1     -42.496 -54.011  13.595  1.00  0.00     0.258 C 
HETATM    7  O   UNL     1     -45.704 -54.871  14.771  1.00  0.00    -0.246 OA
HETATM    8  O   UNL     1     -41.348 -54.419  13.742  1.00  0.00    -0.267 OA
HETATM    9  H   UNL     1     -43.380 -55.538  14.598  1.00  0.00     0.173 HD
ENDROOT
BRANCH   4  10
HETATM   10  C   UNL     1     -41.590 -52.051  12.306  1.00  0.00     0.170 C 
BRANCH  10  11
HETATM   11  N   UNL     1     -41.901 -50.736  11.768  1.00  0.00    -0.339 N 
HETATM   12  C   UNL     1     -40.942 -49.766  11.627  1.00  0.00     0.318 C 
HETATM   13  N   UNL     1     -41.397 -48.510  11.228  1.00  0.00    -0.330 N 
HETATM   14  O   UNL     1     -39.755 -50.008  11.828  1.00  0.00    -0.247 OA
HETATM   15  C   UNL     1     -40.358 -47.485  11.149  1.00  0.00     0.161 C 
HETATM   16  C   UNL     1     -42.816 -48.166  11.123  1.00  0.00     0.132 C 
HETATM   17  C   UNL     1     -40.811 -46.131  10.689  1.00  0.00    -0.070 C 
HETATM   18  C   UNL     1     -42.092 -45.801  10.477  1.00  0.00    -0.021 C 
HETATM   19  C   UNL     1     -39.728 -45.109  10.475  1.00  0.00     0.044 C 
HETATM   20  C   UNL     1     -43.208 -46.759  10.673  1.00  0.00     0.047 C 
HETATM   21  H   UNL     1     -42.872 -50.477  11.751  1.00  0.00     0.164 HD
ENDBRANCH  10  11
ENDBRANCH   4  10
BRANCH   3  22
HETATM   22  C   UNL     1     -46.454 -52.442  13.456  1.00  0.00     0.086 C 
HETATM   23  C   UNL     1     -46.691 -51.455  14.602  1.00  0.00     0.032 C 
HETATM   24  C   UNL     1     -46.785 -51.815  12.100  1.00  0.00     0.032 C 
ENDBRANCH   3  22
TORSDOF 3
ENDMDL
MODEL 2
REMARK VINA RESULT:      -6.4      2.148      2.901
REMARK  3 active torsions:
REMARK  status: ('A' for Active; 'I' for Inactive)
REMARK    1  A    between atoms: N_3  and  C_16 
REMARK    2  A    between atoms: C_4  and  C_10 
REMARK       I    between atoms: C_7  and  N_9 
REMARK       I    between atoms: C_7  and  N_8 
REMARK    3  A    between atoms: N_9  and  C_10 
ROOT
HETATM    1  C   UNL     1     -44.740 -54.077  14.565  1.00  0.00     0.329 C 
HETATM    2  N   UNL     1     -43.460 -54.568  14.537  1.00  0.00    -0.275 N 
HETATM    3  N   UNL     1     -45.017 -53.080  13.633  1.00  0.00    -0.305 N 
HETATM    4  C   UNL     1     -42.757 -53.006  12.830  1.00  0.00     0.043 C 
HETATM    5  C   UNL     1     -44.030 -52.584  12.797  1.00  0.00     0.110 C 
HETATM    6  C   UNL     1     -42.423 -54.069  13.805  1.00  0.00     0.258 C 
HETATM    7  O   UNL     1     -45.537 -54.518  15.391  1.00  0.00    -0.246 OA
HETATM    8  O   UNL     1     -41.271 -54.461  13.965  1.00  0.00    -0.267 OA
HETATM    9  H   UNL     1     -43.240 -55.272  15.221  1.00  0.00     0.173 HD
ENDROOT
BRANCH   4  10
HETATM   10  C   UNL     1     -41.602 -52.519  12.003  1.00  0.00     0.170 C 
BRANCH  10  11
HETATM   11  N   UNL     1     -40.673 -51.695  12.761  1.00  0.00    -0.339 N 
HETATM   12  C   UNL     1     -40.712 -50.325  12.707  1.00  0.00     0.318 C 
HETATM   13  N   UNL     1     -39.684 -49.658  13.372  1.00  0.00    -0.330 N 
HETATM   14  O   UNL     1     -41.614 -49.733  12.119  1.00  0.00    -0.247 OA
HETATM   15  C   UNL     1     -39.721 -48.202  13.240  1.00  0.00     0.161 C 
HETATM   16  C   UNL     1     -38.527 -50.341  13.953  1.00  0.00     0.132 C 
HETATM   17  C   UNL     1     -38.647 -47.454  13.973  1.00  0.00    -0.070 C 
HETATM   18  C   UNL     1     -37.625 -48.041  14.611  1.00  0.00    -0.021 C 
HETATM   19  C   UNL     1     -38.757 -45.954  13.956  1.00  0.00     0.044 C 
HETATM   20  C   UNL     1     -37.455 -49.514  14.663  1.00  0.00     0.047 C 
HETATM   21  H   UNL     1     -39.849 -52.152  13.110  1.00  0.00     0.164 HD
ENDBRANCH  10  11
ENDBRANCH   4  10
BRANCH   3  22
HETATM   22  C   UNL     1     -46.365 -52.473  13.568  1.00  0.00     0.086 C 
HETATM   23  C   UNL     1     -46.592 -51.401  14.638  1.00  0.00     0.032 C 
HETATM   24  C   UNL     1     -46.683 -51.942  12.168  1.00  0.00     0.032 C 
ENDBRANCH   3  22
TORSDOF 3
ENDMDL
MODEL 3
REMARK VINA RESULT:      -6.2      2.742      7.403
REMARK  3 active torsions:
REMARK  status: ('A' for Active; 'I' for Inactive)
REMARK    1  A    between atoms: N_3  and  C_16 
REMARK    2  A    between atoms: C_4  and  C_10 
REMARK       I    between atoms: C_7  and  N_9 
REMARK       I    between atoms: C_7  and  N_8 
REMARK    3  A    between atoms: N_9  and  C_10 
ROOT
HETATM    1  C   UNL     1     -37.557 -48.510  14.310  1.00  0.00     0.329 C 
HETATM    2  N   UNL     1     -37.641 -49.804  13.866  1.00  0.00    -0.275 N 
HETATM    3  N   UNL     1     -38.614 -47.682  13.938  1.00  0.00    -0.305 N 
HETATM    4  C   UNL     1     -39.664 -49.383  12.609  1.00  0.00     0.043 C 
HETATM    5  C   UNL     1     -39.629 -48.140  13.113  1.00  0.00     0.110 C 
HETATM    6  C   UNL     1     -38.559 -50.295  12.985  1.00  0.00     0.258 C 
HETATM    7  O   UNL     1     -36.584 -48.162  14.975  1.00  0.00    -0.246 OA
HETATM    8  O   UNL     1     -38.462 -51.422  12.509  1.00  0.00    -0.267 OA
HETATM    9  H   UNL     1     -36.872 -50.407  14.108  1.00  0.00     0.173 HD
ENDROOT
BRANCH   4  10
HETATM   10  C   UNL     1     -40.686 -49.974  11.681  1.00  0.00     0.170 C 
BRANCH  10  11
HETATM   11  N   UNL     1     -41.887 -50.416  12.372  1.00  0.00    -0.339 N 
HETATM   12  C   UNL     1     -42.244 -51.739  12.428  1.00  0.00     0.318 C 
HETATM   13  N   UNL     1     -43.484 -52.013  13.003  1.00  0.00    -0.330 N 
HETATM   14  O   UNL     1     -41.498 -52.620  12.010  1.00  0.00    -0.247 OA
HETATM   15  C   UNL     1     -43.860 -53.426  12.989  1.00  0.00     0.161 C 
HETATM   16  C   UNL     1     -44.445 -50.973  13.375  1.00  0.00     0.132 C 
HETATM   17  C   UNL     1     -45.175 -53.757  13.630  1.00  0.00    -0.070 C 
HETATM   18  C   UNL     1     -46.041 -52.840  14.083  1.00  0.00    -0.021 C 
HETATM   19  C   UNL     1     -45.506 -55.220  13.742  1.00  0.00     0.044 C 
HETATM   20  C   UNL     1     -45.778 -51.382  14.000  1.00  0.00     0.047 C 
HETATM   21  H   UNL     1     -42.573 -49.710  12.575  1.00  0.00     0.164 HD
ENDBRANCH  10  11
ENDBRANCH   4  10
BRANCH   3  22
HETATM   22  C   UNL     1     -38.635 -46.264  14.359  1.00  0.00     0.086 C 
HETATM   23  C   UNL     1     -39.152 -45.323  13.267  1.00  0.00     0.032 C 
HETATM   24  C   UNL     1     -39.398 -46.071  15.671  1.00  0.00     0.032 C 
ENDBRANCH   3  22
TORSDOF 3
ENDMDL
MODEL 4
REMARK VINA RESULT:      -6.0      3.533      4.266
REMARK  3 active torsions:
REMARK  status: ('A' for Active; 'I' for Inactive)
REMARK    1  A    between atoms: N_3  and  C_16 
REMARK    2  A    between atoms: C_4  and  C_10 
REMARK       I    between atoms: C_7  and  N_9 
REMARK       I    between atoms: C_7  and  N_8 
REMARK    3  A    between atoms: N_9  and  C_10 
ROOT
HETATM    1  C   UNL     1     -44.649 -52.961  12.672  1.00  0.00     0.329 C 
HETATM    2  N   UNL     1     -43.406 -52.914  12.095  1.00  0.00    -0.275 N 
HETATM    3  N   UNL     1     -44.661 -52.916  14.064  1.00  0.00    -0.305 N 
HETATM    4  C   UNL     1     -42.267 -52.941  14.228  1.00  0.00     0.043 C 
HETATM    5  C   UNL     1     -43.483 -52.901  14.793  1.00  0.00     0.110 C 
HETATM    6  C   UNL     1     -42.212 -52.984  12.748  1.00  0.00     0.258 C 
HETATM    7  O   UNL     1     -45.644 -53.052  11.956  1.00  0.00    -0.246 OA
HETATM    8  O   UNL     1     -41.150 -53.105  12.145  1.00  0.00    -0.267 OA
HETATM    9  H   UNL     1     -43.382 -52.969  11.090  1.00  0.00     0.173 HD
ENDROOT
BRANCH   4  10
HETATM   10  C   UNL     1     -40.931 -52.966  14.913  1.00  0.00     0.170 C 
BRANCH  10  11
HETATM   11  N   UNL     1     -40.121 -51.796  14.613  1.00  0.00    -0.339 N 
HETATM   12  C   UNL     1     -39.109 -51.386  15.443  1.00  0.00     0.318 C 
HETATM   13  N   UNL     1     -38.500 -50.176  15.111  1.00  0.00    -0.330 N 
HETATM   14  O   UNL     1     -38.758 -52.062  16.406  1.00  0.00    -0.247 OA
HETATM   15  C   UNL     1     -37.470 -49.738  16.051  1.00  0.00     0.161 C 
HETATM   16  C   UNL     1     -38.996 -49.289  14.057  1.00  0.00     0.132 C 
HETATM   17  C   UNL     1     -36.773 -48.456  15.704  1.00  0.00    -0.070 C 
HETATM   18  C   UNL     1     -37.125 -47.664  14.682  1.00  0.00    -0.021 C 
HETATM   19  C   UNL     1     -35.620 -48.069  16.589  1.00  0.00     0.044 C 
HETATM   20  C   UNL     1     -38.253 -47.984  13.773  1.00  0.00     0.047 C 
HETATM   21  H   UNL     1     -40.491 -51.157  13.932  1.00  0.00     0.164 HD
ENDBRANCH  10  11
ENDBRANCH   4  10
BRANCH   3  22
HETATM   22  C   UNL     1     -45.944 -52.961  14.801  1.00  0.00     0.086 C 
HETATM   23  C   UNL     1     -45.826 -53.638  16.169  1.00  0.00     0.032 C 
HETATM   24  C   UNL     1     -46.584 -51.575  14.915  1.00  0.00     0.032 C 
ENDBRANCH   3  22
TORSDOF 3
ENDMDL
MODEL 5
REMARK VINA RESULT:      -6.0      3.908      6.736
REMARK  3 active torsions:
REMARK  status: ('A' for Active; 'I' for Inactive)
REMARK    1  A    between atoms: N_3  and  C_16 
REMARK    2  A    between atoms: C_4  and  C_10 
REMARK       I    between atoms: C_7  and  N_9 
REMARK       I    between atoms: C_7  and  N_8 
REMARK    3  A    between atoms: N_9  and  C_10 
ROOT
HETATM    1  C   UNL     1     -38.791 -54.962  15.361  1.00  0.00     0.329 C 
HETATM    2  N   UNL     1     -39.338 -54.586  14.162  1.00  0.00    -0.275 N 
HETATM    3  N   UNL     1     -38.831 -53.997  16.364  1.00  0.00    -0.305 N 
HETATM    4  C   UNL     1     -39.782 -52.333  14.920  1.00  0.00     0.043 C 
HETATM    5  C   UNL     1     -39.327 -52.726  16.119  1.00  0.00     0.110 C 
HETATM    6  C   UNL     1     -39.761 -53.334  13.828  1.00  0.00     0.258 C 
HETATM    7  O   UNL     1     -38.301 -56.084  15.476  1.00  0.00    -0.246 OA
HETATM    8  O   UNL     1     -40.081 -53.043  12.679  1.00  0.00    -0.267 OA
HETATM    9  H   UNL     1     -39.295 -55.267  13.421  1.00  0.00     0.173 HD
ENDROOT
BRANCH   4  10
HETATM   10  C   UNL     1     -40.305 -50.980  14.530  1.00  0.00     0.170 C 
BRANCH  10  11
HETATM   11  N   UNL     1     -41.724 -50.994  14.210  1.00  0.00    -0.339 N 
HETATM   12  C   UNL     1     -42.685 -50.988  15.187  1.00  0.00     0.318 C 
HETATM   13  N   UNL     1     -44.001 -51.139  14.751  1.00  0.00    -0.330 N 
HETATM   14  O   UNL     1     -42.393 -50.840  16.371  1.00  0.00    -0.247 OA
HETATM   15  C   UNL     1     -44.994 -51.192  15.823  1.00  0.00     0.161 C 
HETATM   16  C   UNL     1     -44.357 -51.459  13.367  1.00  0.00     0.132 C 
HETATM   17  C   UNL     1     -46.422 -51.321  15.384  1.00  0.00    -0.070 C 
HETATM   18  C   UNL     1     -46.801 -51.508  14.112  1.00  0.00    -0.021 C 
HETATM   19  C   UNL     1     -47.458 -51.238  16.471  1.00  0.00     0.044 C 
HETATM   20  C   UNL     1     -45.832 -51.602  12.994  1.00  0.00     0.047 C 
HETATM   21  H   UNL     1     -41.970 -51.271  13.276  1.00  0.00     0.164 HD
ENDBRANCH  10  11
ENDBRANCH   4  10
BRANCH   3  22
HETATM   22  C   UNL     1     -38.271 -54.287  17.703  1.00  0.00     0.086 C 
HETATM   23  C   UNL     1     -37.309 -53.204  18.198  1.00  0.00     0.032 C 
HETATM   24  C   UNL     1     -39.369 -54.572  18.730  1.00  0.00     0.032 C 
ENDBRANCH   3  22
TORSDOF 3
ENDMDL
MODEL 6
REMARK VINA RESULT:      -6.0      2.707      7.709
REMARK  3 active torsions:
REMARK  status: ('A' for Active; 'I' for Inactive)
REMARK    1  A    between atoms: N_3  and  C_16 
REMARK    2  A    between atoms: C_4  and  C_10 
REMARK       I    between atoms: C_7  and  N_9 
REMARK       I    between atoms: C_7  and  N_8 
REMARK    3  A    between atoms: N_9  and  C_10 
ROOT
HETATM    1  C   UNL     1     -38.923 -46.085  13.578  1.00  0.00     0.329 C 
HETATM    2  N   UNL     1     -38.295 -47.170  14.134  1.00  0.00    -0.275 N 
HETATM    3  N   UNL     1     -39.707 -46.359  12.459  1.00  0.00    -0.305 N 
HETATM    4  C   UNL     1     -39.087 -48.677  12.417  1.00  0.00     0.043 C 
HETATM    5  C   UNL     1     -39.770 -47.634  11.922  1.00  0.00     0.110 C 
HETATM    6  C   UNL     1     -38.245 -48.427  13.610  1.00  0.00     0.258 C 
HETATM    7  O   UNL     1     -38.754 -44.971  14.070  1.00  0.00    -0.246 OA
HETATM    8  O   UNL     1     -37.521 -49.298  14.084  1.00  0.00    -0.267 OA
HETATM    9  H   UNL     1     -37.707 -46.982  14.929  1.00  0.00     0.173 HD
ENDROOT
BRANCH   4  10
HETATM   10  C   UNL     1     -39.049 -50.086  11.899  1.00  0.00     0.170 C 
BRANCH  10  11
HETATM   11  N   UNL     1     -40.258 -50.834  12.209  1.00  0.00    -0.339 N 
HETATM   12  C   UNL     1     -40.271 -51.827  13.155  1.00  0.00     0.318 C 
HETATM   13  N   UNL     1     -41.455 -52.555  13.260  1.00  0.00    -0.330 N 
HETATM   14  O   UNL     1     -39.297 -52.039  13.873  1.00  0.00    -0.247 OA
HETATM   15  C   UNL     1     -41.412 -53.646  14.233  1.00  0.00     0.161 C 
HETATM   16  C   UNL     1     -42.571 -52.414  12.322  1.00  0.00     0.132 C 
HETATM   17  C   UNL     1     -42.683 -54.427  14.393  1.00  0.00    -0.070 C 
HETATM   18  C   UNL     1     -43.768 -54.258  13.626  1.00  0.00    -0.021 C 
HETATM   19  C   UNL     1     -42.691 -55.459  15.487  1.00  0.00     0.044 C 
HETATM   20  C   UNL     1     -43.826 -53.261  12.529  1.00  0.00     0.047 C 
HETATM   21  H   UNL     1     -41.001 -50.784  11.535  1.00  0.00     0.164 HD
ENDBRANCH  10  11
ENDBRANCH   4  10
BRANCH   3  22
HETATM   22  C   UNL     1     -40.434 -45.269  11.772  1.00  0.00     0.086 C 
HETATM   23  C   UNL     1     -39.728 -44.785  10.503  1.00  0.00     0.032 C 
HETATM   24  C   UNL     1     -41.891 -45.644  11.494  1.00  0.00     0.032 C 
ENDBRANCH   3  22
TORSDOF 3
ENDMDL
MODEL 7
REMARK VINA RESULT:      -6.0      3.119      7.389
REMARK  3 active torsions:
REMARK  status: ('A' for Active; 'I' for Inactive)
REMARK    1  A    between atoms: N_3  and  C_16 
REMARK    2  A    between atoms: C_4  and  C_10 
REMARK       I    between atoms: C_7  and  N_9 
REMARK       I    between atoms: C_7  and  N_8 
REMARK    3  A    between atoms: N_9  and  C_10 
ROOT
HETATM    1  C   UNL     1     -42.692 -44.515  12.642  1.00  0.00     0.329 C 
HETATM    2  N   UNL     1     -42.673 -44.657  11.279  1.00  0.00    -0.275 N 
HETATM    3  N   UNL     1     -42.305 -45.642  13.364  1.00  0.00    -0.305 N 
HETATM    4  C   UNL     1     -42.066 -46.995  11.396  1.00  0.00     0.043 C 
HETATM    5  C   UNL     1     -42.001 -46.834  12.726  1.00  0.00     0.110 C 
HETATM    6  C   UNL     1     -42.469 -45.817  10.592  1.00  0.00     0.258 C 
HETATM    7  O   UNL     1     -43.049 -43.446  13.133  1.00  0.00    -0.246 OA
HETATM    8  O   UNL     1     -42.636 -45.890   9.379  1.00  0.00    -0.267 OA
HETATM    9  H   UNL     1     -42.973 -43.857  10.745  1.00  0.00     0.173 HD
ENDROOT
BRANCH   4  10
HETATM   10  C   UNL     1     -41.797 -48.241  10.603  1.00  0.00     0.170 C 
BRANCH  10  11
HETATM   11  N   UNL     1     -42.029 -49.458  11.365  1.00  0.00    -0.339 N 
HETATM   12  C   UNL     1     -40.998 -50.270  11.763  1.00  0.00     0.318 C 
HETATM   13  N   UNL     1     -41.365 -51.471  12.368  1.00  0.00    -0.330 N 
HETATM   14  O   UNL     1     -39.826 -49.939  11.605  1.00  0.00    -0.247 OA
HETATM   15  C   UNL     1     -40.243 -52.340  12.721  1.00  0.00     0.161 C 
HETATM   16  C   UNL     1     -42.748 -51.947  12.436  1.00  0.00     0.132 C 
HETATM   17  C   UNL     1     -40.604 -53.625  13.405  1.00  0.00    -0.070 C 
HETATM   18  C   UNL     1     -41.862 -54.051  13.585  1.00  0.00    -0.021 C 
HETATM   19  C   UNL     1     -39.452 -54.460  13.894  1.00  0.00     0.044 C 
HETATM   20  C   UNL     1     -43.042 -53.279  13.125  1.00  0.00     0.047 C 
HETATM   21  H   UNL     1     -42.968 -49.816  11.363  1.00  0.00     0.164 HD
ENDBRANCH  10  11
ENDBRANCH   4  10
BRANCH   3  22
HETATM   22  C   UNL     1     -42.285 -45.611  14.843  1.00  0.00     0.086 C 
HETATM   23  C   UNL     1     -43.078 -46.756  15.478  1.00  0.00     0.032 C 
HETATM   24  C   UNL     1     -40.858 -45.547  15.392  1.00  0.00     0.032 C 
ENDBRANCH   3  22
TORSDOF 3
ENDMDL
MODEL 8
REMARK VINA RESULT:      -5.9      3.188      3.927
REMARK  3 active torsions:
REMARK  status: ('A' for Active; 'I' for Inactive)
REMARK    1  A    between atoms: N_3  and  C_16 
REMARK    2  A    between atoms: C_4  and  C_10 
REMARK       I    between atoms: C_7  and  N_9 
REMARK       I    between atoms: C_7  and  N_8 
REMARK    3  A    between atoms: N_9  and  C_10 
ROOT
HETATM    1  C   UNL     1     -43.925 -53.912  14.724  1.00  0.00     0.329 C 
HETATM    2  N   UNL     1     -42.924 -54.544  14.033  1.00  0.00    -0.275 N 
HETATM    3  N   UNL     1     -44.071 -52.554  14.453  1.00  0.00    -0.305 N 
HETATM    4  C   UNL     1     -42.172 -52.498  12.987  1.00  0.00     0.043 C 
HETATM    5  C   UNL     1     -43.204 -51.895  13.596  1.00  0.00     0.110 C 
HETATM    6  C   UNL     1     -41.986 -53.944  13.246  1.00  0.00     0.258 C 
HETATM    7  O   UNL     1     -44.603 -54.552  15.526  1.00  0.00    -0.246 OA
HETATM    8  O   UNL     1     -41.024 -54.562  12.800  1.00  0.00    -0.267 OA
HETATM    9  H   UNL     1     -42.793 -55.521  14.237  1.00  0.00     0.173 HD
ENDROOT
BRANCH   4  10
HETATM   10  C   UNL     1     -41.152 -51.882  12.073  1.00  0.00     0.170 C 
BRANCH  10  11
HETATM   11  N   UNL     1     -40.363 -50.848  12.724  1.00  0.00    -0.339 N 
HETATM   12  C   UNL     1     -39.221 -51.144  13.424  1.00  0.00     0.318 C 
HETATM   13  N   UNL     1     -38.634 -50.082  14.112  1.00  0.00    -0.330 N 
HETATM   14  O   UNL     1     -38.746 -52.276  13.424  1.00  0.00    -0.247 OA
HETATM   15  C   UNL     1     -37.457 -50.446  14.898  1.00  0.00     0.161 C 
HETATM   16  C   UNL     1     -39.260 -48.765  14.242  1.00  0.00     0.132 C 
HETATM   17  C   UNL     1     -36.783 -49.319  15.622  1.00  0.00    -0.070 C 
HETATM   18  C   UNL     1     -37.264 -48.070  15.680  1.00  0.00    -0.021 C 
HETATM   19  C   UNL     1     -35.494 -49.658  16.322  1.00  0.00     0.044 C 
HETATM   20  C   UNL     1     -38.529 -47.669  15.017  1.00  0.00     0.047 C 
HETATM   21  H   UNL     1     -40.814 -49.962  12.866  1.00  0.00     0.164 HD
ENDBRANCH  10  11
ENDBRANCH   4  10
BRANCH   3  22
HETATM   22  C   UNL     1     -45.118 -51.764  15.138  1.00  0.00     0.086 C 
HETATM   23  C   UNL     1     -44.576 -50.492  15.795  1.00  0.00     0.032 C 
HETATM   24  C   UNL     1     -46.297 -51.457  14.212  1.00  0.00     0.032 C 
ENDBRANCH   3  22
TORSDOF 3
ENDMDL
MODEL 9
REMARK VINA RESULT:      -5.9      2.941      7.028
REMARK  3 active torsions:
REMARK  status: ('A' for Active; 'I' for Inactive)
REMARK    1  A    between atoms: N_3  and  C_16 
REMARK    2  A    between atoms: C_4  and  C_10 
REMARK       I    between atoms: C_7  and  N_9 
REMARK       I    between atoms: C_7  and  N_8 
REMARK    3  A    between atoms: N_9  and  C_10 
ROOT
HETATM    1  C   UNL     1     -38.036 -50.181  14.769  1.00  0.00     0.329 C 
HETATM    2  N   UNL     1     -38.537 -51.275  14.113  1.00  0.00    -0.275 N 
HETATM    3  N   UNL     1     -38.655 -48.970  14.468  1.00  0.00    -0.305 N 
HETATM    4  C   UNL     1     -40.085 -49.952  12.809  1.00  0.00     0.043 C 
HETATM    5  C   UNL     1     -39.655 -48.893  13.512  1.00  0.00     0.110 C 
HETATM    6  C   UNL     1     -39.454 -51.259  13.104  1.00  0.00     0.258 C 
HETATM    7  O   UNL     1     -37.094 -50.322  15.547  1.00  0.00    -0.246 OA
HETATM    8  O   UNL     1     -39.722 -52.267  12.456  1.00  0.00    -0.267 OA
HETATM    9  H   UNL     1     -38.083 -52.153  14.304  1.00  0.00     0.173 HD
ENDROOT
BRANCH   4  10
HETATM   10  C   UNL     1     -41.128 -49.981  11.730  1.00  0.00     0.170 C 
BRANCH  10  11
HETATM   11  N   UNL     1     -42.252 -50.845  12.054  1.00  0.00    -0.339 N 
HETATM   12  C   UNL     1     -43.206 -50.478  12.969  1.00  0.00     0.318 C 
HETATM   13  N   UNL     1     -44.153 -51.450  13.288  1.00  0.00    -0.330 N 
HETATM   14  O   UNL     1     -43.224 -49.350  13.456  1.00  0.00    -0.247 OA
HETATM   15  C   UNL     1     -45.116 -51.047  14.312  1.00  0.00     0.161 C 
HETATM   16  C   UNL     1     -44.065 -52.838  12.830  1.00  0.00     0.132 C 
HETATM   17  C   UNL     1     -46.168 -52.060  14.653  1.00  0.00    -0.070 C 
HETATM   18  C   UNL     1     -46.188 -53.311  14.174  1.00  0.00    -0.021 C 
HETATM   19  C   UNL     1     -47.241 -51.604  15.603  1.00  0.00     0.044 C 
HETATM   20  C   UNL     1     -45.158 -53.825  13.237  1.00  0.00     0.047 C 
HETATM   21  H   UNL     1     -42.166 -51.811  11.792  1.00  0.00     0.164 HD
ENDBRANCH  10  11
ENDBRANCH   4  10
BRANCH   3  22
HETATM   22  C   UNL     1     -38.202 -47.718  15.114  1.00  0.00     0.086 C 
HETATM   23  C   UNL     1     -38.387 -46.485  14.227  1.00  0.00     0.032 C 
HETATM   24  C   UNL     1     -38.846 -47.521  16.488  1.00  0.00     0.032 C 
ENDBRANCH   3  22
TORSDOF 3
ENDMDL
