MODEL 1
REMARK VINA RESULT:      -3.7      0.000      0.000
REMARK  1 active torsions:
REMARK  status: ('A' for Active; 'I' for Inactive)
REMARK    1  A    between atoms: C_8  and  N_9 
ROOT
HETATM    1  N   UNL     3     -43.729 -47.528   9.278  1.00  0.00    -0.344 N 
HETATM    2  C   UNL     3     -45.019 -47.582   9.664  1.00  0.00     0.109 A 
HETATM    3  C   UNL     3     -45.771 -47.973   8.578  1.00  0.00     0.106 A 
HETATM    4  N   UNL     3     -44.957 -48.162   7.519  1.00  0.00    -0.361 N 
ATOM      5  HN  UNL     3     -45.220 -48.452   6.577  1.00  0.00     0.166 HD
HETATM    6  C   UNL     3     -43.721 -47.883   7.978  1.00  0.00     0.183 A 
ENDROOT
BRANCH   1   7
HETATM    7  C   UNL     3     -42.540 -47.173  10.069  1.00  0.00     0.146 C 
HETATM    8  C   UNL     3     -42.839 -47.091  11.557  1.00  0.00     0.296 C 
HETATM    9  N   UNL     3     -42.926 -45.628  11.514  1.00  0.00     0.087 N 
HETATM   10  C   UNL     3     -42.349 -45.673  10.167  1.00  0.00     0.296 C 
HETATM   11  H   UNL     3     -42.238 -45.209  12.184  1.00  0.00     0.316 HD
ENDBRANCH   1   7
TORSDOF 1
ENDMDL
MODEL 2
REMARK VINA RESULT:      -3.7      1.776      2.455
REMARK  1 active torsions:
REMARK  status: ('A' for Active; 'I' for Inactive)
REMARK    1  A    between atoms: C_8  and  N_9 
ROOT
HETATM    1  N   UNL     3     -42.904 -46.535  10.472  1.00  0.00    -0.344 N 
HETATM    2  C   UNL     3     -43.389 -46.019   9.325  1.00  0.00     0.109 A 
HETATM    3  C   UNL     3     -44.438 -46.812   8.914  1.00  0.00     0.106 A 
HETATM    4  N   UNL     3     -44.608 -47.818   9.797  1.00  0.00    -0.361 N 
ATOM      5  HN  UNL     3     -45.302 -48.564   9.763  1.00  0.00     0.166 HD
HETATM    6  C   UNL     3     -43.659 -47.621  10.733  1.00  0.00     0.183 A 
ENDROOT
BRANCH   1   7
HETATM    7  C   UNL     3     -41.794 -46.051  11.308  1.00  0.00     0.146 C 
HETATM    8  C   UNL     3     -40.762 -45.274  10.507  1.00  0.00     0.296 C 
HETATM    9  N   UNL     3     -39.864 -46.430  10.441  1.00  0.00     0.087 N 
HETATM   10  C   UNL     3     -40.697 -47.086  11.453  1.00  0.00     0.296 C 
HETATM   11  H   UNL     3     -38.931 -46.182  10.850  1.00  0.00     0.316 HD
ENDBRANCH   1   7
TORSDOF 1
ENDMDL
MODEL 3
REMARK VINA RESULT:      -3.7      7.145      7.721
REMARK  1 active torsions:
REMARK  status: ('A' for Active; 'I' for Inactive)
REMARK    1  A    between atoms: C_8  and  N_9 
ROOT
HETATM    1  N   UNL     3     -43.303 -53.628  13.473  1.00  0.00    -0.344 N 
HETATM    2  C   UNL     3     -43.745 -54.620  14.272  1.00  0.00     0.109 A 
HETATM    3  C   UNL     3     -45.058 -54.876  13.942  1.00  0.00     0.106 A 
HETATM    4  N   UNL     3     -45.436 -54.050  12.945  1.00  0.00    -0.361 N 
ATOM      5  HN  UNL     3     -46.347 -54.001  12.490  1.00  0.00     0.166 HD
HETATM    6  C   UNL     3     -44.345 -53.303  12.682  1.00  0.00     0.183 A 
ENDROOT
BRANCH   1   7
HETATM    7  C   UNL     3     -41.972 -53.002  13.426  1.00  0.00     0.146 C 
HETATM    8  C   UNL     3     -41.729 -52.258  12.123  1.00  0.00     0.296 C 
HETATM    9  N   UNL     3     -40.940 -53.366  11.576  1.00  0.00     0.087 N 
HETATM   10  C   UNL     3     -40.911 -53.957  12.917  1.00  0.00     0.296 C 
HETATM   11  H   UNL     3     -39.983 -53.028  11.313  1.00  0.00     0.316 HD
ENDBRANCH   1   7
TORSDOF 1
ENDMDL
MODEL 4
REMARK VINA RESULT:      -3.6      6.203      7.062
REMARK  1 active torsions:
REMARK  status: ('A' for Active; 'I' for Inactive)
REMARK    1  A    between atoms: C_8  and  N_9 
ROOT
HETATM    1  N   UNL     3     -40.229 -52.047  12.872  1.00  0.00    -0.344 N 
HETATM    2  C   UNL     3     -39.731 -52.903  13.786  1.00  0.00     0.109 A 
HETATM    3  C   UNL     3     -40.197 -54.164  13.483  1.00  0.00     0.106 A 
HETATM    4  N   UNL     3     -40.981 -54.097  12.388  1.00  0.00    -0.361 N 
ATOM      5  HN  UNL     3     -41.469 -54.864  11.925  1.00  0.00     0.166 HD
HETATM    6  C   UNL     3     -40.980 -52.795  12.040  1.00  0.00     0.183 A 
ENDROOT
BRANCH   1   7
HETATM    7  C   UNL     3     -40.020 -50.594  12.755  1.00  0.00     0.146 C 
HETATM    8  C   UNL     3     -40.458 -50.055  11.403  1.00  0.00     0.296 C 
HETATM    9  N   UNL     3     -39.079 -50.030  10.907  1.00  0.00     0.087 N 
HETATM   10  C   UNL     3     -38.621 -50.257  12.280  1.00  0.00     0.296 C 
HETATM   11  H   UNL     3     -38.826 -49.060  10.600  1.00  0.00     0.316 HD
ENDBRANCH   1   7
TORSDOF 1
ENDMDL
MODEL 5
REMARK VINA RESULT:      -3.4      7.202      8.105
REMARK  1 active torsions:
REMARK  status: ('A' for Active; 'I' for Inactive)
REMARK    1  A    between atoms: C_8  and  N_9 
ROOT
HETATM    1  N   UNL     3     -43.047 -53.335  13.422  1.00  0.00    -0.344 N 
HETATM    2  C   UNL     3     -42.044 -54.180  13.730  1.00  0.00     0.109 A 
HETATM    3  C   UNL     3     -41.028 -53.980  12.821  1.00  0.00     0.106 A 
HETATM    4  N   UNL     3     -41.394 -53.018  11.950  1.00  0.00    -0.361 N 
ATOM      5  HN  UNL     3     -40.854 -52.653  11.165  1.00  0.00     0.166 HD
HETATM    6  C   UNL     3     -42.628 -52.646  12.343  1.00  0.00     0.183 A 
ENDROOT
BRANCH   1   7
HETATM    7  C   UNL     3     -44.345 -53.155  14.094  1.00  0.00     0.146 C 
HETATM    8  C   UNL     3     -44.851 -54.440  14.727  1.00  0.00     0.296 C 
HETATM    9  N   UNL     3     -45.762 -54.696  13.608  1.00  0.00     0.087 N 
HETATM   10  C   UNL     3     -45.509 -53.330  13.140  1.00  0.00     0.296 C 
HETATM   11  H   UNL     3     -46.747 -54.778  13.958  1.00  0.00     0.316 HD
ENDBRANCH   1   7
TORSDOF 1
ENDMDL
MODEL 6
REMARK VINA RESULT:      -3.3     15.113     15.845
REMARK  1 active torsions:
REMARK  status: ('A' for Active; 'I' for Inactive)
REMARK    1  A    between atoms: C_8  and  N_9 
ROOT
HETATM    1  N   UNL     3     -50.532 -56.114  20.668  1.00  0.00    -0.344 N 
HETATM    2  C   UNL     3     -49.819 -54.971  20.627  1.00  0.00     0.109 A 
HETATM    3  C   UNL     3     -50.695 -53.933  20.399  1.00  0.00     0.106 A 
HETATM    4  N   UNL     3     -51.947 -54.421  20.297  1.00  0.00    -0.361 N 
ATOM      5  HN  UNL     3     -52.807 -53.899  20.128  1.00  0.00     0.166 HD
HETATM    6  C   UNL     3     -51.815 -55.752  20.465  1.00  0.00     0.183 A 
ENDROOT
BRANCH   1   7
HETATM    7  C   UNL     3     -50.063 -57.491  20.893  1.00  0.00     0.146 C 
HETATM    8  C   UNL     3     -48.601 -57.672  20.520  1.00  0.00     0.296 C 
HETATM    9  N   UNL     3     -48.949 -58.278  19.232  1.00  0.00     0.087 N 
HETATM   10  C   UNL     3     -50.334 -58.386  19.700  1.00  0.00     0.296 C 
HETATM   11  H   UNL     3     -48.521 -59.232  19.157  1.00  0.00     0.316 HD
ENDBRANCH   1   7
TORSDOF 1
ENDMDL
MODEL 7
REMARK VINA RESULT:      -3.3     21.280     22.344
REMARK  1 active torsions:
REMARK  status: ('A' for Active; 'I' for Inactive)
REMARK    1  A    between atoms: C_8  and  N_9 
ROOT
HETATM    1  N   UNL     3     -28.756 -53.622  -5.154  1.00  0.00    -0.344 N 
HETATM    2  C   UNL     3     -29.847 -53.014  -4.649  1.00  0.00     0.109 A 
HETATM    3  C   UNL     3     -30.761 -53.990  -4.316  1.00  0.00     0.106 A 
HETATM    4  N   UNL     3     -30.246 -55.200  -4.612  1.00  0.00    -0.361 N 
ATOM      5  HN  UNL     3     -30.685 -56.111  -4.481  1.00  0.00     0.166 HD
HETATM    6  C   UNL     3     -29.025 -54.942  -5.120  1.00  0.00     0.183 A 
ENDROOT
BRANCH   1   7
HETATM    7  C   UNL     3     -27.505 -53.022  -5.644  1.00  0.00     0.146 C 
HETATM    8  C   UNL     3     -26.491 -54.069  -6.075  1.00  0.00     0.296 C 
HETATM    9  N   UNL     3     -25.751 -53.947  -4.816  1.00  0.00     0.087 N 
HETATM   10  C   UNL     3     -26.529 -52.742  -4.519  1.00  0.00     0.296 C 
HETATM   11  H   UNL     3     -24.753 -53.690  -5.011  1.00  0.00     0.316 HD
ENDBRANCH   1   7
TORSDOF 1
ENDMDL
MODEL 8
REMARK VINA RESULT:      -3.3      7.043      7.826
REMARK  1 active torsions:
REMARK  status: ('A' for Active; 'I' for Inactive)
REMARK    1  A    between atoms: C_8  and  N_9 
ROOT
HETATM    1  N   UNL     3     -44.858 -53.494  13.417  1.00  0.00    -0.344 N 
HETATM    2  C   UNL     3     -44.154 -54.103  14.392  1.00  0.00     0.109 A 
HETATM    3  C   UNL     3     -42.868 -54.286  13.933  1.00  0.00     0.106 A 
HETATM    4  N   UNL     3     -42.767 -53.797  12.681  1.00  0.00    -0.361 N 
ATOM      5  HN  UNL     3     -41.943 -53.788  12.081  1.00  0.00     0.166 HD
HETATM    6  C   UNL     3     -43.996 -53.321  12.396  1.00  0.00     0.183 A 
ENDROOT
BRANCH   1   7
HETATM    7  C   UNL     3     -46.269 -53.074  13.418  1.00  0.00     0.146 C 
HETATM    8  C   UNL     3     -46.429 -51.583  13.170  1.00  0.00     0.296 C 
HETATM    9  N   UNL     3     -46.618 -51.311  14.597  1.00  0.00     0.087 N 
HETATM   10  C   UNL     3     -46.766 -52.753  14.814  1.00  0.00     0.296 C 
HETATM   11  H   UNL     3     -47.536 -50.829  14.752  1.00  0.00     0.316 HD
ENDBRANCH   1   7
TORSDOF 1
ENDMDL
MODEL 9
REMARK VINA RESULT:      -3.2      5.838      7.204
REMARK  1 active torsions:
REMARK  status: ('A' for Active; 'I' for Inactive)
REMARK    1  A    between atoms: C_8  and  N_9 
ROOT
HETATM    1  N   UNL     3     -39.446 -50.953  12.630  1.00  0.00    -0.344 N 
HETATM    2  C   UNL     3     -39.276 -49.976  11.719  1.00  0.00     0.109 A 
HETATM    3  C   UNL     3     -37.924 -49.736  11.604  1.00  0.00     0.106 A 
HETATM    4  N   UNL     3     -37.253 -50.556  12.438  1.00  0.00    -0.361 N 
ATOM      5  HN  UNL     3     -36.245 -50.612  12.577  1.00  0.00     0.166 HD
HETATM    6  C   UNL     3     -38.209 -51.285  13.048  1.00  0.00     0.183 A 
ENDROOT
BRANCH   1   7
HETATM    7  C   UNL     3     -40.697 -51.573  13.100  1.00  0.00     0.146 C 
HETATM    8  C   UNL     3     -40.934 -52.939  12.479  1.00  0.00     0.296 C 
HETATM    9  N   UNL     3     -41.879 -52.390  11.502  1.00  0.00     0.087 N 
HETATM   10  C   UNL     3     -41.891 -51.143  12.272  1.00  0.00     0.296 C 
HETATM   11  H   UNL     3     -42.805 -52.873  11.589  1.00  0.00     0.316 HD
ENDBRANCH   1   7
TORSDOF 1
ENDMDL
