MODEL 1
REMARK VINA RESULT:      -7.0      0.000      0.000
REMARK  4 active torsions:
REMARK  status: ('A' for Active; 'I' for Inactive)
REMARK    1  A    between atoms: C_2  and  C_3 
REMARK    2  A    between atoms: C_8  and  N_9 
REMARK    3  A    between atoms: N_9  and  C_10 
REMARK    4  A    between atoms: C_20  and  C_21 
ROOT
HETATM    1  C   UNL     1     -43.821 -53.882  13.130  1.00  0.00     0.033 A 
HETATM    2  N   UNL     1     -43.676 -53.096  12.042  1.00  0.00    -0.303 N 
ATOM      3  HN  UNL     1     -44.500 -52.845  11.497  1.00  0.00     0.186 HD
HETATM    4  N   UNL     1     -42.453 -52.630  11.653  1.00  0.00    -0.289 N 
ATOM      5  HN  UNL     1     -42.389 -52.050  10.817  1.00  0.00     0.188 HD
HETATM    6  C   UNL     1     -41.338 -52.910  12.334  1.00  0.00     0.117 A 
HETATM    7  C   UNL     1     -41.448 -53.725  13.465  1.00  0.00     0.092 A 
HETATM    8  C   UNL     1     -40.248 -54.044  14.189  1.00  0.00     0.103 C 
HETATM    9  N   UNL     1     -39.272 -54.332  14.751  1.00  0.00    -0.191 NA
HETATM   10  C   UNL     1     -42.709 -54.268  13.880  1.00  0.00    -0.010 A 
ENDROOT
BRANCH   6  11
HETATM   11  N   UNL     1     -40.132 -52.279  11.953  1.00  0.00    -0.269 NA
HETATM   12  H   UNL     1     -40.053 -52.236  10.938  1.00  0.00     0.129 HD
BRANCH  11  13
HETATM   13  C   UNL     1     -39.926 -50.935  12.525  1.00  0.00     0.093 C 
HETATM   14  C   UNL     1     -39.914 -49.865  11.413  1.00  0.00     0.054 C 
HETATM   15  C   UNL     1     -38.647 -49.065  11.730  1.00  0.00     0.123 C 
HETATM   16  C   UNL     1     -37.392 -49.831  11.326  1.00  0.00     0.034 C 
HETATM   17  O   UNL     1     -38.576 -49.176  13.166  1.00  0.00    -0.379 OA
HETATM   18  C   UNL     1     -37.378 -50.972  12.343  1.00  0.00     0.036 C 
HETATM   19  C   UNL     1     -38.582 -50.633  13.221  1.00  0.00     0.140 C 
ENDBRANCH  11  13
ENDBRANCH   6  11
BRANCH  10  20
HETATM   20  C   UNL     1     -42.690 -55.220  15.069  1.00  0.00     0.038 C 
HETATM   21  C   UNL     1     -43.041 -54.787  16.484  1.00  0.00     0.010 C 
ENDBRANCH  10  20
BRANCH   1  22
HETATM   22  C   UNL     1     -45.258 -54.246  13.349  1.00  0.00     0.055 C 
HETATM   23  C   UNL     1     -45.948 -53.300  14.320  1.00  0.00     0.011 C 
ENDBRANCH   1  22
TORSDOF 4
ENDMDL
MODEL 2
REMARK VINA RESULT:      -6.2      2.258      5.921
REMARK  4 active torsions:
REMARK  status: ('A' for Active; 'I' for Inactive)
REMARK    1  A    between atoms: C_2  and  C_3 
REMARK    2  A    between atoms: C_8  and  N_9 
REMARK    3  A    between atoms: N_9  and  C_10 
REMARK    4  A    between atoms: C_20  and  C_21 
ROOT
HETATM    1  C   UNL     1     -39.469 -50.587  12.097  1.00  0.00     0.033 A 
HETATM    2  N   UNL     1     -40.449 -50.730  11.182  1.00  0.00    -0.303 N 
ATOM      3  HN  UNL     1     -40.474 -50.103  10.377  1.00  0.00     0.186 HD
HETATM    4  N   UNL     1     -41.410 -51.692  11.304  1.00  0.00    -0.289 N 
ATOM      5  HN  UNL     1     -42.140 -51.755  10.595  1.00  0.00     0.188 HD
HETATM    6  C   UNL     1     -41.424 -52.554  12.325  1.00  0.00     0.117 A 
HETATM    7  C   UNL     1     -40.426 -52.435  13.297  1.00  0.00     0.092 A 
HETATM    8  C   UNL     1     -40.448 -53.349  14.407  1.00  0.00     0.103 C 
HETATM    9  N   UNL     1     -40.491 -54.063  15.322  1.00  0.00    -0.191 NA
HETATM   10  C   UNL     1     -39.425 -51.410  13.225  1.00  0.00    -0.010 A 
ENDROOT
BRANCH   6  11
HETATM   11  N   UNL     1     -42.364 -53.609  12.311  1.00  0.00    -0.269 NA
HETATM   12  H   UNL     1     -42.103 -54.332  12.981  1.00  0.00     0.129 HD
BRANCH  11  13
HETATM   13  C   UNL     1     -43.763 -53.201  12.539  1.00  0.00     0.093 C 
HETATM   14  C   UNL     1     -43.843 -52.125  13.643  1.00  0.00     0.054 C 
HETATM   15  C   UNL     1     -44.938 -52.672  14.565  1.00  0.00     0.123 C 
HETATM   16  C   UNL     1     -44.423 -53.831  15.410  1.00  0.00     0.034 C 
HETATM   17  O   UNL     1     -45.786 -53.375  13.635  1.00  0.00    -0.379 OA
HETATM   18  C   UNL     1     -44.236 -54.927  14.362  1.00  0.00     0.036 C 
HETATM   19  C   UNL     1     -44.751 -54.247  13.093  1.00  0.00     0.140 C 
ENDBRANCH  11  13
ENDBRANCH   6  11
BRANCH  10  20
HETATM   20  C   UNL     1     -38.448 -51.319  14.390  1.00  0.00     0.038 C 
HETATM   21  C   UNL     1     -38.493 -50.204  15.424  1.00  0.00     0.010 C 
ENDBRANCH  10  20
BRANCH   1  22
HETATM   22  C   UNL     1     -38.537 -49.473  11.727  1.00  0.00     0.055 C 
HETATM   23  C   UNL     1     -37.276 -49.982  11.045  1.00  0.00     0.011 C 
ENDBRANCH   1  22
TORSDOF 4
ENDMDL
MODEL 3
REMARK VINA RESULT:      -6.1      1.557      1.989
REMARK  4 active torsions:
REMARK  status: ('A' for Active; 'I' for Inactive)
REMARK    1  A    between atoms: C_2  and  C_3 
REMARK    2  A    between atoms: C_8  and  N_9 
REMARK    3  A    between atoms: N_9  and  C_10 
REMARK    4  A    between atoms: C_20  and  C_21 
ROOT
HETATM    1  C   UNL     1     -44.357 -51.493  13.592  1.00  0.00     0.033 A 
HETATM    2  N   UNL     1     -44.007 -50.403  12.879  1.00  0.00    -0.303 N 
ATOM      3  HN  UNL     1     -44.640 -49.604  12.849  1.00  0.00     0.186 HD
HETATM    4  N   UNL     1     -42.826 -50.343  12.196  1.00  0.00    -0.289 N 
ATOM      5  HN  UNL     1     -42.608 -49.503  11.659  1.00  0.00     0.188 HD
HETATM    6  C   UNL     1     -41.947 -51.349  12.208  1.00  0.00     0.117 A 
HETATM    7  C   UNL     1     -42.277 -52.498  12.934  1.00  0.00     0.092 A 
HETATM    8  C   UNL     1     -41.343 -53.591  12.935  1.00  0.00     0.103 C 
HETATM    9  N   UNL     1     -40.604 -54.487  12.902  1.00  0.00    -0.191 NA
HETATM   10  C   UNL     1     -43.527 -52.615  13.629  1.00  0.00    -0.010 A 
ENDROOT
BRANCH   6  11
HETATM   11  N   UNL     1     -40.688 -51.160  11.596  1.00  0.00    -0.269 NA
HETATM   12  H   UNL     1     -40.790 -51.065  10.586  1.00  0.00     0.129 HD
BRANCH  11  13
HETATM   13  C   UNL     1     -39.901 -50.031  12.125  1.00  0.00     0.093 C 
HETATM   14  C   UNL     1     -38.658 -49.774  11.248  1.00  0.00     0.054 C 
HETATM   15  C   UNL     1     -37.528 -49.701  12.280  1.00  0.00     0.123 C 
HETATM   16  C   UNL     1     -37.161 -51.087  12.799  1.00  0.00     0.034 C 
HETATM   17  O   UNL     1     -38.208 -49.157  13.428  1.00  0.00    -0.379 OA
HETATM   18  C   UNL     1     -38.395 -51.452  13.622  1.00  0.00     0.036 C 
HETATM   19  C   UNL     1     -39.240 -50.183  13.511  1.00  0.00     0.140 C 
ENDBRANCH  11  13
ENDBRANCH   6  11
BRANCH  10  20
HETATM   20  C   UNL     1     -43.817 -53.950  14.303  1.00  0.00     0.038 C 
HETATM   21  C   UNL     1     -44.909 -54.898  13.831  1.00  0.00     0.010 C 
ENDBRANCH  10  20
BRANCH   1  22
HETATM   22  C   UNL     1     -45.687 -51.304  14.257  1.00  0.00     0.055 C 
HETATM   23  C   UNL     1     -46.846 -51.610  13.320  1.00  0.00     0.011 C 
ENDBRANCH   1  22
TORSDOF 4
ENDMDL
MODEL 4
REMARK VINA RESULT:      -6.1      4.002      6.306
REMARK  4 active torsions:
REMARK  status: ('A' for Active; 'I' for Inactive)
REMARK    1  A    between atoms: C_2  and  C_3 
REMARK    2  A    between atoms: C_8  and  N_9 
REMARK    3  A    between atoms: N_9  and  C_10 
REMARK    4  A    between atoms: C_20  and  C_21 
ROOT
HETATM    1  C   UNL     1     -39.238 -50.216  12.187  1.00  0.00     0.033 A 
HETATM    2  N   UNL     1     -39.264 -49.229  11.266  1.00  0.00    -0.303 N 
ATOM      3  HN  UNL     1     -38.386 -48.902  10.863  1.00  0.00     0.186 HD
HETATM    4  N   UNL     1     -40.437 -48.658  10.862  1.00  0.00    -0.289 N 
ATOM      5  HN  UNL     1     -40.407 -47.906  10.173  1.00  0.00     0.188 HD
HETATM    6  C   UNL     1     -41.620 -49.052  11.340  1.00  0.00     0.117 A 
HETATM    7  C   UNL     1     -41.633 -50.070  12.299  1.00  0.00     0.092 A 
HETATM    8  C   UNL     1     -42.903 -50.485  12.830  1.00  0.00     0.103 C 
HETATM    9  N   UNL     1     -43.926 -50.791  13.287  1.00  0.00    -0.191 NA
HETATM   10  C   UNL     1     -40.419 -50.665  12.780  1.00  0.00    -0.010 A 
ENDROOT
BRANCH   6  11
HETATM   11  N   UNL     1     -42.797 -48.514  10.773  1.00  0.00    -0.269 NA
HETATM   12  H   UNL     1     -43.416 -48.158  11.500  1.00  0.00     0.129 HD
BRANCH  11  13
HETATM   13  C   UNL     1     -42.576 -47.471   9.754  1.00  0.00     0.093 C 
HETATM   14  C   UNL     1     -43.067 -46.099  10.263  1.00  0.00     0.054 C 
HETATM   15  C   UNL     1     -43.928 -45.598   9.099  1.00  0.00     0.123 C 
HETATM   16  C   UNL     1     -45.270 -46.320   9.052  1.00  0.00     0.034 C 
HETATM   17  O   UNL     1     -43.267 -46.190   7.963  1.00  0.00    -0.379 OA
HETATM   18  C   UNL     1     -44.856 -47.728   8.631  1.00  0.00     0.036 C 
HETATM   19  C   UNL     1     -43.350 -47.570   8.423  1.00  0.00     0.140 C 
ENDBRANCH  11  13
ENDBRANCH   6  11
BRANCH  10  20
HETATM   20  C   UNL     1     -40.552 -51.696  13.894  1.00  0.00     0.038 C 
HETATM   21  C   UNL     1     -40.409 -53.192  13.662  1.00  0.00     0.010 C 
ENDBRANCH  10  20
BRANCH   1  22
HETATM   22  C   UNL     1     -37.836 -50.680  12.446  1.00  0.00     0.055 C 
HETATM   23  C   UNL     1     -36.977 -50.640  11.191  1.00  0.00     0.011 C 
ENDBRANCH   1  22
TORSDOF 4
ENDMDL
MODEL 5
REMARK VINA RESULT:      -6.0      2.768      6.100
REMARK  4 active torsions:
REMARK  status: ('A' for Active; 'I' for Inactive)
REMARK    1  A    between atoms: C_2  and  C_3 
REMARK    2  A    between atoms: C_8  and  N_9 
REMARK    3  A    between atoms: N_9  and  C_10 
REMARK    4  A    between atoms: C_20  and  C_21 
ROOT
HETATM    1  C   UNL     1     -40.748 -47.689  11.191  1.00  0.00     0.033 A 
HETATM    2  N   UNL     1     -40.935 -48.646  10.258  1.00  0.00    -0.303 N 
ATOM      3  HN  UNL     1     -41.267 -48.379   9.331  1.00  0.00     0.186 HD
HETATM    4  N   UNL     1     -40.693 -49.963  10.524  1.00  0.00    -0.289 N 
ATOM      5  HN  UNL     1     -40.860 -50.654   9.792  1.00  0.00     0.188 HD
HETATM    6  C   UNL     1     -40.242 -50.375  11.712  1.00  0.00     0.117 A 
HETATM    7  C   UNL     1     -40.040 -49.413  12.706  1.00  0.00     0.092 A 
HETATM    8  C   UNL     1     -39.573 -49.855  13.992  1.00  0.00     0.103 C 
HETATM    9  N   UNL     1     -39.233 -50.218  15.042  1.00  0.00    -0.191 NA
HETATM   10  C   UNL     1     -40.324 -48.025  12.478  1.00  0.00    -0.010 A 
ENDROOT
BRANCH   6  11
HETATM   11  N   UNL     1     -39.881 -51.733  11.869  1.00  0.00    -0.269 NA
HETATM   12  H   UNL     1     -39.257 -51.849  12.666  1.00  0.00     0.129 HD
BRANCH  11  13
HETATM   13  C   UNL     1     -41.013 -52.670  11.983  1.00  0.00     0.093 C 
HETATM   14  C   UNL     1     -42.202 -52.003  12.706  1.00  0.00     0.054 C 
HETATM   15  C   UNL     1     -42.575 -53.043  13.767  1.00  0.00     0.123 C 
HETATM   16  C   UNL     1     -41.576 -53.043  14.918  1.00  0.00     0.034 C 
HETATM   17  O   UNL     1     -42.225 -54.278  13.110  1.00  0.00    -0.379 OA
HETATM   18  C   UNL     1     -40.328 -53.621  14.253  1.00  0.00     0.036 C 
HETATM   19  C   UNL     1     -40.833 -53.936  12.845  1.00  0.00     0.140 C 
ENDBRANCH  11  13
ENDBRANCH   6  11
BRANCH  10  20
HETATM   20  C   UNL     1     -40.157 -47.084  13.664  1.00  0.00     0.038 C 
HETATM   21  C   UNL     1     -38.900 -46.260  13.898  1.00  0.00     0.010 C 
ENDBRANCH  10  20
BRANCH   1  22
HETATM   22  C   UNL     1     -41.070 -46.330  10.647  1.00  0.00     0.055 C 
HETATM   23  C   UNL     1     -39.820 -45.508  10.377  1.00  0.00     0.011 C 
ENDBRANCH   1  22
TORSDOF 4
ENDMDL
MODEL 6
REMARK VINA RESULT:      -5.8      2.962      4.475
REMARK  4 active torsions:
REMARK  status: ('A' for Active; 'I' for Inactive)
REMARK    1  A    between atoms: C_2  and  C_3 
REMARK    2  A    between atoms: C_8  and  N_9 
REMARK    3  A    between atoms: N_9  and  C_10 
REMARK    4  A    between atoms: C_20  and  C_21 
ROOT
HETATM    1  C   UNL     1     -40.469 -52.413  12.533  1.00  0.00     0.033 A 
HETATM    2  N   UNL     1     -41.066 -51.936  11.421  1.00  0.00    -0.303 N 
ATOM      3  HN  UNL     1     -41.710 -52.536  10.905  1.00  0.00     0.186 HD
HETATM    4  N   UNL     1     -40.829 -50.670  10.968  1.00  0.00    -0.289 N 
ATOM      5  HN  UNL     1     -41.292 -50.356  10.115  1.00  0.00     0.188 HD
HETATM    6  C   UNL     1     -40.009 -49.830  11.606  1.00  0.00     0.117 A 
HETATM    7  C   UNL     1     -39.369 -50.290  12.761  1.00  0.00     0.092 A 
HETATM    8  C   UNL     1     -38.472 -49.396  13.440  1.00  0.00     0.103 C 
HETATM    9  N   UNL     1     -37.717 -48.685  13.966  1.00  0.00    -0.191 NA
HETATM   10  C   UNL     1     -39.560 -51.628  13.244  1.00  0.00    -0.010 A 
ENDROOT
BRANCH   6  11
HETATM   11  N   UNL     1     -39.922 -48.493  11.158  1.00  0.00    -0.269 NA
HETATM   12  H   UNL     1     -39.774 -48.460  10.150  1.00  0.00     0.129 HD
BRANCH  11  13
HETATM   13  C   UNL     1     -41.069 -47.639  11.520  1.00  0.00     0.093 C 
HETATM   14  C   UNL     1     -41.679 -46.984  10.263  1.00  0.00     0.054 C 
HETATM   15  C   UNL     1     -41.778 -45.510  10.667  1.00  0.00     0.123 C 
HETATM   16  C   UNL     1     -40.411 -44.835  10.638  1.00  0.00     0.034 C 
HETATM   17  O   UNL     1     -41.998 -45.605  12.089  1.00  0.00    -0.379 OA
HETATM   18  C   UNL     1     -39.706 -45.499  11.819  1.00  0.00     0.036 C 
HETATM   19  C   UNL     1     -40.808 -46.391  12.389  1.00  0.00     0.140 C 
ENDBRANCH  11  13
ENDBRANCH   6  11
BRANCH  10  20
HETATM   20  C   UNL     1     -38.736 -52.047  14.455  1.00  0.00     0.038 C 
HETATM   21  C   UNL     1     -39.325 -52.190  15.850  1.00  0.00     0.010 C 
ENDBRANCH  10  20
BRANCH   1  22
HETATM   22  C   UNL     1     -40.905 -53.818  12.824  1.00  0.00     0.055 C 
HETATM   23  C   UNL     1     -42.192 -53.863  13.633  1.00  0.00     0.011 C 
ENDBRANCH   1  22
TORSDOF 4
ENDMDL
MODEL 7
REMARK VINA RESULT:      -5.7      4.085      6.534
REMARK  4 active torsions:
REMARK  status: ('A' for Active; 'I' for Inactive)
REMARK    1  A    between atoms: C_2  and  C_3 
REMARK    2  A    between atoms: C_8  and  N_9 
REMARK    3  A    between atoms: N_9  and  C_10 
REMARK    4  A    between atoms: C_20  and  C_21 
ROOT
HETATM    1  C   UNL     1     -42.818 -46.986   9.919  1.00  0.00     0.033 A 
HETATM    2  N   UNL     1     -42.330 -48.166   9.481  1.00  0.00    -0.303 N 
ATOM      3  HN  UNL     1     -42.809 -48.651   8.723  1.00  0.00     0.186 HD
HETATM    4  N   UNL     1     -41.211 -48.725  10.028  1.00  0.00    -0.289 N 
ATOM      5  HN  UNL     1     -40.886 -49.624   9.674  1.00  0.00     0.188 HD
HETATM    6  C   UNL     1     -40.530 -48.131  11.012  1.00  0.00     0.117 A 
HETATM    7  C   UNL     1     -41.007 -46.909  11.495  1.00  0.00     0.092 A 
HETATM    8  C   UNL     1     -40.287 -46.276  12.566  1.00  0.00     0.103 C 
HETATM    9  N   UNL     1     -39.726 -45.785  13.458  1.00  0.00    -0.191 NA
HETATM   10  C   UNL     1     -42.203 -46.311  10.975  1.00  0.00    -0.010 A 
ENDROOT
BRANCH   6  11
HETATM   11  N   UNL     1     -39.305 -48.699  11.430  1.00  0.00    -0.269 NA
HETATM   12  H   UNL     1     -38.906 -48.166  12.202  1.00  0.00     0.129 HD
BRANCH  11  13
HETATM   13  C   UNL     1     -39.373 -50.127  11.794  1.00  0.00     0.093 C 
HETATM   14  C   UNL     1     -40.318 -50.339  12.995  1.00  0.00     0.054 C 
HETATM   15  C   UNL     1     -39.473 -51.203  13.937  1.00  0.00     0.123 C 
HETATM   16  C   UNL     1     -38.398 -50.375  14.633  1.00  0.00     0.034 C 
HETATM   17  O   UNL     1     -38.669 -51.958  13.009  1.00  0.00    -0.379 OA
HETATM   18  C   UNL     1     -37.453 -50.050  13.478  1.00  0.00     0.036 C 
HETATM   19  C   UNL     1     -38.093 -50.811  12.317  1.00  0.00     0.140 C 
ENDBRANCH  11  13
ENDBRANCH   6  11
BRANCH  10  20
HETATM   20  C   UNL     1     -42.679 -45.028  11.646  1.00  0.00     0.038 C 
HETATM   21  C   UNL     1     -42.516 -43.653  11.016  1.00  0.00     0.010 C 
ENDBRANCH  10  20
BRANCH   1  22
HETATM   22  C   UNL     1     -44.041 -46.585   9.150  1.00  0.00     0.055 C 
HETATM   23  C   UNL     1     -45.241 -47.457   9.482  1.00  0.00     0.011 C 
ENDBRANCH   1  22
TORSDOF 4
ENDMDL
MODEL 8
REMARK VINA RESULT:      -5.6      2.622      6.398
REMARK  4 active torsions:
REMARK  status: ('A' for Active; 'I' for Inactive)
REMARK    1  A    between atoms: C_2  and  C_3 
REMARK    2  A    between atoms: C_8  and  N_9 
REMARK    3  A    between atoms: N_9  and  C_10 
REMARK    4  A    between atoms: C_20  and  C_21 
ROOT
HETATM    1  C   UNL     1     -40.619 -48.370  11.568  1.00  0.00     0.033 A 
HETATM    2  N   UNL     1     -41.961 -48.454  11.451  1.00  0.00    -0.303 N 
ATOM      3  HN  UNL     1     -42.483 -47.641  11.125  1.00  0.00     0.186 HD
HETATM    4  N   UNL     1     -42.636 -49.601  11.756  1.00  0.00    -0.289 N 
ATOM      5  HN  UNL     1     -43.652 -49.615  11.664  1.00  0.00     0.188 HD
HETATM    6  C   UNL     1     -42.009 -50.705  12.171  1.00  0.00     0.117 A 
HETATM    7  C   UNL     1     -40.618 -50.655  12.309  1.00  0.00     0.092 A 
HETATM    8  C   UNL     1     -39.940 -51.835  12.773  1.00  0.00     0.103 C 
HETATM    9  N   UNL     1     -39.399 -52.777  13.185  1.00  0.00    -0.191 NA
HETATM   10  C   UNL     1     -39.878 -49.456  12.039  1.00  0.00    -0.010 A 
ENDROOT
BRANCH   6  11
HETATM   11  N   UNL     1     -42.757 -51.893  12.332  1.00  0.00    -0.269 NA
HETATM   12  H   UNL     1     -42.138 -52.697  12.428  1.00  0.00     0.129 HD
BRANCH  11  13
HETATM   13  C   UNL     1     -43.724 -51.873  13.445  1.00  0.00     0.093 C 
HETATM   14  C   UNL     1     -43.075 -52.406  14.740  1.00  0.00     0.054 C 
HETATM   15  C   UNL     1     -44.100 -53.432  15.231  1.00  0.00     0.123 C 
HETATM   16  C   UNL     1     -44.044 -54.711  14.403  1.00  0.00     0.034 C 
HETATM   17  O   UNL     1     -45.340 -52.865  14.761  1.00  0.00    -0.379 OA
HETATM   18  C   UNL     1     -44.601 -54.242  13.060  1.00  0.00     0.036 C 
HETATM   19  C   UNL     1     -44.964 -52.787  13.355  1.00  0.00     0.140 C 
ENDBRANCH  11  13
ENDBRANCH   6  11
BRANCH  10  20
HETATM   20  C   UNL     1     -38.381 -49.494  12.318  1.00  0.00     0.038 C 
HETATM   21  C   UNL     1     -37.348 -49.849  11.259  1.00  0.00     0.010 C 
ENDBRANCH  10  20
BRANCH   1  22
HETATM   22  C   UNL     1     -40.121 -47.017  11.160  1.00  0.00     0.055 C 
HETATM   23  C   UNL     1     -39.955 -46.083  12.350  1.00  0.00     0.011 C 
ENDBRANCH   1  22
TORSDOF 4
ENDMDL
MODEL 9
REMARK VINA RESULT:      -5.5      3.503      6.507
REMARK  4 active torsions:
REMARK  status: ('A' for Active; 'I' for Inactive)
REMARK    1  A    between atoms: C_2  and  C_3 
REMARK    2  A    between atoms: C_8  and  N_9 
REMARK    3  A    between atoms: N_9  and  C_10 
REMARK    4  A    between atoms: C_20  and  C_21 
ROOT
HETATM    1  C   UNL     1     -42.607 -47.041  10.277  1.00  0.00     0.033 A 
HETATM    2  N   UNL     1     -43.532 -47.957  10.633  1.00  0.00    -0.303 N 
ATOM      3  HN  UNL     1     -44.451 -47.933  10.190  1.00  0.00     0.186 HD
HETATM    4  N   UNL     1     -43.270 -48.914  11.570  1.00  0.00    -0.289 N 
ATOM      5  HN  UNL     1     -44.004 -49.578  11.817  1.00  0.00     0.188 HD
HETATM    6  C   UNL     1     -42.082 -49.008  12.174  1.00  0.00     0.117 A 
HETATM    7  C   UNL     1     -41.098 -48.074  11.835  1.00  0.00     0.092 A 
HETATM    8  C   UNL     1     -39.824 -48.161  12.496  1.00  0.00     0.103 C 
HETATM    9  N   UNL     1     -38.809 -48.208  13.059  1.00  0.00    -0.191 NA
HETATM   10  C   UNL     1     -41.350 -47.028  10.886  1.00  0.00    -0.010 A 
ENDROOT
BRANCH   6  11
HETATM   11  N   UNL     1     -41.838 -50.108  13.027  1.00  0.00    -0.269 NA
HETATM   12  H   UNL     1     -42.638 -50.275  13.637  1.00  0.00     0.129 HD
BRANCH  11  13
HETATM   13  C   UNL     1     -41.466 -51.359  12.341  1.00  0.00     0.093 C 
HETATM   14  C   UNL     1     -42.558 -52.431  12.532  1.00  0.00     0.054 C 
HETATM   15  C   UNL     1     -41.753 -53.654  12.984  1.00  0.00     0.123 C 
HETATM   16  C   UNL     1     -41.308 -53.518  14.436  1.00  0.00     0.034 C 
HETATM   17  O   UNL     1     -40.500 -53.454  12.300  1.00  0.00    -0.379 OA
HETATM   18  C   UNL     1     -40.270 -52.401  14.344  1.00  0.00     0.036 C 
HETATM   19  C   UNL     1     -40.226 -52.128  12.840  1.00  0.00     0.140 C 
ENDBRANCH  11  13
ENDBRANCH   6  11
BRANCH  10  20
HETATM   20  C   UNL     1     -40.236 -46.012  10.668  1.00  0.00     0.038 C 
HETATM   21  C   UNL     1     -40.292 -44.592  11.209  1.00  0.00     0.010 C 
ENDBRANCH  10  20
BRANCH   1  22
HETATM   22  C   UNL     1     -43.136 -46.115   9.224  1.00  0.00     0.055 C 
HETATM   23  C   UNL     1     -44.604 -46.368   8.921  1.00  0.00     0.011 C 
ENDBRANCH   1  22
TORSDOF 4
ENDMDL
