MODEL 1
REMARK VINA RESULT:      -6.6      0.000      0.000
REMARK  5 active torsions:
REMARK  status: ('A' for Active; 'I' for Inactive)
REMARK    1  A    between atoms: C_8  and  C_9 
REMARK    2  A    between atoms: C_9  and  C_10 
REMARK       I    between atoms: C_10  and  N_12 
REMARK    3  A    between atoms: N_12  and  C_13 
REMARK    4  A    between atoms: C_13  and  C_14 
REMARK    5  A    between atoms: C_14  and  N_15 
ROOT
HETATM    1  C   UNL     1     -42.267 -48.808  11.563  1.00  0.00     0.222 C 
HETATM    2  O   UNL     1     -42.785 -48.160  12.472  1.00  0.00    -0.273 OA
HETATM    3  N   UNL     1     -41.933 -50.137  11.705  1.00  0.00    -0.359 N 
HETATM    4  H   UNL     1     -41.465 -50.647  10.953  1.00  0.00     0.162 HD
ENDROOT
BRANCH   3   5
HETATM    5  C   UNL     1     -42.274 -50.856  12.923  1.00  0.00     0.142 C 
BRANCH   5   6
HETATM    6  C   UNL     1     -43.181 -52.093  12.742  1.00  0.00     0.145 C 
BRANCH   6   7
HETATM    7  N   UNL     1     -44.321 -52.097  13.670  1.00  0.00    -0.351 N 
HETATM    8  C   UNL     1     -44.055 -52.024  15.109  1.00  0.00     0.126 C 
HETATM    9  C   UNL     1     -44.635 -50.772  15.745  1.00  0.00     0.020 C 
HETATM   10  C   UNL     1     -46.100 -50.918  16.155  1.00  0.00     0.002 C 
HETATM   11  C   UNL     1     -46.948 -51.838  15.280  1.00  0.00     0.009 C 
HETATM   12  C   UNL     1     -46.752 -51.620  13.795  1.00  0.00     0.103 C 
HETATM   13  C   UNL     1     -45.578 -52.318  13.136  1.00  0.00     0.219 C 
HETATM   14  O   UNL     1     -45.731 -52.851  12.034  1.00  0.00    -0.273 OA
ENDBRANCH   6   7
ENDBRANCH   5   6
ENDBRANCH   3   5
BRANCH   1  15
HETATM   15  C   UNL     1     -42.020 -48.195  10.194  1.00  0.00     0.146 C 
BRANCH  15  16
HETATM   16  C   UNL     1     -42.709 -46.899   9.966  1.00  0.00     0.006 A 
HETATM   17  C   UNL     1     -43.993 -46.625   9.396  1.00  0.00     0.038 A 
HETATM   18  C   UNL     1     -45.023 -47.557   8.872  1.00  0.00     0.071 C 
HETATM   19  N   UNL     1     -44.226 -45.307   9.329  1.00  0.00    -0.265 N 
HETATM   20  O   UNL     1     -43.102 -44.696   9.834  1.00  0.00    -0.242 OA
ATOM     21  HN  UNL     1     -45.066 -44.850   8.975  1.00  0.00     0.194 HD
HETATM   22  C   UNL     1     -42.200 -45.638  10.202  1.00  0.00     0.081 A 
HETATM   23  C   UNL     1     -40.913 -45.137  10.722  1.00  0.00     0.079 C 
ENDBRANCH  15  16
ENDBRANCH   1  15
TORSDOF 5
ENDMDL
MODEL 2
REMARK VINA RESULT:      -6.4      1.304      2.194
REMARK  5 active torsions:
REMARK  status: ('A' for Active; 'I' for Inactive)
REMARK    1  A    between atoms: C_8  and  C_9 
REMARK    2  A    between atoms: C_9  and  C_10 
REMARK       I    between atoms: C_10  and  N_12 
REMARK    3  A    between atoms: N_12  and  C_13 
REMARK    4  A    between atoms: C_13  and  C_14 
REMARK    5  A    between atoms: C_14  and  N_15 
ROOT
HETATM    1  C   UNL     1     -42.157 -49.498  12.686  1.00  0.00     0.222 C 
HETATM    2  O   UNL     1     -41.112 -49.577  13.331  1.00  0.00    -0.273 OA
HETATM    3  N   UNL     1     -42.751 -50.601  12.112  1.00  0.00    -0.359 N 
HETATM    4  H   UNL     1     -43.596 -50.510  11.544  1.00  0.00     0.162 HD
ENDROOT
BRANCH   3   5
HETATM    5  C   UNL     1     -42.204 -51.931  12.335  1.00  0.00     0.142 C 
BRANCH   5   6
HETATM    6  C   UNL     1     -43.240 -53.052  12.573  1.00  0.00     0.145 C 
BRANCH   6   7
HETATM    7  N   UNL     1     -44.300 -52.650  13.508  1.00  0.00    -0.351 N 
HETATM    8  C   UNL     1     -43.984 -52.578  14.938  1.00  0.00     0.126 C 
HETATM    9  C   UNL     1     -44.135 -51.173  15.496  1.00  0.00     0.020 C 
HETATM   10  C   UNL     1     -45.562 -50.837  15.927  1.00  0.00     0.002 C 
HETATM   11  C   UNL     1     -46.675 -51.501  15.121  1.00  0.00     0.009 C 
HETATM   12  C   UNL     1     -46.463 -51.442  13.623  1.00  0.00     0.103 C 
HETATM   13  C   UNL     1     -45.579 -52.504  13.001  1.00  0.00     0.219 C 
HETATM   14  O   UNL     1     -45.919 -53.028  11.937  1.00  0.00    -0.273 OA
ENDBRANCH   6   7
ENDBRANCH   5   6
ENDBRANCH   3   5
BRANCH   1  15
HETATM   15  C   UNL     1     -42.897 -48.180  12.534  1.00  0.00     0.146 C 
BRANCH  15  16
HETATM   16  C   UNL     1     -42.547 -47.413  11.311  1.00  0.00     0.006 A 
HETATM   17  C   UNL     1     -41.359 -46.682  10.989  1.00  0.00     0.038 A 
HETATM   18  C   UNL     1     -40.119 -46.482  11.781  1.00  0.00     0.071 C 
HETATM   19  N   UNL     1     -41.458 -46.091   9.791  1.00  0.00    -0.265 N 
HETATM   20  O   UNL     1     -42.710 -46.406   9.315  1.00  0.00    -0.242 OA
ATOM     21  HN  UNL     1     -40.750 -45.523   9.327  1.00  0.00     0.194 HD
HETATM   22  C   UNL     1     -43.358 -47.181  10.219  1.00  0.00     0.081 A 
HETATM   23  C   UNL     1     -44.740 -47.564   9.872  1.00  0.00     0.079 C 
ENDBRANCH  15  16
ENDBRANCH   1  15
TORSDOF 5
ENDMDL
MODEL 3
REMARK VINA RESULT:      -6.3      1.821      2.194
REMARK  5 active torsions:
REMARK  status: ('A' for Active; 'I' for Inactive)
REMARK    1  A    between atoms: C_8  and  C_9 
REMARK    2  A    between atoms: C_9  and  C_10 
REMARK       I    between atoms: C_10  and  N_12 
REMARK    3  A    between atoms: N_12  and  C_13 
REMARK    4  A    between atoms: C_13  and  C_14 
REMARK    5  A    between atoms: C_14  and  N_15 
ROOT
HETATM    1  C   UNL     1     -42.079 -49.965  13.039  1.00  0.00     0.222 C 
HETATM    2  O   UNL     1     -41.294 -50.269  13.937  1.00  0.00    -0.273 OA
HETATM    3  N   UNL     1     -42.618 -50.902  12.185  1.00  0.00    -0.359 N 
HETATM    4  H   UNL     1     -43.234 -50.625  11.419  1.00  0.00     0.162 HD
ENDROOT
BRANCH   3   5
HETATM    5  C   UNL     1     -42.348 -52.318  12.382  1.00  0.00     0.142 C 
BRANCH   5   6
HETATM    6  C   UNL     1     -43.586 -53.241  12.415  1.00  0.00     0.145 C 
BRANCH   6   7
HETATM    7  N   UNL     1     -44.598 -52.790  13.381  1.00  0.00    -0.351 N 
HETATM    8  C   UNL     1     -44.290 -52.874  14.812  1.00  0.00     0.126 C 
HETATM    9  C   UNL     1     -44.273 -51.512  15.484  1.00  0.00     0.020 C 
HETATM   10  C   UNL     1     -45.652 -51.040  15.942  1.00  0.00     0.002 C 
HETATM   11  C   UNL     1     -46.830 -51.494  15.084  1.00  0.00     0.009 C 
HETATM   12  C   UNL     1     -46.598 -51.338  13.596  1.00  0.00     0.103 C 
HETATM   13  C   UNL     1     -45.844 -52.447  12.888  1.00  0.00     0.219 C 
HETATM   14  O   UNL     1     -46.236 -52.836  11.784  1.00  0.00    -0.273 OA
ENDBRANCH   6   7
ENDBRANCH   5   6
ENDBRANCH   3   5
BRANCH   1  15
HETATM   15  C   UNL     1     -42.555 -48.533  12.853  1.00  0.00     0.146 C 
BRANCH  15  16
HETATM   16  C   UNL     1     -41.664 -47.692  12.014  1.00  0.00     0.006 A 
HETATM   17  C   UNL     1     -41.759 -47.346  10.628  1.00  0.00     0.038 A 
HETATM   18  C   UNL     1     -42.783 -47.720   9.620  1.00  0.00     0.071 C 
HETATM   19  N   UNL     1     -40.720 -46.595  10.240  1.00  0.00    -0.265 N 
HETATM   20  O   UNL     1     -39.922 -46.447  11.351  1.00  0.00    -0.242 OA
ATOM     21  HN  UNL     1     -40.555 -46.209   9.310  1.00  0.00     0.194 HD
HETATM   22  C   UNL     1     -40.475 -47.105  12.398  1.00  0.00     0.081 A 
HETATM   23  C   UNL     1     -39.708 -47.082  13.658  1.00  0.00     0.079 C 
ENDBRANCH  15  16
ENDBRANCH   1  15
TORSDOF 5
ENDMDL
MODEL 4
REMARK VINA RESULT:      -6.3      1.424      1.924
REMARK  5 active torsions:
REMARK  status: ('A' for Active; 'I' for Inactive)
REMARK    1  A    between atoms: C_8  and  C_9 
REMARK    2  A    between atoms: C_9  and  C_10 
REMARK       I    between atoms: C_10  and  N_12 
REMARK    3  A    between atoms: N_12  and  C_13 
REMARK    4  A    between atoms: C_13  and  C_14 
REMARK    5  A    between atoms: C_14  and  N_15 
ROOT
HETATM    1  C   UNL     1     -42.251 -48.636  11.700  1.00  0.00     0.222 C 
HETATM    2  O   UNL     1     -42.411 -47.907  12.678  1.00  0.00    -0.273 OA
HETATM    3  N   UNL     1     -42.365 -50.007  11.777  1.00  0.00    -0.359 N 
HETATM    4  H   UNL     1     -42.187 -50.599  10.964  1.00  0.00     0.162 HD
ENDROOT
BRANCH   3   5
HETATM    5  C   UNL     1     -42.781 -50.641  13.019  1.00  0.00     0.142 C 
BRANCH   5   6
HETATM    6  C   UNL     1     -44.303 -50.670  13.282  1.00  0.00     0.145 C 
BRANCH   6   7
HETATM    7  N   UNL     1     -44.823 -52.037  13.433  1.00  0.00    -0.351 N 
HETATM    8  C   UNL     1     -44.111 -53.136  12.774  1.00  0.00     0.126 C 
HETATM    9  C   UNL     1     -43.559 -54.148  13.764  1.00  0.00     0.020 C 
HETATM   10  C   UNL     1     -44.571 -55.219  14.169  1.00  0.00     0.002 C 
HETATM   11  C   UNL     1     -46.031 -54.776  14.208  1.00  0.00     0.009 C 
HETATM   12  C   UNL     1     -46.247 -53.445  14.897  1.00  0.00     0.103 C 
HETATM   13  C   UNL     1     -46.041 -52.191  14.070  1.00  0.00     0.219 C 
HETATM   14  O   UNL     1     -46.840 -51.256  14.179  1.00  0.00    -0.273 OA
ENDBRANCH   6   7
ENDBRANCH   5   6
ENDBRANCH   3   5
BRANCH   1  15
HETATM   15  C   UNL     1     -41.976 -48.061  10.320  1.00  0.00     0.146 C 
BRANCH  15  16
HETATM   16  C   UNL     1     -42.690 -46.792  10.028  1.00  0.00     0.006 A 
HETATM   17  C   UNL     1     -43.951 -46.568   9.388  1.00  0.00     0.038 A 
HETATM   18  C   UNL     1     -44.925 -47.543   8.836  1.00  0.00     0.071 C 
HETATM   19  N   UNL     1     -44.218 -45.260   9.280  1.00  0.00    -0.265 N 
HETATM   20  O   UNL     1     -43.139 -44.605   9.826  1.00  0.00    -0.242 OA
ATOM     21  HN  UNL     1     -45.052 -44.836   8.874  1.00  0.00     0.194 HD
HETATM   22  C   UNL     1     -42.229 -45.511  10.260  1.00  0.00     0.081 A 
HETATM   23  C   UNL     1     -40.986 -44.960  10.831  1.00  0.00     0.079 C 
ENDBRANCH  15  16
ENDBRANCH   1  15
TORSDOF 5
ENDMDL
MODEL 5
REMARK VINA RESULT:      -6.3      1.195      1.465
REMARK  5 active torsions:
REMARK  status: ('A' for Active; 'I' for Inactive)
REMARK    1  A    between atoms: C_8  and  C_9 
REMARK    2  A    between atoms: C_9  and  C_10 
REMARK       I    between atoms: C_10  and  N_12 
REMARK    3  A    between atoms: N_12  and  C_13 
REMARK    4  A    between atoms: C_13  and  C_14 
REMARK    5  A    between atoms: C_14  and  N_15 
ROOT
HETATM    1  C   UNL     1     -42.286 -48.904  11.437  1.00  0.00     0.222 C 
HETATM    2  O   UNL     1     -43.025 -48.397  12.281  1.00  0.00    -0.273 OA
HETATM    3  N   UNL     1     -41.710 -50.143  11.614  1.00  0.00    -0.359 N 
HETATM    4  H   UNL     1     -41.066 -50.529  10.921  1.00  0.00     0.162 HD
ENDROOT
BRANCH   3   5
HETATM    5  C   UNL     1     -42.039 -50.948  12.780  1.00  0.00     0.142 C 
BRANCH   5   6
HETATM    6  C   UNL     1     -42.917 -52.191  12.514  1.00  0.00     0.145 C 
BRANCH   6   7
HETATM    7  N   UNL     1     -43.910 -52.417  13.574  1.00  0.00    -0.351 N 
HETATM    8  C   UNL     1     -44.678 -51.272  14.072  1.00  0.00     0.126 C 
HETATM    9  C   UNL     1     -46.169 -51.418  13.820  1.00  0.00     0.020 C 
HETATM   10  C   UNL     1     -46.896 -52.212  14.904  1.00  0.00     0.002 C 
HETATM   11  C   UNL     1     -46.087 -53.317  15.577  1.00  0.00     0.009 C 
HETATM   12  C   UNL     1     -45.312 -54.183  14.606  1.00  0.00     0.103 C 
HETATM   13  C   UNL     1     -43.960 -53.676  14.144  1.00  0.00     0.219 C 
HETATM   14  O   UNL     1     -43.012 -54.462  14.067  1.00  0.00    -0.273 OA
ENDBRANCH   6   7
ENDBRANCH   5   6
ENDBRANCH   3   5
BRANCH   1  15
HETATM   15  C   UNL     1     -42.011 -48.217  10.110  1.00  0.00     0.146 C 
BRANCH  15  16
HETATM   16  C   UNL     1     -42.683 -46.903   9.945  1.00  0.00     0.006 A 
HETATM   17  C   UNL     1     -43.970 -46.587   9.404  1.00  0.00     0.038 A 
HETATM   18  C   UNL     1     -45.020 -47.483   8.855  1.00  0.00     0.071 C 
HETATM   19  N   UNL     1     -44.185 -45.265   9.395  1.00  0.00    -0.265 N 
HETATM   20  O   UNL     1     -43.045 -44.691   9.910  1.00  0.00    -0.242 OA
ATOM     21  HN  UNL     1     -45.023 -44.781   9.071  1.00  0.00     0.194 HD
HETATM   22  C   UNL     1     -42.152 -45.660  10.226  1.00  0.00     0.081 A 
HETATM   23  C   UNL     1     -40.852 -45.199  10.749  1.00  0.00     0.079 C 
ENDBRANCH  15  16
ENDBRANCH   1  15
TORSDOF 5
ENDMDL
MODEL 6
REMARK VINA RESULT:      -6.2      3.823      5.473
REMARK  5 active torsions:
REMARK  status: ('A' for Active; 'I' for Inactive)
REMARK    1  A    between atoms: C_8  and  C_9 
REMARK    2  A    between atoms: C_9  and  C_10 
REMARK       I    between atoms: C_10  and  N_12 
REMARK    3  A    between atoms: N_12  and  C_13 
REMARK    4  A    between atoms: C_13  and  C_14 
REMARK    5  A    between atoms: C_14  and  N_15 
ROOT
HETATM    1  C   UNL     1     -42.319 -51.398  15.683  1.00  0.00     0.222 C 
HETATM    2  O   UNL     1     -43.219 -50.611  15.390  1.00  0.00    -0.273 OA
HETATM    3  N   UNL     1     -42.502 -52.419  16.589  1.00  0.00    -0.359 N 
HETATM    4  H   UNL     1     -41.731 -53.037  16.851  1.00  0.00     0.162 HD
ENDROOT
BRANCH   3   5
HETATM    5  C   UNL     1     -43.815 -52.664  17.167  1.00  0.00     0.142 C 
BRANCH   5   6
HETATM    6  C   UNL     1     -44.613 -53.834  16.549  1.00  0.00     0.145 C 
BRANCH   6   7
HETATM    7  N   UNL     1     -45.180 -53.498  15.235  1.00  0.00    -0.351 N 
HETATM    8  C   UNL     1     -46.525 -52.918  15.179  1.00  0.00     0.126 C 
HETATM    9  C   UNL     1     -46.529 -51.517  14.590  1.00  0.00     0.020 C 
HETATM   10  C   UNL     1     -46.597 -51.496  13.064  1.00  0.00     0.002 C 
HETATM   11  C   UNL     1     -45.916 -52.662  12.351  1.00  0.00     0.009 C 
HETATM   12  C   UNL     1     -44.541 -52.989  12.893  1.00  0.00     0.103 C 
HETATM   13  C   UNL     1     -44.468 -53.885  14.114  1.00  0.00     0.219 C 
HETATM   14  O   UNL     1     -43.615 -54.776  14.162  1.00  0.00    -0.273 OA
ENDBRANCH   6   7
ENDBRANCH   5   6
ENDBRANCH   3   5
BRANCH   1  15
HETATM   15  C   UNL     1     -40.958 -51.330  15.011  1.00  0.00     0.146 C 
BRANCH  15  16
HETATM   16  C   UNL     1     -40.914 -51.916  13.647  1.00  0.00     0.006 A 
HETATM   17  C   UNL     1     -41.334 -51.369  12.393  1.00  0.00     0.038 A 
HETATM   18  C   UNL     1     -41.930 -50.045  12.084  1.00  0.00     0.071 C 
HETATM   19  N   UNL     1     -41.161 -52.245  11.396  1.00  0.00    -0.265 N 
HETATM   20  O   UNL     1     -40.645 -53.382  11.973  1.00  0.00    -0.242 OA
ATOM     21  HN  UNL     1     -41.371 -52.099  10.408  1.00  0.00     0.194 HD
HETATM   22  C   UNL     1     -40.507 -53.191  13.308  1.00  0.00     0.081 A 
HETATM   23  C   UNL     1     -40.007 -54.344  14.080  1.00  0.00     0.079 C 
ENDBRANCH  15  16
ENDBRANCH   1  15
TORSDOF 5
ENDMDL
MODEL 7
REMARK VINA RESULT:      -6.1      3.399      4.643
REMARK  5 active torsions:
REMARK  status: ('A' for Active; 'I' for Inactive)
REMARK    1  A    between atoms: C_8  and  C_9 
REMARK    2  A    between atoms: C_9  and  C_10 
REMARK       I    between atoms: C_10  and  N_12 
REMARK    3  A    between atoms: N_12  and  C_13 
REMARK    4  A    between atoms: C_13  and  C_14 
REMARK    5  A    between atoms: C_14  and  N_15 
ROOT
HETATM    1  C   UNL     1     -40.620 -52.678  14.323  1.00  0.00     0.222 C 
HETATM    2  O   UNL     1     -40.043 -53.625  13.787  1.00  0.00    -0.273 OA
HETATM    3  N   UNL     1     -41.782 -52.839  15.046  1.00  0.00    -0.359 N 
HETATM    4  H   UNL     1     -42.269 -52.036  15.448  1.00  0.00     0.162 HD
ENDROOT
BRANCH   3   5
HETATM    5  C   UNL     1     -42.323 -54.169  15.283  1.00  0.00     0.142 C 
BRANCH   5   6
HETATM    6  C   UNL     1     -43.483 -54.597  14.357  1.00  0.00     0.145 C 
BRANCH   6   7
HETATM    7  N   UNL     1     -44.627 -53.676  14.424  1.00  0.00    -0.351 N 
HETATM    8  C   UNL     1     -45.396 -53.602  15.670  1.00  0.00     0.126 C 
HETATM    9  C   UNL     1     -45.338 -52.224  16.307  1.00  0.00     0.020 C 
HETATM   10  C   UNL     1     -46.382 -51.253  15.757  1.00  0.00     0.002 C 
HETATM   11  C   UNL     1     -46.759 -51.440  14.289  1.00  0.00     0.009 C 
HETATM   12  C   UNL     1     -45.569 -51.636  13.374  1.00  0.00     0.103 C 
HETATM   13  C   UNL     1     -45.002 -53.037  13.256  1.00  0.00     0.219 C 
HETATM   14  O   UNL     1     -44.673 -53.466  12.147  1.00  0.00    -0.273 OA
ENDBRANCH   6   7
ENDBRANCH   5   6
ENDBRANCH   3   5
BRANCH   1  15
HETATM   15  C   UNL     1     -40.047 -51.272  14.275  1.00  0.00     0.146 C 
BRANCH  15  16
HETATM   16  C   UNL     1     -39.937 -50.697  12.910  1.00  0.00     0.006 A 
HETATM   17  C   UNL     1     -38.788 -50.511  12.077  1.00  0.00     0.038 A 
HETATM   18  C   UNL     1     -37.364 -50.848  12.328  1.00  0.00     0.071 C 
HETATM   19  N   UNL     1     -39.113 -49.913  10.924  1.00  0.00    -0.265 N 
HETATM   20  O   UNL     1     -40.468 -49.681  10.984  1.00  0.00    -0.242 OA
ATOM     21  HN  UNL     1     -38.484 -49.677  10.156  1.00  0.00     0.194 HD
HETATM   22  C   UNL     1     -40.954 -50.136  12.164  1.00  0.00     0.081 A 
HETATM   23  C   UNL     1     -42.393 -49.915  12.402  1.00  0.00     0.079 C 
ENDBRANCH  15  16
ENDBRANCH   1  15
TORSDOF 5
ENDMDL
MODEL 8
REMARK VINA RESULT:      -5.9      4.066      4.764
REMARK  5 active torsions:
REMARK  status: ('A' for Active; 'I' for Inactive)
REMARK    1  A    between atoms: C_8  and  C_9 
REMARK    2  A    between atoms: C_9  and  C_10 
REMARK       I    between atoms: C_10  and  N_12 
REMARK    3  A    between atoms: N_12  and  C_13 
REMARK    4  A    between atoms: C_13  and  C_14 
REMARK    5  A    between atoms: C_14  and  N_15 
ROOT
HETATM    1  C   UNL     1     -40.855 -52.954  14.978  1.00  0.00     0.222 C 
HETATM    2  O   UNL     1     -41.445 -52.057  15.580  1.00  0.00    -0.273 OA
HETATM    3  N   UNL     1     -41.315 -54.253  14.959  1.00  0.00    -0.359 N 
HETATM    4  H   UNL     1     -40.790 -54.992  14.490  1.00  0.00     0.162 HD
ENDROOT
BRANCH   3   5
HETATM    5  C   UNL     1     -42.587 -54.592  15.580  1.00  0.00     0.142 C 
BRANCH   5   6
HETATM    6  C   UNL     1     -43.764 -54.839  14.610  1.00  0.00     0.145 C 
BRANCH   6   7
HETATM    7  N   UNL     1     -44.817 -53.822  14.731  1.00  0.00    -0.351 N 
HETATM    8  C   UNL     1     -45.323 -53.491  16.067  1.00  0.00     0.126 C 
HETATM    9  C   UNL     1     -45.063 -52.042  16.444  1.00  0.00     0.020 C 
HETATM   10  C   UNL     1     -46.136 -51.078  15.941  1.00  0.00     0.002 C 
HETATM   11  C   UNL     1     -46.803 -51.454  14.620  1.00  0.00     0.009 C 
HETATM   12  C   UNL     1     -45.828 -51.890  13.547  1.00  0.00     0.103 C 
HETATM   13  C   UNL     1     -45.377 -53.338  13.562  1.00  0.00     0.219 C 
HETATM   14  O   UNL     1     -45.296 -53.958  12.499  1.00  0.00    -0.273 OA
ENDBRANCH   6   7
ENDBRANCH   5   6
ENDBRANCH   3   5
BRANCH   1  15
HETATM   15  C   UNL     1     -39.606 -52.671  14.160  1.00  0.00     0.146 C 
BRANCH  15  16
HETATM   16  C   UNL     1     -39.810 -51.729  13.030  1.00  0.00     0.006 A 
HETATM   17  C   UNL     1     -40.887 -51.634  12.091  1.00  0.00     0.038 A 
HETATM   18  C   UNL     1     -42.125 -52.444  11.976  1.00  0.00     0.071 C 
HETATM   19  N   UNL     1     -40.666 -50.665  11.193  1.00  0.00    -0.265 N 
HETATM   20  O   UNL     1     -39.443 -50.122  11.512  1.00  0.00    -0.242 OA
ATOM     21  HN  UNL     1     -41.280 -50.387  10.427  1.00  0.00     0.194 HD
HETATM   22  C   UNL     1     -38.932 -50.758  12.593  1.00  0.00     0.081 A 
HETATM   23  C   UNL     1     -37.593 -50.320  13.032  1.00  0.00     0.079 C 
ENDBRANCH  15  16
ENDBRANCH   1  15
TORSDOF 5
ENDMDL
MODEL 9
REMARK VINA RESULT:      -5.9      3.885      7.753
REMARK  5 active torsions:
REMARK  status: ('A' for Active; 'I' for Inactive)
REMARK    1  A    between atoms: C_8  and  C_9 
REMARK    2  A    between atoms: C_9  and  C_10 
REMARK       I    between atoms: C_10  and  N_12 
REMARK    3  A    between atoms: N_12  and  C_13 
REMARK    4  A    between atoms: C_13  and  C_14 
REMARK    5  A    between atoms: C_14  and  N_15 
ROOT
HETATM    1  C   UNL     1     -41.414 -51.328  12.056  1.00  0.00     0.222 C 
HETATM    2  O   UNL     1     -42.167 -50.876  12.919  1.00  0.00    -0.273 OA
HETATM    3  N   UNL     1     -40.803 -50.522  11.120  1.00  0.00    -0.359 N 
HETATM    4  H   UNL     1     -40.214 -50.920  10.386  1.00  0.00     0.162 HD
ENDROOT
BRANCH   3   5
HETATM    5  C   UNL     1     -40.954 -49.076  11.182  1.00  0.00     0.142 C 
BRANCH   5   6
HETATM    6  C   UNL     1     -39.663 -48.277  11.464  1.00  0.00     0.145 C 
BRANCH   6   7
HETATM    7  N   UNL     1     -38.875 -48.849  12.565  1.00  0.00    -0.351 N 
HETATM    8  C   UNL     1     -39.142 -48.391  13.931  1.00  0.00     0.126 C 
HETATM    9  C   UNL     1     -39.634 -49.510  14.833  1.00  0.00     0.020 C 
HETATM   10  C   UNL     1     -38.507 -50.324  15.466  1.00  0.00     0.002 C 
HETATM   11  C   UNL     1     -37.239 -50.471  14.628  1.00  0.00     0.009 C 
HETATM   12  C   UNL     1     -37.503 -50.822  13.179  1.00  0.00     0.103 C 
HETATM   13  C   UNL     1     -37.822 -49.682  12.232  1.00  0.00     0.219 C 
HETATM   14  O   UNL     1     -37.314 -49.669  11.107  1.00  0.00    -0.273 OA
ENDBRANCH   6   7
ENDBRANCH   5   6
ENDBRANCH   3   5
BRANCH   1  15
HETATM   15  C   UNL     1     -41.059 -52.804  12.008  1.00  0.00     0.146 C 
BRANCH  15  16
HETATM   16  C   UNL     1     -41.461 -53.574  13.213  1.00  0.00     0.006 A 
HETATM   17  C   UNL     1     -40.672 -54.056  14.306  1.00  0.00     0.038 A 
HETATM   18  C   UNL     1     -39.217 -53.918  14.564  1.00  0.00     0.071 C 
HETATM   19  N   UNL     1     -41.417 -54.750  15.176  1.00  0.00    -0.265 N 
HETATM   20  O   UNL     1     -42.695 -54.753  14.667  1.00  0.00    -0.242 OA
ATOM     21  HN  UNL     1     -41.100 -55.189  16.041  1.00  0.00     0.194 HD
HETATM   22  C   UNL     1     -42.719 -54.065  13.499  1.00  0.00     0.081 A 
HETATM   23  C   UNL     1     -44.018 -54.019  12.801  1.00  0.00     0.079 C 
ENDBRANCH  15  16
ENDBRANCH   1  15
TORSDOF 5
ENDMDL
