MODEL 1
REMARK VINA RESULT:      -5.3      0.000      0.000
REMARK  5 active torsions:
REMARK  status: ('A' for Active; 'I' for Inactive)
REMARK    1  A    between atoms: C_2  and  C_3 
REMARK    2  A    between atoms: C_7  and  C_8 
REMARK    3  A    between atoms: C_8  and  C_9 
REMARK    4  A    between atoms: C_9  and  N_10 
REMARK       I    between atoms: N_10  and  C_11 
REMARK    5  A    between atoms: C_11  and  C_13 
ROOT
HETATM    1  C   UNL     1     -41.181 -54.426  13.114  1.00  0.00     0.129 C 
ENDROOT
BRANCH   1   2
HETATM    2  C   UNL     1     -42.297 -54.485  14.160  1.00  0.00     0.084 C 
BRANCH   2   3
HETATM    3  C   UNL     1     -43.535 -53.768  13.718  1.00  0.00     0.052 A 
HETATM    4  N   UNL     1     -43.994 -53.724  12.485  1.00  0.00    -0.363 N 
HETATM    5  C   UNL     1     -45.118 -52.922  12.438  1.00  0.00     0.103 A 
ATOM      6  HN  UNL     1     -43.582 -54.207  11.687  1.00  0.00     0.165 HD
HETATM    7  C   UNL     1     -45.522 -52.381  13.640  1.00  0.00    -0.001 A 
HETATM    8  S   UNL     1     -44.459 -52.896  14.881  1.00  0.00    -0.080 SA
BRANCH   7   9
HETATM    9  C   UNL     1     -46.670 -51.471  13.930  1.00  0.00     0.043 C 
HETATM   10  C   UNL     1     -47.008 -51.440  15.412  1.00  0.00     0.010 C 
ENDBRANCH   7   9
ENDBRANCH   2   3
ENDBRANCH   1   2
BRANCH   1  11
HETATM   11  N   UNL     1     -40.306 -53.277  13.287  1.00  0.00    -0.358 N 
HETATM   12  C   UNL     1     -40.464 -52.138  12.523  1.00  0.00     0.246 C 
HETATM   13  O   UNL     1     -41.415 -51.955  11.773  1.00  0.00    -0.271 OA
HETATM   14  H   UNL     1     -39.363 -53.426  13.641  1.00  0.00     0.162 HD
BRANCH  12  15
HETATM   15  C   UNL     1     -39.389 -51.077  12.781  1.00  0.00     0.213 C 
HETATM   16  C   UNL     1     -39.335 -50.031  11.677  1.00  0.00     0.043 C 
HETATM   17  C   UNL     1     -37.862 -49.768  11.460  1.00  0.00     0.029 C 
HETATM   18  C   UNL     1     -37.164 -50.587  12.521  1.00  0.00     0.168 C 
HETATM   19  O   UNL     1     -38.071 -51.630  12.886  1.00  0.00    -0.376 OA
ENDBRANCH  12  15
ENDBRANCH   1  11
TORSDOF 5
ENDMDL
MODEL 2
REMARK VINA RESULT:      -5.2      4.136      5.131
REMARK  5 active torsions:
REMARK  status: ('A' for Active; 'I' for Inactive)
REMARK    1  A    between atoms: C_2  and  C_3 
REMARK    2  A    between atoms: C_7  and  C_8 
REMARK    3  A    between atoms: C_8  and  C_9 
REMARK    4  A    between atoms: C_9  and  N_10 
REMARK       I    between atoms: N_10  and  C_11 
REMARK    5  A    between atoms: C_11  and  C_13 
ROOT
HETATM    1  C   UNL     1     -40.711 -49.800  10.967  1.00  0.00     0.129 C 
ENDROOT
BRANCH   1   2
HETATM    2  C   UNL     1     -40.807 -50.401  12.371  1.00  0.00     0.084 C 
BRANCH   2   3
HETATM    3  C   UNL     1     -42.010 -51.277  12.538  1.00  0.00     0.052 A 
HETATM    4  N   UNL     1     -42.263 -52.368  11.846  1.00  0.00    -0.363 N 
HETATM    5  C   UNL     1     -43.487 -52.884  12.226  1.00  0.00     0.103 A 
ATOM      6  HN  UNL     1     -41.649 -52.771  11.139  1.00  0.00     0.165 HD
HETATM    7  C   UNL     1     -44.148 -52.194  13.220  1.00  0.00    -0.001 A 
HETATM    8  S   UNL     1     -43.201 -50.852  13.707  1.00  0.00    -0.080 SA
BRANCH   7   9
HETATM    9  C   UNL     1     -45.478 -52.471  13.839  1.00  0.00     0.043 C 
HETATM   10  C   UNL     1     -46.554 -51.536  13.310  1.00  0.00     0.010 C 
ENDBRANCH   7   9
ENDBRANCH   2   3
ENDBRANCH   1   2
BRANCH   1  11
HETATM   11  N   UNL     1     -41.793 -48.872  10.675  1.00  0.00    -0.358 N 
HETATM   12  C   UNL     1     -41.595 -47.506  10.721  1.00  0.00     0.246 C 
HETATM   13  O   UNL     1     -40.493 -46.988  10.855  1.00  0.00    -0.271 OA
HETATM   14  H   UNL     1     -42.753 -49.170  10.840  1.00  0.00     0.162 HD
BRANCH  12  15
HETATM   15  C   UNL     1     -42.874 -46.696  10.481  1.00  0.00     0.213 C 
HETATM   16  C   UNL     1     -44.085 -47.588  10.247  1.00  0.00     0.043 C 
HETATM   17  C   UNL     1     -44.860 -46.909   9.141  1.00  0.00     0.029 C 
HETATM   18  C   UNL     1     -44.116 -45.619   8.884  1.00  0.00     0.168 C 
HETATM   19  O   UNL     1     -42.780 -45.826   9.348  1.00  0.00    -0.376 OA
ENDBRANCH  12  15
ENDBRANCH   1  11
TORSDOF 5
ENDMDL
MODEL 3
REMARK VINA RESULT:      -5.1      2.802      6.274
REMARK  5 active torsions:
REMARK  status: ('A' for Active; 'I' for Inactive)
REMARK    1  A    between atoms: C_2  and  C_3 
REMARK    2  A    between atoms: C_7  and  C_8 
REMARK    3  A    between atoms: C_8  and  C_9 
REMARK    4  A    between atoms: C_9  and  N_10 
REMARK       I    between atoms: N_10  and  C_11 
REMARK    5  A    between atoms: C_11  and  C_13 
ROOT
HETATM    1  C   UNL     1     -42.023 -54.386  14.202  1.00  0.00     0.129 C 
ENDROOT
BRANCH   1   2
HETATM    2  C   UNL     1     -41.201 -54.281  12.915  1.00  0.00     0.084 C 
BRANCH   2   3
HETATM    3  C   UNL     1     -40.884 -52.864  12.551  1.00  0.00     0.052 A 
HETATM    4  N   UNL     1     -41.306 -52.240  11.471  1.00  0.00    -0.363 N 
HETATM    5  C   UNL     1     -40.769 -50.968  11.432  1.00  0.00     0.103 A 
ATOM      6  HN  UNL     1     -41.933 -52.635  10.771  1.00  0.00     0.165 HD
HETATM    7  C   UNL     1     -39.961 -50.623  12.495  1.00  0.00    -0.001 A 
HETATM    8  S   UNL     1     -39.872 -51.937  13.591  1.00  0.00    -0.080 SA
BRANCH   7   9
HETATM    9  C   UNL     1     -39.222 -49.350  12.747  1.00  0.00     0.043 C 
HETATM   10  C   UNL     1     -37.761 -49.453  12.339  1.00  0.00     0.010 C 
ENDBRANCH   7   9
ENDBRANCH   2   3
ENDBRANCH   1   2
BRANCH   1  11
HETATM   11  N   UNL     1     -43.315 -53.725  14.100  1.00  0.00    -0.358 N 
HETATM   12  C   UNL     1     -44.493 -54.436  14.221  1.00  0.00     0.246 C 
HETATM   13  O   UNL     1     -44.539 -55.612  14.565  1.00  0.00    -0.271 OA
HETATM   14  H   UNL     1     -43.388 -52.869  13.552  1.00  0.00     0.162 HD
BRANCH  12  15
HETATM   15  C   UNL     1     -45.745 -53.586  13.987  1.00  0.00     0.213 C 
HETATM   16  C   UNL     1     -45.686 -52.822  12.672  1.00  0.00     0.043 C 
HETATM   17  C   UNL     1     -46.261 -51.460  12.986  1.00  0.00     0.029 C 
HETATM   18  C   UNL     1     -46.719 -51.556  14.423  1.00  0.00     0.168 C 
HETATM   19  O   UNL     1     -45.961 -52.613  15.017  1.00  0.00    -0.376 OA
ENDBRANCH  12  15
ENDBRANCH   1  11
TORSDOF 5
ENDMDL
MODEL 4
REMARK VINA RESULT:      -5.1      2.996      6.983
REMARK  5 active torsions:
REMARK  status: ('A' for Active; 'I' for Inactive)
REMARK    1  A    between atoms: C_2  and  C_3 
REMARK    2  A    between atoms: C_7  and  C_8 
REMARK    3  A    between atoms: C_8  and  C_9 
REMARK    4  A    between atoms: C_9  and  N_10 
REMARK       I    between atoms: N_10  and  C_11 
REMARK    5  A    between atoms: C_11  and  C_13 
ROOT
HETATM    1  C   UNL     1     -43.450 -52.953  12.378  1.00  0.00     0.129 C 
ENDROOT
BRANCH   1   2
HETATM    2  C   UNL     1     -42.028 -52.899  12.943  1.00  0.00     0.084 C 
BRANCH   2   3
HETATM    3  C   UNL     1     -41.268 -51.700  12.467  1.00  0.00     0.052 A 
HETATM    4  N   UNL     1     -41.738 -50.761  11.673  1.00  0.00    -0.363 N 
HETATM    5  C   UNL     1     -40.742 -49.846  11.396  1.00  0.00     0.103 A 
ATOM      6  HN  UNL     1     -42.693 -50.718  11.316  1.00  0.00     0.165 HD
HETATM    7  C   UNL     1     -39.525 -50.080  12.002  1.00  0.00    -0.001 A 
HETATM    8  S   UNL     1     -39.630 -51.497  12.960  1.00  0.00    -0.080 SA
BRANCH   7   9
HETATM    9  C   UNL     1     -38.253 -49.304  11.901  1.00  0.00     0.043 C 
HETATM   10  C   UNL     1     -37.235 -49.998  11.011  1.00  0.00     0.010 C 
ENDBRANCH   7   9
ENDBRANCH   2   3
ENDBRANCH   1   2
BRANCH   1  11
HETATM   11  N   UNL     1     -44.468 -52.719  13.391  1.00  0.00    -0.358 N 
HETATM   12  C   UNL     1     -45.450 -53.655  13.647  1.00  0.00     0.246 C 
HETATM   13  O   UNL     1     -45.449 -54.782  13.165  1.00  0.00    -0.271 OA
HETATM   14  H   UNL     1     -44.724 -51.759  13.617  1.00  0.00     0.162 HD
BRANCH  12  15
HETATM   15  C   UNL     1     -46.485 -53.188  14.674  1.00  0.00     0.213 C 
HETATM   16  C   UNL     1     -46.807 -51.707  14.536  1.00  0.00     0.043 C 
HETATM   17  C   UNL     1     -46.912 -51.195  15.954  1.00  0.00     0.029 C 
HETATM   18  C   UNL     1     -46.759 -52.426  16.819  1.00  0.00     0.168 C 
HETATM   19  O   UNL     1     -46.061 -53.390  16.028  1.00  0.00    -0.376 OA
ENDBRANCH  12  15
ENDBRANCH   1  11
TORSDOF 5
ENDMDL
MODEL 5
REMARK VINA RESULT:      -5.0      3.984      5.290
REMARK  5 active torsions:
REMARK  status: ('A' for Active; 'I' for Inactive)
REMARK    1  A    between atoms: C_2  and  C_3 
REMARK    2  A    between atoms: C_7  and  C_8 
REMARK    3  A    between atoms: C_8  and  C_9 
REMARK    4  A    between atoms: C_9  and  N_10 
REMARK       I    between atoms: N_10  and  C_11 
REMARK    5  A    between atoms: C_11  and  C_13 
ROOT
HETATM    1  C   UNL     1     -41.433 -49.888  12.212  1.00  0.00     0.129 C 
ENDROOT
BRANCH   1   2
HETATM    2  C   UNL     1     -40.966 -51.324  11.964  1.00  0.00     0.084 C 
BRANCH   2   3
HETATM    3  C   UNL     1     -41.973 -52.339  12.408  1.00  0.00     0.052 A 
HETATM    4  N   UNL     1     -43.090 -52.635  11.778  1.00  0.00    -0.363 N 
HETATM    5  C   UNL     1     -43.800 -53.569  12.506  1.00  0.00     0.103 A 
ATOM      6  HN  UNL     1     -43.386 -52.234  10.888  1.00  0.00     0.165 HD
HETATM    7  C   UNL     1     -43.207 -53.997  13.676  1.00  0.00    -0.001 A 
HETATM    8  S   UNL     1     -41.700 -53.206  13.871  1.00  0.00    -0.080 SA
BRANCH   7   9
HETATM    9  C   UNL     1     -43.709 -54.972  14.688  1.00  0.00     0.043 C 
HETATM   10  C   UNL     1     -42.619 -55.386  15.665  1.00  0.00     0.010 C 
ENDBRANCH   7   9
ENDBRANCH   2   3
ENDBRANCH   1   2
BRANCH   1  11
HETATM   11  N   UNL     1     -42.170 -49.333  11.087  1.00  0.00    -0.358 N 
HETATM   12  C   UNL     1     -42.050 -48.001  10.742  1.00  0.00     0.246 C 
HETATM   13  O   UNL     1     -41.224 -47.246  11.242  1.00  0.00    -0.271 OA
HETATM   14  H   UNL     1     -43.051 -49.766  10.815  1.00  0.00     0.162 HD
BRANCH  12  15
HETATM   15  C   UNL     1     -42.976 -47.583   9.595  1.00  0.00     0.213 C 
HETATM   16  C   UNL     1     -42.843 -46.105   9.257  1.00  0.00     0.043 C 
HETATM   17  C   UNL     1     -44.256 -45.636   8.995  1.00  0.00     0.029 C 
HETATM   18  C   UNL     1     -45.100 -46.887   9.085  1.00  0.00     0.168 C 
HETATM   19  O   UNL     1     -44.361 -47.815   9.882  1.00  0.00    -0.376 OA
ENDBRANCH  12  15
ENDBRANCH   1  11
TORSDOF 5
ENDMDL
MODEL 6
REMARK VINA RESULT:      -4.9      4.736      6.059
REMARK  5 active torsions:
REMARK  status: ('A' for Active; 'I' for Inactive)
REMARK    1  A    between atoms: C_2  and  C_3 
REMARK    2  A    between atoms: C_7  and  C_8 
REMARK    3  A    between atoms: C_8  and  C_9 
REMARK    4  A    between atoms: C_9  and  N_10 
REMARK       I    between atoms: N_10  and  C_11 
REMARK    5  A    between atoms: C_11  and  C_13 
ROOT
HETATM    1  C   UNL     1     -42.080 -48.648  11.836  1.00  0.00     0.129 C 
ENDROOT
BRANCH   1   2
HETATM    2  C   UNL     1     -41.620 -48.055  10.502  1.00  0.00     0.084 C 
BRANCH   2   3
HETATM    3  C   UNL     1     -42.717 -47.326   9.790  1.00  0.00     0.052 A 
HETATM    4  N   UNL     1     -42.554 -46.302   8.980  1.00  0.00    -0.363 N 
HETATM    5  C   UNL     1     -43.787 -45.846   8.555  1.00  0.00     0.103 A 
ATOM      6  HN  UNL     1     -41.655 -45.905   8.708  1.00  0.00     0.165 HD
HETATM    7  C   UNL     1     -44.881 -46.542   9.027  1.00  0.00    -0.001 A 
HETATM    8  S   UNL     1     -44.349 -47.821  10.036  1.00  0.00    -0.080 SA
BRANCH   7   9
HETATM    9  C   UNL     1     -46.333 -46.303   8.778  1.00  0.00     0.043 C 
HETATM   10  C   UNL     1     -47.181 -47.503   9.171  1.00  0.00     0.010 C 
ENDBRANCH   7   9
ENDBRANCH   2   3
ENDBRANCH   1   2
BRANCH   1  11
HETATM   11  N   UNL     1     -42.135 -50.102  11.819  1.00  0.00    -0.358 N 
HETATM   12  C   UNL     1     -41.082 -50.862  12.288  1.00  0.00     0.246 C 
HETATM   13  O   UNL     1     -40.117 -50.388  12.877  1.00  0.00    -0.271 OA
HETATM   14  H   UNL     1     -42.717 -50.563  11.121  1.00  0.00     0.162 HD
BRANCH  12  15
HETATM   15  C   UNL     1     -41.285 -52.368  12.096  1.00  0.00     0.213 C 
HETATM   16  C   UNL     1     -42.601 -52.852  12.685  1.00  0.00     0.043 C 
HETATM   17  C   UNL     1     -42.275 -54.177  13.335  1.00  0.00     0.029 C 
HETATM   18  C   UNL     1     -40.826 -54.431  12.985  1.00  0.00     0.168 C 
HETATM   19  O   UNL     1     -40.251 -53.153  12.702  1.00  0.00    -0.376 OA
ENDBRANCH  12  15
ENDBRANCH   1  11
TORSDOF 5
ENDMDL
MODEL 7
REMARK VINA RESULT:      -4.9      4.849      7.180
REMARK  5 active torsions:
REMARK  status: ('A' for Active; 'I' for Inactive)
REMARK    1  A    between atoms: C_2  and  C_3 
REMARK    2  A    between atoms: C_7  and  C_8 
REMARK    3  A    between atoms: C_8  and  C_9 
REMARK    4  A    between atoms: C_9  and  N_10 
REMARK       I    between atoms: N_10  and  C_11 
REMARK    5  A    between atoms: C_11  and  C_13 
ROOT
HETATM    1  C   UNL     1     -42.317 -48.493  11.747  1.00  0.00     0.129 C 
ENDROOT
BRANCH   1   2
HETATM    2  C   UNL     1     -41.882 -47.901  10.405  1.00  0.00     0.084 C 
BRANCH   2   3
HETATM    3  C   UNL     1     -41.226 -46.563  10.554  1.00  0.00     0.052 A 
HETATM    4  N   UNL     1     -39.946 -46.315  10.377  1.00  0.00    -0.363 N 
HETATM    5  C   UNL     1     -39.688 -44.988  10.659  1.00  0.00     0.103 A 
ATOM      6  HN  UNL     1     -39.251 -46.998  10.078  1.00  0.00     0.165 HD
HETATM    7  C   UNL     1     -40.778 -44.227  11.026  1.00  0.00    -0.001 A 
HETATM    8  S   UNL     1     -42.184 -45.207  11.013  1.00  0.00    -0.080 SA
BRANCH   7   9
HETATM    9  C   UNL     1     -40.841 -42.785  11.408  1.00  0.00     0.043 C 
HETATM   10  C   UNL     1     -42.197 -42.174  11.094  1.00  0.00     0.010 C 
ENDBRANCH   7   9
ENDBRANCH   2   3
ENDBRANCH   1   2
BRANCH   1  11
HETATM   11  N   UNL     1     -42.306 -49.948  11.752  1.00  0.00    -0.358 N 
HETATM   12  C   UNL     1     -41.162 -50.653  12.069  1.00  0.00     0.246 C 
HETATM   13  O   UNL     1     -40.145 -50.127  12.506  1.00  0.00    -0.271 OA
HETATM   14  H   UNL     1     -42.962 -50.446  11.152  1.00  0.00     0.162 HD
BRANCH  12  15
HETATM   15  C   UNL     1     -41.321 -52.170  11.923  1.00  0.00     0.213 C 
HETATM   16  C   UNL     1     -42.638 -52.670  12.499  1.00  0.00     0.043 C 
HETATM   17  C   UNL     1     -42.291 -53.963  13.200  1.00  0.00     0.029 C 
HETATM   18  C   UNL     1     -40.829 -54.189  12.891  1.00  0.00     0.168 C 
HETATM   19  O   UNL     1     -40.281 -52.906  12.578  1.00  0.00    -0.376 OA
ENDBRANCH  12  15
ENDBRANCH   1  11
TORSDOF 5
ENDMDL
MODEL 8
REMARK VINA RESULT:      -4.8      3.306      6.707
REMARK  5 active torsions:
REMARK  status: ('A' for Active; 'I' for Inactive)
REMARK    1  A    between atoms: C_2  and  C_3 
REMARK    2  A    between atoms: C_7  and  C_8 
REMARK    3  A    between atoms: C_8  and  C_9 
REMARK    4  A    between atoms: C_9  and  N_10 
REMARK       I    between atoms: N_10  and  C_11 
REMARK    5  A    between atoms: C_11  and  C_13 
ROOT
HETATM    1  C   UNL     1     -41.623 -52.116  11.956  1.00  0.00     0.129 C 
ENDROOT
BRANCH   1   2
HETATM    2  C   UNL     1     -40.839 -51.012  12.670  1.00  0.00     0.084 C 
BRANCH   2   3
HETATM    3  C   UNL     1     -40.944 -49.691  11.971  1.00  0.00     0.052 A 
HETATM    4  N   UNL     1     -41.849 -49.373  11.070  1.00  0.00    -0.363 N 
HETATM    5  C   UNL     1     -41.604 -48.098  10.598  1.00  0.00     0.103 A 
ATOM      6  HN  UNL     1     -42.614 -49.976  10.767  1.00  0.00     0.165 HD
HETATM    7  C   UNL     1     -40.527 -47.445  11.161  1.00  0.00    -0.001 A 
HETATM    8  S   UNL     1     -39.795 -48.460  12.330  1.00  0.00    -0.080 SA
BRANCH   7   9
HETATM    9  C   UNL     1     -39.988 -46.084  10.867  1.00  0.00     0.043 C 
HETATM   10  C   UNL     1     -41.065 -45.015  10.967  1.00  0.00     0.010 C 
ENDBRANCH   7   9
ENDBRANCH   2   3
ENDBRANCH   1   2
BRANCH   1  11
HETATM   11  N   UNL     1     -43.043 -52.093  12.272  1.00  0.00    -0.358 N 
HETATM   12  C   UNL     1     -43.649 -53.152  12.918  1.00  0.00     0.246 C 
HETATM   13  O   UNL     1     -43.029 -54.095  13.395  1.00  0.00    -0.271 OA
HETATM   14  H   UNL     1     -43.666 -51.534  11.692  1.00  0.00     0.162 HD
BRANCH  12  15
HETATM   15  C   UNL     1     -45.164 -52.986  13.074  1.00  0.00     0.213 C 
HETATM   16  C   UNL     1     -45.575 -51.524  13.178  1.00  0.00     0.043 C 
HETATM   17  C   UNL     1     -46.654 -51.497  14.235  1.00  0.00     0.029 C 
HETATM   18  C   UNL     1     -46.880 -52.948  14.594  1.00  0.00     0.168 C 
HETATM   19  O   UNL     1     -45.681 -53.641  14.238  1.00  0.00    -0.376 OA
ENDBRANCH  12  15
ENDBRANCH   1  11
TORSDOF 5
ENDMDL
MODEL 9
REMARK VINA RESULT:      -4.8      2.105      2.883
REMARK  5 active torsions:
REMARK  status: ('A' for Active; 'I' for Inactive)
REMARK    1  A    between atoms: C_2  and  C_3 
REMARK    2  A    between atoms: C_7  and  C_8 
REMARK    3  A    between atoms: C_8  and  C_9 
REMARK    4  A    between atoms: C_9  and  N_10 
REMARK       I    between atoms: N_10  and  C_11 
REMARK    5  A    between atoms: C_11  and  C_13 
ROOT
HETATM    1  C   UNL     1     -40.781 -52.688  11.859  1.00  0.00     0.129 C 
ENDROOT
BRANCH   1   2
HETATM    2  C   UNL     1     -41.456 -52.994  13.198  1.00  0.00     0.084 C 
BRANCH   2   3
HETATM    3  C   UNL     1     -42.946 -52.862  13.133  1.00  0.00     0.052 A 
HETATM    4  N   UNL     1     -43.743 -53.569  12.359  1.00  0.00    -0.363 N 
HETATM    5  C   UNL     1     -45.045 -53.135  12.517  1.00  0.00     0.103 A 
ATOM      6  HN  UNL     1     -43.445 -54.321  11.739  1.00  0.00     0.165 HD
HETATM    7  C   UNL     1     -45.234 -52.116  13.426  1.00  0.00    -0.001 A 
HETATM    8  S   UNL     1     -43.727 -51.685  14.119  1.00  0.00    -0.080 SA
BRANCH   7   9
HETATM    9  C   UNL     1     -46.495 -51.416  13.814  1.00  0.00     0.043 C 
HETATM   10  C   UNL     1     -47.001 -51.873  15.173  1.00  0.00     0.010 C 
ENDBRANCH   7   9
ENDBRANCH   2   3
ENDBRANCH   1   2
BRANCH   1  11
HETATM   11  N   UNL     1     -41.146 -51.383  11.329  1.00  0.00    -0.358 N 
HETATM   12  C   UNL     1     -40.394 -50.261  11.614  1.00  0.00     0.246 C 
HETATM   13  O   UNL     1     -39.313 -50.301  12.189  1.00  0.00    -0.271 OA
HETATM   14  H   UNL     1     -42.123 -51.199  11.110  1.00  0.00     0.162 HD
BRANCH  12  15
HETATM   15  C   UNL     1     -40.991 -48.968  11.049  1.00  0.00     0.213 C 
HETATM   16  C   UNL     1     -40.270 -47.729  11.559  1.00  0.00     0.043 C 
HETATM   17  C   UNL     1     -41.364 -46.721  11.825  1.00  0.00     0.029 C 
HETATM   18  C   UNL     1     -42.632 -47.394  11.349  1.00  0.00     0.168 C 
HETATM   19  O   UNL     1     -42.376 -48.801  11.378  1.00  0.00    -0.376 OA
ENDBRANCH  12  15
ENDBRANCH   1  11
TORSDOF 5
ENDMDL
