MODEL 1
REMARK VINA RESULT:      -6.8      0.000      0.000
REMARK  5 active torsions:
REMARK  status: ('A' for Active; 'I' for Inactive)
REMARK    1  A    between atoms: S_2  and  N_5 
REMARK    2  A    between atoms: N_5  and  C_6 
REMARK       I    between atoms: N_10  and  C_12 
REMARK       I    between atoms: C_12  and  N_14 
REMARK    3  A    between atoms: N_14  and  C_15 
REMARK    4  A    between atoms: C_15  and  C_16 
REMARK    5  A    between atoms: C_16  and  C_17 
ROOT
HETATM    1  C   UNL     1     -42.426 -46.984  10.936  1.00  0.00     0.089 C 
HETATM    2  C   UNL     1     -41.228 -46.009  10.962  1.00  0.00     0.024 C 
HETATM    3  C   UNL     1     -39.882 -46.734  11.113  1.00  0.00     0.022 C 
HETATM    4  C   UNL     1     -39.889 -47.720  12.281  1.00  0.00     0.127 C 
HETATM    5  N   UNL     1     -41.053 -48.595  12.216  1.00  0.00    -0.333 N 
HETATM    6  C   UNL     1     -42.338 -47.889  12.180  1.00  0.00     0.148 C 
HETATM    7  C   UNL     1     -40.866 -49.961  12.101  1.00  0.00     0.318 C 
HETATM    8  O   UNL     1     -39.752 -50.479  12.059  1.00  0.00    -0.247 OA
HETATM    9  N   UNL     1     -42.013 -50.706  12.084  1.00  0.00    -0.343 N 
HETATM   10  H   UNL     1     -42.773 -50.277  11.565  1.00  0.00     0.164 HD
ENDROOT
BRANCH   9  11
HETATM   11  C   UNL     1     -41.990 -52.145  11.900  1.00  0.00     0.130 C 
BRANCH  11  12
HETATM   12  C   UNL     1     -42.661 -52.910  13.036  1.00  0.00     0.076 C 
BRANCH  12  13
HETATM   13  C   UNL     1     -44.079 -52.444  13.225  1.00  0.00     0.010 A 
HETATM   14  C   UNL     1     -44.442 -51.759  14.382  1.00  0.00     0.025 A 
HETATM   15  C   UNL     1     -45.756 -51.325  14.518  1.00  0.00     0.003 A 
HETATM   16  C   UNL     1     -46.670 -51.587  13.504  1.00  0.00     0.017 A 
HETATM   17  C   UNL     1     -46.227 -52.276  12.389  1.00  0.00     0.088 A 
HETATM   18  N   UNL     1     -44.959 -52.706  12.227  1.00  0.00    -0.369 N 
ATOM     19  HN  UNL     1     -44.673 -53.208  11.387  1.00  0.00     0.165 HD
ENDBRANCH  12  13
ENDBRANCH  11  12
ENDBRANCH   9  11
BRANCH   1  20
HETATM   20  N   UNL     1     -42.381 -47.727   9.626  1.00  0.00    -0.214 NA
HETATM   21  H   UNL     1     -41.435 -47.685   9.245  1.00  0.00     0.140 HD
BRANCH  20  22
HETATM   22  S   UNL     1     -43.458 -47.227   8.421  1.00  0.00     0.206 S 
HETATM   23  C   UNL     1     -45.026 -47.474   9.231  1.00  0.00     0.179 C 
HETATM   24  O   UNL     1     -43.331 -48.177   7.344  1.00  0.00    -0.212 OA
HETATM   25  O   UNL     1     -43.277 -45.808   8.198  1.00  0.00    -0.212 OA
ENDBRANCH  20  22
ENDBRANCH   1  20
TORSDOF 5
ENDMDL
MODEL 2
REMARK VINA RESULT:      -6.5      1.659      1.975
REMARK  5 active torsions:
REMARK  status: ('A' for Active; 'I' for Inactive)
REMARK    1  A    between atoms: S_2  and  N_5 
REMARK    2  A    between atoms: N_5  and  C_6 
REMARK       I    between atoms: N_10  and  C_12 
REMARK       I    between atoms: C_12  and  N_14 
REMARK    3  A    between atoms: N_14  and  C_15 
REMARK    4  A    between atoms: C_15  and  C_16 
REMARK    5  A    between atoms: C_16  and  C_17 
ROOT
HETATM    1  C   UNL     1     -42.496 -47.046  11.212  1.00  0.00     0.089 C 
HETATM    2  C   UNL     1     -41.454 -45.907  11.148  1.00  0.00     0.024 C 
HETATM    3  C   UNL     1     -40.016 -46.431  11.022  1.00  0.00     0.022 C 
HETATM    4  C   UNL     1     -39.695 -47.490  12.077  1.00  0.00     0.127 C 
HETATM    5  N   UNL     1     -40.724 -48.522  12.106  1.00  0.00    -0.333 N 
HETATM    6  C   UNL     1     -42.082 -48.016  12.336  1.00  0.00     0.148 C 
HETATM    7  C   UNL     1     -40.374 -49.833  11.833  1.00  0.00     0.318 C 
HETATM    8  O   UNL     1     -39.222 -50.173  11.572  1.00  0.00    -0.247 OA
HETATM    9  N   UNL     1     -41.396 -50.738  11.920  1.00  0.00    -0.343 N 
HETATM   10  H   UNL     1     -42.282 -50.391  11.567  1.00  0.00     0.164 HD
ENDROOT
BRANCH   9  11
HETATM   11  C   UNL     1     -41.207 -52.140  11.597  1.00  0.00     0.130 C 
BRANCH  11  12
HETATM   12  C   UNL     1     -40.992 -53.019  12.824  1.00  0.00     0.076 C 
BRANCH  12  13
HETATM   13  C   UNL     1     -42.280 -53.678  13.238  1.00  0.00     0.010 A 
HETATM   14  C   UNL     1     -42.332 -54.447  14.398  1.00  0.00     0.025 A 
HETATM   15  C   UNL     1     -43.542 -55.027  14.763  1.00  0.00     0.003 A 
HETATM   16  C   UNL     1     -44.662 -54.829  13.964  1.00  0.00     0.017 A 
HETATM   17  C   UNL     1     -44.524 -54.053  12.828  1.00  0.00     0.088 A 
HETATM   18  N   UNL     1     -43.365 -53.475  12.450  1.00  0.00    -0.369 N 
ATOM     19  HN  UNL     1     -43.307 -52.907  11.605  1.00  0.00     0.165 HD
ENDBRANCH  12  13
ENDBRANCH  11  12
ENDBRANCH   9  11
BRANCH   1  20
HETATM   20  N   UNL     1     -42.567 -47.676   9.846  1.00  0.00    -0.214 NA
HETATM   21  H   UNL     1     -41.661 -47.587   9.384  1.00  0.00     0.140 HD
BRANCH  20  22
HETATM   22  S   UNL     1     -43.756 -47.094   8.791  1.00  0.00     0.206 S 
HETATM   23  C   UNL     1     -43.476 -48.113   7.356  1.00  0.00     0.179 C 
HETATM   24  O   UNL     1     -43.393 -45.735   8.480  1.00  0.00    -0.212 OA
HETATM   25  O   UNL     1     -45.057 -47.420   9.337  1.00  0.00    -0.212 OA
ENDBRANCH  20  22
ENDBRANCH   1  20
TORSDOF 5
ENDMDL
MODEL 3
REMARK VINA RESULT:      -6.3      2.921      6.096
REMARK  5 active torsions:
REMARK  status: ('A' for Active; 'I' for Inactive)
REMARK    1  A    between atoms: S_2  and  N_5 
REMARK    2  A    between atoms: N_5  and  C_6 
REMARK       I    between atoms: N_10  and  C_12 
REMARK       I    between atoms: C_12  and  N_14 
REMARK    3  A    between atoms: N_14  and  C_15 
REMARK    4  A    between atoms: C_15  and  C_16 
REMARK    5  A    between atoms: C_16  and  C_17 
ROOT
HETATM    1  C   UNL     1     -43.623 -53.112  13.895  1.00  0.00     0.089 C 
HETATM    2  C   UNL     1     -42.991 -54.401  14.463  1.00  0.00     0.024 C 
HETATM    3  C   UNL     1     -41.458 -54.401  14.359  1.00  0.00     0.022 C 
HETATM    4  C   UNL     1     -40.978 -54.058  12.949  1.00  0.00     0.127 C 
HETATM    5  N   UNL     1     -41.627 -52.849  12.458  1.00  0.00    -0.333 N 
HETATM    6  C   UNL     1     -43.093 -52.905  12.463  1.00  0.00     0.148 C 
HETATM    7  C   UNL     1     -40.850 -51.752  12.129  1.00  0.00     0.318 C 
HETATM    8  O   UNL     1     -39.625 -51.751  12.225  1.00  0.00    -0.247 OA
HETATM    9  N   UNL     1     -41.541 -50.675  11.643  1.00  0.00    -0.343 N 
HETATM   10  H   UNL     1     -42.431 -50.516  12.105  1.00  0.00     0.164 HD
ENDROOT
BRANCH   9  11
HETATM   11  C   UNL     1     -40.880 -49.425  11.318  1.00  0.00     0.130 C 
BRANCH  11  12
HETATM   12  C   UNL     1     -41.732 -48.196  11.619  1.00  0.00     0.076 C 
BRANCH  12  13
HETATM   13  C   UNL     1     -42.740 -47.969  10.525  1.00  0.00     0.010 A 
HETATM   14  C   UNL     1     -44.061 -47.659  10.844  1.00  0.00     0.025 A 
HETATM   15  C   UNL     1     -44.964 -47.436   9.811  1.00  0.00     0.003 A 
HETATM   16  C   UNL     1     -44.531 -47.530   8.494  1.00  0.00     0.017 A 
HETATM   17  C   UNL     1     -43.204 -47.844   8.264  1.00  0.00     0.088 A 
HETATM   18  N   UNL     1     -42.304 -48.063   9.245  1.00  0.00    -0.369 N 
ATOM     19  HN  UNL     1     -41.332 -48.289   9.032  1.00  0.00     0.165 HD
ENDBRANCH  12  13
ENDBRANCH  11  12
ENDBRANCH   9  11
BRANCH   1  20
HETATM   20  N   UNL     1     -43.298 -51.988  14.843  1.00  0.00    -0.214 NA
HETATM   21  H   UNL     1     -43.350 -52.330  15.804  1.00  0.00     0.140 HD
BRANCH  20  22
HETATM   22  S   UNL     1     -44.241 -50.587  14.730  1.00  0.00     0.206 S 
HETATM   23  C   UNL     1     -45.878 -51.280  14.594  1.00  0.00     0.179 C 
HETATM   24  O   UNL     1     -43.890 -49.963  13.479  1.00  0.00    -0.212 OA
HETATM   25  O   UNL     1     -44.151 -49.867  15.982  1.00  0.00    -0.212 OA
ENDBRANCH  20  22
ENDBRANCH   1  20
TORSDOF 5
ENDMDL
MODEL 4
REMARK VINA RESULT:      -6.2      1.859      2.673
REMARK  5 active torsions:
REMARK  status: ('A' for Active; 'I' for Inactive)
REMARK    1  A    between atoms: S_2  and  N_5 
REMARK    2  A    between atoms: N_5  and  C_6 
REMARK       I    between atoms: N_10  and  C_12 
REMARK       I    between atoms: C_12  and  N_14 
REMARK    3  A    between atoms: N_14  and  C_15 
REMARK    4  A    between atoms: C_15  and  C_16 
REMARK    5  A    between atoms: C_16  and  C_17 
ROOT
HETATM    1  C   UNL     1     -40.543 -48.573  12.071  1.00  0.00     0.089 C 
HETATM    2  C   UNL     1     -39.013 -48.552  11.864  1.00  0.00     0.024 C 
HETATM    3  C   UNL     1     -38.442 -49.941  11.543  1.00  0.00     0.022 C 
HETATM    4  C   UNL     1     -38.905 -50.998  12.544  1.00  0.00     0.127 C 
HETATM    5  N   UNL     1     -40.352 -50.954  12.716  1.00  0.00    -0.333 N 
HETATM    6  C   UNL     1     -40.872 -49.645  13.129  1.00  0.00     0.148 C 
HETATM    7  C   UNL     1     -41.105 -52.071  12.398  1.00  0.00     0.318 C 
HETATM    8  O   UNL     1     -40.605 -53.113  11.982  1.00  0.00    -0.247 OA
HETATM    9  N   UNL     1     -42.448 -51.950  12.625  1.00  0.00    -0.343 N 
HETATM   10  H   UNL     1     -42.823 -51.035  12.397  1.00  0.00     0.164 HD
ENDROOT
BRANCH   9  11
HETATM   11  C   UNL     1     -43.381 -53.007  12.280  1.00  0.00     0.130 C 
BRANCH  11  12
HETATM   12  C   UNL     1     -43.942 -53.738  13.496  1.00  0.00     0.076 C 
BRANCH  12  13
HETATM   13  C   UNL     1     -44.943 -52.877  14.218  1.00  0.00     0.010 A 
HETATM   14  C   UNL     1     -45.908 -52.173  13.500  1.00  0.00     0.025 A 
HETATM   15  C   UNL     1     -46.830 -51.401  14.198  1.00  0.00     0.003 A 
HETATM   16  C   UNL     1     -46.764 -51.347  15.585  1.00  0.00     0.017 A 
HETATM   17  C   UNL     1     -45.773 -52.074  16.220  1.00  0.00     0.088 A 
HETATM   18  N   UNL     1     -44.867 -52.834  15.571  1.00  0.00    -0.369 N 
ATOM     19  HN  UNL     1     -44.154 -53.357  16.078  1.00  0.00     0.165 HD
ENDBRANCH  12  13
ENDBRANCH  11  12
ENDBRANCH   9  11
BRANCH   1  20
HETATM   20  N   UNL     1     -41.181 -48.812  10.728  1.00  0.00    -0.214 NA
HETATM   21  H   UNL     1     -40.464 -48.786  10.003  1.00  0.00     0.140 HD
BRANCH  20  22
HETATM   22  S   UNL     1     -42.431 -47.766  10.273  1.00  0.00     0.206 S 
HETATM   23  C   UNL     1     -41.632 -46.181  10.430  1.00  0.00     0.179 C 
HETATM   24  O   UNL     1     -43.448 -47.883  11.287  1.00  0.00    -0.212 OA
HETATM   25  O   UNL     1     -42.734 -47.989   8.874  1.00  0.00    -0.212 OA
ENDBRANCH  20  22
ENDBRANCH   1  20
TORSDOF 5
ENDMDL
MODEL 5
REMARK VINA RESULT:      -6.2      3.088      6.627
REMARK  5 active torsions:
REMARK  status: ('A' for Active; 'I' for Inactive)
REMARK    1  A    between atoms: S_2  and  N_5 
REMARK    2  A    between atoms: N_5  and  C_6 
REMARK       I    between atoms: N_10  and  C_12 
REMARK       I    between atoms: C_12  and  N_14 
REMARK    3  A    between atoms: N_14  and  C_15 
REMARK    4  A    between atoms: C_15  and  C_16 
REMARK    5  A    between atoms: C_16  and  C_17 
ROOT
HETATM    1  C   UNL     1     -41.584 -53.533  12.876  1.00  0.00     0.089 C 
HETATM    2  C   UNL     1     -40.284 -53.885  13.632  1.00  0.00     0.024 C 
HETATM    3  C   UNL     1     -39.577 -52.645  14.197  1.00  0.00     0.022 C 
HETATM    4  C   UNL     1     -39.389 -51.558  13.139  1.00  0.00     0.127 C 
HETATM    5  N   UNL     1     -40.641 -51.288  12.444  1.00  0.00    -0.333 N 
HETATM    6  C   UNL     1     -41.251 -52.465  11.816  1.00  0.00     0.148 C 
HETATM    7  C   UNL     1     -41.187 -50.017  12.505  1.00  0.00     0.318 C 
HETATM    8  O   UNL     1     -40.656 -49.094  13.118  1.00  0.00    -0.247 OA
HETATM    9  N   UNL     1     -42.343 -49.846  11.793  1.00  0.00    -0.343 N 
HETATM   10  H   UNL     1     -42.970 -50.643  11.831  1.00  0.00     0.164 HD
ENDROOT
BRANCH   9  11
HETATM   11  C   UNL     1     -43.075 -48.593  11.811  1.00  0.00     0.130 C 
BRANCH  11  12
HETATM   12  C   UNL     1     -42.958 -47.807  10.510  1.00  0.00     0.076 C 
BRANCH  12  13
HETATM   13  C   UNL     1     -41.987 -46.668  10.664  1.00  0.00     0.010 A 
HETATM   14  C   UNL     1     -42.453 -45.380  10.918  1.00  0.00     0.025 A 
HETATM   15  C   UNL     1     -41.529 -44.352  11.074  1.00  0.00     0.003 A 
HETATM   16  C   UNL     1     -40.171 -44.633  10.969  1.00  0.00     0.017 A 
HETATM   17  C   UNL     1     -39.794 -45.939  10.713  1.00  0.00     0.088 A 
HETATM   18  N   UNL     1     -40.666 -46.957  10.560  1.00  0.00    -0.369 N 
ATOM     19  HN  UNL     1     -40.345 -47.907  10.375  1.00  0.00     0.165 HD
ENDBRANCH  12  13
ENDBRANCH  11  12
ENDBRANCH   9  11
BRANCH   1  20
HETATM   20  N   UNL     1     -42.602 -53.096  13.897  1.00  0.00    -0.214 NA
HETATM   21  H   UNL     1     -42.567 -53.725  14.700  1.00  0.00     0.140 HD
BRANCH  20  22
HETATM   22  S   UNL     1     -44.210 -52.983  13.382  1.00  0.00     0.206 S 
HETATM   23  C   UNL     1     -45.084 -53.414  14.874  1.00  0.00     0.179 C 
HETATM   24  O   UNL     1     -44.398 -54.029  12.408  1.00  0.00    -0.212 OA
HETATM   25  O   UNL     1     -44.498 -51.600  13.066  1.00  0.00    -0.212 OA
ENDBRANCH  20  22
ENDBRANCH   1  20
TORSDOF 5
ENDMDL
MODEL 6
REMARK VINA RESULT:      -6.0      3.026      6.048
REMARK  5 active torsions:
REMARK  status: ('A' for Active; 'I' for Inactive)
REMARK    1  A    between atoms: S_2  and  N_5 
REMARK    2  A    between atoms: N_5  and  C_6 
REMARK       I    between atoms: N_10  and  C_12 
REMARK       I    between atoms: C_12  and  N_14 
REMARK    3  A    between atoms: N_14  and  C_15 
REMARK    4  A    between atoms: C_15  and  C_16 
REMARK    5  A    between atoms: C_16  and  C_17 
ROOT
HETATM    1  C   UNL     1     -42.614 -53.179  12.679  1.00  0.00     0.089 C 
HETATM    2  C   UNL     1     -41.945 -53.864  13.890  1.00  0.00     0.024 C 
HETATM    3  C   UNL     1     -40.944 -52.946  14.607  1.00  0.00     0.022 C 
HETATM    4  C   UNL     1     -39.946 -52.315  13.637  1.00  0.00     0.127 C 
HETATM    5  N   UNL     1     -40.634 -51.707  12.505  1.00  0.00    -0.333 N 
HETATM    6  C   UNL     1     -41.505 -52.626  11.763  1.00  0.00     0.148 C 
HETATM    7  C   UNL     1     -40.497 -50.348  12.280  1.00  0.00     0.318 C 
HETATM    8  O   UNL     1     -39.807 -49.623  12.993  1.00  0.00    -0.247 OA
HETATM    9  N   UNL     1     -41.148 -49.873  11.175  1.00  0.00    -0.343 N 
HETATM   10  H   UNL     1     -42.056 -50.298  11.019  1.00  0.00     0.164 HD
ENDROOT
BRANCH   9  11
HETATM   11  C   UNL     1     -41.159 -48.461  10.841  1.00  0.00     0.130 C 
BRANCH  11  12
HETATM   12  C   UNL     1     -42.252 -47.678  11.561  1.00  0.00     0.076 C 
BRANCH  12  13
HETATM   13  C   UNL     1     -43.296 -47.206  10.586  1.00  0.00     0.010 A 
HETATM   14  C   UNL     1     -43.117 -46.010   9.894  1.00  0.00     0.025 A 
HETATM   15  C   UNL     1     -44.091 -45.610   8.986  1.00  0.00     0.003 A 
HETATM   16  C   UNL     1     -45.215 -46.406   8.795  1.00  0.00     0.017 A 
HETATM   17  C   UNL     1     -45.315 -47.577   9.525  1.00  0.00     0.088 A 
HETATM   18  N   UNL     1     -44.386 -47.993  10.410  1.00  0.00    -0.369 N 
ATOM     19  HN  UNL     1     -44.498 -48.865  10.926  1.00  0.00     0.165 HD
ENDBRANCH  12  13
ENDBRANCH  11  12
ENDBRANCH   9  11
BRANCH   1  20
HETATM   20  N   UNL     1     -43.557 -52.132  13.211  1.00  0.00    -0.214 NA
HETATM   21  H   UNL     1     -43.280 -51.877  14.159  1.00  0.00     0.140 HD
BRANCH  20  22
HETATM   22  S   UNL     1     -45.205 -52.517  13.228  1.00  0.00     0.206 S 
HETATM   23  C   UNL     1     -45.459 -52.883  14.954  1.00  0.00     0.179 C 
HETATM   24  O   UNL     1     -45.346 -53.731  12.465  1.00  0.00    -0.212 OA
HETATM   25  O   UNL     1     -45.961 -51.327  12.896  1.00  0.00    -0.212 OA
ENDBRANCH  20  22
ENDBRANCH   1  20
TORSDOF 5
ENDMDL
MODEL 7
REMARK VINA RESULT:      -5.9      2.990      6.782
REMARK  5 active torsions:
REMARK  status: ('A' for Active; 'I' for Inactive)
REMARK    1  A    between atoms: S_2  and  N_5 
REMARK    2  A    between atoms: N_5  and  C_6 
REMARK       I    between atoms: N_10  and  C_12 
REMARK       I    between atoms: C_12  and  N_14 
REMARK    3  A    between atoms: N_14  and  C_15 
REMARK    4  A    between atoms: C_15  and  C_16 
REMARK    5  A    between atoms: C_16  and  C_17 
ROOT
HETATM    1  C   UNL     1     -43.652 -53.287  13.821  1.00  0.00     0.089 C 
HETATM    2  C   UNL     1     -43.090 -54.559  14.493  1.00  0.00     0.024 C 
HETATM    3  C   UNL     1     -41.555 -54.569  14.541  1.00  0.00     0.022 C 
HETATM    4  C   UNL     1     -40.935 -54.279  13.175  1.00  0.00     0.127 C 
HETATM    5  N   UNL     1     -41.522 -53.085  12.581  1.00  0.00    -0.333 N 
HETATM    6  C   UNL     1     -42.981 -53.134  12.441  1.00  0.00     0.148 C 
HETATM    7  C   UNL     1     -40.707 -52.003  12.292  1.00  0.00     0.318 C 
HETATM    8  O   UNL     1     -39.498 -52.006  12.509  1.00  0.00    -0.247 OA
HETATM    9  N   UNL     1     -41.337 -50.942  11.703  1.00  0.00    -0.343 N 
HETATM   10  H   UNL     1     -42.267 -50.762  12.069  1.00  0.00     0.164 HD
ENDROOT
BRANCH   9  11
HETATM   11  C   UNL     1     -40.637 -49.707  11.402  1.00  0.00     0.130 C 
BRANCH  11  12
HETATM   12  C   UNL     1     -41.571 -48.554  11.049  1.00  0.00     0.076 C 
BRANCH  12  13
HETATM   13  C   UNL     1     -40.888 -47.232  11.265  1.00  0.00     0.010 A 
HETATM   14  C   UNL     1     -40.375 -46.906  12.519  1.00  0.00     0.025 A 
HETATM   15  C   UNL     1     -39.731 -45.684  12.682  1.00  0.00     0.003 A 
HETATM   16  C   UNL     1     -39.621 -44.821  11.598  1.00  0.00     0.017 A 
HETATM   17  C   UNL     1     -40.160 -45.221  10.388  1.00  0.00     0.088 A 
HETATM   18  N   UNL     1     -40.786 -46.401  10.199  1.00  0.00    -0.369 N 
ATOM     19  HN  UNL     1     -41.167 -46.658   9.288  1.00  0.00     0.165 HD
ENDBRANCH  12  13
ENDBRANCH  11  12
ENDBRANCH   9  11
BRANCH   1  20
HETATM   20  N   UNL     1     -43.413 -52.132  14.757  1.00  0.00    -0.214 NA
HETATM   21  H   UNL     1     -43.521 -52.450  15.721  1.00  0.00     0.140 HD
BRANCH  20  22
HETATM   22  S   UNL     1     -44.375 -50.756  14.544  1.00  0.00     0.206 S 
HETATM   23  C   UNL     1     -45.882 -51.478  13.923  1.00  0.00     0.179 C 
HETATM   24  O   UNL     1     -43.756 -49.986  13.495  1.00  0.00    -0.212 OA
HETATM   25  O   UNL     1     -44.647 -50.177  15.843  1.00  0.00    -0.212 OA
ENDBRANCH  20  22
ENDBRANCH   1  20
TORSDOF 5
ENDMDL
MODEL 8
REMARK VINA RESULT:      -5.7      2.621      3.419
REMARK  5 active torsions:
REMARK  status: ('A' for Active; 'I' for Inactive)
REMARK    1  A    between atoms: S_2  and  N_5 
REMARK    2  A    between atoms: N_5  and  C_6 
REMARK       I    between atoms: N_10  and  C_12 
REMARK       I    between atoms: C_12  and  N_14 
REMARK    3  A    between atoms: N_14  and  C_15 
REMARK    4  A    between atoms: C_15  and  C_16 
REMARK    5  A    between atoms: C_16  and  C_17 
ROOT
HETATM    1  C   UNL     1     -39.727 -48.950  13.332  1.00  0.00     0.089 C 
HETATM    2  C   UNL     1     -38.331 -48.839  12.681  1.00  0.00     0.024 C 
HETATM    3  C   UNL     1     -37.807 -50.192  12.175  1.00  0.00     0.022 C 
HETATM    4  C   UNL     1     -37.893 -51.278  13.246  1.00  0.00     0.127 C 
HETATM    5  N   UNL     1     -39.224 -51.318  13.840  1.00  0.00    -0.333 N 
HETATM    6  C   UNL     1     -39.667 -50.044  14.417  1.00  0.00     0.148 C 
HETATM    7  C   UNL     1     -39.975 -52.476  13.738  1.00  0.00     0.318 C 
HETATM    8  O   UNL     1     -39.567 -53.486  13.170  1.00  0.00    -0.247 OA
HETATM    9  N   UNL     1     -41.195 -52.434  14.356  1.00  0.00    -0.343 N 
HETATM   10  H   UNL     1     -41.669 -51.541  14.268  1.00  0.00     0.164 HD
ENDROOT
BRANCH   9  11
HETATM   11  C   UNL     1     -42.130 -53.542  14.282  1.00  0.00     0.130 C 
BRANCH  11  12
HETATM   12  C   UNL     1     -43.067 -53.461  13.082  1.00  0.00     0.076 C 
BRANCH  12  13
HETATM   13  C   UNL     1     -44.351 -52.772  13.456  1.00  0.00     0.010 A 
HETATM   14  C   UNL     1     -44.779 -52.762  14.782  1.00  0.00     0.025 A 
HETATM   15  C   UNL     1     -45.960 -52.100  15.099  1.00  0.00     0.003 A 
HETATM   16  C   UNL     1     -46.683 -51.473  14.091  1.00  0.00     0.017 A 
HETATM   17  C   UNL     1     -46.188 -51.532  12.800  1.00  0.00     0.088 A 
HETATM   18  N   UNL     1     -45.044 -52.163  12.463  1.00  0.00    -0.369 N 
ATOM     19  HN  UNL     1     -44.714 -52.181  11.498  1.00  0.00     0.165 HD
ENDBRANCH  12  13
ENDBRANCH  11  12
ENDBRANCH   9  11
BRANCH   1  20
HETATM   20  N   UNL     1     -40.722 -49.220  12.235  1.00  0.00    -0.214 NA
HETATM   21  H   UNL     1     -40.426 -48.741  11.384  1.00  0.00     0.140 HD
BRANCH  20  22
HETATM   22  S   UNL     1     -42.335 -48.808  12.540  1.00  0.00     0.206 S 
HETATM   23  C   UNL     1     -42.137 -47.405  13.621  1.00  0.00     0.179 C 
HETATM   24  O   UNL     1     -42.899 -49.903  13.288  1.00  0.00    -0.212 OA
HETATM   25  O   UNL     1     -42.936 -48.352  11.304  1.00  0.00    -0.212 OA
ENDBRANCH  20  22
ENDBRANCH   1  20
TORSDOF 5
ENDMDL
MODEL 9
REMARK VINA RESULT:      -5.6      2.699      3.285
REMARK  5 active torsions:
REMARK  status: ('A' for Active; 'I' for Inactive)
REMARK    1  A    between atoms: S_2  and  N_5 
REMARK    2  A    between atoms: N_5  and  C_6 
REMARK       I    between atoms: N_10  and  C_12 
REMARK       I    between atoms: C_12  and  N_14 
REMARK    3  A    between atoms: N_14  and  C_15 
REMARK    4  A    between atoms: C_15  and  C_16 
REMARK    5  A    between atoms: C_16  and  C_17 
ROOT
HETATM    1  C   UNL     1     -39.919 -47.604  13.907  1.00  0.00     0.089 C 
HETATM    2  C   UNL     1     -38.537 -47.069  14.341  1.00  0.00     0.024 C 
HETATM    3  C   UNL     1     -37.404 -48.065  14.055  1.00  0.00     0.022 C 
HETATM    4  C   UNL     1     -37.713 -49.460  14.598  1.00  0.00     0.127 C 
HETATM    5  N   UNL     1     -39.037 -49.899  14.176  1.00  0.00    -0.333 N 
HETATM    6  C   UNL     1     -40.125 -48.989  14.552  1.00  0.00     0.148 C 
HETATM    7  C   UNL     1     -39.156 -51.043  13.405  1.00  0.00     0.318 C 
HETATM    8  O   UNL     1     -38.188 -51.717  13.062  1.00  0.00    -0.247 OA
HETATM    9  N   UNL     1     -40.438 -51.399  13.087  1.00  0.00    -0.343 N 
HETATM   10  H   UNL     1     -41.043 -50.612  12.880  1.00  0.00     0.164 HD
ENDROOT
BRANCH   9  11
HETATM   11  C   UNL     1     -40.727 -52.533  12.229  1.00  0.00     0.130 C 
BRANCH  11  12
HETATM   12  C   UNL     1     -40.942 -53.832  12.996  1.00  0.00     0.076 C 
BRANCH  12  13
HETATM   13  C   UNL     1     -42.405 -54.048  13.277  1.00  0.00     0.010 A 
HETATM   14  C   UNL     1     -42.805 -54.730  14.423  1.00  0.00     0.025 A 
HETATM   15  C   UNL     1     -44.164 -54.896  14.663  1.00  0.00     0.003 A 
HETATM   16  C   UNL     1     -45.085 -54.384  13.757  1.00  0.00     0.017 A 
HETATM   17  C   UNL     1     -44.603 -53.721  12.642  1.00  0.00     0.088 A 
HETATM   18  N   UNL     1     -43.291 -53.542  12.384  1.00  0.00    -0.369 N 
ATOM     19  HN  UNL     1     -42.979 -53.044  11.551  1.00  0.00     0.165 HD
ENDBRANCH  12  13
ENDBRANCH  11  12
ENDBRANCH   9  11
BRANCH   1  20
HETATM   20  N   UNL     1     -39.953 -47.612  12.401  1.00  0.00    -0.214 NA
HETATM   21  H   UNL     1     -39.265 -46.948  12.044  1.00  0.00     0.140 HD
BRANCH  20  22
HETATM   22  S   UNL     1     -41.439 -47.281  11.662  1.00  0.00     0.206 S 
HETATM   23  C   UNL     1     -42.272 -46.372  12.949  1.00  0.00     0.179 C 
HETATM   24  O   UNL     1     -42.095 -48.551  11.484  1.00  0.00    -0.212 OA
HETATM   25  O   UNL     1     -41.211 -46.387  10.545  1.00  0.00    -0.212 OA
ENDBRANCH  20  22
ENDBRANCH   1  20
TORSDOF 5
ENDMDL
