MODEL 1
REMARK VINA RESULT:      -6.8      0.000      0.000
REMARK  3 active torsions:
REMARK  status: ('A' for Active; 'I' for Inactive)
REMARK    1  A    between atoms: C_4  and  N_5 
REMARK       I    between atoms: N_5  and  C_6 
REMARK       I    between atoms: C_6  and  N_8 
REMARK    2  A    between atoms: N_8  and  C_9 
REMARK    3  A    between atoms: C_9  and  C_10 
ROOT
HETATM    1  N   UNL     1     -41.466 -47.773  10.248  1.00  0.00    -0.293 N 
HETATM    2  C   UNL     1     -40.981 -48.739  11.088  1.00  0.00     0.321 C 
HETATM    3  O   UNL     1     -39.847 -48.651  11.550  1.00  0.00    -0.247 OA
HETATM    4  N   UNL     1     -41.821 -49.773  11.363  1.00  0.00    -0.342 N 
HETATM    5  H   UNL     1     -40.821 -47.017  10.067  1.00  0.00     0.172 HD
HETATM    6  H   UNL     1     -42.733 -49.712  10.919  1.00  0.00     0.164 HD
ENDROOT
BRANCH   1   7
HETATM    7  C   UNL     1     -42.700 -47.739   9.626  1.00  0.00     0.132 A 
HETATM    8  C   UNL     1     -43.922 -47.386  10.246  1.00  0.00     0.084 A 
HETATM    9  C   UNL     1     -44.859 -47.487   9.244  1.00  0.00     0.076 A 
HETATM   10  C   UNL     1     -46.311 -47.271   9.145  1.00  0.00     0.079 C 
HETATM   11  O   UNL     1     -44.246 -47.879   8.100  1.00  0.00    -0.241 OA
HETATM   12  N   UNL     1     -42.902 -48.036   8.333  1.00  0.00    -0.245 N 
ATOM     13  HN  UNL     1     -42.195 -48.324   7.656  1.00  0.00     0.196 HD
ENDBRANCH   1   7
BRANCH   4  14
HETATM   14  C   UNL     1     -41.502 -50.904  12.198  1.00  0.00     0.130 C 
BRANCH  14  15
HETATM   15  C   UNL     1     -42.717 -51.801  12.450  1.00  0.00     0.018 C 
HETATM   16  C   UNL     1     -43.690 -51.235  13.509  1.00  0.00     0.022 C 
HETATM   17  C   UNL     1     -44.500 -52.370  14.140  1.00  0.00     0.141 C 
HETATM   18  S   UNL     1     -43.846 -53.902  13.517  1.00  0.00     0.144 S 
HETATM   19  O   UNL     1     -43.550 -54.788  14.622  1.00  0.00    -0.228 OA
HETATM   20  O   UNL     1     -44.652 -54.318  12.387  1.00  0.00    -0.228 OA
HETATM   21  C   UNL     1     -42.332 -53.212  12.896  1.00  0.00     0.146 C 
ENDBRANCH  14  15
ENDBRANCH   4  14
TORSDOF 3
ENDMDL
MODEL 2
REMARK VINA RESULT:      -6.3      3.237      6.334
REMARK  3 active torsions:
REMARK  status: ('A' for Active; 'I' for Inactive)
REMARK    1  A    between atoms: C_4  and  N_5 
REMARK       I    between atoms: N_5  and  C_6 
REMARK       I    between atoms: C_6  and  N_8 
REMARK    2  A    between atoms: N_8  and  C_9 
REMARK    3  A    between atoms: C_9  and  C_10 
ROOT
HETATM    1  N   UNL     1     -41.712 -52.548  12.701  1.00  0.00    -0.293 N 
HETATM    2  C   UNL     1     -40.863 -51.620  12.162  1.00  0.00     0.321 C 
HETATM    3  O   UNL     1     -39.647 -51.752  12.269  1.00  0.00    -0.247 OA
HETATM    4  N   UNL     1     -41.446 -50.572  11.522  1.00  0.00    -0.342 N 
HETATM    5  H   UNL     1     -41.249 -53.316  13.165  1.00  0.00     0.172 HD
HETATM    6  H   UNL     1     -42.462 -50.594  11.503  1.00  0.00     0.164 HD
ENDROOT
BRANCH   1   7
HETATM    7  C   UNL     1     -43.095 -52.531  12.693  1.00  0.00     0.132 A 
HETATM    8  C   UNL     1     -43.910 -51.703  13.499  1.00  0.00     0.084 A 
HETATM    9  C   UNL     1     -45.197 -52.029  13.138  1.00  0.00     0.076 A 
HETATM   10  C   UNL     1     -46.540 -51.581  13.539  1.00  0.00     0.079 C 
HETATM   11  O   UNL     1     -45.160 -52.990  12.183  1.00  0.00    -0.241 OA
HETATM   12  N   UNL     1     -43.854 -53.306  11.903  1.00  0.00    -0.245 N 
ATOM     13  HN  UNL     1     -43.525 -53.995  11.226  1.00  0.00     0.196 HD
ENDBRANCH   1   7
BRANCH   4  14
HETATM   14  C   UNL     1     -40.740 -49.473  10.910  1.00  0.00     0.130 C 
BRANCH  14  15
HETATM   15  C   UNL     1     -41.490 -48.146  11.056  1.00  0.00     0.018 C 
HETATM   16  C   UNL     1     -42.498 -47.881   9.915  1.00  0.00     0.022 C 
HETATM   17  C   UNL     1     -42.748 -46.377   9.774  1.00  0.00     0.141 C 
HETATM   18  S   UNL     1     -41.623 -45.544  10.869  1.00  0.00     0.144 S 
HETATM   19  O   UNL     1     -40.905 -44.520  10.140  1.00  0.00    -0.228 OA
HETATM   20  O   UNL     1     -42.314 -45.268  12.112  1.00  0.00    -0.228 OA
HETATM   21  C   UNL     1     -40.555 -46.939  11.125  1.00  0.00     0.146 C 
ENDBRANCH  14  15
ENDBRANCH   4  14
TORSDOF 3
ENDMDL
MODEL 3
REMARK VINA RESULT:      -6.3      4.004      5.726
REMARK  3 active torsions:
REMARK  status: ('A' for Active; 'I' for Inactive)
REMARK    1  A    between atoms: C_4  and  N_5 
REMARK       I    between atoms: N_5  and  C_6 
REMARK       I    between atoms: C_6  and  N_8 
REMARK    2  A    between atoms: N_8  and  C_9 
REMARK    3  A    between atoms: C_9  and  C_10 
ROOT
HETATM    1  N   UNL     1     -42.848 -53.809  12.497  1.00  0.00    -0.293 N 
HETATM    2  C   UNL     1     -44.206 -53.653  12.573  1.00  0.00     0.321 C 
HETATM    3  O   UNL     1     -44.947 -54.632  12.567  1.00  0.00    -0.247 OA
HETATM    4  N   UNL     1     -44.660 -52.374  12.653  1.00  0.00    -0.342 N 
HETATM    5  H   UNL     1     -42.542 -54.770  12.443  1.00  0.00     0.172 HD
HETATM    6  H   UNL     1     -43.935 -51.662  12.658  1.00  0.00     0.164 HD
ENDROOT
BRANCH   1   7
HETATM    7  C   UNL     1     -41.887 -52.817  12.464  1.00  0.00     0.132 A 
HETATM    8  C   UNL     1     -41.311 -52.194  13.597  1.00  0.00     0.084 A 
HETATM    9  C   UNL     1     -40.413 -51.292  13.076  1.00  0.00     0.076 A 
HETATM   10  C   UNL     1     -39.466 -50.317  13.638  1.00  0.00     0.079 C 
HETATM   11  O   UNL     1     -40.447 -51.362  11.722  1.00  0.00    -0.241 OA
HETATM   12  N   UNL     1     -41.363 -52.310  11.338  1.00  0.00    -0.245 N 
ATOM     13  HN  UNL     1     -41.599 -52.577  10.381  1.00  0.00     0.196 HD
ENDBRANCH   1   7
BRANCH   4  14
HETATM   14  C   UNL     1     -46.048 -51.986  12.715  1.00  0.00     0.130 C 
BRANCH  14  15
HETATM   15  C   UNL     1     -46.479 -51.591  14.131  1.00  0.00     0.018 C 
HETATM   16  C   UNL     1     -45.393 -50.818  14.911  1.00  0.00     0.022 C 
HETATM   17  C   UNL     1     -45.611 -50.980  16.417  1.00  0.00     0.141 C 
HETATM   18  S   UNL     1     -46.926 -52.154  16.642  1.00  0.00     0.144 S 
HETATM   19  O   UNL     1     -46.503 -53.186  17.564  1.00  0.00    -0.228 OA
HETATM   20  O   UNL     1     -48.167 -51.425  16.815  1.00  0.00    -0.228 OA
HETATM   21  C   UNL     1     -46.883 -52.793  14.986  1.00  0.00     0.146 C 
ENDBRANCH  14  15
ENDBRANCH   4  14
TORSDOF 3
ENDMDL
MODEL 4
REMARK VINA RESULT:      -6.3      4.865      6.842
REMARK  3 active torsions:
REMARK  status: ('A' for Active; 'I' for Inactive)
REMARK    1  A    between atoms: C_4  and  N_5 
REMARK       I    between atoms: N_5  and  C_6 
REMARK       I    between atoms: C_6  and  N_8 
REMARK    2  A    between atoms: N_8  and  C_9 
REMARK    3  A    between atoms: C_9  and  C_10 
ROOT
HETATM    1  N   UNL     1     -41.485 -47.929  10.403  1.00  0.00    -0.293 N 
HETATM    2  C   UNL     1     -40.582 -46.949  10.717  1.00  0.00     0.321 C 
HETATM    3  O   UNL     1     -39.569 -47.217  11.356  1.00  0.00    -0.247 OA
HETATM    4  N   UNL     1     -40.881 -45.695  10.283  1.00  0.00    -0.342 N 
HETATM    5  H   UNL     1     -41.233 -48.849  10.734  1.00  0.00     0.172 HD
HETATM    6  H   UNL     1     -41.748 -45.620   9.758  1.00  0.00     0.164 HD
ENDROOT
BRANCH   1   7
HETATM    7  C   UNL     1     -42.678 -47.787   9.719  1.00  0.00     0.132 A 
HETATM    8  C   UNL     1     -43.921 -47.441  10.300  1.00  0.00     0.084 A 
HETATM    9  C   UNL     1     -44.800 -47.412   9.243  1.00  0.00     0.076 A 
HETATM   10  C   UNL     1     -46.235 -47.127   9.084  1.00  0.00     0.079 C 
HETATM   11  O   UNL     1     -44.135 -47.724   8.103  1.00  0.00    -0.241 OA
HETATM   12  N   UNL     1     -42.814 -47.958   8.395  1.00  0.00    -0.245 N 
ATOM     13  HN  UNL     1     -42.079 -48.213   7.735  1.00  0.00     0.196 HD
ENDBRANCH   1   7
BRANCH   4  14
HETATM   14  C   UNL     1     -40.083 -44.519  10.527  1.00  0.00     0.130 C 
BRANCH  14  15
HETATM   15  C   UNL     1     -40.834 -43.468  11.351  1.00  0.00     0.018 C 
HETATM   16  C   UNL     1     -40.041 -42.970  12.580  1.00  0.00     0.022 C 
HETATM   17  C   UNL     1     -41.002 -42.432  13.642  1.00  0.00     0.141 C 
HETATM   18  S   UNL     1     -42.656 -42.778  13.090  1.00  0.00     0.144 S 
HETATM   19  O   UNL     1     -43.389 -43.447  14.143  1.00  0.00    -0.228 OA
HETATM   20  O   UNL     1     -43.170 -41.602  12.418  1.00  0.00    -0.228 OA
HETATM   21  C   UNL     1     -42.189 -43.965  11.855  1.00  0.00     0.146 C 
ENDBRANCH  14  15
ENDBRANCH   4  14
TORSDOF 3
ENDMDL
MODEL 5
REMARK VINA RESULT:      -6.1      1.577      2.067
REMARK  3 active torsions:
REMARK  status: ('A' for Active; 'I' for Inactive)
REMARK    1  A    between atoms: C_4  and  N_5 
REMARK       I    between atoms: N_5  and  C_6 
REMARK       I    between atoms: C_6  and  N_8 
REMARK    2  A    between atoms: N_8  and  C_9 
REMARK    3  A    between atoms: C_9  and  C_10 
ROOT
HETATM    1  N   UNL     1     -41.146 -49.017  12.029  1.00  0.00    -0.293 N 
HETATM    2  C   UNL     1     -41.003 -50.323  12.413  1.00  0.00     0.321 C 
HETATM    3  O   UNL     1     -40.172 -50.636  13.261  1.00  0.00    -0.247 OA
HETATM    4  N   UNL     1     -41.822 -51.222  11.805  1.00  0.00    -0.342 N 
HETATM    5  H   UNL     1     -40.528 -48.374  12.502  1.00  0.00     0.172 HD
HETATM    6  H   UNL     1     -42.468 -50.823  11.129  1.00  0.00     0.164 HD
ENDROOT
BRANCH   1   7
HETATM    7  C   UNL     1     -42.009 -48.509  11.075  1.00  0.00     0.132 A 
HETATM    8  C   UNL     1     -43.311 -48.018  11.325  1.00  0.00     0.084 A 
HETATM    9  C   UNL     1     -43.772 -47.619  10.092  1.00  0.00     0.076 A 
HETATM   10  C   UNL     1     -45.015 -47.015   9.586  1.00  0.00     0.079 C 
HETATM   11  O   UNL     1     -42.815 -47.856   9.162  1.00  0.00    -0.241 OA
HETATM   12  N   UNL     1     -41.716 -48.411   9.769  1.00  0.00    -0.245 N 
ATOM     13  HN  UNL     1     -40.846 -48.693   9.316  1.00  0.00     0.196 HD
ENDBRANCH   1   7
BRANCH   4  14
HETATM   14  C   UNL     1     -41.818 -52.644  12.041  1.00  0.00     0.130 C 
BRANCH  14  15
HETATM   15  C   UNL     1     -42.807 -53.055  13.137  1.00  0.00     0.018 C 
HETATM   16  C   UNL     1     -42.252 -54.135  14.092  1.00  0.00     0.022 C 
HETATM   17  C   UNL     1     -43.405 -54.909  14.736  1.00  0.00     0.141 C 
HETATM   18  S   UNL     1     -44.911 -54.361  13.966  1.00  0.00     0.144 S 
HETATM   19  O   UNL     1     -45.667 -55.507  13.508  1.00  0.00    -0.228 OA
HETATM   20  O   UNL     1     -45.499 -53.329  14.796  1.00  0.00    -0.228 OA
HETATM   21  C   UNL     1     -44.129 -53.579  12.577  1.00  0.00     0.146 C 
ENDBRANCH  14  15
ENDBRANCH   4  14
TORSDOF 3
ENDMDL
MODEL 6
REMARK VINA RESULT:      -6.0      2.360      2.719
REMARK  3 active torsions:
REMARK  status: ('A' for Active; 'I' for Inactive)
REMARK    1  A    between atoms: C_4  and  N_5 
REMARK       I    between atoms: N_5  and  C_6 
REMARK       I    between atoms: C_6  and  N_8 
REMARK    2  A    between atoms: N_8  and  C_9 
REMARK    3  A    between atoms: C_9  and  C_10 
ROOT
HETATM    1  N   UNL     1     -42.197 -46.149   9.459  1.00  0.00    -0.293 N 
HETATM    2  C   UNL     1     -41.306 -46.501  10.437  1.00  0.00     0.321 C 
HETATM    3  O   UNL     1     -40.419 -45.725  10.780  1.00  0.00    -0.247 OA
HETATM    4  N   UNL     1     -41.470 -47.736  10.983  1.00  0.00    -0.342 N 
HETATM    5  H   UNL     1     -42.053 -45.225   9.078  1.00  0.00     0.172 HD
HETATM    6  H   UNL     1     -42.251 -48.268  10.610  1.00  0.00     0.164 HD
ENDROOT
BRANCH   1   7
HETATM    7  C   UNL     1     -43.228 -46.913   8.944  1.00  0.00     0.132 A 
HETATM    8  C   UNL     1     -44.521 -47.034   9.505  1.00  0.00     0.084 A 
HETATM    9  C   UNL     1     -45.190 -47.878   8.651  1.00  0.00     0.076 A 
HETATM   10  C   UNL     1     -46.549 -48.441   8.590  1.00  0.00     0.079 C 
HETATM   11  O   UNL     1     -44.359 -48.245   7.646  1.00  0.00    -0.241 OA
HETATM   12  N   UNL     1     -43.136 -47.647   7.824  1.00  0.00    -0.245 N 
ATOM     13  HN  UNL     1     -42.317 -47.742   7.223  1.00  0.00     0.196 HD
ENDBRANCH   1   7
BRANCH   4  14
HETATM   14  C   UNL     1     -40.630 -48.312  12.004  1.00  0.00     0.130 C 
BRANCH  14  15
HETATM   15  C   UNL     1     -40.890 -49.810  12.193  1.00  0.00     0.018 C 
HETATM   16  C   UNL     1     -41.710 -50.136  13.461  1.00  0.00     0.022 C 
HETATM   17  C   UNL     1     -41.431 -51.571  13.913  1.00  0.00     0.141 C 
HETATM   18  S   UNL     1     -40.125 -52.208  12.889  1.00  0.00     0.144 S 
HETATM   19  O   UNL     1     -39.080 -52.762  13.723  1.00  0.00    -0.228 OA
HETATM   20  O   UNL     1     -40.722 -52.956  11.800  1.00  0.00    -0.228 OA
HETATM   21  C   UNL     1     -39.603 -50.632  12.261  1.00  0.00     0.146 C 
ENDBRANCH  14  15
ENDBRANCH   4  14
TORSDOF 3
ENDMDL
MODEL 7
REMARK VINA RESULT:      -5.8      2.167      3.170
REMARK  3 active torsions:
REMARK  status: ('A' for Active; 'I' for Inactive)
REMARK    1  A    between atoms: C_4  and  N_5 
REMARK       I    between atoms: N_5  and  C_6 
REMARK       I    between atoms: C_6  and  N_8 
REMARK    2  A    between atoms: N_8  and  C_9 
REMARK    3  A    between atoms: C_9  and  C_10 
ROOT
HETATM    1  N   UNL     1     -39.546 -50.661  12.559  1.00  0.00    -0.293 N 
HETATM    2  C   UNL     1     -39.712 -51.947  13.001  1.00  0.00     0.321 C 
HETATM    3  O   UNL     1     -38.800 -52.529  13.580  1.00  0.00    -0.247 OA
HETATM    4  N   UNL     1     -40.924 -52.513  12.758  1.00  0.00    -0.342 N 
HETATM    5  H   UNL     1     -38.638 -50.267  12.759  1.00  0.00     0.172 HD
HETATM    6  H   UNL     1     -41.588 -51.913  12.277  1.00  0.00     0.164 HD
ENDROOT
BRANCH   1   7
HETATM    7  C   UNL     1     -40.458 -49.883  11.871  1.00  0.00     0.132 A 
HETATM    8  C   UNL     1     -41.524 -49.158  12.453  1.00  0.00     0.084 A 
HETATM    9  C   UNL     1     -42.141 -48.539  11.392  1.00  0.00     0.076 A 
HETATM   10  C   UNL     1     -43.292 -47.635  11.235  1.00  0.00     0.079 C 
HETATM   11  O   UNL     1     -41.496 -48.870  10.247  1.00  0.00    -0.241 OA
HETATM   12  N   UNL     1     -40.447 -49.707  10.540  1.00  0.00    -0.245 N 
ATOM     13  HN  UNL     1     -39.788 -50.115   9.876  1.00  0.00     0.196 HD
ENDBRANCH   1   7
BRANCH   4  14
HETATM   14  C   UNL     1     -41.299 -53.860  13.113  1.00  0.00     0.130 C 
BRANCH  14  15
HETATM   15  C   UNL     1     -42.818 -54.044  13.170  1.00  0.00     0.018 C 
HETATM   16  C   UNL     1     -43.603 -52.715  13.097  1.00  0.00     0.022 C 
HETATM   17  C   UNL     1     -44.981 -52.882  13.740  1.00  0.00     0.141 C 
HETATM   18  S   UNL     1     -45.034 -54.499  14.476  1.00  0.00     0.144 S 
HETATM   19  O   UNL     1     -45.467 -54.392  15.853  1.00  0.00    -0.228 OA
HETATM   20  O   UNL     1     -45.662 -55.409  13.537  1.00  0.00    -0.228 OA
HETATM   21  C   UNL     1     -43.281 -54.776  14.430  1.00  0.00     0.146 C 
ENDBRANCH  14  15
ENDBRANCH   4  14
TORSDOF 3
ENDMDL
MODEL 8
REMARK VINA RESULT:      -5.8      2.532      3.605
REMARK  3 active torsions:
REMARK  status: ('A' for Active; 'I' for Inactive)
REMARK    1  A    between atoms: C_4  and  N_5 
REMARK       I    between atoms: N_5  and  C_6 
REMARK       I    between atoms: C_6  and  N_8 
REMARK    2  A    between atoms: N_8  and  C_9 
REMARK    3  A    between atoms: C_9  and  C_10 
ROOT
HETATM    1  N   UNL     1     -40.532 -51.278  11.735  1.00  0.00    -0.293 N 
HETATM    2  C   UNL     1     -41.197 -52.444  12.006  1.00  0.00     0.321 C 
HETATM    3  O   UNL     1     -40.574 -53.469  12.268  1.00  0.00    -0.247 OA
HETATM    4  N   UNL     1     -42.554 -52.386  11.962  1.00  0.00    -0.342 N 
HETATM    5  H   UNL     1     -39.526 -51.352  11.780  1.00  0.00     0.172 HD
HETATM    6  H   UNL     1     -42.936 -51.471  11.740  1.00  0.00     0.164 HD
ENDROOT
BRANCH   1   7
HETATM    7  C   UNL     1     -41.080 -50.055  11.397  1.00  0.00     0.132 A 
HETATM    8  C   UNL     1     -41.933 -49.282  12.219  1.00  0.00     0.084 A 
HETATM    9  C   UNL     1     -42.210 -48.161  11.472  1.00  0.00     0.076 A 
HETATM   10  C   UNL     1     -43.006 -46.940  11.675  1.00  0.00     0.079 C 
HETATM   11  O   UNL     1     -41.573 -48.253  10.279  1.00  0.00    -0.241 OA
HETATM   12  N   UNL     1     -40.868 -49.431  10.228  1.00  0.00    -0.245 N 
ATOM     13  HN  UNL     1     -40.296 -49.765   9.453  1.00  0.00     0.196 HD
ENDBRANCH   1   7
BRANCH   4  14
HETATM   14  C   UNL     1     -43.443 -53.500  12.187  1.00  0.00     0.130 C 
BRANCH  14  15
HETATM   15  C   UNL     1     -44.216 -53.370  13.502  1.00  0.00     0.018 C 
HETATM   16  C   UNL     1     -45.387 -54.370  13.628  1.00  0.00     0.022 C 
HETATM   17  C   UNL     1     -46.438 -53.829  14.600  1.00  0.00     0.141 C 
HETATM   18  S   UNL     1     -45.957 -52.175  15.040  1.00  0.00     0.144 S 
HETATM   19  O   UNL     1     -47.072 -51.275  14.839  1.00  0.00    -0.228 OA
HETATM   20  O   UNL     1     -45.223 -52.229  16.289  1.00  0.00    -0.228 OA
HETATM   21  C   UNL     1     -44.790 -51.969  13.718  1.00  0.00     0.146 C 
ENDBRANCH  14  15
ENDBRANCH   4  14
TORSDOF 3
ENDMDL
MODEL 9
REMARK VINA RESULT:      -5.7      3.465      5.972
REMARK  3 active torsions:
REMARK  status: ('A' for Active; 'I' for Inactive)
REMARK    1  A    between atoms: C_4  and  N_5 
REMARK       I    between atoms: N_5  and  C_6 
REMARK       I    between atoms: C_6  and  N_8 
REMARK    2  A    between atoms: N_8  and  C_9 
REMARK    3  A    between atoms: C_9  and  C_10 
ROOT
HETATM    1  N   UNL     1     -41.947 -53.805  13.286  1.00  0.00    -0.293 N 
HETATM    2  C   UNL     1     -40.811 -53.084  13.031  1.00  0.00     0.321 C 
HETATM    3  O   UNL     1     -39.704 -53.562  13.265  1.00  0.00    -0.247 OA
HETATM    4  N   UNL     1     -40.992 -51.839  12.517  1.00  0.00    -0.342 N 
HETATM    5  H   UNL     1     -41.778 -54.727  13.662  1.00  0.00     0.172 HD
HETATM    6  H   UNL     1     -41.962 -51.576  12.365  1.00  0.00     0.164 HD
ENDROOT
BRANCH   1   7
HETATM    7  C   UNL     1     -43.257 -53.404  13.106  1.00  0.00     0.132 A 
HETATM    8  C   UNL     1     -43.947 -52.467  13.910  1.00  0.00     0.084 A 
HETATM    9  C   UNL     1     -45.200 -52.386  13.348  1.00  0.00     0.076 A 
HETATM   10  C   UNL     1     -46.426 -51.625  13.636  1.00  0.00     0.079 C 
HETATM   11  O   UNL     1     -45.263 -53.219  12.281  1.00  0.00    -0.241 OA
HETATM   12  N   UNL     1     -44.056 -53.855  12.126  1.00  0.00    -0.245 N 
ATOM     13  HN  UNL     1     -43.814 -54.537  11.407  1.00  0.00     0.196 HD
ENDBRANCH   1   7
BRANCH   4  14
HETATM   14  C   UNL     1     -39.938 -50.907  12.202  1.00  0.00     0.130 C 
BRANCH  14  15
HETATM   15  C   UNL     1     -40.443 -49.708  11.393  1.00  0.00     0.018 C 
HETATM   16  C   UNL     1     -39.618 -48.422  11.620  1.00  0.00     0.022 C 
HETATM   17  C   UNL     1     -40.469 -47.189  11.304  1.00  0.00     0.141 C 
HETATM   18  S   UNL     1     -42.125 -47.752  10.985  1.00  0.00     0.144 S 
HETATM   19  O   UNL     1     -43.058 -47.000  11.797  1.00  0.00    -0.228 OA
HETATM   20  O   UNL     1     -42.290 -47.897   9.552  1.00  0.00    -0.228 OA
HETATM   21  C   UNL     1     -41.905 -49.368  11.686  1.00  0.00     0.146 C 
ENDBRANCH  14  15
ENDBRANCH   4  14
TORSDOF 3
ENDMDL
