MODEL 1
REMARK VINA RESULT:      -7.1      0.000      0.000
REMARK  5 active torsions:
REMARK  status: ('A' for Active; 'I' for Inactive)
REMARK    1  A    between atoms: N_6  and  C_7 
REMARK    2  A    between atoms: C_7  and  C_8 
REMARK    3  A    between atoms: C_8  and  O_10 
REMARK    4  A    between atoms: C_8  and  C_11 
REMARK    5  A    between atoms: C_15  and  C_17 
ROOT
HETATM    1  C   UNL     1     -41.769 -47.809  10.923  1.00  0.00     0.098 C 
HETATM    2  C   UNL     1     -40.584 -46.833  10.896  1.00  0.00     0.053 C 
ENDROOT
BRANCH   1   3
HETATM    3  C   UNL     1     -42.104 -48.247  12.385  1.00  0.00     0.175 C 
BRANCH   3   4
HETATM    4  N   UNL     1     -42.449 -49.660  12.552  1.00  0.00    -0.307 N 
HETATM    5  C   UNL     1     -43.750 -50.042  12.735  1.00  0.00     0.186 A 
HETATM    6  N   UNL     1     -44.155 -51.261  12.831  1.00  0.00    -0.355 N 
HETATM    7  C   UNL     1     -43.213 -52.255  12.722  1.00  0.00     0.017 A 
ATOM      8  HN  UNL     1     -45.139 -51.481  12.982  1.00  0.00     0.166 HD
HETATM    9  C   UNL     1     -43.771 -53.653  12.783  1.00  0.00     0.069 C 
HETATM   10  C   UNL     1     -41.896 -52.025  12.568  1.00  0.00     0.028 A 
HETATM   11  C   UNL     1     -41.452 -50.609  12.518  1.00  0.00     0.256 A 
HETATM   12  C   UNL     1     -40.857 -53.098  12.436  1.00  0.00     0.056 C 
HETATM   13  O   UNL     1     -40.260 -50.309  12.459  1.00  0.00    -0.267 OA
ENDBRANCH   3   4
ENDBRANCH   1   3
BRANCH   1  14
HETATM   14  O   UNL     1     -41.374 -48.945  10.139  1.00  0.00    -0.384 OA
HETATM   15  H   UNL     1     -40.401 -48.932  10.031  1.00  0.00     0.211 HD
ENDBRANCH   1  14
BRANCH   1  16
HETATM   16  C   UNL     1     -42.962 -47.139  10.218  1.00  0.00    -0.022 A 
HETATM   17  C   UNL     1     -42.949 -45.782   9.848  1.00  0.00     0.010 A 
HETATM   18  C   UNL     1     -44.048 -45.194   9.214  1.00  0.00     0.001 A 
HETATM   19  C   UNL     1     -45.180 -45.950   8.924  1.00  0.00     0.016 A 
HETATM   20  C   UNL     1     -45.224 -47.308   9.259  1.00  0.00     0.048 A 
HETATM   21  C   UNL     1     -44.108 -47.889   9.891  1.00  0.00     0.026 A 
BRANCH  20  22
HETATM   22  C   UNL     1     -46.442 -48.147   8.961  1.00  0.00     0.417 C 
HETATM   23  F   UNL     1     -46.425 -48.707   7.718  1.00  0.00    -0.166 F 
HETATM   24  F   UNL     1     -46.591 -49.185   9.831  1.00  0.00    -0.166 F 
HETATM   25  F   UNL     1     -47.599 -47.433   9.027  1.00  0.00    -0.166 F 
ENDBRANCH  20  22
ENDBRANCH   1  16
TORSDOF 5
ENDMDL
MODEL 2
REMARK VINA RESULT:      -7.0      1.734      2.545
REMARK  5 active torsions:
REMARK  status: ('A' for Active; 'I' for Inactive)
REMARK    1  A    between atoms: N_6  and  C_7 
REMARK    2  A    between atoms: C_7  and  C_8 
REMARK    3  A    between atoms: C_8  and  O_10 
REMARK    4  A    between atoms: C_8  and  C_11 
REMARK    5  A    between atoms: C_15  and  C_17 
ROOT
HETATM    1  C   UNL     1     -40.288 -49.212  11.472  1.00  0.00     0.098 C 
HETATM    2  C   UNL     1     -38.798 -48.844  11.533  1.00  0.00     0.053 C 
ENDROOT
BRANCH   1   3
HETATM    3  C   UNL     1     -40.784 -49.781  12.840  1.00  0.00     0.175 C 
BRANCH   3   4
HETATM    4  N   UNL     1     -41.818 -50.813  12.750  1.00  0.00    -0.307 N 
HETATM    5  C   UNL     1     -41.510 -52.071  12.310  1.00  0.00     0.186 A 
HETATM    6  N   UNL     1     -42.337 -53.057  12.255  1.00  0.00    -0.355 N 
HETATM    7  C   UNL     1     -43.621 -52.836  12.688  1.00  0.00     0.017 A 
ATOM      8  HN  UNL     1     -42.048 -53.970  11.902  1.00  0.00     0.166 HD
HETATM    9  C   UNL     1     -44.511 -54.051  12.650  1.00  0.00     0.069 C 
HETATM   10  C   UNL     1     -44.071 -51.643  13.120  1.00  0.00     0.028 A 
HETATM   11  C   UNL     1     -43.110 -50.511  13.118  1.00  0.00     0.256 A 
HETATM   12  C   UNL     1     -45.466 -51.388  13.606  1.00  0.00     0.056 C 
HETATM   13  O   UNL     1     -43.457 -49.370  13.422  1.00  0.00    -0.267 OA
ENDBRANCH   3   4
ENDBRANCH   1   3
BRANCH   1  14
HETATM   14  O   UNL     1     -40.417 -50.204  10.442  1.00  0.00    -0.384 OA
HETATM   15  H   UNL     1     -41.139 -50.819  10.686  1.00  0.00     0.211 HD
ENDBRANCH   1  14
BRANCH   1  16
HETATM   16  C   UNL     1     -41.074 -47.964  11.029  1.00  0.00    -0.022 A 
HETATM   17  C   UNL     1     -40.614 -46.659  11.279  1.00  0.00     0.010 A 
HETATM   18  C   UNL     1     -41.349 -45.542  10.872  1.00  0.00     0.001 A 
HETATM   19  C   UNL     1     -42.556 -45.702  10.196  1.00  0.00     0.016 A 
HETATM   20  C   UNL     1     -43.038 -46.984   9.912  1.00  0.00     0.048 A 
HETATM   21  C   UNL     1     -42.284 -48.101  10.321  1.00  0.00     0.026 A 
BRANCH  20  22
HETATM   22  C   UNL     1     -44.345 -47.183   9.186  1.00  0.00     0.417 C 
HETATM   23  F   UNL     1     -44.247 -48.011   8.107  1.00  0.00    -0.166 F 
HETATM   24  F   UNL     1     -45.309 -47.726   9.981  1.00  0.00    -0.166 F 
HETATM   25  F   UNL     1     -44.863 -46.018   8.710  1.00  0.00    -0.166 F 
ENDBRANCH  20  22
ENDBRANCH   1  16
TORSDOF 5
ENDMDL
MODEL 3
REMARK VINA RESULT:      -6.9      3.983      6.748
REMARK  5 active torsions:
REMARK  status: ('A' for Active; 'I' for Inactive)
REMARK    1  A    between atoms: N_6  and  C_7 
REMARK    2  A    between atoms: C_7  and  C_8 
REMARK    3  A    between atoms: C_8  and  O_10 
REMARK    4  A    between atoms: C_8  and  C_11 
REMARK    5  A    between atoms: C_15  and  C_17 
ROOT
HETATM    1  C   UNL     1     -42.167 -53.971  14.893  1.00  0.00     0.098 C 
HETATM    2  C   UNL     1     -41.793 -55.145  15.810  1.00  0.00     0.053 C 
ENDROOT
BRANCH   1   3
HETATM    3  C   UNL     1     -41.382 -54.036  13.545  1.00  0.00     0.175 C 
BRANCH   3   4
HETATM    4  N   UNL     1     -41.068 -52.741  12.939  1.00  0.00    -0.307 N 
HETATM    5  C   UNL     1     -42.022 -52.046  12.248  1.00  0.00     0.186 A 
HETATM    6  N   UNL     1     -41.857 -50.876  11.734  1.00  0.00    -0.355 N 
HETATM    7  C   UNL     1     -40.636 -50.271  11.908  1.00  0.00     0.017 A 
ATOM      8  HN  UNL     1     -42.605 -50.416  11.216  1.00  0.00     0.166 HD
HETATM    9  C   UNL     1     -40.540 -48.882  11.332  1.00  0.00     0.069 C 
HETATM   10  C   UNL     1     -39.598 -50.848  12.542  1.00  0.00     0.028 A 
HETATM   11  C   UNL     1     -39.800 -52.220  13.074  1.00  0.00     0.256 A 
HETATM   12  C   UNL     1     -38.264 -50.197  12.751  1.00  0.00     0.056 C 
HETATM   13  O   UNL     1     -38.882 -52.851  13.597  1.00  0.00    -0.267 OA
ENDBRANCH   3   4
ENDBRANCH   1   3
BRANCH   1  14
HETATM   14  O   UNL     1     -41.829 -52.774  15.611  1.00  0.00    -0.384 OA
HETATM   15  H   UNL     1     -40.855 -52.719  15.692  1.00  0.00     0.211 HD
ENDBRANCH   1  14
BRANCH   1  16
HETATM   16  C   UNL     1     -43.693 -53.985  14.691  1.00  0.00    -0.022 A 
HETATM   17  C   UNL     1     -44.376 -55.117  14.211  1.00  0.00     0.010 A 
HETATM   18  C   UNL     1     -45.762 -55.104  14.029  1.00  0.00     0.001 A 
HETATM   19  C   UNL     1     -46.501 -53.963  14.334  1.00  0.00     0.016 A 
HETATM   20  C   UNL     1     -45.861 -52.823  14.832  1.00  0.00     0.048 A 
HETATM   21  C   UNL     1     -44.465 -52.852  15.017  1.00  0.00     0.026 A 
BRANCH  20  22
HETATM   22  C   UNL     1     -46.638 -51.574  15.164  1.00  0.00     0.417 C 
HETATM   23  F   UNL     1     -47.181 -50.965  14.070  1.00  0.00    -0.166 F 
HETATM   24  F   UNL     1     -47.681 -51.813  16.007  1.00  0.00    -0.166 F 
HETATM   25  F   UNL     1     -45.874 -50.626  15.771  1.00  0.00    -0.166 F 
ENDBRANCH  20  22
ENDBRANCH   1  16
TORSDOF 5
ENDMDL
MODEL 4
REMARK VINA RESULT:      -6.8      2.273      3.129
REMARK  5 active torsions:
REMARK  status: ('A' for Active; 'I' for Inactive)
REMARK    1  A    between atoms: N_6  and  C_7 
REMARK    2  A    between atoms: C_7  and  C_8 
REMARK    3  A    between atoms: C_8  and  O_10 
REMARK    4  A    between atoms: C_8  and  C_11 
REMARK    5  A    between atoms: C_15  and  C_17 
ROOT
HETATM    1  C   UNL     1     -40.519 -49.319  11.437  1.00  0.00     0.098 C 
HETATM    2  C   UNL     1     -39.150 -48.945  12.024  1.00  0.00     0.053 C 
ENDROOT
BRANCH   1   3
HETATM    3  C   UNL     1     -41.389 -50.086  12.484  1.00  0.00     0.175 C 
BRANCH   3   4
HETATM    4  N   UNL     1     -40.640 -50.887  13.455  1.00  0.00    -0.307 N 
HETATM    5  C   UNL     1     -40.301 -50.366  14.674  1.00  0.00     0.186 A 
HETATM    6  N   UNL     1     -39.698 -51.012  15.611  1.00  0.00    -0.355 N 
HETATM    7  C   UNL     1     -39.388 -52.329  15.378  1.00  0.00     0.017 A 
ATOM      8  HN  UNL     1     -39.460 -50.561  16.494  1.00  0.00     0.166 HD
HETATM    9  C   UNL     1     -38.740 -53.033  16.542  1.00  0.00     0.069 C 
HETATM   10  C   UNL     1     -39.636 -52.963  14.217  1.00  0.00     0.028 A 
HETATM   11  C   UNL     1     -40.281 -52.177  13.134  1.00  0.00     0.256 A 
HETATM   12  C   UNL     1     -39.315 -54.403  13.951  1.00  0.00     0.056 C 
HETATM   13  O   UNL     1     -40.472 -52.654  12.016  1.00  0.00    -0.267 OA
ENDBRANCH   3   4
ENDBRANCH   1   3
BRANCH   1  14
HETATM   14  O   UNL     1     -40.256 -50.154  10.299  1.00  0.00    -0.384 OA
HETATM   15  H   UNL     1     -39.509 -50.750  10.510  1.00  0.00     0.211 HD
ENDBRANCH   1  14
BRANCH   1  16
HETATM   16  C   UNL     1     -41.196 -48.032  10.934  1.00  0.00    -0.022 A 
HETATM   17  C   UNL     1     -40.595 -46.767  11.066  1.00  0.00     0.010 A 
HETATM   18  C   UNL     1     -41.233 -45.611  10.607  1.00  0.00     0.001 A 
HETATM   19  C   UNL     1     -42.481 -45.692   9.994  1.00  0.00     0.016 A 
HETATM   20  C   UNL     1     -43.102 -46.934   9.826  1.00  0.00     0.048 A 
HETATM   21  C   UNL     1     -42.446 -48.092  10.287  1.00  0.00     0.026 A 
BRANCH  20  22
HETATM   22  C   UNL     1     -44.456 -47.047   9.170  1.00  0.00     0.417 C 
HETATM   23  F   UNL     1     -44.979 -45.845   8.794  1.00  0.00    -0.166 F 
HETATM   24  F   UNL     1     -44.431 -47.808   8.041  1.00  0.00    -0.166 F 
HETATM   25  F   UNL     1     -45.388 -47.615   9.985  1.00  0.00    -0.166 F 
ENDBRANCH  20  22
ENDBRANCH   1  16
TORSDOF 5
ENDMDL
MODEL 5
REMARK VINA RESULT:      -6.5      3.524      4.479
REMARK  5 active torsions:
REMARK  status: ('A' for Active; 'I' for Inactive)
REMARK    1  A    between atoms: N_6  and  C_7 
REMARK    2  A    between atoms: C_7  and  C_8 
REMARK    3  A    between atoms: C_8  and  O_10 
REMARK    4  A    between atoms: C_8  and  C_11 
REMARK    5  A    between atoms: C_15  and  C_17 
ROOT
HETATM    1  C   UNL     1     -40.313 -49.548  11.570  1.00  0.00     0.098 C 
HETATM    2  C   UNL     1     -38.789 -49.367  11.621  1.00  0.00     0.053 C 
ENDROOT
BRANCH   1   3
HETATM    3  C   UNL     1     -40.870 -50.028  12.948  1.00  0.00     0.175 C 
BRANCH   3   4
HETATM    4  N   UNL     1     -41.948 -51.015  12.879  1.00  0.00    -0.307 N 
HETATM    5  C   UNL     1     -41.697 -52.293  12.458  1.00  0.00     0.186 A 
HETATM    6  N   UNL     1     -42.565 -53.243  12.421  1.00  0.00    -0.355 N 
HETATM    7  C   UNL     1     -43.837 -52.959  12.854  1.00  0.00     0.017 A 
ATOM      8  HN  UNL     1     -42.318 -54.173  12.083  1.00  0.00     0.166 HD
HETATM    9  C   UNL     1     -44.780 -54.135  12.838  1.00  0.00     0.069 C 
HETATM   10  C   UNL     1     -44.234 -51.741  13.267  1.00  0.00     0.028 A 
HETATM   11  C   UNL     1     -43.225 -50.651  13.245  1.00  0.00     0.256 A 
HETATM   12  C   UNL     1     -45.614 -51.417  13.753  1.00  0.00     0.056 C 
HETATM   13  O   UNL     1     -43.521 -49.492  13.531  1.00  0.00    -0.267 OA
ENDBRANCH   3   4
ENDBRANCH   1   3
BRANCH   1  14
HETATM   14  O   UNL     1     -40.570 -50.533  10.557  1.00  0.00    -0.384 OA
HETATM   15  H   UNL     1     -40.916 -50.083   9.759  1.00  0.00     0.211 HD
ENDBRANCH   1  14
BRANCH   1  16
HETATM   16  C   UNL     1     -40.941 -48.220  11.107  1.00  0.00    -0.022 A 
HETATM   17  C   UNL     1     -42.282 -48.127  10.694  1.00  0.00     0.010 A 
HETATM   18  C   UNL     1     -42.827 -46.911  10.272  1.00  0.00     0.001 A 
HETATM   19  C   UNL     1     -42.049 -45.756  10.264  1.00  0.00     0.016 A 
HETATM   20  C   UNL     1     -40.716 -45.804  10.687  1.00  0.00     0.048 A 
HETATM   21  C   UNL     1     -40.181 -47.033  11.116  1.00  0.00     0.026 A 
BRANCH  20  22
HETATM   22  C   UNL     1     -39.852 -44.567  10.682  1.00  0.00     0.417 C 
HETATM   23  F   UNL     1     -40.566 -43.405  10.653  1.00  0.00    -0.166 F 
HETATM   24  F   UNL     1     -39.053 -44.481  11.782  1.00  0.00    -0.166 F 
HETATM   25  F   UNL     1     -39.019 -44.514   9.608  1.00  0.00    -0.166 F 
ENDBRANCH  20  22
ENDBRANCH   1  16
TORSDOF 5
ENDMDL
MODEL 6
REMARK VINA RESULT:      -6.4      4.570      6.452
REMARK  5 active torsions:
REMARK  status: ('A' for Active; 'I' for Inactive)
REMARK    1  A    between atoms: N_6  and  C_7 
REMARK    2  A    between atoms: C_7  and  C_8 
REMARK    3  A    between atoms: C_8  and  O_10 
REMARK    4  A    between atoms: C_8  and  C_11 
REMARK    5  A    between atoms: C_15  and  C_17 
ROOT
HETATM    1  C   UNL     1     -40.977 -52.752  12.546  1.00  0.00     0.098 C 
HETATM    2  C   UNL     1     -41.215 -51.311  12.071  1.00  0.00     0.053 C 
ENDROOT
BRANCH   1   3
HETATM    3  C   UNL     1     -39.799 -52.820  13.569  1.00  0.00     0.175 C 
BRANCH   3   4
HETATM    4  N   UNL     1     -39.169 -51.537  13.886  1.00  0.00    -0.307 N 
HETATM    5  C   UNL     1     -38.085 -51.098  13.175  1.00  0.00     0.186 A 
HETATM    6  N   UNL     1     -37.504 -49.961  13.341  1.00  0.00    -0.355 N 
HETATM    7  C   UNL     1     -38.021 -49.115  14.291  1.00  0.00     0.017 A 
ATOM      8  HN  UNL     1     -36.689 -49.698  12.787  1.00  0.00     0.166 HD
HETATM    9  C   UNL     1     -37.326 -47.781  14.384  1.00  0.00     0.069 C 
HETATM   10  C   UNL     1     -39.065 -49.425  15.082  1.00  0.00     0.028 A 
HETATM   11  C   UNL     1     -39.679 -50.766  14.906  1.00  0.00     0.256 A 
HETATM   12  C   UNL     1     -39.649 -48.509  16.115  1.00  0.00     0.056 C 
HETATM   13  O   UNL     1     -40.585 -51.162  15.639  1.00  0.00    -0.267 OA
ENDBRANCH   3   4
ENDBRANCH   1   3
BRANCH   1  14
HETATM   14  O   UNL     1     -40.665 -53.518  11.372  1.00  0.00    -0.384 OA
HETATM   15  H   UNL     1     -39.716 -53.401  11.162  1.00  0.00     0.211 HD
ENDBRANCH   1  14
BRANCH   1  16
HETATM   16  C   UNL     1     -42.297 -53.291  13.126  1.00  0.00    -0.022 A 
HETATM   17  C   UNL     1     -42.344 -54.427  13.955  1.00  0.00     0.010 A 
HETATM   18  C   UNL     1     -43.556 -54.902  14.464  1.00  0.00     0.001 A 
HETATM   19  C   UNL     1     -44.749 -54.247  14.168  1.00  0.00     0.016 A 
HETATM   20  C   UNL     1     -44.741 -53.102  13.363  1.00  0.00     0.048 A 
HETATM   21  C   UNL     1     -43.513 -52.631  12.861  1.00  0.00     0.026 A 
BRANCH  20  22
HETATM   22  C   UNL     1     -46.021 -52.379  13.022  1.00  0.00     0.417 C 
HETATM   23  F   UNL     1     -46.363 -52.471  11.705  1.00  0.00    -0.166 F 
HETATM   24  F   UNL     1     -47.093 -52.856  13.715  1.00  0.00    -0.166 F 
HETATM   25  F   UNL     1     -45.959 -51.047  13.295  1.00  0.00    -0.166 F 
ENDBRANCH  20  22
ENDBRANCH   1  16
TORSDOF 5
ENDMDL
MODEL 7
REMARK VINA RESULT:      -6.3      4.854      6.586
REMARK  5 active torsions:
REMARK  status: ('A' for Active; 'I' for Inactive)
REMARK    1  A    between atoms: N_6  and  C_7 
REMARK    2  A    between atoms: C_7  and  C_8 
REMARK    3  A    between atoms: C_8  and  O_10 
REMARK    4  A    between atoms: C_8  and  C_11 
REMARK    5  A    between atoms: C_15  and  C_17 
ROOT
HETATM    1  C   UNL     1     -42.266 -53.182  13.388  1.00  0.00     0.098 C 
HETATM    2  C   UNL     1     -42.305 -52.153  12.249  1.00  0.00     0.053 C 
ENDROOT
BRANCH   1   3
HETATM    3  C   UNL     1     -41.414 -52.659  14.589  1.00  0.00     0.175 C 
BRANCH   3   4
HETATM    4  N   UNL     1     -40.493 -51.566  14.275  1.00  0.00    -0.307 N 
HETATM    5  C   UNL     1     -40.812 -50.273  14.591  1.00  0.00     0.186 A 
HETATM    6  N   UNL     1     -40.043 -49.257  14.409  1.00  0.00    -0.355 N 
HETATM    7  C   UNL     1     -38.799 -49.488  13.874  1.00  0.00     0.017 A 
ATOM      8  HN  UNL     1     -40.345 -48.314  14.653  1.00  0.00     0.166 HD
HETATM    9  C   UNL     1     -37.935 -48.260  13.747  1.00  0.00     0.069 C 
HETATM   10  C   UNL     1     -38.363 -50.702  13.490  1.00  0.00     0.028 A 
HETATM   11  C   UNL     1     -39.294 -51.847  13.660  1.00  0.00     0.256 A 
HETATM   12  C   UNL     1     -37.005 -50.973  12.915  1.00  0.00     0.056 C 
HETATM   13  O   UNL     1     -39.006 -52.976  13.265  1.00  0.00    -0.267 OA
ENDBRANCH   3   4
ENDBRANCH   1   3
BRANCH   1  14
HETATM   14  O   UNL     1     -41.677 -54.371  12.840  1.00  0.00    -0.384 OA
HETATM   15  H   UNL     1     -40.903 -54.118  12.296  1.00  0.00     0.211 HD
ENDBRANCH   1  14
BRANCH   1  16
HETATM   16  C   UNL     1     -43.715 -53.512  13.789  1.00  0.00    -0.022 A 
HETATM   17  C   UNL     1     -44.232 -54.818  13.724  1.00  0.00     0.010 A 
HETATM   18  C   UNL     1     -45.554 -55.092  14.088  1.00  0.00     0.001 A 
HETATM   19  C   UNL     1     -46.387 -54.070  14.536  1.00  0.00     0.016 A 
HETATM   20  C   UNL     1     -45.903 -52.761  14.633  1.00  0.00     0.048 A 
HETATM   21  C   UNL     1     -44.568 -52.499  14.270  1.00  0.00     0.026 A 
BRANCH  20  22
HETATM   22  C   UNL     1     -46.788 -51.635  15.109  1.00  0.00     0.417 C 
HETATM   23  F   UNL     1     -47.346 -50.916  14.094  1.00  0.00    -0.166 F 
HETATM   24  F   UNL     1     -47.832 -52.074  15.867  1.00  0.00    -0.166 F 
HETATM   25  F   UNL     1     -46.120 -50.732  15.877  1.00  0.00    -0.166 F 
ENDBRANCH  20  22
ENDBRANCH   1  16
TORSDOF 5
ENDMDL
MODEL 8
REMARK VINA RESULT:      -6.2      3.139      6.973
REMARK  5 active torsions:
REMARK  status: ('A' for Active; 'I' for Inactive)
REMARK    1  A    between atoms: N_6  and  C_7 
REMARK    2  A    between atoms: C_7  and  C_8 
REMARK    3  A    between atoms: C_8  and  O_10 
REMARK    4  A    between atoms: C_8  and  C_11 
REMARK    5  A    between atoms: C_15  and  C_17 
ROOT
HETATM    1  C   UNL     1     -40.683 -52.664  13.365  1.00  0.00     0.098 C 
HETATM    2  C   UNL     1     -41.071 -52.683  11.880  1.00  0.00     0.053 C 
ENDROOT
BRANCH   1   3
HETATM    3  C   UNL     1     -40.778 -51.220  13.954  1.00  0.00     0.175 C 
BRANCH   3   4
HETATM    4  N   UNL     1     -41.415 -50.230  13.085  1.00  0.00    -0.307 N 
HETATM    5  C   UNL     1     -42.772 -50.224  12.913  1.00  0.00     0.186 A 
HETATM    6  N   UNL     1     -43.425 -49.358  12.218  1.00  0.00    -0.355 N 
HETATM    7  C   UNL     1     -42.707 -48.353  11.618  1.00  0.00     0.017 A 
ATOM      8  HN  UNL     1     -44.438 -49.417  12.116  1.00  0.00     0.166 HD
HETATM    9  C   UNL     1     -43.545 -47.345  10.874  1.00  0.00     0.069 C 
HETATM   10  C   UNL     1     -41.366 -48.250  11.678  1.00  0.00     0.028 A 
HETATM   11  C   UNL     1     -40.636 -49.295  12.439  1.00  0.00     0.256 A 
HETATM   12  C   UNL     1     -40.569 -47.153  11.039  1.00  0.00     0.056 C 
HETATM   13  O   UNL     1     -39.406 -49.323  12.480  1.00  0.00    -0.267 OA
ENDBRANCH   3   4
ENDBRANCH   1   3
BRANCH   1  14
HETATM   14  O   UNL     1     -39.331 -53.144  13.436  1.00  0.00    -0.384 OA
HETATM   15  H   UNL     1     -38.792 -52.498  13.937  1.00  0.00     0.211 HD
ENDBRANCH   1  14
BRANCH   1  16
HETATM   16  C   UNL     1     -41.581 -53.668  14.110  1.00  0.00    -0.022 A 
HETATM   17  C   UNL     1     -41.095 -54.485  15.147  1.00  0.00     0.010 A 
HETATM   18  C   UNL     1     -41.929 -55.394  15.804  1.00  0.00     0.001 A 
HETATM   19  C   UNL     1     -43.272 -55.500  15.450  1.00  0.00     0.016 A 
HETATM   20  C   UNL     1     -43.798 -54.691  14.437  1.00  0.00     0.048 A 
HETATM   21  C   UNL     1     -42.948 -53.775  13.787  1.00  0.00     0.026 A 
BRANCH  20  22
HETATM   22  C   UNL     1     -45.247 -54.792  14.031  1.00  0.00     0.417 C 
HETATM   23  F   UNL     1     -46.115 -54.459  15.029  1.00  0.00    -0.166 F 
HETATM   24  F   UNL     1     -45.558 -53.976  12.986  1.00  0.00    -0.166 F 
HETATM   25  F   UNL     1     -45.597 -56.049  13.643  1.00  0.00    -0.166 F 
ENDBRANCH  20  22
ENDBRANCH   1  16
TORSDOF 5
ENDMDL
MODEL 9
REMARK VINA RESULT:      -6.1      3.741      5.679
REMARK  5 active torsions:
REMARK  status: ('A' for Active; 'I' for Inactive)
REMARK    1  A    between atoms: N_6  and  C_7 
REMARK    2  A    between atoms: C_7  and  C_8 
REMARK    3  A    between atoms: C_8  and  O_10 
REMARK    4  A    between atoms: C_8  and  C_11 
REMARK    5  A    between atoms: C_15  and  C_17 
ROOT
HETATM    1  C   UNL     1     -39.941 -52.528  13.504  1.00  0.00     0.098 C 
HETATM    2  C   UNL     1     -38.827 -53.254  14.272  1.00  0.00     0.053 C 
ENDROOT
BRANCH   1   3
HETATM    3  C   UNL     1     -41.157 -52.217  14.435  1.00  0.00     0.175 C 
BRANCH   3   4
HETATM    4  N   UNL     1     -42.357 -53.017  14.186  1.00  0.00    -0.307 N 
HETATM    5  C   UNL     1     -42.464 -54.287  14.684  1.00  0.00     0.186 A 
HETATM    6  N   UNL     1     -43.502 -55.041  14.568  1.00  0.00    -0.355 N 
HETATM    7  C   UNL     1     -44.592 -54.525  13.911  1.00  0.00     0.017 A 
ATOM      8  HN  UNL     1     -43.514 -55.986  14.951  1.00  0.00     0.166 HD
HETATM    9  C   UNL     1     -45.787 -55.442  13.869  1.00  0.00     0.069 C 
HETATM   10  C   UNL     1     -44.618 -53.304  13.347  1.00  0.00     0.028 A 
HETATM   11  C   UNL     1     -43.387 -52.479  13.447  1.00  0.00     0.256 A 
HETATM   12  C   UNL     1     -45.804 -52.722  12.636  1.00  0.00     0.056 C 
HETATM   13  O   UNL     1     -43.297 -51.384  12.893  1.00  0.00    -0.267 OA
ENDBRANCH   3   4
ENDBRANCH   1   3
BRANCH   1  14
HETATM   14  O   UNL     1     -40.339 -53.409  12.442  1.00  0.00    -0.384 OA
HETATM   15  H   UNL     1     -40.290 -54.333  12.763  1.00  0.00     0.211 HD
ENDBRANCH   1  14
BRANCH   1  16
HETATM   16  C   UNL     1     -39.342 -51.261  12.869  1.00  0.00    -0.022 A 
HETATM   17  C   UNL     1     -37.955 -51.075  12.728  1.00  0.00     0.010 A 
HETATM   18  C   UNL     1     -37.435 -49.912  12.153  1.00  0.00     0.001 A 
HETATM   19  C   UNL     1     -38.288 -48.911  11.695  1.00  0.00     0.016 A 
HETATM   20  C   UNL     1     -39.674 -49.067  11.800  1.00  0.00     0.048 A 
HETATM   21  C   UNL     1     -40.186 -50.246  12.374  1.00  0.00     0.026 A 
BRANCH  20  22
HETATM   22  C   UNL     1     -40.619 -47.994  11.316  1.00  0.00     0.417 C 
HETATM   23  F   UNL     1     -41.503 -47.579  12.268  1.00  0.00    -0.166 F 
HETATM   24  F   UNL     1     -39.969 -46.870  10.903  1.00  0.00    -0.166 F 
HETATM   25  F   UNL     1     -41.377 -48.400  10.261  1.00  0.00    -0.166 F 
ENDBRANCH  20  22
ENDBRANCH   1  16
TORSDOF 5
ENDMDL
