MODEL 1
REMARK VINA RESULT:      -5.2      0.000      0.000
REMARK  4 active torsions:
REMARK  status: ('A' for Active; 'I' for Inactive)
REMARK    1  A    between atoms: O_1  and  C_2 
REMARK    2  A    between atoms: C_2  and  C_3 
REMARK    3  A    between atoms: C_3  and  C_4 
REMARK    4  A    between atoms: N_9  and  C_10 
ROOT
HETATM    1  C   UNL     1     -39.916 -50.011  11.662  1.00  0.00     0.128 C 
HETATM    2  C   UNL     1     -38.392 -49.737  11.648  1.00  0.00     0.193 C 
HETATM    3  O   UNL     1     -37.900 -49.342  12.941  1.00  0.00    -0.387 OA
HETATM    4  C   UNL     1     -38.543 -48.132  13.374  1.00  0.00     0.188 C 
HETATM    5  C   UNL     1     -40.066 -48.298  13.471  1.00  0.00     0.168 C 
HETATM    6  N   UNL     1     -40.609 -48.836  12.219  1.00  0.00    -0.209 N 
ENDROOT
BRANCH   6   7
HETATM    7  C   UNL     1     -41.373 -48.035  11.403  1.00  0.00     0.680 A 
HETATM    8  N   UNL     1     -41.568 -46.750  11.747  1.00  0.00    -0.200 N 
HETATM    9  C   UNL     1     -42.397 -46.004  10.984  1.00  0.00     0.131 A 
ATOM     10  HN  UNL     1     -41.104 -46.350  12.561  1.00  0.00     0.183 HD
HETATM   11  C   UNL     1     -43.048 -46.485   9.879  1.00  0.00     0.065 A 
HETATM   12 CL   UNL     1     -44.111 -45.526   8.947  1.00  0.00    -0.081 Cl
HETATM   13  C   UNL     1     -42.786 -47.797   9.587  1.00  0.00     0.131 A 
HETATM   14  N   UNL     1     -41.962 -48.579  10.322  1.00  0.00    -0.200 N 
ATOM     15  HN  UNL     1     -41.793 -49.552  10.065  1.00  0.00     0.183 HD
ENDBRANCH   6   7
BRANCH   1  16
HETATM   16  C   UNL     1     -40.242 -51.258  12.500  1.00  0.00     0.054 C 
BRANCH  16  17
HETATM   17  C   UNL     1     -41.267 -52.154  11.821  1.00  0.00     0.166 C 
BRANCH  17  18
HETATM   18  O   UNL     1     -40.622 -53.349  11.395  1.00  0.00    -0.401 OA
HETATM   19  H   UNL     1     -39.799 -53.422  11.909  1.00  0.00     0.209 HD
ENDBRANCH  17  18
ENDBRANCH  16  17
ENDBRANCH   1  16
TORSDOF 4
ENDMDL
MODEL 2
REMARK VINA RESULT:      -5.0      3.766      4.985
REMARK  4 active torsions:
REMARK  status: ('A' for Active; 'I' for Inactive)
REMARK    1  A    between atoms: O_1  and  C_2 
REMARK    2  A    between atoms: C_2  and  C_3 
REMARK    3  A    between atoms: C_3  and  C_4 
REMARK    4  A    between atoms: N_9  and  C_10 
ROOT
HETATM    1  C   UNL     1     -40.312 -51.220  13.368  1.00  0.00     0.128 C 
HETATM    2  C   UNL     1     -39.491 -52.031  14.401  1.00  0.00     0.193 C 
HETATM    3  O   UNL     1     -39.008 -53.271  13.856  1.00  0.00    -0.387 OA
HETATM    4  C   UNL     1     -40.108 -54.100  13.446  1.00  0.00     0.188 C 
HETATM    5  C   UNL     1     -40.973 -53.413  12.379  1.00  0.00     0.168 C 
HETATM    6  N   UNL     1     -41.380 -52.077  12.826  1.00  0.00    -0.209 N 
ENDROOT
BRANCH   6   7
HETATM    7  C   UNL     1     -42.693 -51.835  13.155  1.00  0.00     0.680 A 
HETATM    8  N   UNL     1     -42.969 -50.989  14.162  1.00  0.00    -0.200 N 
HETATM    9  C   UNL     1     -44.259 -50.834  14.532  1.00  0.00     0.131 A 
ATOM     10  HN  UNL     1     -42.224 -50.478  14.636  1.00  0.00     0.183 HD
HETATM   11  C   UNL     1     -45.302 -51.491  13.934  1.00  0.00     0.065 A 
HETATM   12 CL   UNL     1     -46.922 -51.297  14.439  1.00  0.00    -0.081 Cl
HETATM   13  C   UNL     1     -44.941 -52.323  12.907  1.00  0.00     0.131 A 
HETATM   14  N   UNL     1     -43.662 -52.505  12.504  1.00  0.00    -0.200 N 
ATOM     15  HN  UNL     1     -43.439 -53.133  11.730  1.00  0.00     0.183 HD
ENDBRANCH   6   7
BRANCH   1  16
HETATM   16  C   UNL     1     -39.414 -50.716  12.227  1.00  0.00     0.054 C 
BRANCH  16  17
HETATM   17  C   UNL     1     -40.039 -49.549  11.477  1.00  0.00     0.166 C 
BRANCH  17  18
HETATM   18  O   UNL     1     -40.437 -49.994  10.185  1.00  0.00    -0.401 OA
HETATM   19  H   UNL     1     -40.077 -49.355   9.545  1.00  0.00     0.209 HD
ENDBRANCH  17  18
ENDBRANCH  16  17
ENDBRANCH   1  16
TORSDOF 4
ENDMDL
MODEL 3
REMARK VINA RESULT:      -4.9      2.961      4.530
REMARK  4 active torsions:
REMARK  status: ('A' for Active; 'I' for Inactive)
REMARK    1  A    between atoms: O_1  and  C_2 
REMARK    2  A    between atoms: C_2  and  C_3 
REMARK    3  A    between atoms: C_3  and  C_4 
REMARK    4  A    between atoms: N_9  and  C_10 
ROOT
HETATM    1  C   UNL     1     -41.348 -52.828  13.812  1.00  0.00     0.128 C 
HETATM    2  C   UNL     1     -42.234 -52.853  15.081  1.00  0.00     0.193 C 
HETATM    3  O   UNL     1     -43.455 -53.585  14.875  1.00  0.00    -0.387 OA
HETATM    4  C   UNL     1     -44.232 -52.979  13.829  1.00  0.00     0.188 C 
HETATM    5  C   UNL     1     -43.466 -52.940  12.499  1.00  0.00     0.168 C 
HETATM    6  N   UNL     1     -42.146 -52.328  12.679  1.00  0.00    -0.209 N 
ENDROOT
BRANCH   6   7
HETATM    7  C   UNL     1     -41.888 -51.086  12.148  1.00  0.00     0.680 A 
HETATM    8  N   UNL     1     -40.765 -50.902  11.434  1.00  0.00    -0.200 N 
HETATM    9  C   UNL     1     -40.482 -49.654  10.999  1.00  0.00     0.131 A 
ATOM     10  HN  UNL     1     -40.142 -51.682  11.227  1.00  0.00     0.183 HD
HETATM   11  C   UNL     1     -41.279 -48.567  11.244  1.00  0.00     0.065 A 
HETATM   12 CL   UNL     1     -40.884 -46.996  10.704  1.00  0.00    -0.081 Cl
HETATM   13  C   UNL     1     -42.412 -48.840  11.965  1.00  0.00     0.131 A 
HETATM   14  N   UNL     1     -42.733 -50.074  12.418  1.00  0.00    -0.200 N 
ATOM     15  HN  UNL     1     -43.591 -50.232  12.949  1.00  0.00     0.183 HD
ENDBRANCH   6   7
BRANCH   1  16
HETATM   16  C   UNL     1     -40.806 -54.231  13.492  1.00  0.00     0.054 C 
BRANCH  16  17
HETATM   17  C   UNL     1     -39.472 -54.500  14.174  1.00  0.00     0.166 C 
BRANCH  17  18
HETATM   18  O   UNL     1     -38.687 -55.335  13.331  1.00  0.00    -0.401 OA
HETATM   19  H   UNL     1     -37.837 -54.881  13.198  1.00  0.00     0.209 HD
ENDBRANCH  17  18
ENDBRANCH  16  17
ENDBRANCH   1  16
TORSDOF 4
ENDMDL
MODEL 4
REMARK VINA RESULT:      -4.9      3.456      5.302
REMARK  4 active torsions:
REMARK  status: ('A' for Active; 'I' for Inactive)
REMARK    1  A    between atoms: O_1  and  C_2 
REMARK    2  A    between atoms: C_2  and  C_3 
REMARK    3  A    between atoms: C_3  and  C_4 
REMARK    4  A    between atoms: N_9  and  C_10 
ROOT
HETATM    1  C   UNL     1     -42.412 -46.303  10.795  1.00  0.00     0.128 C 
HETATM    2  C   UNL     1     -42.528 -45.079  11.737  1.00  0.00     0.193 C 
HETATM    3  O   UNL     1     -41.713 -43.978  11.299  1.00  0.00    -0.387 OA
HETATM    4  C   UNL     1     -40.328 -44.360  11.272  1.00  0.00     0.188 C 
HETATM    5  C   UNL     1     -40.081 -45.545  10.326  1.00  0.00     0.168 C 
HETATM    6  N   UNL     1     -40.990 -46.653  10.638  1.00  0.00    -0.209 N 
ENDROOT
BRANCH   6   7
HETATM    7  C   UNL     1     -40.496 -47.805  11.203  1.00  0.00     0.680 A 
HETATM    8  N   UNL     1     -40.860 -48.993  10.689  1.00  0.00    -0.200 N 
HETATM    9  C   UNL     1     -40.440 -50.115  11.314  1.00  0.00     0.131 A 
ATOM     10  HN  UNL     1     -41.437 -49.045   9.850  1.00  0.00     0.183 HD
HETATM   11  C   UNL     1     -39.663 -50.108  12.442  1.00  0.00     0.065 A 
HETATM   12 CL   UNL     1     -39.168 -51.542  13.227  1.00  0.00    -0.081 Cl
HETATM   13  C   UNL     1     -39.323 -48.860  12.895  1.00  0.00     0.131 A 
HETATM   14  N   UNL     1     -39.720 -47.712  12.299  1.00  0.00    -0.200 N 
ATOM     15  HN  UNL     1     -39.440 -46.804  12.670  1.00  0.00     0.183 HD
ENDBRANCH   6   7
BRANCH   1  16
HETATM   16  C   UNL     1     -43.032 -45.999   9.421  1.00  0.00     0.054 C 
BRANCH  16  17
HETATM   17  C   UNL     1     -43.726 -47.214   8.824  1.00  0.00     0.166 C 
BRANCH  17  18
HETATM   18  O   UNL     1     -42.737 -48.123   8.355  1.00  0.00    -0.401 OA
HETATM   19  H   UNL     1     -42.592 -47.920   7.414  1.00  0.00     0.209 HD
ENDBRANCH  17  18
ENDBRANCH  16  17
ENDBRANCH   1  16
TORSDOF 4
ENDMDL
MODEL 5
REMARK VINA RESULT:      -4.8      4.531      6.388
REMARK  4 active torsions:
REMARK  status: ('A' for Active; 'I' for Inactive)
REMARK    1  A    between atoms: O_1  and  C_2 
REMARK    2  A    between atoms: C_2  and  C_3 
REMARK    3  A    between atoms: C_3  and  C_4 
REMARK    4  A    between atoms: N_9  and  C_10 
ROOT
HETATM    1  C   UNL     1     -44.770 -53.053  13.216  1.00  0.00     0.128 C 
HETATM    2  C   UNL     1     -44.832 -54.582  13.449  1.00  0.00     0.193 C 
HETATM    3  O   UNL     1     -44.948 -54.914  14.843  1.00  0.00    -0.387 OA
HETATM    4  C   UNL     1     -43.812 -54.422  15.572  1.00  0.00     0.188 C 
HETATM    5  C   UNL     1     -43.674 -52.897  15.452  1.00  0.00     0.168 C 
HETATM    6  N   UNL     1     -43.692 -52.485  14.044  1.00  0.00    -0.209 N 
ENDROOT
BRANCH   6   7
HETATM    7  C   UNL     1     -42.545 -52.011  13.454  1.00  0.00     0.680 A 
HETATM    8  N   UNL     1     -41.354 -52.457  13.890  1.00  0.00    -0.200 N 
HETATM    9  C   UNL     1     -40.236 -51.912  13.362  1.00  0.00     0.131 A 
ATOM     10  HN  UNL     1     -41.296 -53.186  14.600  1.00  0.00     0.183 HD
HETATM   11  C   UNL     1     -40.250 -50.931  12.406  1.00  0.00     0.065 A 
HETATM   12 CL   UNL     1     -38.821 -50.240  11.775  1.00  0.00    -0.081 Cl
HETATM   13  C   UNL     1     -41.501 -50.542  12.004  1.00  0.00     0.131 A 
HETATM   14  N   UNL     1     -42.645 -51.062  12.505  1.00  0.00    -0.200 N 
ATOM     15  HN  UNL     1     -43.556 -50.744  12.173  1.00  0.00     0.183 HD
ENDBRANCH   6   7
BRANCH   1  16
HETATM   16  C   UNL     1     -46.110 -52.388  13.571  1.00  0.00     0.054 C 
BRANCH  16  17
HETATM   17  C   UNL     1     -46.684 -51.594  12.407  1.00  0.00     0.166 C 
BRANCH  17  18
HETATM   18  O   UNL     1     -46.840 -52.463  11.291  1.00  0.00    -0.401 OA
HETATM   19  H   UNL     1     -46.257 -52.127  10.589  1.00  0.00     0.209 HD
ENDBRANCH  17  18
ENDBRANCH  16  17
ENDBRANCH   1  16
TORSDOF 4
ENDMDL
MODEL 6
REMARK VINA RESULT:      -4.8      5.389      7.429
REMARK  4 active torsions:
REMARK  status: ('A' for Active; 'I' for Inactive)
REMARK    1  A    between atoms: O_1  and  C_2 
REMARK    2  A    between atoms: C_2  and  C_3 
REMARK    3  A    between atoms: C_3  and  C_4 
REMARK    4  A    between atoms: N_9  and  C_10 
ROOT
HETATM    1  C   UNL     1     -43.355 -52.884  13.508  1.00  0.00     0.128 C 
HETATM    2  C   UNL     1     -43.464 -51.371  13.819  1.00  0.00     0.193 C 
HETATM    3  O   UNL     1     -43.072 -50.558  12.699  1.00  0.00    -0.387 OA
HETATM    4  C   UNL     1     -41.704 -50.819  12.345  1.00  0.00     0.188 C 
HETATM    5  C   UNL     1     -41.483 -52.291  11.969  1.00  0.00     0.168 C 
HETATM    6  N   UNL     1     -41.996 -53.176  13.020  1.00  0.00    -0.209 N 
ENDROOT
BRANCH   6   7
HETATM    7  C   UNL     1     -41.120 -53.891  13.803  1.00  0.00     0.680 A 
HETATM    8  N   UNL     1     -41.485 -54.228  15.051  1.00  0.00    -0.200 N 
HETATM    9  C   UNL     1     -40.578 -54.848  15.837  1.00  0.00     0.131 A 
ATOM     10  HN  UNL     1     -42.422 -54.020  15.397  1.00  0.00     0.183 HD
HETATM   11  C   UNL     1     -39.306 -55.155  15.430  1.00  0.00     0.065 A 
HETATM   12 CL   UNL     1     -38.171 -55.916  16.452  1.00  0.00    -0.081 Cl
HETATM   13  C   UNL     1     -39.017 -54.792  14.140  1.00  0.00     0.131 A 
HETATM   14  N   UNL     1     -39.895 -54.171  13.320  1.00  0.00    -0.200 N 
ATOM     15  HN  UNL     1     -39.637 -53.923  12.364  1.00  0.00     0.183 HD
ENDBRANCH   6   7
BRANCH   1  16
HETATM   16  C   UNL     1     -44.393 -53.305  12.455  1.00  0.00     0.054 C 
BRANCH  16  17
HETATM   17  C   UNL     1     -45.788 -52.799  12.789  1.00  0.00     0.166 C 
BRANCH  17  18
HETATM   18  O   UNL     1     -46.494 -52.564  11.576  1.00  0.00    -0.401 OA
HETATM   19  H   UNL     1     -47.249 -51.993  11.798  1.00  0.00     0.209 HD
ENDBRANCH  17  18
ENDBRANCH  16  17
ENDBRANCH   1  16
TORSDOF 4
ENDMDL
MODEL 7
REMARK VINA RESULT:      -4.6      5.998      8.293
REMARK  4 active torsions:
REMARK  status: ('A' for Active; 'I' for Inactive)
REMARK    1  A    between atoms: O_1  and  C_2 
REMARK    2  A    between atoms: C_2  and  C_3 
REMARK    3  A    between atoms: C_3  and  C_4 
REMARK    4  A    between atoms: N_9  and  C_10 
ROOT
HETATM    1  C   UNL     1     -42.802 -53.694  13.073  1.00  0.00     0.128 C 
HETATM    2  C   UNL     1     -44.271 -54.169  12.942  1.00  0.00     0.193 C 
HETATM    3  O   UNL     1     -45.185 -53.300  13.633  1.00  0.00    -0.387 OA
HETATM    4  C   UNL     1     -44.877 -53.262  15.036  1.00  0.00     0.188 C 
HETATM    5  C   UNL     1     -43.450 -52.757  15.293  1.00  0.00     0.168 C 
HETATM    6  N   UNL     1     -42.480 -53.521  14.499  1.00  0.00    -0.209 N 
ENDROOT
BRANCH   6   7
HETATM    7  C   UNL     1     -41.618 -54.391  15.123  1.00  0.00     0.680 A 
HETATM    8  N   UNL     1     -42.091 -55.200  16.086  1.00  0.00    -0.200 N 
HETATM    9  C   UNL     1     -41.212 -55.982  16.752  1.00  0.00     0.131 A 
ATOM     10  HN  UNL     1     -43.085 -55.224  16.309  1.00  0.00     0.183 HD
HETATM   11  C   UNL     1     -39.866 -55.996  16.497  1.00  0.00     0.065 A 
HETATM   12 CL   UNL     1     -38.774 -56.975  17.372  1.00  0.00    -0.081 Cl
HETATM   13  C   UNL     1     -39.466 -55.155  15.492  1.00  0.00     0.131 A 
HETATM   14  N   UNL     1     -40.312 -54.357  14.800  1.00  0.00    -0.200 N 
ATOM     15  HN  UNL     1     -39.969 -53.748  14.056  1.00  0.00     0.183 HD
ENDBRANCH   6   7
BRANCH   1  16
HETATM   16  C   UNL     1     -42.584 -52.371  12.321  1.00  0.00     0.054 C 
BRANCH  16  17
HETATM   17  C   UNL     1     -41.139 -52.193  11.879  1.00  0.00     0.166 C 
BRANCH  17  18
HETATM   18  O   UNL     1     -40.559 -53.477  11.679  1.00  0.00    -0.401 OA
HETATM   19  H   UNL     1     -40.371 -53.555  10.728  1.00  0.00     0.209 HD
ENDBRANCH  17  18
ENDBRANCH  16  17
ENDBRANCH   1  16
TORSDOF 4
ENDMDL
MODEL 8
REMARK VINA RESULT:      -4.6      3.557      4.805
REMARK  4 active torsions:
REMARK  status: ('A' for Active; 'I' for Inactive)
REMARK    1  A    between atoms: O_1  and  C_2 
REMARK    2  A    between atoms: C_2  and  C_3 
REMARK    3  A    between atoms: C_3  and  C_4 
REMARK    4  A    between atoms: N_9  and  C_10 
ROOT
HETATM    1  C   UNL     1     -41.113 -49.179  11.284  1.00  0.00     0.128 C 
HETATM    2  C   UNL     1     -41.701 -48.119  10.321  1.00  0.00     0.193 C 
HETATM    3  O   UNL     1     -42.040 -46.898  11.001  1.00  0.00    -0.387 OA
HETATM    4  C   UNL     1     -43.031 -47.145  12.011  1.00  0.00     0.188 C 
HETATM    5  C   UNL     1     -42.538 -48.155  13.058  1.00  0.00     0.168 C 
HETATM    6  N   UNL     1     -42.045 -49.374  12.408  1.00  0.00    -0.209 N 
ENDROOT
BRANCH   6   7
HETATM    7  C   UNL     1     -42.755 -50.546  12.521  1.00  0.00     0.680 A 
HETATM    8  N   UNL     1     -43.961 -50.525  13.114  1.00  0.00    -0.200 N 
HETATM    9  C   UNL     1     -44.603 -51.699  13.299  1.00  0.00     0.131 A 
ATOM     10  HN  UNL     1     -44.380 -49.646  13.417  1.00  0.00     0.183 HD
HETATM   11  C   UNL     1     -44.093 -52.911  12.914  1.00  0.00     0.065 A 
HETATM   12 CL   UNL     1     -44.914 -54.383  13.183  1.00  0.00    -0.081 Cl
HETATM   13  C   UNL     1     -42.867 -52.846  12.304  1.00  0.00     0.131 A 
HETATM   14  N   UNL     1     -42.191 -51.693  12.098  1.00  0.00    -0.200 N 
ATOM     15  HN  UNL     1     -41.282 -51.692  11.635  1.00  0.00     0.183 HD
ENDBRANCH   6   7
BRANCH   1  16
HETATM   16  C   UNL     1     -39.738 -48.739  11.813  1.00  0.00     0.054 C 
BRANCH  16  17
HETATM   17  C   UNL     1     -38.910 -49.915  12.307  1.00  0.00     0.166 C 
BRANCH  17  18
HETATM   18  O   UNL     1     -39.278 -51.077  11.573  1.00  0.00    -0.401 OA
HETATM   19  H   UNL     1     -38.452 -51.497  11.277  1.00  0.00     0.209 HD
ENDBRANCH  17  18
ENDBRANCH  16  17
ENDBRANCH   1  16
TORSDOF 4
ENDMDL
MODEL 9
REMARK VINA RESULT:      -4.6      3.330      5.057
REMARK  4 active torsions:
REMARK  status: ('A' for Active; 'I' for Inactive)
REMARK    1  A    between atoms: O_1  and  C_2 
REMARK    2  A    between atoms: C_2  and  C_3 
REMARK    3  A    between atoms: C_3  and  C_4 
REMARK    4  A    between atoms: N_9  and  C_10 
ROOT
HETATM    1  C   UNL     1     -40.038 -53.119  14.414  1.00  0.00     0.128 C 
HETATM    2  C   UNL     1     -41.285 -53.514  15.242  1.00  0.00     0.193 C 
HETATM    3  O   UNL     1     -42.097 -54.490  14.567  1.00  0.00    -0.387 OA
HETATM    4  C   UNL     1     -42.570 -53.969  13.314  1.00  0.00     0.188 C 
HETATM    5  C   UNL     1     -41.411 -53.583  12.383  1.00  0.00     0.168 C 
HETATM    6  N   UNL     1     -40.469 -52.694  13.071  1.00  0.00    -0.209 N 
ENDROOT
BRANCH   6   7
HETATM    7  C   UNL     1     -40.382 -51.372  12.704  1.00  0.00     0.680 A 
HETATM    8  N   UNL     1     -40.688 -51.022  11.443  1.00  0.00    -0.200 N 
HETATM    9  C   UNL     1     -40.508 -49.734  11.075  1.00  0.00     0.131 A 
ATOM     10  HN  UNL     1     -41.045 -51.711  10.781  1.00  0.00     0.183 HD
HETATM   11  C   UNL     1     -40.033 -48.765  11.919  1.00  0.00     0.065 A 
HETATM   12 CL   UNL     1     -39.791 -47.150  11.421  1.00  0.00    -0.081 Cl
HETATM   13  C   UNL     1     -39.760 -49.197  13.190  1.00  0.00     0.131 A 
HETATM   14  N   UNL     1     -39.927 -50.476  13.600  1.00  0.00    -0.200 N 
ATOM     15  HN  UNL     1     -39.713 -50.753  14.559  1.00  0.00     0.183 HD
ENDBRANCH   6   7
BRANCH   1  16
HETATM   16  C   UNL     1     -39.057 -54.298  14.302  1.00  0.00     0.054 C 
BRANCH  16  17
HETATM   17  C   UNL     1     -38.831 -54.986  15.640  1.00  0.00     0.166 C 
BRANCH  17  18
HETATM   18  O   UNL     1     -37.817 -55.972  15.483  1.00  0.00    -0.401 OA
HETATM   19  H   UNL     1     -37.317 -55.736  14.682  1.00  0.00     0.209 HD
ENDBRANCH  17  18
ENDBRANCH  16  17
ENDBRANCH   1  16
TORSDOF 4
ENDMDL
