MODEL 1
REMARK VINA RESULT:      -5.4      0.000      0.000
REMARK  4 active torsions:
REMARK  status: ('A' for Active; 'I' for Inactive)
REMARK    1  A    between atoms: C_8  and  N_9 
REMARK       I    between atoms: N_9  and  C_10 
REMARK       I    between atoms: C_10  and  N_12 
REMARK    2  A    between atoms: N_12  and  C_13 
REMARK    3  A    between atoms: C_18  and  C_19 
REMARK    4  A    between atoms: C_19  and  O_20 
ROOT
HETATM    1  N   UNL     1     -43.077 -48.199   9.665  1.00  0.00    -0.140 N 
HETATM    2  C   UNL     1     -42.167 -48.172  10.700  1.00  0.00     0.334 C 
HETATM    3  O   UNL     1     -41.535 -49.179  11.002  1.00  0.00    -0.246 OA
HETATM    4  N   UNL     1     -41.961 -46.945  11.251  1.00  0.00    -0.337 N 
HETATM    5  H   UNL     1     -43.099 -49.057   9.135  1.00  0.00     0.189 HD
HETATM    6  H   UNL     1     -42.746 -46.315  11.108  1.00  0.00     0.164 HD
ENDROOT
BRANCH   1   7
HETATM    7  C   UNL     1     -43.895 -47.137   9.340  1.00  0.00     0.703 A 
HETATM    8  N   UNL     1     -45.254 -47.208   9.137  1.00  0.00    -0.127 N 
HETATM    9  C   UNL     1     -46.084 -48.376   9.016  1.00  0.00     0.197 C 
HETATM   10  N   UNL     1     -45.763 -45.994   8.848  1.00  0.00    -0.280 N 
HETATM   11  C   UNL     1     -44.672 -45.232   8.869  1.00  0.00     0.215 A 
ATOM     12  HN  UNL     1     -46.731 -45.728   8.663  1.00  0.00     0.188 HD
HETATM   13  N   UNL     1     -43.513 -45.888   9.146  1.00  0.00    -0.185 N 
ATOM     14  HN  UNL     1     -42.569 -45.505   9.193  1.00  0.00     0.185 HD
ENDBRANCH   1   7
BRANCH   4  15
HETATM   15  C   UNL     1     -41.024 -46.582  12.304  1.00  0.00     0.092 C 
HETATM   16  C   UNL     1     -41.694 -46.695  13.676  1.00  0.00     0.026 C 
HETATM   17  C   UNL     1     -42.862 -45.717  13.831  1.00  0.00     0.002 C 
HETATM   18  C   UNL     1     -42.488 -44.276  13.483  1.00  0.00     0.001 C 
HETATM   19  C   UNL     1     -41.713 -44.133  12.171  1.00  0.00     0.009 C 
HETATM   20  C   UNL     1     -40.536 -45.126  12.101  1.00  0.00     0.032 C 
BRANCH  20  21
HETATM   21  C   UNL     1     -39.716 -44.981  10.815  1.00  0.00     0.170 C 
BRANCH  21  22
HETATM   22  O   UNL     1     -40.556 -45.105   9.668  1.00  0.00    -0.400 OA
HETATM   23  H   UNL     1     -41.385 -44.636   9.861  1.00  0.00     0.209 HD
ENDBRANCH  21  22
ENDBRANCH  20  21
ENDBRANCH   4  15
TORSDOF 4
ENDMDL
MODEL 2
REMARK VINA RESULT:      -5.4      4.603      6.656
REMARK  4 active torsions:
REMARK  status: ('A' for Active; 'I' for Inactive)
REMARK    1  A    between atoms: C_8  and  N_9 
REMARK       I    between atoms: N_9  and  C_10 
REMARK       I    between atoms: C_10  and  N_12 
REMARK    2  A    between atoms: N_12  and  C_13 
REMARK    3  A    between atoms: C_18  and  C_19 
REMARK    4  A    between atoms: C_19  and  O_20 
ROOT
HETATM    1  N   UNL     1     -41.414 -50.670  11.922  1.00  0.00    -0.140 N 
HETATM    2  C   UNL     1     -42.016 -51.888  12.155  1.00  0.00     0.334 C 
HETATM    3  O   UNL     1     -41.390 -52.933  12.005  1.00  0.00    -0.246 OA
HETATM    4  N   UNL     1     -43.279 -51.818  12.657  1.00  0.00    -0.337 N 
HETATM    5  H   UNL     1     -40.424 -50.712  11.727  1.00  0.00     0.189 HD
HETATM    6  H   UNL     1     -43.738 -50.938  12.437  1.00  0.00     0.164 HD
ENDROOT
BRANCH   1   7
HETATM    7  C   UNL     1     -42.084 -49.466  11.969  1.00  0.00     0.703 A 
HETATM    8  N   UNL     1     -42.246 -48.684  13.089  1.00  0.00    -0.127 N 
HETATM    9  C   UNL     1     -41.950 -49.006  14.459  1.00  0.00     0.197 C 
HETATM   10  N   UNL     1     -42.937 -47.564  12.800  1.00  0.00    -0.280 N 
HETATM   11  C   UNL     1     -43.186 -47.728  11.503  1.00  0.00     0.215 A 
ATOM     12  HN  UNL     1     -43.200 -46.793  13.414  1.00  0.00     0.188 HD
HETATM   13  N   UNL     1     -42.702 -48.878  10.961  1.00  0.00    -0.185 N 
ATOM     14  HN  UNL     1     -42.795 -49.208  10.001  1.00  0.00     0.185 HD
ENDBRANCH   1   7
BRANCH   4  15
HETATM   15  C   UNL     1     -44.143 -52.915  13.065  1.00  0.00     0.092 C 
HETATM   16  C   UNL     1     -45.518 -52.785  12.403  1.00  0.00     0.026 C 
HETATM   17  C   UNL     1     -46.254 -51.517  12.842  1.00  0.00     0.002 C 
HETATM   18  C   UNL     1     -46.322 -51.360  14.362  1.00  0.00     0.001 C 
HETATM   19  C   UNL     1     -44.989 -51.597  15.074  1.00  0.00     0.009 C 
HETATM   20  C   UNL     1     -44.323 -52.905  14.603  1.00  0.00     0.032 C 
BRANCH  20  21
HETATM   21  C   UNL     1     -43.004 -53.190  15.327  1.00  0.00     0.170 C 
BRANCH  21  22
HETATM   22  O   UNL     1     -42.281 -54.226  14.663  1.00  0.00    -0.400 OA
HETATM   23  H   UNL     1     -41.732 -54.673  15.330  1.00  0.00     0.209 HD
ENDBRANCH  21  22
ENDBRANCH  20  21
ENDBRANCH   4  15
TORSDOF 4
ENDMDL
MODEL 3
REMARK VINA RESULT:      -5.4      6.551      8.346
REMARK  4 active torsions:
REMARK  status: ('A' for Active; 'I' for Inactive)
REMARK    1  A    between atoms: C_8  and  N_9 
REMARK       I    between atoms: N_9  and  C_10 
REMARK       I    between atoms: C_10  and  N_12 
REMARK    2  A    between atoms: N_12  and  C_13 
REMARK    3  A    between atoms: C_18  and  C_19 
REMARK    4  A    between atoms: C_19  and  O_20 
ROOT
HETATM    1  N   UNL     1     -43.477 -53.680  12.201  1.00  0.00    -0.140 N 
HETATM    2  C   UNL     1     -44.488 -53.995  13.083  1.00  0.00     0.334 C 
HETATM    3  O   UNL     1     -45.326 -54.844  12.794  1.00  0.00    -0.246 OA
HETATM    4  N   UNL     1     -44.402 -53.386  14.297  1.00  0.00    -0.337 N 
HETATM    5  H   UNL     1     -43.430 -54.259  11.376  1.00  0.00     0.189 HD
HETATM    6  H   UNL     1     -43.862 -52.526  14.265  1.00  0.00     0.164 HD
ENDROOT
BRANCH   1   7
HETATM    7  C   UNL     1     -42.568 -52.665  12.415  1.00  0.00     0.703 A 
HETATM    8  N   UNL     1     -41.318 -52.816  12.969  1.00  0.00    -0.127 N 
HETATM    9  C   UNL     1     -40.757 -53.970  13.617  1.00  0.00     0.197 C 
HETATM   10  N   UNL     1     -40.670 -51.636  13.029  1.00  0.00    -0.280 N 
HETATM   11  C   UNL     1     -41.577 -50.805  12.519  1.00  0.00     0.215 A 
ATOM     12  HN  UNL     1     -39.731 -51.433  13.373  1.00  0.00     0.188 HD
HETATM   13  N   UNL     1     -42.750 -51.385  12.150  1.00  0.00    -0.185 N 
ATOM     14  HN  UNL     1     -43.578 -50.935  11.759  1.00  0.00     0.185 HD
ENDBRANCH   1   7
BRANCH   4  15
HETATM   15  C   UNL     1     -45.270 -53.564  15.451  1.00  0.00     0.092 C 
HETATM   16  C   UNL     1     -46.588 -52.810  15.248  1.00  0.00     0.026 C 
HETATM   17  C   UNL     1     -46.378 -51.298  15.139  1.00  0.00     0.002 C 
HETATM   18  C   UNL     1     -45.550 -50.723  16.289  1.00  0.00     0.001 C 
HETATM   19  C   UNL     1     -44.280 -51.517  16.600  1.00  0.00     0.009 C 
HETATM   20  C   UNL     1     -44.575 -53.025  16.726  1.00  0.00     0.032 C 
BRANCH  20  21
HETATM   21  C   UNL     1     -43.328 -53.843  17.076  1.00  0.00     0.170 C 
BRANCH  21  22
HETATM   22  O   UNL     1     -43.421 -55.158  16.530  1.00  0.00    -0.400 OA
HETATM   23  H   UNL     1     -42.579 -55.349  16.082  1.00  0.00     0.209 HD
ENDBRANCH  21  22
ENDBRANCH  20  21
ENDBRANCH   4  15
TORSDOF 4
ENDMDL
MODEL 4
REMARK VINA RESULT:      -5.3      4.638      6.362
REMARK  4 active torsions:
REMARK  status: ('A' for Active; 'I' for Inactive)
REMARK    1  A    between atoms: C_8  and  N_9 
REMARK       I    between atoms: N_9  and  C_10 
REMARK       I    between atoms: C_10  and  N_12 
REMARK    2  A    between atoms: N_12  and  C_13 
REMARK    3  A    between atoms: C_18  and  C_19 
REMARK    4  A    between atoms: C_19  and  O_20 
ROOT
HETATM    1  N   UNL     1     -42.012 -50.965  11.716  1.00  0.00    -0.140 N 
HETATM    2  C   UNL     1     -41.120 -49.943  11.470  1.00  0.00     0.334 C 
HETATM    3  O   UNL     1     -41.472 -48.941  10.855  1.00  0.00    -0.246 OA
HETATM    4  N   UNL     1     -39.900 -50.093  12.053  1.00  0.00    -0.337 N 
HETATM    5  H   UNL     1     -42.966 -50.776  11.445  1.00  0.00     0.189 HD
HETATM    6  H   UNL     1     -39.680 -51.065  12.253  1.00  0.00     0.164 HD
ENDROOT
BRANCH   1   7
HETATM    7  C   UNL     1     -41.659 -52.160  12.307  1.00  0.00     0.703 A 
HETATM    8  N   UNL     1     -41.905 -52.508  13.615  1.00  0.00    -0.127 N 
HETATM    9  C   UNL     1     -42.383 -51.680  14.689  1.00  0.00     0.197 C 
HETATM   10  N   UNL     1     -41.448 -53.747  13.879  1.00  0.00    -0.280 N 
HETATM   11  C   UNL     1     -40.918 -54.094  12.708  1.00  0.00     0.215 A 
ATOM     12  HN  UNL     1     -41.495 -54.280  14.748  1.00  0.00     0.188 HD
HETATM   13  N   UNL     1     -41.008 -53.153  11.731  1.00  0.00    -0.185 N 
ATOM     14  HN  UNL     1     -40.654 -53.203  10.775  1.00  0.00     0.185 HD
ENDBRANCH   1   7
BRANCH   4  15
HETATM   15  C   UNL     1     -38.779 -49.166  12.038  1.00  0.00     0.092 C 
HETATM   16  C   UNL     1     -37.483 -49.901  11.684  1.00  0.00     0.026 C 
HETATM   17  C   UNL     1     -37.112 -50.953  12.732  1.00  0.00     0.002 C 
HETATM   18  C   UNL     1     -37.097 -50.400  14.158  1.00  0.00     0.001 C 
HETATM   19  C   UNL     1     -38.325 -49.560  14.513  1.00  0.00     0.009 C 
HETATM   20  C   UNL     1     -38.618 -48.504  13.428  1.00  0.00     0.032 C 
BRANCH  20  21
HETATM   21  C   UNL     1     -39.820 -47.620  13.775  1.00  0.00     0.170 C 
BRANCH  21  22
HETATM   22  O   UNL     1     -40.238 -46.871  12.634  1.00  0.00    -0.400 OA
HETATM   23  H   UNL     1     -41.066 -47.268  12.311  1.00  0.00     0.209 HD
ENDBRANCH  21  22
ENDBRANCH  20  21
ENDBRANCH   4  15
TORSDOF 4
ENDMDL
MODEL 5
REMARK VINA RESULT:      -5.3      4.905      6.198
REMARK  4 active torsions:
REMARK  status: ('A' for Active; 'I' for Inactive)
REMARK    1  A    between atoms: C_8  and  N_9 
REMARK       I    between atoms: N_9  and  C_10 
REMARK       I    between atoms: C_10  and  N_12 
REMARK    2  A    between atoms: N_12  and  C_13 
REMARK    3  A    between atoms: C_18  and  C_19 
REMARK    4  A    between atoms: C_19  and  O_20 
ROOT
HETATM    1  N   UNL     1     -41.267 -53.550  12.643  1.00  0.00    -0.140 N 
HETATM    2  C   UNL     1     -40.460 -52.505  13.039  1.00  0.00     0.334 C 
HETATM    3  O   UNL     1     -39.238 -52.604  12.984  1.00  0.00    -0.246 OA
HETATM    4  N   UNL     1     -41.121 -51.362  13.370  1.00  0.00    -0.337 N 
HETATM    5  H   UNL     1     -40.784 -54.330  12.224  1.00  0.00     0.189 HD
HETATM    6  H   UNL     1     -42.083 -51.535  13.650  1.00  0.00     0.164 HD
ENDROOT
BRANCH   1   7
HETATM    7  C   UNL     1     -42.640 -53.546  12.776  1.00  0.00     0.703 A 
HETATM    8  N   UNL     1     -43.342 -54.089  13.827  1.00  0.00    -0.127 N 
HETATM    9  C   UNL     1     -42.860 -54.931  14.890  1.00  0.00     0.197 C 
HETATM   10  N   UNL     1     -44.668 -53.910  13.667  1.00  0.00    -0.280 N 
HETATM   11  C   UNL     1     -44.714 -53.274  12.499  1.00  0.00     0.215 A 
ATOM     12  HN  UNL     1     -45.434 -54.187  14.281  1.00  0.00     0.188 HD
HETATM   13  N   UNL     1     -43.507 -53.049  11.914  1.00  0.00    -0.185 N 
ATOM     14  HN  UNL     1     -43.316 -52.600  11.018  1.00  0.00     0.185 HD
ENDBRANCH   1   7
BRANCH   4  15
HETATM   15  C   UNL     1     -40.553 -50.081  13.759  1.00  0.00     0.092 C 
HETATM   16  C   UNL     1     -41.331 -49.489  14.939  1.00  0.00     0.026 C 
HETATM   17  C   UNL     1     -42.787 -49.184  14.576  1.00  0.00     0.002 C 
HETATM   18  C   UNL     1     -42.925 -48.342  13.307  1.00  0.00     0.001 C 
HETATM   19  C   UNL     1     -42.072 -48.835  12.137  1.00  0.00     0.009 C 
HETATM   20  C   UNL     1     -40.614 -49.090  12.570  1.00  0.00     0.032 C 
BRANCH  20  21
HETATM   21  C   UNL     1     -39.724 -49.547  11.410  1.00  0.00     0.170 C 
BRANCH  21  22
HETATM   22  O   UNL     1     -40.512 -50.131  10.373  1.00  0.00    -0.400 OA
HETATM   23  H   UNL     1     -40.281 -51.075  10.327  1.00  0.00     0.209 HD
ENDBRANCH  21  22
ENDBRANCH  20  21
ENDBRANCH   4  15
TORSDOF 4
ENDMDL
MODEL 6
REMARK VINA RESULT:      -5.3      6.486      7.722
REMARK  4 active torsions:
REMARK  status: ('A' for Active; 'I' for Inactive)
REMARK    1  A    between atoms: C_8  and  N_9 
REMARK       I    between atoms: N_9  and  C_10 
REMARK       I    between atoms: C_10  and  N_12 
REMARK    2  A    between atoms: N_12  and  C_13 
REMARK    3  A    between atoms: C_18  and  C_19 
REMARK    4  A    between atoms: C_19  and  O_20 
ROOT
HETATM    1  N   UNL     1     -45.279 -54.586  14.136  1.00  0.00    -0.140 N 
HETATM    2  C   UNL     1     -44.022 -54.727  14.684  1.00  0.00     0.334 C 
HETATM    3  O   UNL     1     -43.632 -55.821  15.079  1.00  0.00    -0.246 OA
HETATM    4  N   UNL     1     -43.247 -53.609  14.638  1.00  0.00    -0.337 N 
HETATM    5  H   UNL     1     -45.787 -55.448  14.000  1.00  0.00     0.189 HD
HETATM    6  H   UNL     1     -43.796 -52.756  14.572  1.00  0.00     0.164 HD
ENDROOT
BRANCH   1   7
HETATM    7  C   UNL     1     -45.820 -53.371  13.770  1.00  0.00     0.703 A 
HETATM    8  N   UNL     1     -46.333 -52.432  14.634  1.00  0.00    -0.127 N 
HETATM    9  C   UNL     1     -46.607 -52.561  16.040  1.00  0.00     0.197 C 
HETATM   10  N   UNL     1     -46.773 -51.348  13.965  1.00  0.00    -0.280 N 
HETATM   11  C   UNL     1     -46.522 -51.691  12.703  1.00  0.00     0.215 A 
ATOM     12  HN  UNL     1     -47.188 -50.490  14.329  1.00  0.00     0.188 HD
HETATM   13  N   UNL     1     -45.960 -52.919  12.538  1.00  0.00    -0.185 N 
ATOM     14  HN  UNL     1     -45.706 -53.382  11.665  1.00  0.00     0.185 HD
ENDBRANCH   1   7
BRANCH   4  15
HETATM   15  C   UNL     1     -41.866 -53.458  15.069  1.00  0.00     0.092 C 
HETATM   16  C   UNL     1     -41.769 -52.428  16.199  1.00  0.00     0.026 C 
HETATM   17  C   UNL     1     -42.197 -51.030  15.744  1.00  0.00     0.002 C 
HETATM   18  C   UNL     1     -41.483 -50.569  14.473  1.00  0.00     0.001 C 
HETATM   19  C   UNL     1     -41.457 -51.616  13.358  1.00  0.00     0.009 C 
HETATM   20  C   UNL     1     -40.988 -52.988  13.884  1.00  0.00     0.032 C 
BRANCH  20  21
HETATM   21  C   UNL     1     -40.914 -54.049  12.781  1.00  0.00     0.170 C 
BRANCH  21  22
HETATM   22  O   UNL     1     -40.576 -53.451  11.531  1.00  0.00    -0.400 OA
HETATM   23  H   UNL     1     -40.495 -54.166  10.877  1.00  0.00     0.209 HD
ENDBRANCH  21  22
ENDBRANCH  20  21
ENDBRANCH   4  15
TORSDOF 4
ENDMDL
MODEL 7
REMARK VINA RESULT:      -5.3      7.158      9.006
REMARK  4 active torsions:
REMARK  status: ('A' for Active; 'I' for Inactive)
REMARK    1  A    between atoms: C_8  and  N_9 
REMARK       I    between atoms: N_9  and  C_10 
REMARK       I    between atoms: C_10  and  N_12 
REMARK    2  A    between atoms: N_12  and  C_13 
REMARK    3  A    between atoms: C_18  and  C_19 
REMARK    4  A    between atoms: C_19  and  O_20 
ROOT
HETATM    1  N   UNL     1     -41.778 -54.529  14.398  1.00  0.00    -0.140 N 
HETATM    2  C   UNL     1     -43.002 -54.934  14.885  1.00  0.00     0.334 C 
HETATM    3  O   UNL     1     -43.107 -55.980  15.517  1.00  0.00    -0.246 OA
HETATM    4  N   UNL     1     -44.015 -54.043  14.707  1.00  0.00    -0.337 N 
HETATM    5  H   UNL     1     -40.993 -55.094  14.685  1.00  0.00     0.189 HD
HETATM    6  H   UNL     1     -43.842 -53.405  13.934  1.00  0.00     0.164 HD
ENDROOT
BRANCH   1   7
HETATM    7  C   UNL     1     -41.606 -53.422  13.592  1.00  0.00     0.703 A 
HETATM    8  N   UNL     1     -41.316 -52.152  14.032  1.00  0.00    -0.127 N 
HETATM    9  C   UNL     1     -41.322 -51.643  15.377  1.00  0.00     0.197 C 
HETATM   10  N   UNL     1     -41.197 -51.298  12.996  1.00  0.00    -0.280 N 
HETATM   11  C   UNL     1     -41.444 -52.096  11.959  1.00  0.00     0.215 A 
ATOM     12  HN  UNL     1     -40.976 -50.302  13.004  1.00  0.00     0.188 HD
HETATM   13  N   UNL     1     -41.715 -53.390  12.277  1.00  0.00    -0.185 N 
ATOM     14  HN  UNL     1     -41.948 -54.157  11.646  1.00  0.00     0.185 HD
ENDBRANCH   1   7
BRANCH   4  15
HETATM   15  C   UNL     1     -45.392 -54.149  15.163  1.00  0.00     0.092 C 
HETATM   16  C   UNL     1     -46.360 -53.892  14.005  1.00  0.00     0.026 C 
HETATM   17  C   UNL     1     -46.234 -52.470  13.451  1.00  0.00     0.002 C 
HETATM   18  C   UNL     1     -46.326 -51.395  14.535  1.00  0.00     0.001 C 
HETATM   19  C   UNL     1     -45.459 -51.674  15.764  1.00  0.00     0.009 C 
HETATM   20  C   UNL     1     -45.662 -53.112  16.282  1.00  0.00     0.032 C 
BRANCH  20  21
HETATM   21  C   UNL     1     -44.836 -53.410  17.538  1.00  0.00     0.170 C 
BRANCH  21  22
HETATM   22  O   UNL     1     -44.756 -54.816  17.764  1.00  0.00    -0.400 OA
HETATM   23  H   UNL     1     -45.000 -55.261  16.934  1.00  0.00     0.209 HD
ENDBRANCH  21  22
ENDBRANCH  20  21
ENDBRANCH   4  15
TORSDOF 4
ENDMDL
MODEL 8
REMARK VINA RESULT:      -5.2      2.222      3.375
REMARK  4 active torsions:
REMARK  status: ('A' for Active; 'I' for Inactive)
REMARK    1  A    between atoms: C_8  and  N_9 
REMARK       I    between atoms: N_9  and  C_10 
REMARK       I    between atoms: C_10  and  N_12 
REMARK    2  A    between atoms: N_12  and  C_13 
REMARK    3  A    between atoms: C_18  and  C_19 
REMARK    4  A    between atoms: C_19  and  O_20 
ROOT
HETATM    1  N   UNL     1     -40.631 -46.424  10.054  1.00  0.00    -0.140 N 
HETATM    2  C   UNL     1     -40.160 -45.177  10.408  1.00  0.00     0.334 C 
HETATM    3  O   UNL     1     -39.123 -44.740   9.920  1.00  0.00    -0.246 OA
HETATM    4  N   UNL     1     -40.982 -44.464  11.225  1.00  0.00    -0.337 N 
HETATM    5  H   UNL     1     -40.122 -46.880   9.311  1.00  0.00     0.189 HD
HETATM    6  H   UNL     1     -41.613 -45.056  11.759  1.00  0.00     0.164 HD
ENDROOT
BRANCH   1   7
HETATM    7  C   UNL     1     -41.728 -47.019  10.640  1.00  0.00     0.703 A 
HETATM    8  N   UNL     1     -42.941 -47.238  10.029  1.00  0.00    -0.127 N 
HETATM    9  C   UNL     1     -43.410 -46.742   8.763  1.00  0.00     0.197 C 
HETATM   10  N   UNL     1     -43.800 -47.852  10.865  1.00  0.00    -0.280 N 
HETATM   11  C   UNL     1     -43.068 -47.962  11.971  1.00  0.00     0.215 A 
ATOM     12  HN  UNL     1     -44.760 -48.153  10.696  1.00  0.00     0.188 HD
HETATM   13  N   UNL     1     -41.809 -47.454  11.884  1.00  0.00    -0.185 N 
ATOM     14  HN  UNL     1     -41.094 -47.417  12.611  1.00  0.00     0.185 HD
ENDBRANCH   1   7
BRANCH   4  15
HETATM   15  C   UNL     1     -40.800 -43.106  11.714  1.00  0.00     0.092 C 
HETATM   16  C   UNL     1     -39.898 -43.102  12.952  1.00  0.00     0.026 C 
HETATM   17  C   UNL     1     -40.522 -43.865  14.124  1.00  0.00     0.002 C 
HETATM   18  C   UNL     1     -41.949 -43.414  14.441  1.00  0.00     0.001 C 
HETATM   19  C   UNL     1     -42.852 -43.294  13.212  1.00  0.00     0.009 C 
HETATM   20  C   UNL     1     -42.169 -42.488  12.088  1.00  0.00     0.032 C 
BRANCH  20  21
HETATM   21  C   UNL     1     -43.065 -42.316  10.857  1.00  0.00     0.170 C 
BRANCH  21  22
HETATM   22  O   UNL     1     -43.497 -43.585  10.370  1.00  0.00    -0.400 OA
HETATM   23  H   UNL     1     -42.874 -43.860   9.675  1.00  0.00     0.209 HD
ENDBRANCH  21  22
ENDBRANCH  20  21
ENDBRANCH   4  15
TORSDOF 4
ENDMDL
MODEL 9
REMARK VINA RESULT:      -5.1      3.250      4.481
REMARK  4 active torsions:
REMARK  status: ('A' for Active; 'I' for Inactive)
REMARK    1  A    between atoms: C_8  and  N_9 
REMARK       I    between atoms: N_9  and  C_10 
REMARK       I    between atoms: C_10  and  N_12 
REMARK    2  A    between atoms: N_12  and  C_13 
REMARK    3  A    between atoms: C_18  and  C_19 
REMARK    4  A    between atoms: C_19  and  O_20 
ROOT
HETATM    1  N   UNL     1     -41.953 -49.326  11.012  1.00  0.00    -0.140 N 
HETATM    2  C   UNL     1     -41.415 -50.210  11.923  1.00  0.00     0.334 C 
HETATM    3  O   UNL     1     -41.962 -51.285  12.149  1.00  0.00    -0.246 OA
HETATM    4  N   UNL     1     -40.209 -49.843  12.436  1.00  0.00    -0.337 N 
HETATM    5  H   UNL     1     -42.747 -49.674  10.495  1.00  0.00     0.189 HD
HETATM    6  H   UNL     1     -40.054 -48.839  12.389  1.00  0.00     0.164 HD
ENDROOT
BRANCH   1   7
HETATM    7  C   UNL     1     -41.450 -48.062  10.788  1.00  0.00     0.703 A 
HETATM    8  N   UNL     1     -42.153 -47.005  10.258  1.00  0.00    -0.127 N 
HETATM    9  C   UNL     1     -43.456 -47.008   9.649  1.00  0.00     0.197 C 
HETATM   10  N   UNL     1     -41.382 -45.903  10.179  1.00  0.00    -0.280 N 
HETATM   11  C   UNL     1     -40.222 -46.352  10.652  1.00  0.00     0.215 A 
ATOM     12  HN  UNL     1     -41.624 -44.970   9.844  1.00  0.00     0.188 HD
HETATM   13  N   UNL     1     -40.213 -47.662  11.016  1.00  0.00    -0.185 N 
ATOM     14  HN  UNL     1     -39.433 -48.208  11.382  1.00  0.00     0.185 HD
ENDBRANCH   1   7
BRANCH   4  15
HETATM   15  C   UNL     1     -39.364 -50.586  13.358  1.00  0.00     0.092 C 
HETATM   16  C   UNL     1     -39.733 -50.252  14.807  1.00  0.00     0.026 C 
HETATM   17  C   UNL     1     -39.484 -48.779  15.141  1.00  0.00     0.002 C 
HETATM   18  C   UNL     1     -38.075 -48.312  14.777  1.00  0.00     0.001 C 
HETATM   19  C   UNL     1     -37.623 -48.727  13.375  1.00  0.00     0.009 C 
HETATM   20  C   UNL     1     -37.876 -50.227  13.123  1.00  0.00     0.032 C 
BRANCH  20  21
HETATM   21  C   UNL     1     -37.398 -50.682  11.740  1.00  0.00     0.170 C 
BRANCH  21  22
HETATM   22  O   UNL     1     -37.980 -49.875  10.717  1.00  0.00    -0.400 OA
HETATM   23  H   UNL     1     -37.405 -49.101  10.593  1.00  0.00     0.209 HD
ENDBRANCH  21  22
ENDBRANCH  20  21
ENDBRANCH   4  15
TORSDOF 4
ENDMDL
