MODEL 1
REMARK VINA RESULT:      -6.2      0.000      0.000
REMARK  5 active torsions:
REMARK  status: ('A' for Active; 'I' for Inactive)
REMARK    1  A    between atoms: N_8  and  C_9 
REMARK    2  A    between atoms: C_9  and  C_10 
REMARK    3  A    between atoms: C_10  and  O_11 
REMARK    4  A    between atoms: C_10  and  C_12 
REMARK    5  A    between atoms: C_12  and  N_13 
ROOT
HETATM    1  C   UNL     1     -46.107 -54.578  14.407  1.00  0.00     0.049 C 
HETATM    2  C   UNL     1     -45.144 -53.562  13.861  1.00  0.00    -0.054 A 
HETATM    3  C   UNL     1     -43.913 -54.007  13.337  1.00  0.00     0.039 A 
HETATM    4  C   UNL     1     -42.990 -53.078  12.834  1.00  0.00     0.060 A 
HETATM    5  N   UNL     1     -41.751 -53.294  12.286  1.00  0.00    -0.350 N 
ATOM      6  HN  UNL     1     -41.296 -54.191  12.115  1.00  0.00     0.166 HD
HETATM    7  C   UNL     1     -41.279 -52.096  12.030  1.00  0.00     0.184 A 
HETATM    8  N   UNL     1     -42.180 -51.115  12.350  1.00  0.00    -0.339 N 
HETATM    9  C   UNL     1     -43.300 -51.721  12.866  1.00  0.00     0.062 A 
HETATM   10  C   UNL     1     -44.514 -51.241  13.375  1.00  0.00     0.039 A 
HETATM   11  C   UNL     1     -45.439 -52.178  13.876  1.00  0.00    -0.054 A 
HETATM   12  C   UNL     1     -46.749 -51.680  14.434  1.00  0.00     0.049 C 
ENDROOT
BRANCH   8  13
HETATM   13  C   UNL     1     -41.914 -49.684  12.262  1.00  0.00     0.163 C 
BRANCH  13  14
HETATM   14  C   UNL     1     -40.708 -49.418  11.358  1.00  0.00     0.164 C 
BRANCH  14  15
HETATM   15  O   UNL     1     -41.205 -48.971  10.086  1.00  0.00    -0.392 OA
HETATM   16  H   UNL     1     -41.200 -47.998  10.087  1.00  0.00     0.210 HD
ENDBRANCH  14  15
BRANCH  14  17
HETATM   17  C   UNL     1     -39.728 -48.367  11.942  1.00  0.00     0.305 C 
BRANCH  17  18
HETATM   18  N   UNL     1     -38.530 -49.022  12.493  1.00  0.00     0.090 N 
HETATM   19  C   UNL     1     -37.988 -50.071  11.618  1.00  0.00     0.272 C 
HETATM   20  C   UNL     1     -37.205 -51.002  12.536  1.00  0.00     0.032 C 
HETATM   21  C   UNL     1     -37.451 -50.469  13.938  1.00  0.00     0.032 C 
HETATM   22  C   UNL     1     -38.727 -49.653  13.798  1.00  0.00     0.272 C 
ENDBRANCH  17  18
ENDBRANCH  14  17
ENDBRANCH  13  14
ENDBRANCH   8  13
TORSDOF 5
ENDMDL
MODEL 2
REMARK VINA RESULT:      -6.0      1.347      2.346
REMARK  5 active torsions:
REMARK  status: ('A' for Active; 'I' for Inactive)
REMARK    1  A    between atoms: N_8  and  C_9 
REMARK    2  A    between atoms: C_9  and  C_10 
REMARK    3  A    between atoms: C_10  and  O_11 
REMARK    4  A    between atoms: C_10  and  C_12 
REMARK    5  A    between atoms: C_12  and  N_13 
ROOT
HETATM    1  C   UNL     1     -46.352 -54.379  14.695  1.00  0.00     0.049 C 
HETATM    2  C   UNL     1     -45.298 -53.514  14.064  1.00  0.00    -0.054 A 
HETATM    3  C   UNL     1     -44.117 -54.121  13.592  1.00  0.00     0.039 A 
HETATM    4  C   UNL     1     -43.110 -53.334  13.011  1.00  0.00     0.060 A 
HETATM    5  N   UNL     1     -41.899 -53.718  12.493  1.00  0.00    -0.350 N 
ATOM      6  HN  UNL     1     -41.532 -54.666  12.408  1.00  0.00     0.166 HD
HETATM    7  C   UNL     1     -41.314 -52.599  12.131  1.00  0.00     0.184 A 
HETATM    8  N   UNL     1     -42.117 -51.511  12.354  1.00  0.00    -0.339 N 
HETATM    9  C   UNL     1     -43.289 -51.957  12.915  1.00  0.00     0.062 A 
HETATM   10  C   UNL     1     -44.450 -51.318  13.371  1.00  0.00     0.039 A 
HETATM   11  C   UNL     1     -45.459 -52.113  13.949  1.00  0.00    -0.054 A 
HETATM   12  C   UNL     1     -46.714 -51.443  14.450  1.00  0.00     0.049 C 
ENDROOT
BRANCH   8  13
HETATM   13  C   UNL     1     -41.716 -50.126  12.135  1.00  0.00     0.163 C 
BRANCH  13  14
HETATM   14  C   UNL     1     -40.322 -50.065  11.508  1.00  0.00     0.164 C 
BRANCH  14  15
HETATM   15  O   UNL     1     -40.487 -49.908  10.089  1.00  0.00    -0.392 OA
HETATM   16  H   UNL     1     -41.136 -50.567   9.787  1.00  0.00     0.210 HD
ENDBRANCH  14  15
BRANCH  14  17
HETATM   17  C   UNL     1     -39.450 -48.911  12.070  1.00  0.00     0.305 C 
BRANCH  17  18
HETATM   18  N   UNL     1     -40.253 -47.690  12.245  1.00  0.00     0.090 N 
HETATM   19  C   UNL     1     -39.977 -46.664  11.230  1.00  0.00     0.272 C 
HETATM   20  C   UNL     1     -40.383 -45.341  11.868  1.00  0.00     0.032 C 
HETATM   21  C   UNL     1     -40.773 -45.696  13.293  1.00  0.00     0.032 C 
HETATM   22  C   UNL     1     -40.081 -47.028  13.538  1.00  0.00     0.272 C 
ENDBRANCH  17  18
ENDBRANCH  14  17
ENDBRANCH  13  14
ENDBRANCH   8  13
TORSDOF 5
ENDMDL
MODEL 3
REMARK VINA RESULT:      -5.8      3.078      4.438
REMARK  5 active torsions:
REMARK  status: ('A' for Active; 'I' for Inactive)
REMARK    1  A    between atoms: N_8  and  C_9 
REMARK    2  A    between atoms: C_9  and  C_10 
REMARK    3  A    between atoms: C_10  and  O_11 
REMARK    4  A    between atoms: C_10  and  C_12 
REMARK    5  A    between atoms: C_12  and  N_13 
ROOT
HETATM    1  C   UNL     1     -47.580 -51.217  16.656  1.00  0.00     0.049 C 
HETATM    2  C   UNL     1     -46.454 -51.409  15.680  1.00  0.00    -0.054 A 
HETATM    3  C   UNL     1     -46.635 -52.299  14.602  1.00  0.00     0.039 A 
HETATM    4  C   UNL     1     -45.595 -52.507  13.684  1.00  0.00     0.060 A 
HETATM    5  N   UNL     1     -45.562 -53.318  12.578  1.00  0.00    -0.350 N 
ATOM      6  HN  UNL     1     -46.318 -53.893  12.207  1.00  0.00     0.166 HD
HETATM    7  C   UNL     1     -44.345 -53.193  12.101  1.00  0.00     0.184 A 
HETATM    8  N   UNL     1     -43.603 -52.300  12.828  1.00  0.00    -0.339 N 
HETATM    9  C   UNL     1     -44.388 -51.834  13.855  1.00  0.00     0.062 A 
HETATM   10  C   UNL     1     -44.172 -50.939  14.912  1.00  0.00     0.039 A 
HETATM   11  C   UNL     1     -45.221 -50.732  15.829  1.00  0.00    -0.054 A 
HETATM   12  C   UNL     1     -45.004 -49.777  16.976  1.00  0.00     0.049 C 
ENDROOT
BRANCH   8  13
HETATM   13  C   UNL     1     -42.192 -52.013  12.599  1.00  0.00     0.163 C 
BRANCH  13  14
HETATM   14  C   UNL     1     -41.354 -53.284  12.760  1.00  0.00     0.164 C 
BRANCH  14  15
HETATM   15  O   UNL     1     -40.570 -53.446  11.566  1.00  0.00    -0.392 OA
HETATM   16  H   UNL     1     -40.683 -54.361  11.255  1.00  0.00     0.210 HD
ENDBRANCH  14  15
BRANCH  14  17
HETATM   17  C   UNL     1     -40.425 -53.248  14.002  1.00  0.00     0.305 C 
BRANCH  17  18
HETATM   18  N   UNL     1     -41.072 -53.895  15.155  1.00  0.00     0.090 N 
HETATM   19  C   UNL     1     -42.210 -54.745  14.779  1.00  0.00     0.272 C 
HETATM   20  C   UNL     1     -43.085 -54.824  16.025  1.00  0.00     0.032 C 
HETATM   21  C   UNL     1     -42.425 -53.895  17.029  1.00  0.00     0.032 C 
HETATM   22  C   UNL     1     -41.580 -52.970  16.167  1.00  0.00     0.272 C 
ENDBRANCH  17  18
ENDBRANCH  14  17
ENDBRANCH  13  14
ENDBRANCH   8  13
TORSDOF 5
ENDMDL
MODEL 4
REMARK VINA RESULT:      -5.6      2.153      3.657
REMARK  5 active torsions:
REMARK  status: ('A' for Active; 'I' for Inactive)
REMARK    1  A    between atoms: N_8  and  C_9 
REMARK    2  A    between atoms: C_9  and  C_10 
REMARK    3  A    between atoms: C_10  and  O_11 
REMARK    4  A    between atoms: C_10  and  C_12 
REMARK    5  A    between atoms: C_12  and  N_13 
ROOT
HETATM    1  C   UNL     1     -47.213 -51.593  15.812  1.00  0.00     0.049 C 
HETATM    2  C   UNL     1     -45.900 -51.155  15.228  1.00  0.00    -0.054 A 
HETATM    3  C   UNL     1     -44.931 -50.593  16.084  1.00  0.00     0.039 A 
HETATM    4  C   UNL     1     -43.701 -50.164  15.562  1.00  0.00     0.060 A 
HETATM    5  N   UNL     1     -42.633 -49.597  16.211  1.00  0.00    -0.350 N 
ATOM      6  HN  UNL     1     -42.536 -49.421  17.211  1.00  0.00     0.166 HD
HETATM    7  C   UNL     1     -41.763 -49.330  15.264  1.00  0.00     0.184 A 
HETATM    8  N   UNL     1     -42.207 -49.742  14.035  1.00  0.00    -0.339 N 
HETATM    9  C   UNL     1     -43.456 -50.292  14.198  1.00  0.00     0.062 A 
HETATM   10  C   UNL     1     -44.393 -50.849  13.316  1.00  0.00     0.039 A 
HETATM   11  C   UNL     1     -45.624 -51.282  13.846  1.00  0.00    -0.054 A 
HETATM   12  C   UNL     1     -46.647 -51.878  12.912  1.00  0.00     0.049 C 
ENDROOT
BRANCH   8  13
HETATM   13  C   UNL     1     -41.505 -49.508  12.778  1.00  0.00     0.163 C 
BRANCH  13  14
HETATM   14  C   UNL     1     -41.072 -50.835  12.152  1.00  0.00     0.164 C 
BRANCH  14  15
HETATM   15  O   UNL     1     -40.581 -50.557  10.830  1.00  0.00    -0.392 OA
HETATM   16  H   UNL     1     -40.389 -49.604  10.776  1.00  0.00     0.210 HD
ENDBRANCH  14  15
BRANCH  14  17
HETATM   17  C   UNL     1     -39.982 -51.571  12.977  1.00  0.00     0.305 C 
BRANCH  17  18
HETATM   18  N   UNL     1     -40.485 -52.865  13.466  1.00  0.00     0.090 N 
HETATM   19  C   UNL     1     -41.721 -53.297  12.799  1.00  0.00     0.272 C 
HETATM   20  C   UNL     1     -42.398 -54.251  13.776  1.00  0.00     0.032 C 
HETATM   21  C   UNL     1     -41.532 -54.215  15.024  1.00  0.00     0.032 C 
HETATM   22  C   UNL     1     -40.771 -52.904  14.900  1.00  0.00     0.272 C 
ENDBRANCH  17  18
ENDBRANCH  14  17
ENDBRANCH  13  14
ENDBRANCH   8  13
TORSDOF 5
ENDMDL
MODEL 5
REMARK VINA RESULT:      -5.5      2.397      3.382
REMARK  5 active torsions:
REMARK  status: ('A' for Active; 'I' for Inactive)
REMARK    1  A    between atoms: N_8  and  C_9 
REMARK    2  A    between atoms: C_9  and  C_10 
REMARK    3  A    between atoms: C_10  and  O_11 
REMARK    4  A    between atoms: C_10  and  C_12 
REMARK    5  A    between atoms: C_12  and  N_13 
ROOT
HETATM    1  C   UNL     1     -47.653 -51.248  16.776  1.00  0.00     0.049 C 
HETATM    2  C   UNL     1     -46.499 -51.450  15.836  1.00  0.00    -0.054 A 
HETATM    3  C   UNL     1     -46.637 -52.374  14.781  1.00  0.00     0.039 A 
HETATM    4  C   UNL     1     -45.569 -52.591  13.897  1.00  0.00     0.060 A 
HETATM    5  N   UNL     1     -45.493 -53.434  12.817  1.00  0.00    -0.350 N 
ATOM      6  HN  UNL     1     -46.230 -54.033  12.443  1.00  0.00     0.166 HD
HETATM    7  C   UNL     1     -44.266 -53.303  12.369  1.00  0.00     0.184 A 
HETATM    8  N   UNL     1     -43.558 -52.377  13.089  1.00  0.00    -0.339 N 
HETATM    9  C   UNL     1     -44.378 -51.894  14.080  1.00  0.00     0.062 A 
HETATM   10  C   UNL     1     -44.204 -50.965  15.115  1.00  0.00     0.039 A 
HETATM   11  C   UNL     1     -45.281 -50.748  15.997  1.00  0.00    -0.054 A 
HETATM   12  C   UNL     1     -45.110 -49.756  17.121  1.00  0.00     0.049 C 
ENDROOT
BRANCH   8  13
HETATM   13  C   UNL     1     -42.145 -52.074  12.888  1.00  0.00     0.163 C 
BRANCH  13  14
HETATM   14  C   UNL     1     -41.345 -53.362  12.685  1.00  0.00     0.164 C 
BRANCH  14  15
HETATM   15  O   UNL     1     -40.738 -53.300  11.383  1.00  0.00    -0.392 OA
HETATM   16  H   UNL     1     -40.347 -54.169  11.192  1.00  0.00     0.210 HD
ENDBRANCH  14  15
BRANCH  14  17
HETATM   17  C   UNL     1     -40.254 -53.580  13.767  1.00  0.00     0.305 C 
BRANCH  17  18
HETATM   18  N   UNL     1     -39.844 -52.295  14.358  1.00  0.00     0.090 N 
HETATM   19  C   UNL     1     -38.588 -51.776  13.800  1.00  0.00     0.272 C 
HETATM   20  C   UNL     1     -38.020 -50.850  14.870  1.00  0.00     0.032 C 
HETATM   21  C   UNL     1     -38.964 -50.992  16.053  1.00  0.00     0.032 C 
HETATM   22  C   UNL     1     -39.655 -52.325  15.808  1.00  0.00     0.272 C 
ENDBRANCH  17  18
ENDBRANCH  14  17
ENDBRANCH  13  14
ENDBRANCH   8  13
TORSDOF 5
ENDMDL
MODEL 6
REMARK VINA RESULT:      -5.4      2.301      6.856
REMARK  5 active torsions:
REMARK  status: ('A' for Active; 'I' for Inactive)
REMARK    1  A    between atoms: N_8  and  C_9 
REMARK    2  A    between atoms: C_9  and  C_10 
REMARK    3  A    between atoms: C_10  and  O_11 
REMARK    4  A    between atoms: C_10  and  C_12 
REMARK    5  A    between atoms: C_12  and  N_13 
ROOT
HETATM    1  C   UNL     1     -40.046 -44.226  12.784  1.00  0.00     0.049 C 
HETATM    2  C   UNL     1     -40.063 -45.718  12.606  1.00  0.00    -0.054 A 
HETATM    3  C   UNL     1     -40.630 -46.255  11.432  1.00  0.00     0.039 A 
HETATM    4  C   UNL     1     -40.671 -47.645  11.248  1.00  0.00     0.060 A 
HETATM    5  N   UNL     1     -41.171 -48.367  10.193  1.00  0.00    -0.350 N 
ATOM      6  HN  UNL     1     -41.575 -48.005   9.329  1.00  0.00     0.166 HD
HETATM    7  C   UNL     1     -41.018 -49.624  10.539  1.00  0.00     0.184 A 
HETATM    8  N   UNL     1     -40.398 -49.745  11.755  1.00  0.00    -0.339 N 
HETATM    9  C   UNL     1     -40.155 -48.481  12.234  1.00  0.00     0.062 A 
HETATM   10  C   UNL     1     -39.581 -47.984  13.412  1.00  0.00     0.039 A 
HETATM   11  C   UNL     1     -39.539 -46.588  13.591  1.00  0.00    -0.054 A 
HETATM   12  C   UNL     1     -38.929 -46.035  14.855  1.00  0.00     0.049 C 
ENDROOT
BRANCH   8  13
HETATM   13  C   UNL     1     -40.167 -51.009  12.445  1.00  0.00     0.163 C 
BRANCH  13  14
HETATM   14  C   UNL     1     -41.231 -52.036  12.053  1.00  0.00     0.164 C 
BRANCH  14  15
HETATM   15  O   UNL     1     -40.553 -53.223  11.612  1.00  0.00    -0.392 OA
HETATM   16  H   UNL     1     -40.830 -53.959  12.185  1.00  0.00     0.210 HD
ENDBRANCH  14  15
BRANCH  14  17
HETATM   17  C   UNL     1     -42.202 -52.382  13.214  1.00  0.00     0.305 C 
BRANCH  17  18
HETATM   18  N   UNL     1     -43.586 -52.034  12.856  1.00  0.00     0.090 N 
HETATM   19  C   UNL     1     -44.252 -51.195  13.862  1.00  0.00     0.272 C 
HETATM   20  C   UNL     1     -45.744 -51.434  13.667  1.00  0.00     0.032 C 
HETATM   21  C   UNL     1     -45.834 -52.514  12.603  1.00  0.00     0.032 C 
HETATM   22  C   UNL     1     -44.468 -53.183  12.648  1.00  0.00     0.272 C 
ENDBRANCH  17  18
ENDBRANCH  14  17
ENDBRANCH  13  14
ENDBRANCH   8  13
TORSDOF 5
ENDMDL
MODEL 7
REMARK VINA RESULT:      -5.3      2.510      6.766
REMARK  5 active torsions:
REMARK  status: ('A' for Active; 'I' for Inactive)
REMARK    1  A    between atoms: N_8  and  C_9 
REMARK    2  A    between atoms: C_9  and  C_10 
REMARK    3  A    between atoms: C_10  and  O_11 
REMARK    4  A    between atoms: C_10  and  C_12 
REMARK    5  A    between atoms: C_12  and  N_13 
ROOT
HETATM    1  C   UNL     1     -37.819 -48.254  13.644  1.00  0.00     0.049 C 
HETATM    2  C   UNL     1     -38.561 -49.558  13.596  1.00  0.00    -0.054 A 
HETATM    3  C   UNL     1     -39.323 -49.863  12.450  1.00  0.00     0.039 A 
HETATM    4  C   UNL     1     -40.037 -51.069  12.385  1.00  0.00     0.060 A 
HETATM    5  N   UNL     1     -40.830 -51.556  11.376  1.00  0.00    -0.350 N 
ATOM      6  HN  UNL     1     -41.010 -51.129  10.467  1.00  0.00     0.166 HD
HETATM    7  C   UNL     1     -41.308 -52.689  11.836  1.00  0.00     0.184 A 
HETATM    8  N   UNL     1     -40.821 -52.977  13.084  1.00  0.00    -0.339 N 
HETATM    9  C   UNL     1     -39.990 -51.950  13.462  1.00  0.00     0.062 A 
HETATM   10  C   UNL     1     -39.241 -51.684  14.616  1.00  0.00     0.039 A 
HETATM   11  C   UNL     1     -38.523 -50.473  14.674  1.00  0.00    -0.054 A 
HETATM   12  C   UNL     1     -37.716 -50.166  15.912  1.00  0.00     0.049 C 
ENDROOT
BRANCH   8  13
HETATM   13  C   UNL     1     -41.232 -54.120  13.891  1.00  0.00     0.163 C 
BRANCH  13  14
HETATM   14  C   UNL     1     -42.752 -54.133  14.067  1.00  0.00     0.164 C 
BRANCH  14  15
HETATM   15  O   UNL     1     -43.085 -55.239  14.921  1.00  0.00    -0.392 OA
HETATM   16  H   UNL     1     -42.326 -55.406  15.507  1.00  0.00     0.210 HD
ENDBRANCH  14  15
BRANCH  14  17
HETATM   17  C   UNL     1     -43.306 -52.814  14.668  1.00  0.00     0.305 C 
BRANCH  17  18
HETATM   18  N   UNL     1     -44.755 -52.704  14.435  1.00  0.00     0.090 N 
HETATM   19  C   UNL     1     -45.091 -52.189  13.101  1.00  0.00     0.272 C 
HETATM   20  C   UNL     1     -46.484 -51.586  13.237  1.00  0.00     0.032 C 
HETATM   21  C   UNL     1     -46.820 -51.701  14.714  1.00  0.00     0.032 C 
HETATM   22  C   UNL     1     -45.462 -51.845  15.385  1.00  0.00     0.272 C 
ENDBRANCH  17  18
ENDBRANCH  14  17
ENDBRANCH  13  14
ENDBRANCH   8  13
TORSDOF 5
ENDMDL
MODEL 8
REMARK VINA RESULT:      -5.3      1.813      6.165
REMARK  5 active torsions:
REMARK  status: ('A' for Active; 'I' for Inactive)
REMARK    1  A    between atoms: N_8  and  C_9 
REMARK    2  A    between atoms: C_9  and  C_10 
REMARK    3  A    between atoms: C_10  and  O_11 
REMARK    4  A    between atoms: C_10  and  C_12 
REMARK    5  A    between atoms: C_12  and  N_13 
ROOT
HETATM    1  C   UNL     1     -41.361 -46.394  10.604  1.00  0.00     0.049 C 
HETATM    2  C   UNL     1     -40.967 -47.663  11.307  1.00  0.00    -0.054 A 
HETATM    3  C   UNL     1     -39.605 -48.022  11.346  1.00  0.00     0.039 A 
HETATM    4  C   UNL     1     -39.213 -49.209  11.983  1.00  0.00     0.060 A 
HETATM    5  N   UNL     1     -37.956 -49.739  12.134  1.00  0.00    -0.350 N 
ATOM      6  HN  UNL     1     -37.070 -49.332  11.833  1.00  0.00     0.166 HD
HETATM    7  C   UNL     1     -38.141 -50.883  12.750  1.00  0.00     0.184 A 
HETATM    8  N   UNL     1     -39.463 -51.094  13.043  1.00  0.00    -0.339 N 
HETATM    9  C   UNL     1     -40.179 -50.024  12.565  1.00  0.00     0.062 A 
HETATM   10  C   UNL     1     -41.542 -49.698  12.550  1.00  0.00     0.039 A 
HETATM   11  C   UNL     1     -41.931 -48.504  11.912  1.00  0.00    -0.054 A 
HETATM   12  C   UNL     1     -43.394 -48.140  11.880  1.00  0.00     0.049 C 
ENDROOT
BRANCH   8  13
HETATM   13  C   UNL     1     -39.995 -52.312  13.646  1.00  0.00     0.163 C 
BRANCH  13  14
HETATM   14  C   UNL     1     -41.060 -52.935  12.742  1.00  0.00     0.164 C 
BRANCH  14  15
HETATM   15  O   UNL     1     -40.414 -53.351  11.527  1.00  0.00    -0.392 OA
HETATM   16  H   UNL     1     -40.809 -54.196  11.251  1.00  0.00     0.210 HD
ENDBRANCH  14  15
BRANCH  14  17
HETATM   17  C   UNL     1     -41.784 -54.143  13.396  1.00  0.00     0.305 C 
BRANCH  17  18
HETATM   18  N   UNL     1     -43.209 -54.157  13.028  1.00  0.00     0.090 N 
HETATM   19  C   UNL     1     -43.706 -52.848  12.583  1.00  0.00     0.272 C 
HETATM   20  C   UNL     1     -45.209 -52.880  12.828  1.00  0.00     0.032 C 
HETATM   21  C   UNL     1     -45.466 -54.206  13.523  1.00  0.00     0.032 C 
HETATM   22  C   UNL     1     -44.110 -54.584  14.098  1.00  0.00     0.272 C 
ENDBRANCH  17  18
ENDBRANCH  14  17
ENDBRANCH  13  14
ENDBRANCH   8  13
TORSDOF 5
ENDMDL
MODEL 9
REMARK VINA RESULT:      -5.2      2.236      2.824
REMARK  5 active torsions:
REMARK  status: ('A' for Active; 'I' for Inactive)
REMARK    1  A    between atoms: N_8  and  C_9 
REMARK    2  A    between atoms: C_9  and  C_10 
REMARK    3  A    between atoms: C_10  and  O_11 
REMARK    4  A    between atoms: C_10  and  C_12 
REMARK    5  A    between atoms: C_12  and  N_13 
ROOT
HETATM    1  C   UNL     1     -46.523 -52.926  18.041  1.00  0.00     0.049 C 
HETATM    2  C   UNL     1     -45.637 -52.987  16.830  1.00  0.00    -0.054 A 
HETATM    3  C   UNL     1     -44.471 -53.776  16.881  1.00  0.00     0.039 A 
HETATM    4  C   UNL     1     -43.619 -53.839  15.768  1.00  0.00     0.060 A 
HETATM    5  N   UNL     1     -42.449 -54.537  15.608  1.00  0.00    -0.350 N 
ATOM      6  HN  UNL     1     -42.008 -55.172  16.274  1.00  0.00     0.166 HD
HETATM    7  C   UNL     1     -42.019 -54.211  14.411  1.00  0.00     0.184 A 
HETATM    8  N   UNL     1     -42.886 -53.364  13.773  1.00  0.00    -0.339 N 
HETATM    9  C   UNL     1     -43.935 -53.112  14.624  1.00  0.00     0.062 A 
HETATM   10  C   UNL     1     -45.087 -52.318  14.534  1.00  0.00     0.039 A 
HETATM   11  C   UNL     1     -45.940 -52.262  15.653  1.00  0.00    -0.054 A 
HETATM   12  C   UNL     1     -47.182 -51.409  15.577  1.00  0.00     0.049 C 
ENDROOT
BRANCH   8  13
HETATM   13  C   UNL     1     -42.644 -52.758  12.468  1.00  0.00     0.163 C 
BRANCH  13  14
HETATM   14  C   UNL     1     -41.150 -52.489  12.272  1.00  0.00     0.164 C 
BRANCH  14  15
HETATM   15  O   UNL     1     -40.675 -53.380  11.250  1.00  0.00    -0.392 OA
HETATM   16  H   UNL     1     -41.429 -53.911  10.940  1.00  0.00     0.210 HD
ENDBRANCH  14  15
BRANCH  14  17
HETATM   17  C   UNL     1     -40.842 -51.020  11.877  1.00  0.00     0.305 C 
BRANCH  17  18
HETATM   18  N   UNL     1     -39.433 -50.693  12.146  1.00  0.00     0.090 N 
HETATM   19  C   UNL     1     -38.926 -51.291  13.389  1.00  0.00     0.272 C 
HETATM   20  C   UNL     1     -37.754 -50.414  13.813  1.00  0.00     0.032 C 
HETATM   21  C   UNL     1     -37.736 -49.271  12.813  1.00  0.00     0.032 C 
HETATM   22  C   UNL     1     -39.147 -49.262  12.246  1.00  0.00     0.272 C 
ENDBRANCH  17  18
ENDBRANCH  14  17
ENDBRANCH  13  14
ENDBRANCH   8  13
TORSDOF 5
ENDMDL
