MODEL 1
REMARK VINA RESULT:      -7.3      0.000      0.000
REMARK  4 active torsions:
REMARK  status: ('A' for Active; 'I' for Inactive)
REMARK    1  A    between atoms: C_6  and  O_7 
REMARK    2  A    between atoms: C_6  and  C_8 
REMARK    3  A    between atoms: C_8  and  N_9 
REMARK    4  A    between atoms: C_14  and  N_21 
ROOT
HETATM    1  N   UNL     1     -43.469 -51.173  14.197  1.00  0.00    -0.324 N 
HETATM    2  C   UNL     1     -43.516 -49.861  14.580  1.00  0.00     0.185 A 
HETATM    3  N   UNL     1     -42.704 -49.115  13.863  1.00  0.00    -0.346 N 
ATOM      4  HN  UNL     1     -42.567 -48.106  13.936  1.00  0.00     0.167 HD
HETATM    5  C   UNL     1     -42.072 -49.984  12.988  1.00  0.00     0.122 A 
HETATM    6  C   UNL     1     -41.138 -49.788  11.931  1.00  0.00     0.135 A 
HETATM    7  N   UNL     1     -40.684 -50.930  11.325  1.00  0.00    -0.337 N 
ATOM      8  HN  UNL     1     -39.990 -50.868  10.580  1.00  0.00     0.168 HD
HETATM    9  C   UNL     1     -41.151 -52.136  11.709  1.00  0.00     0.183 A 
HETATM   10  N   UNL     1     -42.083 -52.411  12.636  1.00  0.00    -0.336 N 
ATOM     11  HN  UNL     1     -42.427 -53.346  12.853  1.00  0.00     0.168 HD
HETATM   12  C   UNL     1     -42.498 -51.287  13.239  1.00  0.00     0.140 A 
ENDROOT
BRANCH   6  13
HETATM   13  N   UNL     1     -40.673 -48.569  11.465  1.00  0.00    -0.363 N 
HETATM   14  C   UNL     1     -39.429 -47.992  11.978  1.00  0.00     0.127 C 
HETATM   15  C   UNL     1     -39.705 -46.605  12.564  1.00  0.00     0.054 C 
HETATM   16  C   UNL     1     -40.466 -45.720  11.576  1.00  0.00     0.147 C 
HETATM   17  O   UNL     1     -40.796 -44.479  12.221  1.00  0.00    -0.375 OA
HETATM   18  C   UNL     1     -41.761 -46.419  11.117  1.00  0.00     0.131 C 
HETATM   19  C   UNL     1     -41.504 -43.615  11.335  1.00  0.00     0.271 C 
HETATM   20  C   UNL     1     -42.670 -44.229  10.542  1.00  0.00     0.241 C 
HETATM   21  O   UNL     1     -43.620 -43.578  10.118  1.00  0.00    -0.271 OA
HETATM   22  N   UNL     1     -42.540 -45.565  10.234  1.00  0.00    -0.351 N 
HETATM   23  H   UNL     1     -43.375 -45.950   9.806  1.00  0.00     0.163 HD
HETATM   24  C   UNL     1     -41.387 -47.764  10.477  1.00  0.00     0.152 C 
ENDBRANCH   6  13
BRANCH   1  25
HETATM   25  C   UNL     1     -44.330 -52.234  14.701  1.00  0.00     0.172 C 
BRANCH  25  26
HETATM   26  C   UNL     1     -45.456 -52.630  13.713  1.00  0.00     0.102 C 
HETATM   27  C   UNL     1     -46.796 -52.962  14.399  1.00  0.00     0.153 C 
HETATM   28  C   UNL     1     -47.238 -52.065  15.541  1.00  0.00     0.042 C 
HETATM   29  O   UNL     1     -46.682 -54.320  14.855  1.00  0.00    -0.383 OA
HETATM   30  C   UNL     1     -45.675 -54.971  14.064  1.00  0.00     0.171 C 
HETATM   31  C   UNL     1     -45.214 -53.967  13.023  1.00  0.00     0.068 C 
BRANCH  26  32
HETATM   32  O   UNL     1     -45.636 -51.572  12.767  1.00  0.00    -0.385 OA
HETATM   33  H   UNL     1     -45.548 -50.720  13.229  1.00  0.00     0.210 HD
ENDBRANCH  26  32
ENDBRANCH  25  26
ENDBRANCH   1  25
TORSDOF 4
ENDMDL
MODEL 2
REMARK VINA RESULT:      -7.0      2.536      3.676
REMARK  4 active torsions:
REMARK  status: ('A' for Active; 'I' for Inactive)
REMARK    1  A    between atoms: C_6  and  O_7 
REMARK    2  A    between atoms: C_6  and  C_8 
REMARK    3  A    between atoms: C_8  and  N_9 
REMARK    4  A    between atoms: C_14  and  N_21 
ROOT
HETATM    1  N   UNL     1     -41.377 -50.145  13.169  1.00  0.00    -0.324 N 
HETATM    2  C   UNL     1     -40.504 -49.703  14.124  1.00  0.00     0.185 A 
HETATM    3  N   UNL     1     -39.987 -48.535  13.808  1.00  0.00    -0.346 N 
ATOM      4  HN  UNL     1     -39.328 -47.983  14.357  1.00  0.00     0.167 HD
HETATM    5  C   UNL     1     -40.524 -48.211  12.572  1.00  0.00     0.122 A 
HETATM    6  C   UNL     1     -40.407 -47.066  11.733  1.00  0.00     0.135 A 
HETATM    7  N   UNL     1     -41.052 -47.149  10.527  1.00  0.00    -0.337 N 
ATOM      8  HN  UNL     1     -40.986 -46.378   9.862  1.00  0.00     0.168 HD
HETATM    9  C   UNL     1     -41.773 -48.245  10.215  1.00  0.00     0.183 A 
HETATM   10  N   UNL     1     -42.003 -49.333  10.969  1.00  0.00    -0.336 N 
ATOM     11  HN  UNL     1     -42.596 -50.115  10.694  1.00  0.00     0.168 HD
HETATM   12  C   UNL     1     -41.344 -49.249  12.134  1.00  0.00     0.140 A 
ENDROOT
BRANCH   6  13
HETATM   13  N   UNL     1     -39.725 -45.898  12.034  1.00  0.00    -0.363 N 
HETATM   14  C   UNL     1     -38.921 -45.787  13.252  1.00  0.00     0.127 C 
HETATM   15  C   UNL     1     -39.417 -44.610  14.095  1.00  0.00     0.054 C 
HETATM   16  C   UNL     1     -39.510 -43.327  13.267  1.00  0.00     0.147 C 
HETATM   17  O   UNL     1     -40.087 -42.291  14.076  1.00  0.00    -0.375 OA
HETATM   18  C   UNL     1     -40.389 -43.556  12.021  1.00  0.00     0.131 C 
HETATM   19  C   UNL     1     -40.190 -41.070  13.346  1.00  0.00     0.271 C 
HETATM   20  C   UNL     1     -40.780 -41.150  11.929  1.00  0.00     0.241 C 
HETATM   21  O   UNL     1     -41.340 -40.209  11.372  1.00  0.00    -0.271 OA
HETATM   22  N   UNL     1     -40.553 -42.330  11.256  1.00  0.00    -0.351 N 
HETATM   23  H   UNL     1     -41.049 -42.377  10.372  1.00  0.00     0.163 HD
HETATM   24  C   UNL     1     -39.780 -44.701  11.198  1.00  0.00     0.152 C 
ENDBRANCH   6  13
BRANCH   1  25
HETATM   25  C   UNL     1     -42.210 -51.336  13.269  1.00  0.00     0.172 C 
BRANCH  25  26
HETATM   26  C   UNL     1     -41.545 -52.600  12.668  1.00  0.00     0.102 C 
HETATM   27  C   UNL     1     -42.324 -53.902  12.944  1.00  0.00     0.153 C 
HETATM   28  C   UNL     1     -43.835 -53.854  12.811  1.00  0.00     0.042 C 
HETATM   29  O   UNL     1     -41.959 -54.309  14.273  1.00  0.00    -0.383 OA
HETATM   30  C   UNL     1     -40.688 -53.715  14.585  1.00  0.00     0.171 C 
HETATM   31  C   UNL     1     -40.231 -52.972  13.344  1.00  0.00     0.068 C 
BRANCH  26  32
HETATM   32  O   UNL     1     -41.381 -52.413  11.260  1.00  0.00    -0.385 OA
HETATM   33  H   UNL     1     -40.431 -52.443  11.048  1.00  0.00     0.210 HD
ENDBRANCH  26  32
ENDBRANCH  25  26
ENDBRANCH   1  25
TORSDOF 4
ENDMDL
MODEL 3
REMARK VINA RESULT:      -6.8      1.937      8.422
REMARK  4 active torsions:
REMARK  status: ('A' for Active; 'I' for Inactive)
REMARK    1  A    between atoms: C_6  and  O_7 
REMARK    2  A    between atoms: C_6  and  C_8 
REMARK    3  A    between atoms: C_8  and  N_9 
REMARK    4  A    between atoms: C_14  and  N_21 
ROOT
HETATM    1  N   UNL     1     -42.201 -45.542  13.447  1.00  0.00    -0.324 N 
HETATM    2  C   UNL     1     -41.904 -46.122  14.649  1.00  0.00     0.185 A 
HETATM    3  N   UNL     1     -42.123 -47.419  14.631  1.00  0.00    -0.346 N 
ATOM      4  HN  UNL     1     -41.964 -48.082  15.390  1.00  0.00     0.167 HD
HETATM    5  C   UNL     1     -42.617 -47.697  13.367  1.00  0.00     0.122 A 
HETATM    6  C   UNL     1     -42.984 -48.908  12.713  1.00  0.00     0.135 A 
HETATM    7  N   UNL     1     -43.505 -48.765  11.454  1.00  0.00    -0.337 N 
ATOM      8  HN  UNL     1     -43.819 -49.587  10.938  1.00  0.00     0.168 HD
HETATM    9  C   UNL     1     -43.605 -47.542  10.894  1.00  0.00     0.183 A 
HETATM   10  N   UNL     1     -43.214 -46.361  11.399  1.00  0.00    -0.336 N 
ATOM     11  HN  UNL     1     -43.277 -45.470  10.907  1.00  0.00     0.168 HD
HETATM   12  C   UNL     1     -42.732 -46.513  12.641  1.00  0.00     0.140 A 
ENDROOT
BRANCH   6  13
HETATM   13  N   UNL     1     -42.849 -50.188  13.227  1.00  0.00    -0.363 N 
HETATM   14  C   UNL     1     -41.807 -51.091  12.735  1.00  0.00     0.127 C 
HETATM   15  C   UNL     1     -42.443 -52.378  12.206  1.00  0.00     0.054 C 
HETATM   16  C   UNL     1     -43.398 -52.994  13.230  1.00  0.00     0.147 C 
HETATM   17  O   UNL     1     -44.049 -54.129  12.638  1.00  0.00    -0.375 OA
HETATM   18  C   UNL     1     -44.458 -51.962  13.664  1.00  0.00     0.131 C 
HETATM   19  C   UNL     1     -44.947 -54.742  13.559  1.00  0.00     0.271 C 
HETATM   20  C   UNL     1     -45.901 -53.813  14.329  1.00  0.00     0.241 C 
HETATM   21  O   UNL     1     -46.983 -54.175  14.781  1.00  0.00    -0.271 OA
HETATM   22  N   UNL     1     -45.422 -52.547  14.583  1.00  0.00    -0.351 N 
HETATM   23  H   UNL     1     -46.122 -51.940  14.996  1.00  0.00     0.163 HD
HETATM   24  C   UNL     1     -43.737 -50.739  14.248  1.00  0.00     0.152 C 
ENDBRANCH   6  13
BRANCH   1  25
HETATM   25  C   UNL     1     -41.954 -44.150  13.094  1.00  0.00     0.172 C 
BRANCH  25  26
HETATM   26  C   UNL     1     -40.459 -43.841  12.831  1.00  0.00     0.102 C 
HETATM   27  C   UNL     1     -40.229 -42.738  11.779  1.00  0.00     0.153 C 
HETATM   28  C   UNL     1     -41.131 -41.518  11.835  1.00  0.00     0.042 C 
HETATM   29  O   UNL     1     -40.350 -43.380  10.498  1.00  0.00    -0.383 OA
HETATM   30  C   UNL     1     -40.091 -44.781  10.678  1.00  0.00     0.171 C 
HETATM   31  C   UNL     1     -39.719 -44.978  12.136  1.00  0.00     0.068 C 
BRANCH  26  32
HETATM   32  O   UNL     1     -39.836 -43.481  14.066  1.00  0.00    -0.385 OA
HETATM   33  H   UNL     1     -39.252 -42.717  13.911  1.00  0.00     0.210 HD
ENDBRANCH  26  32
ENDBRANCH  25  26
ENDBRANCH   1  25
TORSDOF 4
ENDMDL
MODEL 4
REMARK VINA RESULT:      -6.7      1.549      7.816
REMARK  4 active torsions:
REMARK  status: ('A' for Active; 'I' for Inactive)
REMARK    1  A    between atoms: C_6  and  O_7 
REMARK    2  A    between atoms: C_6  and  C_8 
REMARK    3  A    between atoms: C_8  and  N_9 
REMARK    4  A    between atoms: C_14  and  N_21 
ROOT
HETATM    1  N   UNL     1     -41.789 -47.927  11.184  1.00  0.00    -0.324 N 
HETATM    2  C   UNL     1     -43.108 -48.188  11.433  1.00  0.00     0.185 A 
HETATM    3  N   UNL     1     -43.271 -49.356  12.017  1.00  0.00    -0.346 N 
ATOM      4  HN  UNL     1     -44.150 -49.774  12.324  1.00  0.00     0.167 HD
HETATM    5  C   UNL     1     -42.001 -49.899  12.128  1.00  0.00     0.122 A 
HETATM    6  C   UNL     1     -41.507 -51.099  12.714  1.00  0.00     0.135 A 
HETATM    7  N   UNL     1     -40.164 -51.322  12.560  1.00  0.00    -0.337 N 
ATOM      8  HN  UNL     1     -39.746 -52.177  12.927  1.00  0.00     0.168 HD
HETATM    9  C   UNL     1     -39.393 -50.417  11.924  1.00  0.00     0.183 A 
HETATM   10  N   UNL     1     -39.754 -49.230  11.410  1.00  0.00    -0.336 N 
ATOM     11  HN  UNL     1     -39.113 -48.566  10.977  1.00  0.00     0.168 HD
HETATM   12  C   UNL     1     -41.074 -49.037  11.545  1.00  0.00     0.140 A 
ENDROOT
BRANCH   6  13
HETATM   13  N   UNL     1     -42.250 -52.030  13.423  1.00  0.00    -0.363 N 
HETATM   14  C   UNL     1     -42.331 -53.423  12.982  1.00  0.00     0.127 C 
HETATM   15  C   UNL     1     -43.795 -53.811  12.759  1.00  0.00     0.054 C 
HETATM   16  C   UNL     1     -44.657 -53.469  13.975  1.00  0.00     0.147 C 
HETATM   17  O   UNL     1     -46.032 -53.747  13.665  1.00  0.00    -0.375 OA
HETATM   18  C   UNL     1     -44.505 -51.979  14.340  1.00  0.00     0.131 C 
HETATM   19  C   UNL     1     -46.877 -53.449  14.774  1.00  0.00     0.271 C 
HETATM   20  C   UNL     1     -46.662 -52.096  15.473  1.00  0.00     0.241 C 
HETATM   21  O   UNL     1     -47.539 -51.509  16.099  1.00  0.00    -0.271 OA
HETATM   22  N   UNL     1     -45.373 -51.613  15.448  1.00  0.00    -0.351 N 
HETATM   23  H   UNL     1     -45.300 -50.674  15.826  1.00  0.00     0.163 HD
HETATM   24  C   UNL     1     -43.022 -51.695  14.618  1.00  0.00     0.152 C 
ENDBRANCH   6  13
BRANCH   1  25
HETATM   25  C   UNL     1     -41.257 -46.675  10.663  1.00  0.00     0.172 C 
BRANCH  25  26
HETATM   26  C   UNL     1     -41.466 -45.476  11.622  1.00  0.00     0.102 C 
HETATM   27  C   UNL     1     -40.317 -44.449  11.591  1.00  0.00     0.153 C 
HETATM   28  C   UNL     1     -39.739 -44.086  10.234  1.00  0.00     0.042 C 
HETATM   29  O   UNL     1     -39.285 -44.981  12.439  1.00  0.00    -0.383 OA
HETATM   30  C   UNL     1     -39.897 -45.901  13.357  1.00  0.00     0.171 C 
HETATM   31  C   UNL     1     -41.391 -45.858  13.095  1.00  0.00     0.068 C 
BRANCH  26  32
HETATM   32  O   UNL     1     -42.705 -44.838  11.303  1.00  0.00    -0.385 OA
HETATM   33  H   UNL     1     -42.720 -43.957  11.718  1.00  0.00     0.210 HD
ENDBRANCH  26  32
ENDBRANCH  25  26
ENDBRANCH   1  25
TORSDOF 4
ENDMDL
MODEL 5
REMARK VINA RESULT:      -6.5      2.725      3.465
REMARK  4 active torsions:
REMARK  status: ('A' for Active; 'I' for Inactive)
REMARK    1  A    between atoms: C_6  and  O_7 
REMARK    2  A    between atoms: C_6  and  C_8 
REMARK    3  A    between atoms: C_8  and  N_9 
REMARK    4  A    between atoms: C_14  and  N_21 
ROOT
HETATM    1  N   UNL     1     -43.005 -51.676  14.705  1.00  0.00    -0.324 N 
HETATM    2  C   UNL     1     -43.820 -51.279  13.681  1.00  0.00     0.185 A 
HETATM    3  N   UNL     1     -43.329 -50.238  13.045  1.00  0.00    -0.346 N 
ATOM      4  HN  UNL     1     -43.731 -49.764  12.236  1.00  0.00     0.167 HD
HETATM    5  C   UNL     1     -42.152 -49.918  13.702  1.00  0.00     0.122 A 
HETATM    6  C   UNL     1     -41.143 -48.941  13.466  1.00  0.00     0.135 A 
HETATM    7  N   UNL     1     -40.140 -48.891  14.399  1.00  0.00    -0.337 N 
ATOM      8  HN  UNL     1     -39.399 -48.195  14.311  1.00  0.00     0.168 HD
HETATM    9  C   UNL     1     -40.128 -49.757  15.433  1.00  0.00     0.183 A 
HETATM   10  N   UNL     1     -40.989 -50.755  15.693  1.00  0.00    -0.336 N 
ATOM     11  HN  UNL     1     -40.902 -51.407  16.471  1.00  0.00     0.168 HD
HETATM   12  C   UNL     1     -41.978 -50.775  14.788  1.00  0.00     0.140 A 
ENDROOT
BRANCH   6  13
HETATM   13  N   UNL     1     -41.083 -48.070  12.391  1.00  0.00    -0.363 N 
HETATM   14  C   UNL     1     -41.016 -46.622  12.597  1.00  0.00     0.127 C 
HETATM   15  C   UNL     1     -42.188 -45.943  11.884  1.00  0.00     0.054 C 
HETATM   16  C   UNL     1     -42.284 -46.381  10.422  1.00  0.00     0.147 C 
HETATM   17  O   UNL     1     -43.463 -45.804   9.839  1.00  0.00    -0.375 OA
HETATM   18  C   UNL     1     -42.363 -47.917  10.326  1.00  0.00     0.131 C 
HETATM   19  C   UNL     1     -43.594 -46.180   8.470  1.00  0.00     0.271 C 
HETATM   20  C   UNL     1     -43.401 -47.668   8.132  1.00  0.00     0.241 C 
HETATM   21  O   UNL     1     -43.903 -48.212   7.153  1.00  0.00    -0.271 OA
HETATM   22  N   UNL     1     -42.531 -48.355   8.949  1.00  0.00    -0.351 N 
HETATM   23  H   UNL     1     -42.517 -49.350   8.756  1.00  0.00     0.163 HD
HETATM   24  C   UNL     1     -41.118 -48.512  10.999  1.00  0.00     0.152 C 
ENDBRANCH   6  13
BRANCH   1  25
HETATM   25  C   UNL     1     -43.193 -52.866  15.524  1.00  0.00     0.172 C 
BRANCH  25  26
HETATM   26  C   UNL     1     -42.928 -54.185  14.756  1.00  0.00     0.102 C 
HETATM   27  C   UNL     1     -42.221 -55.264  15.601  1.00  0.00     0.153 C 
HETATM   28  C   UNL     1     -42.685 -55.445  17.036  1.00  0.00     0.042 C 
HETATM   29  O   UNL     1     -40.822 -54.936  15.574  1.00  0.00    -0.383 OA
HETATM   30  C   UNL     1     -40.577 -54.136  14.406  1.00  0.00     0.171 C 
HETATM   31  C   UNL     1     -41.890 -54.045  13.650  1.00  0.00     0.068 C 
BRANCH  26  32
HETATM   32  O   UNL     1     -44.170 -54.688  14.255  1.00  0.00    -0.385 OA
HETATM   33  H   UNL     1     -44.072 -54.871  13.304  1.00  0.00     0.210 HD
ENDBRANCH  26  32
ENDBRANCH  25  26
ENDBRANCH   1  25
TORSDOF 4
ENDMDL
MODEL 6
REMARK VINA RESULT:      -6.5      6.202      9.726
REMARK  4 active torsions:
REMARK  status: ('A' for Active; 'I' for Inactive)
REMARK    1  A    between atoms: C_6  and  O_7 
REMARK    2  A    between atoms: C_6  and  C_8 
REMARK    3  A    between atoms: C_8  and  N_9 
REMARK    4  A    between atoms: C_14  and  N_21 
ROOT
HETATM    1  N   UNL     1     -42.988 -53.541  15.199  1.00  0.00    -0.324 N 
HETATM    2  C   UNL     1     -43.301 -53.898  16.482  1.00  0.00     0.185 A 
HETATM    3  N   UNL     1     -42.290 -54.488  17.082  1.00  0.00    -0.346 N 
ATOM      4  HN  UNL     1     -42.258 -54.831  18.042  1.00  0.00     0.167 HD
HETATM    5  C   UNL     1     -41.277 -54.548  16.138  1.00  0.00     0.122 A 
HETATM    6  C   UNL     1     -39.931 -55.010  16.187  1.00  0.00     0.135 A 
HETATM    7  N   UNL     1     -39.248 -54.964  15.000  1.00  0.00    -0.337 N 
ATOM      8  HN  UNL     1     -38.288 -55.308  14.953  1.00  0.00     0.168 HD
HETATM    9  C   UNL     1     -39.838 -54.467  13.893  1.00  0.00     0.183 A 
HETATM   10  N   UNL     1     -41.067 -53.941  13.771  1.00  0.00    -0.336 N 
ATOM     11  HN  UNL     1     -41.443 -53.539  12.913  1.00  0.00     0.168 HD
HETATM   12  C   UNL     1     -41.733 -54.017  14.933  1.00  0.00     0.140 A 
ENDROOT
BRANCH   6  13
HETATM   13  N   UNL     1     -39.266 -55.477  17.310  1.00  0.00    -0.363 N 
HETATM   14  C   UNL     1     -37.887 -55.074  17.590  1.00  0.00     0.127 C 
HETATM   15  C   UNL     1     -36.997 -56.314  17.697  1.00  0.00     0.054 C 
HETATM   16  C   UNL     1     -37.579 -57.340  18.671  1.00  0.00     0.147 C 
HETATM   17  O   UNL     1     -36.766 -58.524  18.642  1.00  0.00    -0.375 OA
HETATM   18  C   UNL     1     -39.024 -57.699  18.271  1.00  0.00     0.131 C 
HETATM   19  C   UNL     1     -37.267 -59.510  19.541  1.00  0.00     0.271 C 
HETATM   20  C   UNL     1     -38.778 -59.796  19.495  1.00  0.00     0.241 C 
HETATM   21  O   UNL     1     -39.277 -60.864  19.836  1.00  0.00    -0.271 OA
HETATM   22  N   UNL     1     -39.574 -58.729  19.139  1.00  0.00    -0.351 N 
HETATM   23  H   UNL     1     -40.546 -58.991  19.019  1.00  0.00     0.163 HD
HETATM   24  C   UNL     1     -39.861 -56.412  18.260  1.00  0.00     0.152 C 
ENDBRANCH   6  13
BRANCH   1  25
HETATM   25  C   UNL     1     -43.837 -52.763  14.306  1.00  0.00     0.172 C 
BRANCH  25  26
HETATM   26  C   UNL     1     -44.708 -53.640  13.371  1.00  0.00     0.102 C 
HETATM   27  C   UNL     1     -46.075 -53.014  13.029  1.00  0.00     0.153 C 
HETATM   28  C   UNL     1     -46.107 -51.528  12.720  1.00  0.00     0.042 C 
HETATM   29  O   UNL     1     -46.934 -53.303  14.145  1.00  0.00    -0.383 OA
HETATM   30  C   UNL     1     -46.403 -54.451  14.828  1.00  0.00     0.171 C 
HETATM   31  C   UNL     1     -45.202 -54.922  14.030  1.00  0.00     0.068 C 
BRANCH  26  32
HETATM   32  O   UNL     1     -43.976 -53.909  12.172  1.00  0.00    -0.385 OA
HETATM   33  H   UNL     1     -43.299 -53.219  12.058  1.00  0.00     0.210 HD
ENDBRANCH  26  32
ENDBRANCH  25  26
ENDBRANCH   1  25
TORSDOF 4
ENDMDL
MODEL 7
REMARK VINA RESULT:      -6.4      3.240      5.457
REMARK  4 active torsions:
REMARK  status: ('A' for Active; 'I' for Inactive)
REMARK    1  A    between atoms: C_6  and  O_7 
REMARK    2  A    between atoms: C_6  and  C_8 
REMARK    3  A    between atoms: C_8  and  N_9 
REMARK    4  A    between atoms: C_14  and  N_21 
ROOT
HETATM    1  N   UNL     1     -44.944 -53.264  17.323  1.00  0.00    -0.324 N 
HETATM    2  C   UNL     1     -43.658 -52.821  17.466  1.00  0.00     0.185 A 
HETATM    3  N   UNL     1     -42.977 -52.931  16.347  1.00  0.00    -0.346 N 
ATOM      4  HN  UNL     1     -42.008 -52.655  16.184  1.00  0.00     0.167 HD
HETATM    5  C   UNL     1     -43.849 -53.502  15.433  1.00  0.00     0.122 A 
HETATM    6  C   UNL     1     -43.735 -53.820  14.050  1.00  0.00     0.135 A 
HETATM    7  N   UNL     1     -44.817 -54.453  13.498  1.00  0.00    -0.337 N 
ATOM      8  HN  UNL     1     -44.794 -54.738  12.519  1.00  0.00     0.168 HD
HETATM    9  C   UNL     1     -45.914 -54.701  14.243  1.00  0.00     0.183 A 
HETATM   10  N   UNL     1     -46.141 -54.371  15.525  1.00  0.00    -0.336 N 
ATOM     11  HN  UNL     1     -47.012 -54.548  16.024  1.00  0.00     0.168 HD
HETATM   12  C   UNL     1     -45.064 -53.776  16.059  1.00  0.00     0.140 A 
ENDROOT
BRANCH   6  13
HETATM   13  N   UNL     1     -42.653 -53.536  13.232  1.00  0.00    -0.363 N 
HETATM   14  C   UNL     1     -41.368 -54.211  13.421  1.00  0.00     0.127 C 
HETATM   15  C   UNL     1     -40.268 -53.175  13.659  1.00  0.00     0.054 C 
HETATM   16  C   UNL     1     -40.273 -52.092  12.578  1.00  0.00     0.147 C 
HETATM   17  O   UNL     1     -39.301 -51.090  12.916  1.00  0.00    -0.375 OA
HETATM   18  C   UNL     1     -41.668 -51.442  12.477  1.00  0.00     0.131 C 
HETATM   19  C   UNL     1     -39.266 -50.060  11.931  1.00  0.00     0.271 C 
HETATM   20  C   UNL     1     -40.616 -49.483  11.474  1.00  0.00     0.241 C 
HETATM   21  O   UNL     1     -40.750 -48.351  11.017  1.00  0.00    -0.271 OA
HETATM   22  N   UNL     1     -41.678 -50.358  11.507  1.00  0.00    -0.351 N 
HETATM   23  H   UNL     1     -42.562 -49.907  11.299  1.00  0.00     0.163 HD
HETATM   24  C   UNL     1     -42.696 -52.539  12.165  1.00  0.00     0.152 C 
ENDBRANCH   6  13
BRANCH   1  25
HETATM   25  C   UNL     1     -45.991 -53.165  18.330  1.00  0.00     0.172 C 
BRANCH  25  26
HETATM   26  C   UNL     1     -46.440 -51.708  18.605  1.00  0.00     0.102 C 
HETATM   27  C   UNL     1     -47.926 -51.580  18.996  1.00  0.00     0.153 C 
HETATM   28  C   UNL     1     -48.489 -52.612  19.957  1.00  0.00     0.042 C 
HETATM   29  O   UNL     1     -48.664 -51.603  17.762  1.00  0.00    -0.383 OA
HETATM   30  C   UNL     1     -47.778 -51.195  16.707  1.00  0.00     0.171 C 
HETATM   31  C   UNL     1     -46.455 -50.833  17.357  1.00  0.00     0.068 C 
BRANCH  26  32
HETATM   32  O   UNL     1     -45.613 -51.153  19.630  1.00  0.00    -0.385 OA
HETATM   33  H   UNL     1     -46.177 -50.882  20.376  1.00  0.00     0.210 HD
ENDBRANCH  26  32
ENDBRANCH  25  26
ENDBRANCH   1  25
TORSDOF 4
ENDMDL
MODEL 8
REMARK VINA RESULT:      -6.4      2.843      8.880
REMARK  4 active torsions:
REMARK  status: ('A' for Active; 'I' for Inactive)
REMARK    1  A    between atoms: C_6  and  O_7 
REMARK    2  A    between atoms: C_6  and  C_8 
REMARK    3  A    between atoms: C_8  and  N_9 
REMARK    4  A    between atoms: C_14  and  N_21 
ROOT
HETATM    1  N   UNL     1     -40.614 -43.288  12.779  1.00  0.00    -0.324 N 
HETATM    2  C   UNL     1     -40.981 -43.778  14.002  1.00  0.00     0.185 A 
HETATM    3  N   UNL     1     -40.888 -45.089  14.050  1.00  0.00    -0.346 N 
ATOM      4  HN  UNL     1     -41.083 -45.693  14.848  1.00  0.00     0.167 HD
HETATM    5  C   UNL     1     -40.469 -45.480  12.788  1.00  0.00     0.122 A 
HETATM    6  C   UNL     1     -40.132 -46.744  12.225  1.00  0.00     0.135 A 
HETATM    7  N   UNL     1     -39.821 -46.733  10.891  1.00  0.00    -0.337 N 
ATOM      8  HN  UNL     1     -39.599 -47.607  10.414  1.00  0.00     0.168 HD
HETATM    9  C   UNL     1     -39.806 -45.571  10.205  1.00  0.00     0.183 A 
HETATM   10  N   UNL     1     -40.033 -44.330  10.666  1.00  0.00    -0.336 N 
ATOM     11  HN  UNL     1     -39.964 -43.482  10.105  1.00  0.00     0.168 HD
HETATM   12  C   UNL     1     -40.362 -44.360  11.965  1.00  0.00     0.140 A 
ENDROOT
BRANCH   6  13
HETATM   13  N   UNL     1     -40.080 -47.952  12.902  1.00  0.00    -0.363 N 
HETATM   14  C   UNL     1     -38.798 -48.539  13.299  1.00  0.00     0.127 C 
HETATM   15  C   UNL     1     -38.660 -49.938  12.695  1.00  0.00     0.054 C 
HETATM   16  C   UNL     1     -39.885 -50.803  12.997  1.00  0.00     0.147 C 
HETATM   17  O   UNL     1     -39.751 -52.058  12.312  1.00  0.00    -0.375 OA
HETATM   18  C   UNL     1     -41.171 -50.095  12.526  1.00  0.00     0.131 C 
HETATM   19  C   UNL     1     -40.870 -52.903  12.569  1.00  0.00     0.271 C 
HETATM   20  C   UNL     1     -42.267 -52.273  12.438  1.00  0.00     0.241 C 
HETATM   21  O   UNL     1     -43.280 -52.917  12.180  1.00  0.00    -0.271 OA
HETATM   22  N   UNL     1     -42.343 -50.931  12.735  1.00  0.00    -0.351 N 
HETATM   23  H   UNL     1     -43.256 -50.538  12.533  1.00  0.00     0.163 HD
HETATM   24  C   UNL     1     -41.267 -48.736  13.233  1.00  0.00     0.152 C 
ENDBRANCH   6  13
BRANCH   1  25
HETATM   25  C   UNL     1     -40.485 -41.879  12.435  1.00  0.00     0.172 C 
BRANCH  25  26
HETATM   26  C   UNL     1     -41.679 -41.339  11.608  1.00  0.00     0.102 C 
HETATM   27  C   UNL     1     -41.837 -39.807  11.673  1.00  0.00     0.153 C 
HETATM   28  C   UNL     1     -40.574 -38.969  11.589  1.00  0.00     0.042 C 
HETATM   29  O   UNL     1     -42.530 -39.531  12.903  1.00  0.00    -0.383 OA
HETATM   30  C   UNL     1     -43.249 -40.716  13.281  1.00  0.00     0.171 C 
HETATM   31  C   UNL     1     -43.037 -41.734  12.175  1.00  0.00     0.068 C 
BRANCH  26  32
HETATM   32  O   UNL     1     -41.531 -41.761  10.249  1.00  0.00    -0.385 OA
HETATM   33  H   UNL     1     -42.137 -41.241   9.692  1.00  0.00     0.210 HD
ENDBRANCH  26  32
ENDBRANCH  25  26
ENDBRANCH   1  25
TORSDOF 4
ENDMDL
MODEL 9
REMARK VINA RESULT:      -6.4      3.114      8.847
REMARK  4 active torsions:
REMARK  status: ('A' for Active; 'I' for Inactive)
REMARK    1  A    between atoms: C_6  and  O_7 
REMARK    2  A    between atoms: C_6  and  C_8 
REMARK    3  A    between atoms: C_8  and  N_9 
REMARK    4  A    between atoms: C_14  and  N_21 
ROOT
HETATM    1  N   UNL     1     -41.711 -43.570  12.784  1.00  0.00    -0.324 N 
HETATM    2  C   UNL     1     -42.735 -44.284  13.343  1.00  0.00     0.185 A 
HETATM    3  N   UNL     1     -42.785 -45.512  12.875  1.00  0.00    -0.346 N 
ATOM      4  HN  UNL     1     -43.439 -46.248  13.142  1.00  0.00     0.167 HD
HETATM    5  C   UNL     1     -41.762 -45.599  11.943  1.00  0.00     0.122 A 
HETATM    6  C   UNL     1     -41.265 -46.669  11.145  1.00  0.00     0.135 A 
HETATM    7  N   UNL     1     -40.260 -46.337  10.274  1.00  0.00    -0.337 N 
ATOM      8  HN  UNL     1     -39.877 -47.046   9.649  1.00  0.00     0.168 HD
HETATM    9  C   UNL     1     -39.776 -45.079  10.240  1.00  0.00     0.183 A 
HETATM   10  N   UNL     1     -40.127 -44.031  11.005  1.00  0.00    -0.336 N 
ATOM     11  HN  UNL     1     -39.691 -43.111  10.961  1.00  0.00     0.168 HD
HETATM   12  C   UNL     1     -41.128 -44.363  11.832  1.00  0.00     0.140 A 
ENDROOT
BRANCH   6  13
HETATM   13  N   UNL     1     -41.692 -47.986  11.184  1.00  0.00    -0.363 N 
HETATM   14  C   UNL     1     -43.087 -48.317  11.483  1.00  0.00     0.127 C 
HETATM   15  C   UNL     1     -43.149 -49.239  12.703  1.00  0.00     0.054 C 
HETATM   16  C   UNL     1     -42.221 -50.445  12.544  1.00  0.00     0.147 C 
HETATM   17  O   UNL     1     -42.235 -51.208  13.760  1.00  0.00    -0.375 OA
HETATM   18  C   UNL     1     -40.782 -49.978  12.246  1.00  0.00     0.131 C 
HETATM   19  C   UNL     1     -41.386 -52.349  13.657  1.00  0.00     0.271 C 
HETATM   20  C   UNL     1     -39.977 -52.123  13.084  1.00  0.00     0.241 C 
HETATM   21  O   UNL     1     -39.017 -52.844  13.340  1.00  0.00    -0.271 OA
HETATM   22  N   UNL     1     -39.866 -51.105  12.164  1.00  0.00    -0.351 N 
HETATM   23  H   UNL     1     -38.905 -50.924  11.895  1.00  0.00     0.163 HD
HETATM   24  C   UNL     1     -40.801 -49.123  10.971  1.00  0.00     0.152 C 
ENDBRANCH   6  13
BRANCH   1  25
HETATM   25  C   UNL     1     -41.305 -42.226  13.172  1.00  0.00     0.172 C 
BRANCH  25  26
HETATM   26  C   UNL     1     -41.826 -41.129  12.211  1.00  0.00     0.102 C 
HETATM   27  C   UNL     1     -41.933 -39.735  12.861  1.00  0.00     0.153 C 
HETATM   28  C   UNL     1     -40.800 -39.298  13.771  1.00  0.00     0.042 C 
HETATM   29  O   UNL     1     -43.176 -39.729  13.585  1.00  0.00    -0.383 OA
HETATM   30  C   UNL     1     -44.031 -40.727  13.006  1.00  0.00     0.171 C 
HETATM   31  C   UNL     1     -43.287 -41.311  11.819  1.00  0.00     0.068 C 
BRANCH  26  32
HETATM   32  O   UNL     1     -40.974 -41.072  11.064  1.00  0.00    -0.385 OA
HETATM   33  H   UNL     1     -40.064 -41.281  11.340  1.00  0.00     0.210 HD
ENDBRANCH  26  32
ENDBRANCH  25  26
ENDBRANCH   1  25
TORSDOF 4
ENDMDL
