MODEL 1
REMARK VINA RESULT:      -5.9      0.000      0.000
REMARK  3 active torsions:
REMARK  status: ('A' for Active; 'I' for Inactive)
REMARK    1  A    between atoms: C_8  and  N_9 
REMARK       I    between atoms: N_9  and  C_10 
REMARK       I    between atoms: C_10  and  N_12 
REMARK    2  A    between atoms: N_12  and  C_13 
REMARK    3  A    between atoms: C_13  and  C_14 
ROOT
HETATM    1  N   UNL     1     -40.982 -48.349  10.609  1.00  0.00    -0.294 N 
HETATM    2  C   UNL     1     -40.574 -49.518  11.188  1.00  0.00     0.321 C 
HETATM    3  O   UNL     1     -39.403 -49.612  11.561  1.00  0.00    -0.247 OA
HETATM    4  N   UNL     1     -41.473 -50.532  11.300  1.00  0.00    -0.340 N 
HETATM    5  H   UNL     1     -40.240 -47.669  10.553  1.00  0.00     0.172 HD
HETATM    6  H   UNL     1     -42.451 -50.243  11.246  1.00  0.00     0.164 HD
ENDROOT
BRANCH   1   7
HETATM    7  C   UNL     1     -42.229 -48.022  10.060  1.00  0.00     0.114 A 
HETATM    8  C   UNL     1     -43.251 -47.525  10.887  1.00  0.00    -0.018 A 
HETATM    9  C   UNL     1     -43.125 -47.342  12.373  1.00  0.00     0.052 C 
HETATM   10  C   UNL     1     -44.455 -47.149  10.271  1.00  0.00     0.012 A 
HETATM   11  C   UNL     1     -44.610 -47.284   8.898  1.00  0.00     0.018 A 
HETATM   12  C   UNL     1     -43.560 -47.806   8.175  1.00  0.00     0.089 A 
HETATM   13  N   UNL     1     -42.389 -48.178   8.728  1.00  0.00    -0.352 N 
ATOM     14  HN  UNL     1     -41.641 -48.568   8.153  1.00  0.00     0.166 HD
ENDBRANCH   1   7
BRANCH   4  15
HETATM   15  C   UNL     1     -41.126 -51.761  11.984  1.00  0.00     0.156 C 
BRANCH  15  16
HETATM   16  C   UNL     1     -42.213 -52.395  12.860  1.00  0.00     0.139 C 
HETATM   17  C   UNL     1     -41.812 -53.580  13.724  1.00  0.00     0.035 C 
HETATM   18  C   UNL     1     -43.111 -54.349  13.914  1.00  0.00     0.029 C 
HETATM   19  C   UNL     1     -44.114 -53.642  13.025  1.00  0.00     0.168 C 
HETATM   20  O   UNL     1     -43.338 -52.869  12.101  1.00  0.00    -0.384 OA
ENDBRANCH  15  16
ENDBRANCH   4  15
TORSDOF 3
ENDMDL
MODEL 2
REMARK VINA RESULT:      -5.8      1.812      6.110
REMARK  3 active torsions:
REMARK  status: ('A' for Active; 'I' for Inactive)
REMARK    1  A    between atoms: C_8  and  N_9 
REMARK       I    between atoms: N_9  and  C_10 
REMARK       I    between atoms: C_10  and  N_12 
REMARK    2  A    between atoms: N_12  and  C_13 
REMARK    3  A    between atoms: C_13  and  C_14 
ROOT
HETATM    1  N   UNL     1     -40.978 -51.685  11.515  1.00  0.00    -0.294 N 
HETATM    2  C   UNL     1     -41.079 -50.331  11.366  1.00  0.00     0.321 C 
HETATM    3  O   UNL     1     -40.165 -49.732  10.795  1.00  0.00    -0.247 OA
HETATM    4  N   UNL     1     -42.171 -49.703  11.878  1.00  0.00    -0.340 N 
HETATM    5  H   UNL     1     -40.126 -52.052  11.121  1.00  0.00     0.172 HD
HETATM    6  H   UNL     1     -42.974 -50.312  12.043  1.00  0.00     0.164 HD
ENDROOT
BRANCH   1   7
HETATM    7  C   UNL     1     -41.846 -52.570  12.168  1.00  0.00     0.114 A 
HETATM    8  C   UNL     1     -41.390 -53.318  13.267  1.00  0.00    -0.018 A 
HETATM    9  C   UNL     1     -39.986 -53.272  13.798  1.00  0.00     0.052 C 
HETATM   10  C   UNL     1     -42.324 -54.135  13.923  1.00  0.00     0.012 A 
HETATM   11  C   UNL     1     -43.637 -54.196  13.478  1.00  0.00     0.018 A 
HETATM   12  C   UNL     1     -43.983 -53.446  12.376  1.00  0.00     0.089 A 
HETATM   13  N   UNL     1     -43.118 -52.649  11.718  1.00  0.00    -0.352 N 
ATOM     14  HN  UNL     1     -43.417 -52.117  10.900  1.00  0.00     0.166 HD
ENDBRANCH   1   7
BRANCH   4  15
HETATM   15  C   UNL     1     -42.378 -48.284  11.674  1.00  0.00     0.156 C 
BRANCH  15  16
HETATM   16  C   UNL     1     -42.987 -47.860  10.332  1.00  0.00     0.139 C 
HETATM   17  C   UNL     1     -42.561 -46.516   9.765  1.00  0.00     0.035 C 
HETATM   18  C   UNL     1     -43.734 -46.103   8.887  1.00  0.00     0.029 C 
HETATM   19  C   UNL     1     -44.797 -47.154   9.139  1.00  0.00     0.168 C 
HETATM   20  O   UNL     1     -44.422 -47.799  10.363  1.00  0.00    -0.384 OA
ENDBRANCH  15  16
ENDBRANCH   4  15
TORSDOF 3
ENDMDL
MODEL 3
REMARK VINA RESULT:      -5.8      1.987      3.278
REMARK  3 active torsions:
REMARK  status: ('A' for Active; 'I' for Inactive)
REMARK    1  A    between atoms: C_8  and  N_9 
REMARK       I    between atoms: N_9  and  C_10 
REMARK       I    between atoms: C_10  and  N_12 
REMARK    2  A    between atoms: N_12  and  C_13 
REMARK    3  A    between atoms: C_13  and  C_14 
ROOT
HETATM    1  N   UNL     1     -40.473 -50.783  11.227  1.00  0.00    -0.294 N 
HETATM    2  C   UNL     1     -41.116 -51.715  11.993  1.00  0.00     0.321 C 
HETATM    3  O   UNL     1     -40.799 -52.899  11.868  1.00  0.00    -0.247 OA
HETATM    4  N   UNL     1     -42.093 -51.293  12.839  1.00  0.00    -0.340 N 
HETATM    5  H   UNL     1     -39.783 -51.196  10.619  1.00  0.00     0.172 HD
HETATM    6  H   UNL     1     -42.052 -50.300  13.077  1.00  0.00     0.164 HD
ENDROOT
BRANCH   1   7
HETATM    7  C   UNL     1     -40.690 -49.401  11.147  1.00  0.00     0.114 A 
HETATM    8  C   UNL     1     -39.789 -48.513  11.760  1.00  0.00    -0.018 A 
HETATM    9  C   UNL     1     -38.587 -48.940  12.553  1.00  0.00     0.052 C 
HETATM   10  C   UNL     1     -40.019 -47.140  11.587  1.00  0.00     0.012 A 
HETATM   11  C   UNL     1     -41.108 -46.699  10.847  1.00  0.00     0.018 A 
HETATM   12  C   UNL     1     -41.950 -47.646  10.307  1.00  0.00     0.089 A 
HETATM   13  N   UNL     1     -41.764 -48.973  10.448  1.00  0.00    -0.352 N 
ATOM     14  HN  UNL     1     -42.419 -49.639  10.036  1.00  0.00     0.166 HD
ENDBRANCH   1   7
BRANCH   4  15
HETATM   15  C   UNL     1     -42.747 -52.219  13.741  1.00  0.00     0.156 C 
BRANCH  15  16
HETATM   16  C   UNL     1     -44.257 -52.411  13.559  1.00  0.00     0.139 C 
HETATM   17  C   UNL     1     -45.097 -51.166  13.329  1.00  0.00     0.035 C 
HETATM   18  C   UNL     1     -46.477 -51.558  13.837  1.00  0.00     0.029 C 
HETATM   19  C   UNL     1     -46.287 -52.929  14.457  1.00  0.00     0.168 C 
HETATM   20  O   UNL     1     -44.878 -53.062  14.680  1.00  0.00    -0.384 OA
ENDBRANCH  15  16
ENDBRANCH   4  15
TORSDOF 3
ENDMDL
MODEL 4
REMARK VINA RESULT:      -5.8      2.005      2.223
REMARK  3 active torsions:
REMARK  status: ('A' for Active; 'I' for Inactive)
REMARK    1  A    between atoms: C_8  and  N_9 
REMARK       I    between atoms: N_9  and  C_10 
REMARK       I    between atoms: C_10  and  N_12 
REMARK    2  A    between atoms: N_12  and  C_13 
REMARK    3  A    between atoms: C_13  and  C_14 
ROOT
HETATM    1  N   UNL     1     -41.208 -48.849  10.623  1.00  0.00    -0.294 N 
HETATM    2  C   UNL     1     -41.494 -49.799  11.563  1.00  0.00     0.321 C 
HETATM    3  O   UNL     1     -40.610 -50.597  11.881  1.00  0.00    -0.247 OA
HETATM    4  N   UNL     1     -42.750 -49.835  12.083  1.00  0.00    -0.340 N 
HETATM    5  H   UNL     1     -40.261 -48.917  10.285  1.00  0.00     0.172 HD
HETATM    6  H   UNL     1     -43.280 -48.968  11.981  1.00  0.00     0.164 HD
ENDROOT
BRANCH   1   7
HETATM    7  C   UNL     1     -42.048 -47.879  10.061  1.00  0.00     0.114 A 
HETATM    8  C   UNL     1     -42.136 -46.603  10.644  1.00  0.00    -0.018 A 
HETATM    9  C   UNL     1     -41.402 -46.188  11.887  1.00  0.00     0.052 C 
HETATM   10  C   UNL     1     -42.939 -45.652   9.996  1.00  0.00     0.012 A 
HETATM   11  C   UNL     1     -43.622 -45.985   8.835  1.00  0.00     0.018 A 
HETATM   12  C   UNL     1     -43.495 -47.270   8.355  1.00  0.00     0.089 A 
HETATM   13  N   UNL     1     -42.733 -48.212   8.944  1.00  0.00    -0.352 N 
ATOM     14  HN  UNL     1     -42.675 -49.155   8.557  1.00  0.00     0.166 HD
ENDBRANCH   1   7
BRANCH   4  15
HETATM   15  C   UNL     1     -43.088 -50.760  13.146  1.00  0.00     0.156 C 
BRANCH  15  16
HETATM   16  C   UNL     1     -44.577 -50.912  13.482  1.00  0.00     0.139 C 
HETATM   17  C   UNL     1     -44.961 -50.957  14.952  1.00  0.00     0.035 C 
HETATM   18  C   UNL     1     -46.266 -51.738  14.965  1.00  0.00     0.029 C 
HETATM   19  C   UNL     1     -46.448 -52.213  13.537  1.00  0.00     0.168 C 
HETATM   20  O   UNL     1     -45.158 -52.102  12.923  1.00  0.00    -0.384 OA
ENDBRANCH  15  16
ENDBRANCH   4  15
TORSDOF 3
ENDMDL
MODEL 5
REMARK VINA RESULT:      -5.6      3.488      4.552
REMARK  3 active torsions:
REMARK  status: ('A' for Active; 'I' for Inactive)
REMARK    1  A    between atoms: C_8  and  N_9 
REMARK       I    between atoms: N_9  and  C_10 
REMARK       I    between atoms: C_10  and  N_12 
REMARK    2  A    between atoms: N_12  and  C_13 
REMARK    3  A    between atoms: C_13  and  C_14 
ROOT
HETATM    1  N   UNL     1     -43.249 -50.291  12.761  1.00  0.00    -0.294 N 
HETATM    2  C   UNL     1     -42.141 -50.984  12.362  1.00  0.00     0.321 C 
HETATM    3  O   UNL     1     -41.238 -50.370  11.790  1.00  0.00    -0.247 OA
HETATM    4  N   UNL     1     -42.098 -52.323  12.593  1.00  0.00    -0.340 N 
HETATM    5  H   UNL     1     -43.195 -49.312  12.528  1.00  0.00     0.172 HD
HETATM    6  H   UNL     1     -42.734 -52.651  13.321  1.00  0.00     0.164 HD
ENDROOT
BRANCH   1   7
HETATM    7  C   UNL     1     -44.417 -50.767  13.372  1.00  0.00     0.114 A 
HETATM    8  C   UNL     1     -44.543 -50.729  14.772  1.00  0.00    -0.018 A 
HETATM    9  C   UNL     1     -43.474 -50.236  15.704  1.00  0.00     0.052 C 
HETATM   10  C   UNL     1     -45.762 -51.154  15.322  1.00  0.00     0.012 A 
HETATM   11  C   UNL     1     -46.785 -51.601  14.496  1.00  0.00     0.018 A 
HETATM   12  C   UNL     1     -46.558 -51.626  13.139  1.00  0.00     0.089 A 
HETATM   13  N   UNL     1     -45.403 -51.226  12.570  1.00  0.00    -0.352 N 
ATOM     14  HN  UNL     1     -45.277 -51.270  11.558  1.00  0.00     0.166 HD
ENDBRANCH   1   7
BRANCH   4  15
HETATM   15  C   UNL     1     -40.914 -53.096  12.274  1.00  0.00     0.156 C 
BRANCH  15  16
HETATM   16  C   UNL     1     -40.488 -54.159  13.294  1.00  0.00     0.139 C 
HETATM   17  C   UNL     1     -41.234 -54.197  14.617  1.00  0.00     0.035 C 
HETATM   18  C   UNL     1     -40.233 -54.814  15.583  1.00  0.00     0.029 C 
HETATM   19  C   UNL     1     -38.949 -54.936  14.786  1.00  0.00     0.168 C 
HETATM   20  O   UNL     1     -39.103 -54.056  13.665  1.00  0.00    -0.384 OA
ENDBRANCH  15  16
ENDBRANCH   4  15
TORSDOF 3
ENDMDL
MODEL 6
REMARK VINA RESULT:      -5.6      3.463      5.719
REMARK  3 active torsions:
REMARK  status: ('A' for Active; 'I' for Inactive)
REMARK    1  A    between atoms: C_8  and  N_9 
REMARK       I    between atoms: N_9  and  C_10 
REMARK       I    between atoms: C_10  and  N_12 
REMARK    2  A    between atoms: N_12  and  C_13 
REMARK    3  A    between atoms: C_13  and  C_14 
ROOT
HETATM    1  N   UNL     1     -43.254 -53.170  12.050  1.00  0.00    -0.294 N 
HETATM    2  C   UNL     1     -44.117 -53.746  12.938  1.00  0.00     0.321 C 
HETATM    3  O   UNL     1     -44.970 -54.526  12.509  1.00  0.00    -0.247 OA
HETATM    4  N   UNL     1     -44.011 -53.413  14.253  1.00  0.00    -0.340 N 
HETATM    5  H   UNL     1     -43.426 -53.464  11.101  1.00  0.00     0.172 HD
HETATM    6  H   UNL     1     -43.107 -53.019  14.521  1.00  0.00     0.164 HD
ENDROOT
BRANCH   1   7
HETATM    7  C   UNL     1     -42.248 -52.222  12.281  1.00  0.00     0.114 A 
HETATM    8  C   UNL     1     -40.977 -52.638  12.714  1.00  0.00    -0.018 A 
HETATM    9  C   UNL     1     -40.604 -54.066  12.994  1.00  0.00     0.052 C 
HETATM   10  C   UNL     1     -39.991 -51.651  12.862  1.00  0.00     0.012 A 
HETATM   11  C   UNL     1     -40.286 -50.320  12.597  1.00  0.00     0.018 A 
HETATM   12  C   UNL     1     -41.568 -50.007  12.204  1.00  0.00     0.089 A 
HETATM   13  N   UNL     1     -42.544 -50.924  12.049  1.00  0.00    -0.352 N 
ATOM     14  HN  UNL     1     -43.482 -50.644  11.763  1.00  0.00     0.166 HD
ENDBRANCH   1   7
BRANCH   4  15
HETATM   15  C   UNL     1     -44.837 -54.058  15.253  1.00  0.00     0.156 C 
BRANCH  15  16
HETATM   16  C   UNL     1     -46.071 -53.285  15.734  1.00  0.00     0.139 C 
HETATM   17  C   UNL     1     -46.492 -52.069  14.924  1.00  0.00     0.035 C 
HETATM   18  C   UNL     1     -47.230 -51.199  15.931  1.00  0.00     0.029 C 
HETATM   19  C   UNL     1     -47.040 -51.899  17.262  1.00  0.00     0.168 C 
HETATM   20  O   UNL     1     -45.934 -52.792  17.077  1.00  0.00    -0.384 OA
ENDBRANCH  15  16
ENDBRANCH   4  15
TORSDOF 3
ENDMDL
MODEL 7
REMARK VINA RESULT:      -5.5      3.327      7.014
REMARK  3 active torsions:
REMARK  status: ('A' for Active; 'I' for Inactive)
REMARK    1  A    between atoms: C_8  and  N_9 
REMARK       I    between atoms: N_9  and  C_10 
REMARK       I    between atoms: C_10  and  N_12 
REMARK    2  A    between atoms: N_12  and  C_13 
REMARK    3  A    between atoms: C_13  and  C_14 
ROOT
HETATM    1  N   UNL     1     -40.941 -49.425  10.808  1.00  0.00    -0.294 N 
HETATM    2  C   UNL     1     -41.313 -48.164  10.437  1.00  0.00     0.321 C 
HETATM    3  O   UNL     1     -42.367 -48.020   9.815  1.00  0.00    -0.247 OA
HETATM    4  N   UNL     1     -40.488 -47.129  10.750  1.00  0.00    -0.340 N 
HETATM    5  H   UNL     1     -41.605 -50.124  10.513  1.00  0.00     0.172 HD
HETATM    6  H   UNL     1     -39.830 -47.321  11.507  1.00  0.00     0.164 HD
ENDROOT
BRANCH   1   7
HETATM    7  C   UNL     1     -39.777 -49.848  11.464  1.00  0.00     0.114 A 
HETATM    8  C   UNL     1     -39.850 -50.327  12.784  1.00  0.00    -0.018 A 
HETATM    9  C   UNL     1     -41.114 -50.392  13.592  1.00  0.00     0.052 C 
HETATM   10  C   UNL     1     -38.663 -50.801  13.364  1.00  0.00     0.012 A 
HETATM   11  C   UNL     1     -37.474 -50.776  12.648  1.00  0.00     0.018 A 
HETATM   12  C   UNL     1     -37.498 -50.263  11.370  1.00  0.00     0.089 A 
HETATM   13  N   UNL     1     -38.615 -49.799  10.776  1.00  0.00    -0.352 N 
ATOM     14  HN  UNL     1     -38.584 -49.420   9.829  1.00  0.00     0.166 HD
ENDBRANCH   1   7
BRANCH   4  15
HETATM   15  C   UNL     1     -40.870 -45.761  10.464  1.00  0.00     0.156 C 
BRANCH  15  16
HETATM   16  C   UNL     1     -40.824 -44.771  11.634  1.00  0.00     0.139 C 
HETATM   17  C   UNL     1     -40.647 -43.299  11.298  1.00  0.00     0.035 C 
HETATM   18  C   UNL     1     -39.999 -42.715  12.544  1.00  0.00     0.029 C 
HETATM   19  C   UNL     1     -39.711 -43.912  13.429  1.00  0.00     0.168 C 
HETATM   20  O   UNL     1     -39.768 -45.055  12.566  1.00  0.00    -0.384 OA
ENDBRANCH  15  16
ENDBRANCH   4  15
TORSDOF 3
ENDMDL
MODEL 8
REMARK VINA RESULT:      -5.4      3.030      5.314
REMARK  3 active torsions:
REMARK  status: ('A' for Active; 'I' for Inactive)
REMARK    1  A    between atoms: C_8  and  N_9 
REMARK       I    between atoms: N_9  and  C_10 
REMARK       I    between atoms: C_10  and  N_12 
REMARK    2  A    between atoms: N_12  and  C_13 
REMARK    3  A    between atoms: C_13  and  C_14 
ROOT
HETATM    1  N   UNL     1     -42.642 -52.842  12.762  1.00  0.00    -0.294 N 
HETATM    2  C   UNL     1     -41.619 -52.134  12.197  1.00  0.00     0.321 C 
HETATM    3  O   UNL     1     -40.530 -52.692  12.047  1.00  0.00    -0.247 OA
HETATM    4  N   UNL     1     -41.843 -50.838  11.850  1.00  0.00    -0.340 N 
HETATM    5  H   UNL     1     -42.371 -53.783  13.002  1.00  0.00     0.172 HD
HETATM    6  H   UNL     1     -42.828 -50.592  11.736  1.00  0.00     0.164 HD
ENDROOT
BRANCH   1   7
HETATM    7  C   UNL     1     -43.938 -52.419  13.085  1.00  0.00     0.114 A 
HETATM    8  C   UNL     1     -44.179 -51.759  14.302  1.00  0.00    -0.018 A 
HETATM    9  C   UNL     1     -43.128 -51.490  15.341  1.00  0.00     0.052 C 
HETATM   10  C   UNL     1     -45.482 -51.296  14.539  1.00  0.00     0.012 A 
HETATM   11  C   UNL     1     -46.482 -51.506  13.598  1.00  0.00     0.018 A 
HETATM   12  C   UNL     1     -46.155 -52.187  12.447  1.00  0.00     0.089 A 
HETATM   13  N   UNL     1     -44.916 -52.646  12.180  1.00  0.00    -0.352 N 
ATOM     14  HN  UNL     1     -44.721 -53.153  11.316  1.00  0.00     0.166 HD
ENDBRANCH   1   7
BRANCH   4  15
HETATM   15  C   UNL     1     -40.827 -50.065  11.166  1.00  0.00     0.156 C 
BRANCH  15  16
HETATM   16  C   UNL     1     -39.888 -49.229  12.043  1.00  0.00     0.139 C 
HETATM   17  C   UNL     1     -38.399 -49.520  11.947  1.00  0.00     0.035 C 
HETATM   18  C   UNL     1     -37.853 -49.077  13.297  1.00  0.00     0.029 C 
HETATM   19  C   UNL     1     -39.079 -48.718  14.113  1.00  0.00     0.168 C 
HETATM   20  O   UNL     1     -40.185 -49.338  13.445  1.00  0.00    -0.384 OA
ENDBRANCH  15  16
ENDBRANCH   4  15
TORSDOF 3
ENDMDL
MODEL 9
REMARK VINA RESULT:      -5.3      3.861      5.770
REMARK  3 active torsions:
REMARK  status: ('A' for Active; 'I' for Inactive)
REMARK    1  A    between atoms: C_8  and  N_9 
REMARK       I    between atoms: N_9  and  C_10 
REMARK       I    between atoms: C_10  and  N_12 
REMARK    2  A    between atoms: N_12  and  C_13 
REMARK    3  A    between atoms: C_13  and  C_14 
ROOT
HETATM    1  N   UNL     1     -43.343 -53.784  13.649  1.00  0.00    -0.294 N 
HETATM    2  C   UNL     1     -42.156 -53.472  13.049  1.00  0.00     0.321 C 
HETATM    3  O   UNL     1     -41.240 -54.296  13.095  1.00  0.00    -0.247 OA
HETATM    4  N   UNL     1     -42.031 -52.257  12.453  1.00  0.00    -0.340 N 
HETATM    5  H   UNL     1     -43.329 -54.695  14.079  1.00  0.00     0.172 HD
HETATM    6  H   UNL     1     -42.916 -51.806  12.215  1.00  0.00     0.164 HD
ENDROOT
BRANCH   1   7
HETATM    7  C   UNL     1     -44.500 -53.003  13.780  1.00  0.00     0.114 A 
HETATM    8  C   UNL     1     -44.738 -52.296  14.971  1.00  0.00    -0.018 A 
HETATM    9  C   UNL     1     -43.840 -52.338  16.174  1.00  0.00     0.052 C 
HETATM   10  C   UNL     1     -45.876 -51.476  15.018  1.00  0.00     0.012 A 
HETATM   11  C   UNL     1     -46.726 -51.394  13.922  1.00  0.00     0.018 A 
HETATM   12  C   UNL     1     -46.422 -52.145  12.809  1.00  0.00     0.089 A 
HETATM   13  N   UNL     1     -45.340 -52.943  12.723  1.00  0.00    -0.352 N 
ATOM     14  HN  UNL     1     -45.159 -53.488  11.879  1.00  0.00     0.166 HD
ENDBRANCH   1   7
BRANCH   4  15
HETATM   15  C   UNL     1     -40.830 -51.904  11.724  1.00  0.00     0.156 C 
BRANCH  15  16
HETATM   16  C   UNL     1     -39.779 -51.082  12.480  1.00  0.00     0.139 C 
HETATM   17  C   UNL     1     -39.161 -49.900  11.752  1.00  0.00     0.035 C 
HETATM   18  C   UNL     1     -37.802 -49.732  12.416  1.00  0.00     0.029 C 
HETATM   19  C   UNL     1     -37.681 -50.916  13.355  1.00  0.00     0.168 C 
HETATM   20  O   UNL     1     -38.655 -51.868  12.909  1.00  0.00    -0.384 OA
ENDBRANCH  15  16
ENDBRANCH   4  15
TORSDOF 3
ENDMDL
