MODEL 1
REMARK VINA RESULT:      -6.7      0.000      0.000
REMARK  4 active torsions:
REMARK  status: ('A' for Active; 'I' for Inactive)
REMARK    1  A    between atoms: C_2  and  S_5 
REMARK    2  A    between atoms: S_5  and  C_8 
REMARK    3  A    between atoms: C_11  and  N_12 
REMARK    4  A    between atoms: N_12  and  C_13 
ROOT
HETATM    1  C   UNL     1     -43.455 -53.381  13.090  1.00  0.00     0.129 A 
HETATM    2  C   UNL     1     -42.633 -53.991  14.022  1.00  0.00     0.043 A 
HETATM    3  C   UNL     1     -41.266 -53.730  13.942  1.00  0.00     0.028 A 
HETATM    4  C   UNL     1     -40.741 -52.907  12.937  1.00  0.00     0.024 A 
HETATM    5  C   UNL     1     -41.665 -52.406  12.016  1.00  0.00     0.112 A 
HETATM    6  N   UNL     1     -43.011 -52.602  12.076  1.00  0.00    -0.355 N 
ATOM      7  HN  UNL     1     -43.648 -52.185  11.396  1.00  0.00     0.166 HD
ENDROOT
BRANCH   4   8
HETATM    8  N   UNL     1     -39.369 -52.616  12.987  1.00  0.00    -0.285 NA
HETATM    9  H   UNL     1     -38.863 -53.481  13.185  1.00  0.00     0.128 HD
BRANCH   8  10
HETATM   10  C   UNL     1     -38.874 -51.500  13.795  1.00  0.00     0.091 C 
HETATM   11  C   UNL     1     -39.774 -50.261  13.684  1.00  0.00     0.054 C 
HETATM   12  C   UNL     1     -38.774 -49.159  13.323  1.00  0.00     0.123 C 
HETATM   13  C   UNL     1     -38.380 -49.253  11.852  1.00  0.00     0.034 C 
HETATM   14  O   UNL     1     -37.560 -49.622  13.962  1.00  0.00    -0.379 OA
HETATM   15  C   UNL     1     -37.505 -50.507  11.845  1.00  0.00     0.036 C 
HETATM   16  C   UNL     1     -37.522 -50.923  13.317  1.00  0.00     0.140 C 
ENDBRANCH   8  10
ENDBRANCH   4   8
BRANCH   1  17
HETATM   17  S   UNL     1     -45.238 -53.516  13.228  1.00  0.00     0.198 S 
HETATM   18  O   UNL     1     -45.513 -54.870  13.696  1.00  0.00    -0.220 OA
HETATM   19  O   UNL     1     -45.820 -53.071  11.975  1.00  0.00    -0.220 OA
BRANCH  17  20
HETATM   20  C   UNL     1     -45.733 -52.375  14.568  1.00  0.00     0.059 C 
HETATM   21  C   UNL     1     -46.274 -53.168  15.766  1.00  0.00     0.031 C 
HETATM   22  C   UNL     1     -46.853 -51.457  14.038  1.00  0.00     0.031 C 
HETATM   23  C   UNL     1     -44.562 -51.485  15.006  1.00  0.00     0.031 C 
ENDBRANCH  17  20
ENDBRANCH   1  17
TORSDOF 4
ENDMDL
MODEL 2
REMARK VINA RESULT:      -6.6      1.044      1.784
REMARK  4 active torsions:
REMARK  status: ('A' for Active; 'I' for Inactive)
REMARK    1  A    between atoms: C_2  and  S_5 
REMARK    2  A    between atoms: S_5  and  C_8 
REMARK    3  A    between atoms: C_11  and  N_12 
REMARK    4  A    between atoms: N_12  and  C_13 
ROOT
HETATM    1  C   UNL     1     -43.177 -53.497  13.408  1.00  0.00     0.129 A 
HETATM    2  C   UNL     1     -42.096 -53.736  14.239  1.00  0.00     0.043 A 
HETATM    3  C   UNL     1     -40.859 -53.226  13.847  1.00  0.00     0.028 A 
HETATM    4  C   UNL     1     -40.710 -52.526  12.642  1.00  0.00     0.024 A 
HETATM    5  C   UNL     1     -41.862 -52.410  11.860  1.00  0.00     0.112 A 
HETATM    6  N   UNL     1     -43.096 -52.857  12.218  1.00  0.00    -0.355 N 
ATOM      7  HN  UNL     1     -43.914 -52.717  11.624  1.00  0.00     0.166 HD
ENDROOT
BRANCH   4   8
HETATM    8  N   UNL     1     -39.454 -51.961  12.372  1.00  0.00    -0.285 NA
HETATM    9  H   UNL     1     -38.778 -52.347  13.032  1.00  0.00     0.128 HD
BRANCH   8  10
HETATM   10  C   UNL     1     -39.305 -50.512  12.226  1.00  0.00     0.091 C 
HETATM   11  C   UNL     1     -37.838 -50.096  12.051  1.00  0.00     0.054 C 
HETATM   12  C   UNL     1     -37.671 -49.015  13.123  1.00  0.00     0.123 C 
HETATM   13  C   UNL     1     -37.538 -49.647  14.506  1.00  0.00     0.034 C 
HETATM   14  O   UNL     1     -39.004 -48.455  13.205  1.00  0.00    -0.379 OA
HETATM   15  C   UNL     1     -38.962 -50.146  14.757  1.00  0.00     0.036 C 
HETATM   16  C   UNL     1     -39.689 -49.705  13.486  1.00  0.00     0.140 C 
ENDBRANCH   8  10
ENDBRANCH   4   8
BRANCH   1  17
HETATM   17  S   UNL     1     -44.833 -53.958  13.920  1.00  0.00     0.198 S 
HETATM   18  O   UNL     1     -44.694 -54.623  15.210  1.00  0.00    -0.220 OA
HETATM   19  O   UNL     1     -45.459 -54.671  12.822  1.00  0.00    -0.220 OA
BRANCH  17  20
HETATM   20  C   UNL     1     -45.728 -52.392  14.218  1.00  0.00     0.059 C 
HETATM   21  C   UNL     1     -44.779 -51.346  14.822  1.00  0.00     0.031 C 
HETATM   22  C   UNL     1     -46.865 -52.664  15.225  1.00  0.00     0.031 C 
HETATM   23  C   UNL     1     -46.360 -51.854  12.928  1.00  0.00     0.031 C 
ENDBRANCH  17  20
ENDBRANCH   1  17
TORSDOF 4
ENDMDL
MODEL 3
REMARK VINA RESULT:      -6.2      2.417      6.929
REMARK  4 active torsions:
REMARK  status: ('A' for Active; 'I' for Inactive)
REMARK    1  A    between atoms: C_2  and  S_5 
REMARK    2  A    between atoms: S_5  and  C_8 
REMARK    3  A    between atoms: C_11  and  N_12 
REMARK    4  A    between atoms: N_12  and  C_13 
ROOT
HETATM    1  C   UNL     1     -40.084 -51.648  12.863  1.00  0.00     0.129 A 
HETATM    2  C   UNL     1     -40.086 -52.872  13.510  1.00  0.00     0.043 A 
HETATM    3  C   UNL     1     -41.269 -53.611  13.484  1.00  0.00     0.028 A 
HETATM    4  C   UNL     1     -42.419 -53.118  12.853  1.00  0.00     0.024 A 
HETATM    5  C   UNL     1     -42.308 -51.842  12.296  1.00  0.00     0.112 A 
HETATM    6  N   UNL     1     -41.167 -51.101  12.264  1.00  0.00    -0.355 N 
ATOM      7  HN  UNL     1     -41.130 -50.185  11.814  1.00  0.00     0.166 HD
ENDROOT
BRANCH   4   8
HETATM    8  N   UNL     1     -43.535 -53.966  12.786  1.00  0.00    -0.285 NA
HETATM    9  H   UNL     1     -44.249 -53.515  12.211  1.00  0.00     0.128 HD
BRANCH   8  10
HETATM   10  C   UNL     1     -44.104 -54.547  14.003  1.00  0.00     0.091 C 
HETATM   11  C   UNL     1     -45.460 -55.219  13.744  1.00  0.00     0.054 C 
HETATM   12  C   UNL     1     -46.353 -54.579  14.811  1.00  0.00     0.123 C 
HETATM   13  C   UNL     1     -46.748 -53.163  14.401  1.00  0.00     0.034 C 
HETATM   14  O   UNL     1     -45.412 -54.302  15.876  1.00  0.00    -0.379 OA
HETATM   15  C   UNL     1     -45.430 -52.409  14.578  1.00  0.00     0.036 C 
HETATM   16  C   UNL     1     -44.492 -53.509  15.079  1.00  0.00     0.140 C 
ENDBRANCH   8  10
ENDBRANCH   4   8
BRANCH   1  17
HETATM   17  S   UNL     1     -38.561 -50.716  12.693  1.00  0.00     0.198 S 
HETATM   18  O   UNL     1     -38.779 -49.767  11.608  1.00  0.00    -0.220 OA
HETATM   19  O   UNL     1     -37.466 -51.663  12.593  1.00  0.00    -0.220 OA
BRANCH  17  20
HETATM   20  C   UNL     1     -38.385 -49.743  14.230  1.00  0.00     0.059 C 
HETATM   21  C   UNL     1     -39.768 -49.410  14.807  1.00  0.00     0.031 C 
HETATM   22  C   UNL     1     -37.662 -48.423  13.892  1.00  0.00     0.031 C 
HETATM   23  C   UNL     1     -37.541 -50.489  15.272  1.00  0.00     0.031 C 
ENDBRANCH  17  20
ENDBRANCH   1  17
TORSDOF 4
ENDMDL
MODEL 4
REMARK VINA RESULT:      -5.9      4.827      7.104
REMARK  4 active torsions:
REMARK  status: ('A' for Active; 'I' for Inactive)
REMARK    1  A    between atoms: C_2  and  S_5 
REMARK    2  A    between atoms: S_5  and  C_8 
REMARK    3  A    between atoms: C_11  and  N_12 
REMARK    4  A    between atoms: N_12  and  C_13 
ROOT
HETATM    1  C   UNL     1     -41.770 -46.602  10.994  1.00  0.00     0.129 A 
HETATM    2  C   UNL     1     -42.926 -47.037  11.619  1.00  0.00     0.043 A 
HETATM    3  C   UNL     1     -43.013 -48.392  11.937  1.00  0.00     0.028 A 
HETATM    4  C   UNL     1     -41.983 -49.284  11.609  1.00  0.00     0.024 A 
HETATM    5  C   UNL     1     -40.900 -48.734  10.919  1.00  0.00     0.112 A 
HETATM    6  N   UNL     1     -40.753 -47.414  10.621  1.00  0.00    -0.355 N 
ATOM      7  HN  UNL     1     -39.925 -47.057  10.143  1.00  0.00     0.166 HD
ENDROOT
BRANCH   4   8
HETATM    8  N   UNL     1     -42.106 -50.609  12.054  1.00  0.00    -0.285 NA
HETATM    9  H   UNL     1     -42.611 -50.605  12.942  1.00  0.00     0.128 HD
BRANCH   8  10
HETATM   10  C   UNL     1     -40.939 -51.492  12.095  1.00  0.00     0.091 C 
HETATM   11  C   UNL     1     -41.306 -52.950  11.784  1.00  0.00     0.054 C 
HETATM   12  C   UNL     1     -40.689 -53.704  12.965  1.00  0.00     0.123 C 
HETATM   13  C   UNL     1     -41.552 -53.542  14.214  1.00  0.00     0.034 C 
HETATM   14  O   UNL     1     -39.556 -52.871  13.306  1.00  0.00    -0.379 OA
HETATM   15  C   UNL     1     -41.292 -52.081  14.583  1.00  0.00     0.036 C 
HETATM   16  C   UNL     1     -40.308 -51.642  13.497  1.00  0.00     0.140 C 
ENDBRANCH   8  10
ENDBRANCH   4   8
BRANCH   1  17
HETATM   17  S   UNL     1     -41.497 -44.852  10.711  1.00  0.00     0.198 S 
HETATM   18  O   UNL     1     -42.783 -44.296  10.306  1.00  0.00    -0.220 OA
HETATM   19  O   UNL     1     -40.358 -44.714   9.823  1.00  0.00    -0.220 OA
BRANCH  17  20
HETATM   20  C   UNL     1     -41.091 -44.131  12.341  1.00  0.00     0.059 C 
HETATM   21  C   UNL     1     -40.258 -45.122  13.166  1.00  0.00     0.031 C 
HETATM   22  C   UNL     1     -42.408 -43.850  13.092  1.00  0.00     0.031 C 
HETATM   23  C   UNL     1     -40.340 -42.801  12.193  1.00  0.00     0.031 C 
ENDBRANCH  17  20
ENDBRANCH   1  17
TORSDOF 4
ENDMDL
MODEL 5
REMARK VINA RESULT:      -5.9      3.130      3.817
REMARK  4 active torsions:
REMARK  status: ('A' for Active; 'I' for Inactive)
REMARK    1  A    between atoms: C_2  and  S_5 
REMARK    2  A    between atoms: S_5  and  C_8 
REMARK    3  A    between atoms: C_11  and  N_12 
REMARK    4  A    between atoms: N_12  and  C_13 
ROOT
HETATM    1  C   UNL     1     -43.922 -51.786  12.867  1.00  0.00     0.129 A 
HETATM    2  C   UNL     1     -44.232 -50.542  13.390  1.00  0.00     0.043 A 
HETATM    3  C   UNL     1     -43.265 -49.542  13.287  1.00  0.00     0.028 A 
HETATM    4  C   UNL     1     -42.016 -49.797  12.705  1.00  0.00     0.024 A 
HETATM    5  C   UNL     1     -41.801 -51.109  12.276  1.00  0.00     0.112 A 
HETATM    6  N   UNL     1     -42.726 -52.106  12.321  1.00  0.00    -0.355 N 
ATOM      7  HN  UNL     1     -42.529 -53.042  11.963  1.00  0.00     0.166 HD
ENDROOT
BRANCH   4   8
HETATM    8  N   UNL     1     -41.140 -48.712  12.551  1.00  0.00    -0.285 NA
HETATM    9  H   UNL     1     -41.245 -48.095  13.358  1.00  0.00     0.128 HD
BRANCH   8  10
HETATM   10  C   UNL     1     -41.098 -47.960  11.295  1.00  0.00     0.091 C 
HETATM   11  C   UNL     1     -39.918 -46.979  11.248  1.00  0.00     0.054 C 
HETATM   12  C   UNL     1     -40.601 -45.661  10.871  1.00  0.00     0.123 C 
HETATM   13  C   UNL     1     -41.313 -45.061  12.080  1.00  0.00     0.034 C 
HETATM   14  O   UNL     1     -41.730 -46.112  10.085  1.00  0.00    -0.379 OA
HETATM   15  C   UNL     1     -42.499 -46.013  12.245  1.00  0.00     0.036 C 
HETATM   16  C   UNL     1     -42.288 -46.997  11.093  1.00  0.00     0.140 C 
ENDBRANCH   8  10
ENDBRANCH   4   8
BRANCH   1  17
HETATM   17  S   UNL     1     -45.168 -53.074  12.794  1.00  0.00     0.198 S 
HETATM   18  O   UNL     1     -44.476 -54.292  12.391  1.00  0.00    -0.220 OA
HETATM   19  O   UNL     1     -46.269 -52.587  11.984  1.00  0.00    -0.220 OA
BRANCH  17  20
HETATM   20  C   UNL     1     -45.741 -53.326  14.512  1.00  0.00     0.059 C 
HETATM   21  C   UNL     1     -46.421 -54.695  14.648  1.00  0.00     0.031 C 
HETATM   22  C   UNL     1     -46.772 -52.229  14.848  1.00  0.00     0.031 C 
HETATM   23  C   UNL     1     -44.583 -53.206  15.511  1.00  0.00     0.031 C 
ENDBRANCH  17  20
ENDBRANCH   1  17
TORSDOF 4
ENDMDL
MODEL 6
REMARK VINA RESULT:      -5.8      3.209      6.642
REMARK  4 active torsions:
REMARK  status: ('A' for Active; 'I' for Inactive)
REMARK    1  A    between atoms: C_2  and  S_5 
REMARK    2  A    between atoms: S_5  and  C_8 
REMARK    3  A    between atoms: C_11  and  N_12 
REMARK    4  A    between atoms: N_12  and  C_13 
ROOT
HETATM    1  C   UNL     1     -42.277 -49.487  12.086  1.00  0.00     0.129 A 
HETATM    2  C   UNL     1     -42.946 -49.590  13.294  1.00  0.00     0.043 A 
HETATM    3  C   UNL     1     -42.894 -50.817  13.955  1.00  0.00     0.028 A 
HETATM    4  C   UNL     1     -42.217 -51.912  13.402  1.00  0.00     0.024 A 
HETATM    5  C   UNL     1     -41.640 -51.699  12.147  1.00  0.00     0.112 A 
HETATM    6  N   UNL     1     -41.632 -50.512  11.482  1.00  0.00    -0.355 N 
ATOM      7  HN  UNL     1     -41.166 -50.400  10.581  1.00  0.00     0.166 HD
ENDROOT
BRANCH   4   8
HETATM    8  N   UNL     1     -42.128 -53.078  14.177  1.00  0.00    -0.285 NA
HETATM    9  H   UNL     1     -41.142 -53.328  14.272  1.00  0.00     0.128 HD
BRANCH   8  10
HETATM   10  C   UNL     1     -42.957 -54.244  13.866  1.00  0.00     0.091 C 
HETATM   11  C   UNL     1     -44.072 -53.912  12.866  1.00  0.00     0.054 C 
HETATM   12  C   UNL     1     -45.320 -54.445  13.575  1.00  0.00     0.123 C 
HETATM   13  C   UNL     1     -45.754 -53.491  14.685  1.00  0.00     0.034 C 
HETATM   14  O   UNL     1     -44.788 -55.544  14.351  1.00  0.00    -0.379 OA
HETATM   15  C   UNL     1     -44.660 -53.714  15.730  1.00  0.00     0.036 C 
HETATM   16  C   UNL     1     -43.782 -54.772  15.061  1.00  0.00     0.140 C 
ENDBRANCH   8  10
ENDBRANCH   4   8
BRANCH   1  17
HETATM   17  S   UNL     1     -42.140 -47.901  11.259  1.00  0.00     0.198 S 
HETATM   18  O   UNL     1     -43.266 -47.098  11.722  1.00  0.00    -0.220 OA
HETATM   19  O   UNL     1     -41.987 -48.149   9.838  1.00  0.00    -0.220 OA
BRANCH  17  20
HETATM   20  C   UNL     1     -40.621 -47.118  11.908  1.00  0.00     0.059 C 
HETATM   21  C   UNL     1     -40.920 -46.394  13.229  1.00  0.00     0.031 C 
HETATM   22  C   UNL     1     -40.129 -46.080  10.879  1.00  0.00     0.031 C 
HETATM   23  C   UNL     1     -39.502 -48.149  12.109  1.00  0.00     0.031 C 
ENDBRANCH  17  20
ENDBRANCH   1  17
TORSDOF 4
ENDMDL
MODEL 7
REMARK VINA RESULT:      -5.8      4.386      7.308
REMARK  4 active torsions:
REMARK  status: ('A' for Active; 'I' for Inactive)
REMARK    1  A    between atoms: C_2  and  S_5 
REMARK    2  A    between atoms: S_5  and  C_8 
REMARK    3  A    between atoms: C_11  and  N_12 
REMARK    4  A    between atoms: N_12  and  C_13 
ROOT
HETATM    1  C   UNL     1     -40.642 -46.977  11.150  1.00  0.00     0.129 A 
HETATM    2  C   UNL     1     -39.513 -47.678  11.539  1.00  0.00     0.043 A 
HETATM    3  C   UNL     1     -39.622 -49.064  11.644  1.00  0.00     0.028 A 
HETATM    4  C   UNL     1     -40.836 -49.718  11.397  1.00  0.00     0.024 A 
HETATM    5  C   UNL     1     -41.918 -48.893  11.078  1.00  0.00     0.112 A 
HETATM    6  N   UNL     1     -41.851 -47.542  10.927  1.00  0.00    -0.355 N 
ATOM      7  HN  UNL     1     -42.665 -46.988  10.660  1.00  0.00     0.166 HD
ENDROOT
BRANCH   4   8
HETATM    8  N   UNL     1     -40.834 -51.121  11.427  1.00  0.00    -0.285 NA
HETATM    9  H   UNL     1     -41.594 -51.458  10.833  1.00  0.00     0.128 HD
BRANCH   8  10
HETATM   10  C   UNL     1     -40.783 -51.839  12.702  1.00  0.00     0.091 C 
HETATM   11  C   UNL     1     -40.828 -53.361  12.511  1.00  0.00     0.054 C 
HETATM   12  C   UNL     1     -41.965 -53.777  13.449  1.00  0.00     0.123 C 
HETATM   13  C   UNL     1     -43.320 -53.456  12.824  1.00  0.00     0.034 C 
HETATM   14  O   UNL     1     -41.896 -52.768  14.484  1.00  0.00    -0.379 OA
HETATM   15  C   UNL     1     -43.352 -51.930  12.921  1.00  0.00     0.036 C 
HETATM   16  C   UNL     1     -42.019 -51.620  13.603  1.00  0.00     0.140 C 
ENDBRANCH   8  10
ENDBRANCH   4   8
BRANCH   1  17
HETATM   17  S   UNL     1     -40.544 -45.217  10.815  1.00  0.00     0.198 S 
HETATM   18  O   UNL     1     -41.831 -44.836  10.244  1.00  0.00    -0.220 OA
HETATM   19  O   UNL     1     -39.334 -44.972  10.054  1.00  0.00    -0.220 OA
BRANCH  17  20
HETATM   20  C   UNL     1     -40.417 -44.396  12.443  1.00  0.00     0.059 C 
HETATM   21  C   UNL     1     -40.822 -42.919  12.325  1.00  0.00     0.031 C 
HETATM   22  C   UNL     1     -38.948 -44.466  12.911  1.00  0.00     0.031 C 
HETATM   23  C   UNL     1     -41.281 -45.101  13.496  1.00  0.00     0.031 C 
ENDBRANCH  17  20
ENDBRANCH   1  17
TORSDOF 4
ENDMDL
MODEL 8
REMARK VINA RESULT:      -5.7      2.235      7.118
REMARK  4 active torsions:
REMARK  status: ('A' for Active; 'I' for Inactive)
REMARK    1  A    between atoms: C_2  and  S_5 
REMARK    2  A    between atoms: S_5  and  C_8 
REMARK    3  A    between atoms: C_11  and  N_12 
REMARK    4  A    between atoms: N_12  and  C_13 
ROOT
HETATM    1  C   UNL     1     -39.670 -51.842  13.994  1.00  0.00     0.129 A 
HETATM    2  C   UNL     1     -40.114 -52.997  13.375  1.00  0.00     0.043 A 
HETATM    3  C   UNL     1     -41.407 -53.428  13.668  1.00  0.00     0.028 A 
HETATM    4  C   UNL     1     -42.215 -52.735  14.580  1.00  0.00     0.024 A 
HETATM    5  C   UNL     1     -41.627 -51.622  15.189  1.00  0.00     0.112 A 
HETATM    6  N   UNL     1     -40.385 -51.143  14.906  1.00  0.00    -0.355 N 
ATOM      7  HN  UNL     1     -40.015 -50.305  15.356  1.00  0.00     0.166 HD
ENDROOT
BRANCH   4   8
HETATM    8  N   UNL     1     -43.536 -53.177  14.743  1.00  0.00    -0.285 NA
HETATM    9  H   UNL     1     -43.514 -54.147  15.062  1.00  0.00     0.128 HD
BRANCH   8  10
HETATM   10  C   UNL     1     -44.525 -52.976  13.683  1.00  0.00     0.091 C 
HETATM   11  C   UNL     1     -44.794 -51.488  13.417  1.00  0.00     0.054 C 
HETATM   12  C   UNL     1     -46.321 -51.409  13.503  1.00  0.00     0.123 C 
HETATM   13  C   UNL     1     -46.778 -51.439  14.959  1.00  0.00     0.034 C 
HETATM   14  O   UNL     1     -46.724 -52.727  13.063  1.00  0.00    -0.379 OA
HETATM   15  C   UNL     1     -46.501 -52.894  15.341  1.00  0.00     0.036 C 
HETATM   16  C   UNL     1     -45.945 -53.471  14.038  1.00  0.00     0.140 C 
ENDBRANCH   8  10
ENDBRANCH   4   8
BRANCH   1  17
HETATM   17  S   UNL     1     -38.093 -51.119  13.539  1.00  0.00     0.198 S 
HETATM   18  O   UNL     1     -37.339 -52.168  12.863  1.00  0.00    -0.220 OA
HETATM   19  O   UNL     1     -37.529 -50.494  14.721  1.00  0.00    -0.220 OA
BRANCH  17  20
HETATM   20  C   UNL     1     -38.463 -49.835  12.291  1.00  0.00     0.059 C 
HETATM   21  C   UNL     1     -37.369 -49.814  11.213  1.00  0.00     0.031 C 
HETATM   22  C   UNL     1     -38.487 -48.463  12.995  1.00  0.00     0.031 C 
HETATM   23  C   UNL     1     -39.837 -50.060  11.648  1.00  0.00     0.031 C 
ENDBRANCH  17  20
ENDBRANCH   1  17
TORSDOF 4
ENDMDL
MODEL 9
REMARK VINA RESULT:      -5.6      3.594      5.054
REMARK  4 active torsions:
REMARK  status: ('A' for Active; 'I' for Inactive)
REMARK    1  A    between atoms: C_2  and  S_5 
REMARK    2  A    between atoms: S_5  and  C_8 
REMARK    3  A    between atoms: C_11  and  N_12 
REMARK    4  A    between atoms: N_12  and  C_13 
ROOT
HETATM    1  C   UNL     1     -39.907 -51.508  12.609  1.00  0.00     0.129 A 
HETATM    2  C   UNL     1     -38.876 -50.724  13.099  1.00  0.00     0.043 A 
HETATM    3  C   UNL     1     -38.733 -49.444  12.566  1.00  0.00     0.028 A 
HETATM    4  C   UNL     1     -39.581 -48.980  11.551  1.00  0.00     0.024 A 
HETATM    5  C   UNL     1     -40.538 -49.890  11.095  1.00  0.00     0.112 A 
HETATM    6  N   UNL     1     -40.740 -51.134  11.610  1.00  0.00    -0.355 N 
ATOM      7  HN  UNL     1     -41.476 -51.749  11.263  1.00  0.00     0.166 HD
ENDROOT
BRANCH   4   8
HETATM    8  N   UNL     1     -39.433 -47.647  11.141  1.00  0.00    -0.285 NA
HETATM    9  H   UNL     1     -38.506 -47.323  11.425  1.00  0.00     0.128 HD
BRANCH   8  10
HETATM   10  C   UNL     1     -40.469 -46.656  11.438  1.00  0.00     0.091 C 
HETATM   11  C   UNL     1     -40.195 -45.309  10.755  1.00  0.00     0.054 C 
HETATM   12  C   UNL     1     -40.302 -44.321  11.919  1.00  0.00     0.123 C 
HETATM   13  C   UNL     1     -39.043 -44.370  12.781  1.00  0.00     0.034 C 
HETATM   14  O   UNL     1     -41.255 -44.974  12.792  1.00  0.00    -0.379 OA
HETATM   15  C   UNL     1     -39.197 -45.722  13.479  1.00  0.00     0.036 C 
HETATM   16  C   UNL     1     -40.528 -46.226  12.921  1.00  0.00     0.140 C 
ENDBRANCH   8  10
ENDBRANCH   4   8
BRANCH   1  17
HETATM   17  S   UNL     1     -40.275 -53.094  13.362  1.00  0.00     0.198 S 
HETATM   18  O   UNL     1     -38.990 -53.717  13.656  1.00  0.00    -0.220 OA
HETATM   19  O   UNL     1     -41.216 -53.789  12.504  1.00  0.00    -0.220 OA
BRANCH  17  20
HETATM   20  C   UNL     1     -41.071 -52.724  14.965  1.00  0.00     0.059 C 
HETATM   21  C   UNL     1     -40.005 -52.523  16.052  1.00  0.00     0.031 C 
HETATM   22  C   UNL     1     -41.955 -53.925  15.359  1.00  0.00     0.031 C 
HETATM   23  C   UNL     1     -41.973 -51.486  14.870  1.00  0.00     0.031 C 
ENDBRANCH  17  20
ENDBRANCH   1  17
TORSDOF 4
ENDMDL
