MODEL 1
REMARK VINA RESULT:      -7.0      0.000      0.000
REMARK  5 active torsions:
REMARK  status: ('A' for Active; 'I' for Inactive)
REMARK    1  A    between atoms: C_2  and  N_4 
REMARK    2  A    between atoms: N_3  and  C_19 
REMARK    3  A    between atoms: C_17  and  C_19 
REMARK    4  A    between atoms: C_17  and  C_27 
REMARK    5  A    between atoms: C_27  and  O_28 
ROOT
HETATM    1  C   UNL     1     -42.660 -50.312  13.132  1.00  0.00     0.122 A 
HETATM    2  C   UNL     1     -41.686 -49.949  12.160  1.00  0.00     0.135 A 
HETATM    3  N   UNL     1     -43.824 -51.721  14.339  1.00  0.00    -0.326 N 
HETATM    4  C   UNL     1     -42.904 -51.668  13.330  1.00  0.00     0.140 A 
HETATM    5  N   UNL     1     -43.460 -49.565  13.982  1.00  0.00    -0.346 N 
ATOM      6  HN  UNL     1     -43.520 -48.548  14.038  1.00  0.00     0.167 HD
HETATM    7  C   UNL     1     -44.126 -50.439  14.701  1.00  0.00     0.185 A 
HETATM    8  N   UNL     1     -41.119 -50.994  11.480  1.00  0.00    -0.337 N 
ATOM      9  HN  UNL     1     -40.432 -50.809  10.749  1.00  0.00     0.168 HD
HETATM   10  N   UNL     1     -42.347 -52.707  12.682  1.00  0.00    -0.336 N 
ATOM     11  HN  UNL     1     -42.563 -53.688  12.859  1.00  0.00     0.168 HD
HETATM   12  C   UNL     1     -41.463 -52.267  11.767  1.00  0.00     0.183 A 
ENDROOT
BRANCH   2  13
HETATM   13  N   UNL     1     -41.238 -48.648  11.893  1.00  0.00    -0.358 N 
HETATM   14  C   UNL     1     -42.156 -47.684  11.274  1.00  0.00     0.116 C 
HETATM   15  C   UNL     1     -41.680 -46.223  11.401  1.00  0.00     0.102 C 
HETATM   16  C   UNL     1     -42.338 -47.854   9.763  1.00  0.00     0.148 C 
HETATM   17  C   UNL     1     -42.426 -45.572  10.254  1.00  0.00     0.224 C 
HETATM   18  C   UNL     1     -40.179 -46.032  11.196  1.00  0.00     0.018 C 
HETATM   19  O   UNL     1     -42.637 -44.382  10.109  1.00  0.00    -0.273 OA
HETATM   20  N   UNL     1     -42.750 -46.549   9.332  1.00  0.00    -0.359 N 
HETATM   21  H   UNL     1     -43.184 -46.316   8.449  1.00  0.00     0.162 HD
HETATM   22  C   UNL     1     -39.365 -47.063  11.960  1.00  0.00     0.021 C 
HETATM   23  C   UNL     1     -39.805 -48.491  11.647  1.00  0.00     0.125 C 
ENDBRANCH   2  13
BRANCH   3  24
HETATM   24  C   UNL     1     -44.331 -52.917  14.991  1.00  0.00     0.147 C 
BRANCH  24  25
HETATM   25  C   UNL     1     -45.530 -53.542  14.293  1.00  0.00     0.040 C 
HETATM   26  C   UNL     1     -46.402 -54.499  15.129  1.00  0.00     0.183 C 
HETATM   27  O   UNL     1     -46.210 -55.568  14.173  1.00  0.00    -0.389 OA
HETATM   28  C   UNL     1     -45.146 -54.825  13.527  1.00  0.00     0.183 C 
BRANCH  25  29
HETATM   29  C   UNL     1     -46.378 -52.571  13.482  1.00  0.00     0.179 C 
BRANCH  29  30
HETATM   30  O   UNL     1     -46.477 -53.025  12.137  1.00  0.00    -0.400 OA
HETATM   31  H   UNL     1     -45.570 -53.260  11.849  1.00  0.00     0.209 HD
ENDBRANCH  29  30
ENDBRANCH  25  29
ENDBRANCH  24  25
ENDBRANCH   3  24
TORSDOF 5
ENDMDL
MODEL 2
REMARK VINA RESULT:      -6.6      2.063      7.465
REMARK  5 active torsions:
REMARK  status: ('A' for Active; 'I' for Inactive)
REMARK    1  A    between atoms: C_2  and  N_4 
REMARK    2  A    between atoms: N_3  and  C_19 
REMARK    3  A    between atoms: C_17  and  C_19 
REMARK    4  A    between atoms: C_17  and  C_27 
REMARK    5  A    between atoms: C_27  and  O_28 
ROOT
HETATM    1  C   UNL     1     -40.528 -49.395  13.239  1.00  0.00     0.122 A 
HETATM    2  C   UNL     1     -40.283 -50.738  12.836  1.00  0.00     0.135 A 
HETATM    3  N   UNL     1     -40.280 -47.221  13.142  1.00  0.00    -0.326 N 
HETATM    4  C   UNL     1     -39.809 -48.387  12.605  1.00  0.00     0.140 A 
HETATM    5  N   UNL     1     -41.384 -48.839  14.176  1.00  0.00    -0.346 N 
ATOM      6  HN  UNL     1     -42.009 -49.335  14.812  1.00  0.00     0.167 HD
HETATM    7  C   UNL     1     -41.224 -47.540  14.075  1.00  0.00     0.185 A 
HETATM    8  N   UNL     1     -39.313 -50.895  11.882  1.00  0.00    -0.337 N 
ATOM      9  HN  UNL     1     -39.065 -51.831  11.563  1.00  0.00     0.168 HD
HETATM   10  N   UNL     1     -38.864 -48.521  11.657  1.00  0.00    -0.336 N 
ATOM     11  HN  UNL     1     -38.359 -47.748  11.224  1.00  0.00     0.168 HD
HETATM   12  C   UNL     1     -38.683 -49.821  11.361  1.00  0.00     0.183 A 
ENDROOT
BRANCH   2  13
HETATM   13  N   UNL     1     -40.975 -51.870  13.287  1.00  0.00    -0.358 N 
HETATM   14  C   UNL     1     -42.236 -52.248  12.636  1.00  0.00     0.116 C 
HETATM   15  C   UNL     1     -42.672 -53.693  12.950  1.00  0.00     0.102 C 
HETATM   16  C   UNL     1     -43.451 -51.422  13.071  1.00  0.00     0.148 C 
HETATM   17  C   UNL     1     -44.162 -53.613  12.681  1.00  0.00     0.224 C 
HETATM   18  C   UNL     1     -42.447 -54.116  14.399  1.00  0.00     0.018 C 
HETATM   19  O   UNL     1     -44.914 -54.549  12.484  1.00  0.00    -0.273 OA
HETATM   20  N   UNL     1     -44.557 -52.294  12.795  1.00  0.00    -0.359 N 
HETATM   21  H   UNL     1     -45.531 -52.028  12.730  1.00  0.00     0.162 HD
HETATM   22  C   UNL     1     -41.069 -53.717  14.900  1.00  0.00     0.021 C 
HETATM   23  C   UNL     1     -40.788 -52.232  14.692  1.00  0.00     0.125 C 
ENDBRANCH   2  13
BRANCH   3  24
HETATM   24  C   UNL     1     -39.925 -45.871  12.736  1.00  0.00     0.147 C 
BRANCH  24  25
HETATM   25  C   UNL     1     -40.578 -45.423  11.437  1.00  0.00     0.040 C 
HETATM   26  C   UNL     1     -39.662 -45.296  10.203  1.00  0.00     0.183 C 
HETATM   27  O   UNL     1     -40.041 -43.911  10.021  1.00  0.00    -0.389 OA
HETATM   28  C   UNL     1     -40.658 -43.886  11.332  1.00  0.00     0.183 C 
BRANCH  25  29
HETATM   29  C   UNL     1     -41.884 -46.131  11.097  1.00  0.00     0.179 C 
BRANCH  29  30
HETATM   30  O   UNL     1     -41.873 -46.537   9.734  1.00  0.00    -0.400 OA
HETATM   31  H   UNL     1     -40.940 -46.727   9.502  1.00  0.00     0.209 HD
ENDBRANCH  29  30
ENDBRANCH  25  29
ENDBRANCH  24  25
ENDBRANCH   3  24
TORSDOF 5
ENDMDL
MODEL 3
REMARK VINA RESULT:      -6.4      1.318      2.189
REMARK  5 active torsions:
REMARK  status: ('A' for Active; 'I' for Inactive)
REMARK    1  A    between atoms: C_2  and  N_4 
REMARK    2  A    between atoms: N_3  and  C_19 
REMARK    3  A    between atoms: C_17  and  C_19 
REMARK    4  A    between atoms: C_17  and  C_27 
REMARK    5  A    between atoms: C_27  and  O_28 
ROOT
HETATM    1  C   UNL     1     -41.623 -50.009  12.839  1.00  0.00     0.122 A 
HETATM    2  C   UNL     1     -41.637 -48.624  13.164  1.00  0.00     0.135 A 
HETATM    3  N   UNL     1     -41.918 -52.141  13.244  1.00  0.00    -0.326 N 
HETATM    4  C   UNL     1     -41.960 -50.913  13.842  1.00  0.00     0.140 A 
HETATM    5  N   UNL     1     -41.338 -50.695  11.669  1.00  0.00    -0.346 N 
ATOM      6  HN  UNL     1     -41.032 -50.298  10.781  1.00  0.00     0.167 HD
HETATM    7  C   UNL     1     -41.544 -51.962  11.942  1.00  0.00     0.185 A 
HETATM    8  N   UNL     1     -41.941 -48.331  14.467  1.00  0.00    -0.337 N 
ATOM      9  HN  UNL     1     -41.945 -47.360  14.780  1.00  0.00     0.168 HD
HETATM   10  N   UNL     1     -42.276 -50.643  15.121  1.00  0.00    -0.336 N 
ATOM     11  HN  UNL     1     -42.511 -51.344  15.824  1.00  0.00     0.168 HD
HETATM   12  C   UNL     1     -42.236 -49.316  15.341  1.00  0.00     0.183 A 
ENDROOT
BRANCH   2  13
HETATM   13  N   UNL     1     -41.424 -47.568  12.268  1.00  0.00    -0.358 N 
HETATM   14  C   UNL     1     -42.549 -47.062  11.471  1.00  0.00     0.116 C 
HETATM   15  C   UNL     1     -42.278 -45.681  10.844  1.00  0.00     0.102 C 
HETATM   16  C   UNL     1     -42.909 -47.924  10.257  1.00  0.00     0.148 C 
HETATM   17  C   UNL     1     -43.261 -45.686   9.691  1.00  0.00     0.224 C 
HETATM   18  C   UNL     1     -40.864 -45.506  10.296  1.00  0.00     0.018 C 
HETATM   19  O   UNL     1     -43.661 -44.715   9.075  1.00  0.00    -0.273 OA
HETATM   20  N   UNL     1     -43.562 -46.997   9.378  1.00  0.00    -0.359 N 
HETATM   21  H   UNL     1     -44.143 -47.229   8.582  1.00  0.00     0.162 HD
HETATM   22  C   UNL     1     -39.811 -46.009  11.270  1.00  0.00     0.021 C 
HETATM   23  C   UNL     1     -40.076 -47.446  11.713  1.00  0.00     0.125 C 
ENDBRANCH   2  13
BRANCH   3  24
HETATM   24  C   UNL     1     -42.294 -53.412  13.840  1.00  0.00     0.147 C 
BRANCH  24  25
HETATM   25  C   UNL     1     -43.796 -53.645  13.902  1.00  0.00     0.040 C 
HETATM   26  C   UNL     1     -44.506 -53.269  15.219  1.00  0.00     0.183 C 
HETATM   27  O   UNL     1     -45.027 -54.612  15.363  1.00  0.00    -0.389 OA
HETATM   28  C   UNL     1     -44.139 -55.090  14.323  1.00  0.00     0.183 C 
BRANCH  25  29
HETATM   29  C   UNL     1     -44.573 -53.159  12.686  1.00  0.00     0.179 C 
BRANCH  29  30
HETATM   30  O   UNL     1     -45.810 -53.855  12.593  1.00  0.00    -0.400 OA
HETATM   31  H   UNL     1     -45.947 -54.308  13.451  1.00  0.00     0.209 HD
ENDBRANCH  29  30
ENDBRANCH  25  29
ENDBRANCH  24  25
ENDBRANCH   3  24
TORSDOF 5
ENDMDL
MODEL 4
REMARK VINA RESULT:      -6.4      1.582      1.945
REMARK  5 active torsions:
REMARK  status: ('A' for Active; 'I' for Inactive)
REMARK    1  A    between atoms: C_2  and  N_4 
REMARK    2  A    between atoms: N_3  and  C_19 
REMARK    3  A    between atoms: C_17  and  C_19 
REMARK    4  A    between atoms: C_17  and  C_27 
REMARK    5  A    between atoms: C_27  and  O_28 
ROOT
HETATM    1  C   UNL     1     -42.790 -50.710  12.563  1.00  0.00     0.122 A 
HETATM    2  C   UNL     1     -41.631 -50.166  11.943  1.00  0.00     0.135 A 
HETATM    3  N   UNL     1     -44.042 -52.328  13.348  1.00  0.00    -0.326 N 
HETATM    4  C   UNL     1     -42.875 -52.095  12.675  1.00  0.00     0.140 A 
HETATM    5  N   UNL     1     -43.916 -50.127  13.121  1.00  0.00    -0.346 N 
ATOM      6  HN  UNL     1     -44.144 -49.134  13.155  1.00  0.00     0.167 HD
HETATM    7  C   UNL     1     -44.630 -51.121  13.597  1.00  0.00     0.185 A 
HETATM    8  N   UNL     1     -40.731 -51.086  11.473  1.00  0.00    -0.337 N 
ATOM      9  HN  UNL     1     -39.888 -50.769  10.993  1.00  0.00     0.168 HD
HETATM   10  N   UNL     1     -41.995 -53.012  12.234  1.00  0.00    -0.336 N 
ATOM     11  HN  UNL     1     -42.104 -54.021  12.335  1.00  0.00     0.168 HD
HETATM   12  C   UNL     1     -40.950 -52.407  11.640  1.00  0.00     0.183 A 
ENDROOT
BRANCH   2  13
HETATM   13  N   UNL     1     -41.324 -48.803  11.828  1.00  0.00    -0.358 N 
HETATM   14  C   UNL     1     -42.268 -47.909  11.145  1.00  0.00     0.116 C 
HETATM   15  C   UNL     1     -42.008 -46.417  11.434  1.00  0.00     0.102 C 
HETATM   16  C   UNL     1     -42.216 -47.975   9.616  1.00  0.00     0.148 C 
HETATM   17  C   UNL     1     -42.668 -45.768  10.234  1.00  0.00     0.224 C 
HETATM   18  C   UNL     1     -40.532 -46.030  11.463  1.00  0.00     0.018 C 
HETATM   19  O   UNL     1     -43.011 -44.605  10.136  1.00  0.00    -0.273 OA
HETATM   20  N   UNL     1     -42.732 -46.698   9.214  1.00  0.00    -0.359 N 
HETATM   21  H   UNL     1     -43.068 -46.447   8.293  1.00  0.00     0.162 HD
HETATM   22  C   UNL     1     -39.702 -47.015  12.271  1.00  0.00     0.021 C 
HETATM   23  C   UNL     1     -39.904 -48.455  11.806  1.00  0.00     0.125 C 
ENDBRANCH   2  13
BRANCH   3  24
HETATM   24  C   UNL     1     -44.537 -53.613  13.810  1.00  0.00     0.147 C 
BRANCH  24  25
HETATM   25  C   UNL     1     -44.122 -53.961  15.233  1.00  0.00     0.040 C 
HETATM   26  C   UNL     1     -42.868 -53.255  15.785  1.00  0.00     0.183 C 
HETATM   27  O   UNL     1     -42.233 -54.524  16.066  1.00  0.00    -0.389 OA
HETATM   28  C   UNL     1     -43.233 -55.220  15.282  1.00  0.00     0.183 C 
BRANCH  25  29
HETATM   29  C   UNL     1     -45.257 -53.968  16.249  1.00  0.00     0.179 C 
BRANCH  29  30
HETATM   30  O   UNL     1     -44.895 -54.766  17.370  1.00  0.00    -0.400 OA
HETATM   31  H   UNL     1     -45.249 -54.317  18.165  1.00  0.00     0.209 HD
ENDBRANCH  29  30
ENDBRANCH  25  29
ENDBRANCH  24  25
ENDBRANCH   3  24
TORSDOF 5
ENDMDL
MODEL 5
REMARK VINA RESULT:      -6.4      2.676      3.636
REMARK  5 active torsions:
REMARK  status: ('A' for Active; 'I' for Inactive)
REMARK    1  A    between atoms: C_2  and  N_4 
REMARK    2  A    between atoms: N_3  and  C_19 
REMARK    3  A    between atoms: C_17  and  C_19 
REMARK    4  A    between atoms: C_17  and  C_27 
REMARK    5  A    between atoms: C_27  and  O_28 
ROOT
HETATM    1  C   UNL     1     -40.716 -49.101  12.941  1.00  0.00     0.122 A 
HETATM    2  C   UNL     1     -39.641 -48.300  12.465  1.00  0.00     0.135 A 
HETATM    3  N   UNL     1     -41.613 -50.908  13.794  1.00  0.00    -0.326 N 
HETATM    4  C   UNL     1     -40.427 -50.402  13.340  1.00  0.00     0.140 A 
HETATM    5  N   UNL     1     -42.068 -48.850  13.112  1.00  0.00    -0.346 N 
ATOM      6  HN  UNL     1     -42.571 -47.994  12.876  1.00  0.00     0.167 HD
HETATM    7  C   UNL     1     -42.567 -49.943  13.642  1.00  0.00     0.185 A 
HETATM    8  N   UNL     1     -38.424 -48.927  12.407  1.00  0.00    -0.337 N 
ATOM      9  HN  UNL     1     -37.612 -48.422  12.052  1.00  0.00     0.168 HD
HETATM   10  N   UNL     1     -39.237 -51.029  13.304  1.00  0.00    -0.336 N 
ATOM     11  HN  UNL     1     -39.076 -51.991  13.604  1.00  0.00     0.168 HD
HETATM   12  C   UNL     1     -38.291 -50.206  12.817  1.00  0.00     0.183 A 
ENDROOT
BRANCH   2  13
HETATM   13  N   UNL     1     -39.718 -46.945  12.115  1.00  0.00    -0.358 N 
HETATM   14  C   UNL     1     -39.651 -45.924  13.169  1.00  0.00     0.116 C 
HETATM   15  C   UNL     1     -39.351 -44.512  12.629  1.00  0.00     0.102 C 
HETATM   16  C   UNL     1     -40.956 -45.724  13.945  1.00  0.00     0.148 C 
HETATM   17  C   UNL     1     -39.900 -43.650  13.747  1.00  0.00     0.224 C 
HETATM   18  C   UNL     1     -40.076 -44.169  11.330  1.00  0.00     0.018 C 
HETATM   19  O   UNL     1     -39.638 -42.480  13.956  1.00  0.00    -0.273 OA
HETATM   20  N   UNL     1     -40.837 -44.385  14.448  1.00  0.00    -0.359 N 
HETATM   21  H   UNL     1     -41.384 -43.970  15.191  1.00  0.00     0.162 HD
HETATM   22  C   UNL     1     -39.990 -45.297  10.316  1.00  0.00     0.021 C 
HETATM   23  C   UNL     1     -40.460 -46.629  10.895  1.00  0.00     0.125 C 
ENDBRANCH   2  13
BRANCH   3  24
HETATM   24  C   UNL     1     -41.824 -52.202  14.421  1.00  0.00     0.147 C 
BRANCH  24  25
HETATM   25  C   UNL     1     -42.156 -53.318  13.440  1.00  0.00     0.040 C 
HETATM   26  C   UNL     1     -43.207 -53.003  12.357  1.00  0.00     0.183 C 
HETATM   27  O   UNL     1     -44.027 -54.119  12.777  1.00  0.00    -0.389 OA
HETATM   28  C   UNL     1     -43.246 -54.262  13.989  1.00  0.00     0.183 C 
BRANCH  25  29
HETATM   29  C   UNL     1     -40.949 -54.043  12.859  1.00  0.00     0.179 C 
BRANCH  29  30
HETATM   30  O   UNL     1     -40.567 -53.437  11.630  1.00  0.00    -0.400 OA
HETATM   31  H   UNL     1     -40.117 -54.127  11.100  1.00  0.00     0.209 HD
ENDBRANCH  29  30
ENDBRANCH  25  29
ENDBRANCH  24  25
ENDBRANCH   3  24
TORSDOF 5
ENDMDL
MODEL 6
REMARK VINA RESULT:      -6.3      2.509      3.374
REMARK  5 active torsions:
REMARK  status: ('A' for Active; 'I' for Inactive)
REMARK    1  A    between atoms: C_2  and  N_4 
REMARK    2  A    between atoms: N_3  and  C_19 
REMARK    3  A    between atoms: C_17  and  C_19 
REMARK    4  A    between atoms: C_17  and  C_27 
REMARK    5  A    between atoms: C_27  and  O_28 
ROOT
HETATM    1  C   UNL     1     -41.424 -48.873  12.496  1.00  0.00     0.122 A 
HETATM    2  C   UNL     1     -40.363 -47.978  12.184  1.00  0.00     0.135 A 
HETATM    3  N   UNL     1     -42.432 -50.818  12.523  1.00  0.00    -0.326 N 
HETATM    4  C   UNL     1     -41.323 -50.183  12.038  1.00  0.00     0.140 A 
HETATM    5  N   UNL     1     -42.604 -48.718  13.207  1.00  0.00    -0.346 N 
ATOM      6  HN  UNL     1     -42.960 -47.861  13.631  1.00  0.00     0.167 HD
HETATM    7  C   UNL     1     -43.169 -49.903  13.219  1.00  0.00     0.185 A 
HETATM    8  N   UNL     1     -39.361 -48.504  11.412  1.00  0.00    -0.337 N 
ATOM      9  HN  UNL     1     -38.579 -47.914  11.127  1.00  0.00     0.168 HD
HETATM   10  N   UNL     1     -40.341 -50.721  11.292  1.00  0.00    -0.336 N 
ATOM     11  HN  UNL     1     -40.313 -51.690  10.974  1.00  0.00     0.168 HD
HETATM   12  C   UNL     1     -39.399 -49.796  11.025  1.00  0.00     0.183 A 
ENDROOT
BRANCH   2  13
HETATM   13  N   UNL     1     -40.242 -46.658  12.639  1.00  0.00    -0.358 N 
HETATM   14  C   UNL     1     -40.691 -45.557  11.777  1.00  0.00     0.116 C 
HETATM   15  C   UNL     1     -40.869 -44.227  12.534  1.00  0.00     0.102 C 
HETATM   16  C   UNL     1     -39.716 -45.185  10.657  1.00  0.00     0.148 C 
HETATM   17  C   UNL     1     -40.750 -43.228  11.401  1.00  0.00     0.224 C 
HETATM   18  C   UNL     1     -39.783 -43.943  13.569  1.00  0.00     0.018 C 
HETATM   19  O   UNL     1     -41.121 -42.068  11.415  1.00  0.00    -0.273 OA
HETATM   20  N   UNL     1     -40.054 -43.821  10.366  1.00  0.00    -0.359 N 
HETATM   21  H   UNL     1     -39.794 -43.299   9.539  1.00  0.00     0.162 HD
HETATM   22  C   UNL     1     -39.486 -45.159  14.429  1.00  0.00     0.021 C 
HETATM   23  C   UNL     1     -39.163 -46.393  13.590  1.00  0.00     0.125 C 
ENDBRANCH   2  13
BRANCH   3  24
HETATM   24  C   UNL     1     -42.742 -52.234  12.412  1.00  0.00     0.147 C 
BRANCH  24  25
HETATM   25  C   UNL     1     -42.025 -53.105  13.433  1.00  0.00     0.040 C 
HETATM   26  C   UNL     1     -42.875 -54.164  14.164  1.00  0.00     0.183 C 
HETATM   27  O   UNL     1     -42.508 -53.620  15.454  1.00  0.00    -0.389 OA
HETATM   28  C   UNL     1     -41.964 -52.435  14.821  1.00  0.00     0.183 C 
BRANCH  25  29
HETATM   29  C   UNL     1     -40.693 -53.677  12.966  1.00  0.00     0.179 C 
BRANCH  29  30
HETATM   30  O   UNL     1     -40.612 -53.618  11.547  1.00  0.00    -0.400 OA
HETATM   31  H   UNL     1     -41.441 -53.201  11.233  1.00  0.00     0.209 HD
ENDBRANCH  29  30
ENDBRANCH  25  29
ENDBRANCH  24  25
ENDBRANCH   3  24
TORSDOF 5
ENDMDL
MODEL 7
REMARK VINA RESULT:      -6.3      1.832      7.679
REMARK  5 active torsions:
REMARK  status: ('A' for Active; 'I' for Inactive)
REMARK    1  A    between atoms: C_2  and  N_4 
REMARK    2  A    between atoms: N_3  and  C_19 
REMARK    3  A    between atoms: C_17  and  C_19 
REMARK    4  A    between atoms: C_17  and  C_27 
REMARK    5  A    between atoms: C_27  and  O_28 
ROOT
HETATM    1  C   UNL     1     -40.973 -49.238  12.015  1.00  0.00     0.122 A 
HETATM    2  C   UNL     1     -40.650 -50.279  12.929  1.00  0.00     0.135 A 
HETATM    3  N   UNL     1     -40.711 -47.279  11.069  1.00  0.00    -0.326 N 
HETATM    4  C   UNL     1     -40.229 -48.064  12.079  1.00  0.00     0.140 A 
HETATM    5  N   UNL     1     -41.919 -49.136  11.007  1.00  0.00    -0.346 N 
ATOM      6  HN  UNL     1     -42.624 -49.827  10.750  1.00  0.00     0.167 HD
HETATM    7  C   UNL     1     -41.719 -47.963  10.452  1.00  0.00     0.185 A 
HETATM    8  N   UNL     1     -39.652 -49.986  13.821  1.00  0.00    -0.337 N 
ATOM      9  HN  UNL     1     -39.384 -50.675  14.524  1.00  0.00     0.168 HD
HETATM   10  N   UNL     1     -39.237 -47.764  12.938  1.00  0.00    -0.336 N 
ATOM     11  HN  UNL     1     -38.723 -46.884  12.950  1.00  0.00     0.168 HD
HETATM   12  C   UNL     1     -39.022 -48.794  13.778  1.00  0.00     0.183 A 
ENDROOT
BRANCH   2  13
HETATM   13  N   UNL     1     -41.218 -51.559  12.951  1.00  0.00    -0.358 N 
HETATM   14  C   UNL     1     -42.677 -51.701  12.848  1.00  0.00     0.116 C 
HETATM   15  C   UNL     1     -43.125 -53.131  12.488  1.00  0.00     0.102 C 
HETATM   16  C   UNL     1     -43.438 -51.420  14.147  1.00  0.00     0.148 C 
HETATM   17  C   UNL     1     -44.548 -53.130  13.007  1.00  0.00     0.224 C 
HETATM   18  C   UNL     1     -42.336 -54.232  13.193  1.00  0.00     0.018 C 
HETATM   19  O   UNL     1     -45.433 -53.907  12.699  1.00  0.00    -0.273 OA
HETATM   20  N   UNL     1     -44.661 -52.151  13.976  1.00  0.00    -0.359 N 
HETATM   21  H   UNL     1     -45.512 -52.034  14.510  1.00  0.00     0.162 HD
HETATM   22  C   UNL     1     -40.838 -53.976  13.148  1.00  0.00     0.021 C 
HETATM   23  C   UNL     1     -40.475 -52.591  13.674  1.00  0.00     0.125 C 
ENDBRANCH   2  13
BRANCH   3  24
HETATM   24  C   UNL     1     -40.193 -45.989  10.648  1.00  0.00     0.147 C 
BRANCH  24  25
HETATM   25  C   UNL     1     -40.954 -44.801  11.218  1.00  0.00     0.040 C 
HETATM   26  C   UNL     1     -40.318 -43.409  11.029  1.00  0.00     0.183 C 
HETATM   27  O   UNL     1     -40.328 -43.171  12.456  1.00  0.00    -0.389 OA
HETATM   28  C   UNL     1     -40.625 -44.567  12.707  1.00  0.00     0.183 C 
BRANCH  25  29
HETATM   29  C   UNL     1     -42.446 -44.784  10.907  1.00  0.00     0.179 C 
BRANCH  29  30
HETATM   30  O   UNL     1     -43.081 -43.749  11.647  1.00  0.00    -0.400 OA
HETATM   31  H   UNL     1     -42.917 -43.936  12.595  1.00  0.00     0.209 HD
ENDBRANCH  29  30
ENDBRANCH  25  29
ENDBRANCH  24  25
ENDBRANCH   3  24
TORSDOF 5
ENDMDL
MODEL 8
REMARK VINA RESULT:      -6.0      3.484      7.636
REMARK  5 active torsions:
REMARK  status: ('A' for Active; 'I' for Inactive)
REMARK    1  A    between atoms: C_2  and  N_4 
REMARK    2  A    between atoms: N_3  and  C_19 
REMARK    3  A    between atoms: C_17  and  C_19 
REMARK    4  A    between atoms: C_17  and  C_27 
REMARK    5  A    between atoms: C_27  and  O_28 
ROOT
HETATM    1  C   UNL     1     -41.908 -51.794  14.371  1.00  0.00     0.122 A 
HETATM    2  C   UNL     1     -43.067 -52.601  14.199  1.00  0.00     0.135 A 
HETATM    3  N   UNL     1     -39.806 -51.257  14.069  1.00  0.00    -0.326 N 
HETATM    4  C   UNL     1     -40.720 -52.237  13.798  1.00  0.00     0.140 A 
HETATM    5  N   UNL     1     -41.693 -50.585  15.015  1.00  0.00    -0.346 N 
ATOM      6  HN  UNL     1     -42.372 -50.042  15.547  1.00  0.00     0.167 HD
HETATM    7  C   UNL     1     -40.434 -50.286  14.796  1.00  0.00     0.185 A 
HETATM    8  N   UNL     1     -42.870 -53.772  13.516  1.00  0.00    -0.337 N 
ATOM      9  HN  UNL     1     -43.651 -54.414  13.377  1.00  0.00     0.168 HD
HETATM   10  N   UNL     1     -40.510 -53.375  13.112  1.00  0.00    -0.336 N 
ATOM     11  HN  UNL     1     -39.616 -53.660  12.715  1.00  0.00     0.168 HD
HETATM   12  C   UNL     1     -41.652 -54.083  13.025  1.00  0.00     0.183 A 
ENDROOT
BRANCH   2  13
HETATM   13  N   UNL     1     -44.365 -52.273  14.615  1.00  0.00    -0.358 N 
HETATM   14  C   UNL     1     -44.746 -52.488  16.017  1.00  0.00     0.116 C 
HETATM   15  C   UNL     1     -46.029 -51.735  16.420  1.00  0.00     0.102 C 
HETATM   16  C   UNL     1     -45.077 -53.941  16.372  1.00  0.00     0.148 C 
HETATM   17  C   UNL     1     -46.483 -52.550  17.614  1.00  0.00     0.224 C 
HETATM   18  C   UNL     1     -47.126 -51.750  15.358  1.00  0.00     0.018 C 
HETATM   19  O   UNL     1     -47.267 -52.199  18.476  1.00  0.00    -0.273 OA
HETATM   20  N   UNL     1     -45.932 -53.813  17.518  1.00  0.00    -0.359 N 
HETATM   21  H   UNL     1     -46.171 -54.544  18.175  1.00  0.00     0.162 HD
HETATM   22  C   UNL     1     -46.581 -51.436  13.974  1.00  0.00     0.021 C 
HETATM   23  C   UNL     1     -45.413 -52.342  13.597  1.00  0.00     0.125 C 
ENDBRANCH   2  13
BRANCH   3  24
HETATM   24  C   UNL     1     -38.434 -51.192  13.594  1.00  0.00     0.147 C 
BRANCH  24  25
HETATM   25  C   UNL     1     -38.239 -50.285  12.388  1.00  0.00     0.040 C 
HETATM   26  C   UNL     1     -38.238 -48.766  12.651  1.00  0.00     0.183 C 
HETATM   27  O   UNL     1     -39.320 -48.566  11.711  1.00  0.00    -0.389 OA
HETATM   28  C   UNL     1     -39.571 -49.992  11.666  1.00  0.00     0.183 C 
BRANCH  25  29
HETATM   29  C   UNL     1     -37.108 -50.694  11.452  1.00  0.00     0.179 C 
BRANCH  29  30
HETATM   30  O   UNL     1     -37.308 -50.110  10.170  1.00  0.00    -0.400 OA
HETATM   31  H   UNL     1     -38.126 -49.573  10.227  1.00  0.00     0.209 HD
ENDBRANCH  29  30
ENDBRANCH  25  29
ENDBRANCH  24  25
ENDBRANCH   3  24
TORSDOF 5
ENDMDL
MODEL 9
REMARK VINA RESULT:      -6.0      3.152      4.046
REMARK  5 active torsions:
REMARK  status: ('A' for Active; 'I' for Inactive)
REMARK    1  A    between atoms: C_2  and  N_4 
REMARK    2  A    between atoms: N_3  and  C_19 
REMARK    3  A    between atoms: C_17  and  C_19 
REMARK    4  A    between atoms: C_17  and  C_27 
REMARK    5  A    between atoms: C_27  and  O_28 
ROOT
HETATM    1  C   UNL     1     -40.316 -49.894  12.911  1.00  0.00     0.122 A 
HETATM    2  C   UNL     1     -39.918 -49.138  11.773  1.00  0.00     0.135 A 
HETATM    3  N   UNL     1     -40.023 -51.340  14.530  1.00  0.00    -0.326 N 
HETATM    4  C   UNL     1     -39.406 -50.809  13.431  1.00  0.00     0.140 A 
HETATM    5  N   UNL     1     -41.479 -49.912  13.664  1.00  0.00    -0.346 N 
ATOM      6  HN  UNL     1     -42.328 -49.371  13.501  1.00  0.00     0.167 HD
HETATM    7  C   UNL     1     -41.260 -50.771  14.633  1.00  0.00     0.185 A 
HETATM    8  N   UNL     1     -38.676 -49.435  11.277  1.00  0.00    -0.337 N 
ATOM      9  HN  UNL     1     -38.333 -48.951  10.447  1.00  0.00     0.168 HD
HETATM   10  N   UNL     1     -38.178 -51.104  12.967  1.00  0.00    -0.336 N 
ATOM     11  HN  UNL     1     -37.548 -51.790  13.381  1.00  0.00     0.168 HD
HETATM   12  C   UNL     1     -37.901 -50.362  11.878  1.00  0.00     0.183 A 
ENDROOT
BRANCH   2  13
HETATM   13  N   UNL     1     -40.654 -48.107  11.173  1.00  0.00    -0.358 N 
HETATM   14  C   UNL     1     -40.256 -46.712  11.403  1.00  0.00     0.116 C 
HETATM   15  C   UNL     1     -40.881 -45.728  10.394  1.00  0.00     0.102 C 
HETATM   16  C   UNL     1     -40.692 -46.139  12.755  1.00  0.00     0.148 C 
HETATM   17  C   UNL     1     -40.803 -44.428  11.168  1.00  0.00     0.224 C 
HETATM   18  C   UNL     1     -42.339 -46.021  10.052  1.00  0.00     0.018 C 
HETATM   19  O   UNL     1     -40.880 -43.304  10.708  1.00  0.00    -0.273 OA
HETATM   20  N   UNL     1     -40.728 -44.724  12.516  1.00  0.00    -0.359 N 
HETATM   21  H   UNL     1     -40.747 -43.995  13.217  1.00  0.00     0.162 HD
HETATM   22  C   UNL     1     -42.572 -47.495   9.769  1.00  0.00     0.021 C 
HETATM   23  C   UNL     1     -42.063 -48.386  10.899  1.00  0.00     0.125 C 
ENDBRANCH   2  13
BRANCH   3  24
HETATM   24  C   UNL     1     -39.445 -52.269  15.486  1.00  0.00     0.147 C 
BRANCH  24  25
HETATM   25  C   UNL     1     -39.830 -53.722  15.246  1.00  0.00     0.040 C 
HETATM   26  C   UNL     1     -41.335 -54.036  15.138  1.00  0.00     0.183 C 
HETATM   27  O   UNL     1     -41.249 -54.998  16.216  1.00  0.00    -0.389 OA
HETATM   28  C   UNL     1     -39.927 -54.518  16.564  1.00  0.00     0.183 C 
BRANCH  25  29
HETATM   29  C   UNL     1     -39.029 -54.427  14.159  1.00  0.00     0.179 C 
BRANCH  29  30
HETATM   30  O   UNL     1     -39.767 -54.433  12.943  1.00  0.00    -0.400 OA
HETATM   31  H   UNL     1     -40.223 -53.568  12.883  1.00  0.00     0.209 HD
ENDBRANCH  29  30
ENDBRANCH  25  29
ENDBRANCH  24  25
ENDBRANCH   3  24
TORSDOF 5
ENDMDL
