MODEL 1
REMARK VINA RESULT:      -6.1      0.000      0.000
REMARK  4 active torsions:
REMARK  status: ('A' for Active; 'I' for Inactive)
REMARK       I    between atoms: N_2  and  C_3 
REMARK    1  A    between atoms: C_3  and  C_5 
REMARK    2  A    between atoms: C_5  and  N_6 
REMARK    3  A    between atoms: C_9  and  N_12 
REMARK       I    between atoms: N_12  and  C_13 
REMARK       I    between atoms: C_13  and  N_15 
REMARK    4  A    between atoms: N_15  and  C_16 
ROOT
HETATM    1  N   UNL     1     -43.533 -49.803  12.545  1.00  0.00    -0.338 N 
HETATM    2  C   UNL     1     -43.976 -50.853  13.323  1.00  0.00     0.321 C 
HETATM    3  O   UNL     1     -43.571 -51.040  14.465  1.00  0.00    -0.247 OA
HETATM    4  N   UNL     1     -44.870 -51.655  12.648  1.00  0.00    -0.306 N 
HETATM    5  H   UNL     1     -44.210 -49.429  11.896  1.00  0.00     0.164 HD
HETATM    6  H   UNL     1     -44.951 -51.547  11.648  1.00  0.00     0.171 HD
ENDROOT
BRANCH   1   7
HETATM    7  C   UNL     1     -42.518 -48.887  13.070  1.00  0.00     0.089 C 
HETATM    8  C   UNL     1     -42.883 -47.416  12.857  1.00  0.00     0.055 C 
HETATM    9  C   UNL     1     -42.713 -46.995  11.398  1.00  0.00     0.275 C 
HETATM   10  N   UNL     1     -41.385 -47.274  10.820  1.00  0.00     0.097 N 
HETATM   11  C   UNL     1     -41.000 -48.679  11.041  1.00  0.00     0.275 C 
HETATM   12  C   UNL     1     -41.139 -49.179  12.480  1.00  0.00     0.055 C 
BRANCH  10  13
HETATM   13  C   UNL     1     -40.335 -46.341  11.313  1.00  0.00     0.374 C 
BRANCH  13  14
HETATM   14  C   UNL     1     -40.038 -45.213  10.312  1.00  0.00     0.245 C 
HETATM   15  N   UNL     1     -38.895 -45.396   9.563  1.00  0.00    -0.364 N 
HETATM   16  C   UNL     1     -38.526 -44.474   8.521  1.00  0.00     0.149 C 
HETATM   17  H   UNL     1     -38.507 -46.335   9.580  1.00  0.00     0.161 HD
HETATM   18  O   UNL     1     -40.735 -44.204  10.241  1.00  0.00    -0.272 OA
ENDBRANCH  13  14
ENDBRANCH  10  13
ENDBRANCH   1   7
BRANCH   4  19
HETATM   19  C   UNL     1     -45.459 -52.771  13.218  1.00  0.00     0.070 A 
HETATM   20  C   UNL     1     -45.084 -54.133  13.175  1.00  0.00     0.138 A 
HETATM   21  N   UNL     1     -45.925 -54.918  13.855  1.00  0.00    -0.310 N 
HETATM   22  N   UNL     1     -46.845 -54.064  14.319  1.00  0.00    -0.310 N 
ATOM     23  HN  UNL     1     -45.877 -55.929  13.988  1.00  0.00     0.186 HD
HETATM   24  C   UNL     1     -46.601 -52.760  13.982  1.00  0.00     0.138 A 
HETATM   25  H   UNL     1     -47.616 -54.443  14.857  1.00  0.00     0.186 HD
ENDBRANCH   4  19
TORSDOF 4
ENDMDL
MODEL 2
REMARK VINA RESULT:      -5.8      3.102      7.889
REMARK  4 active torsions:
REMARK  status: ('A' for Active; 'I' for Inactive)
REMARK       I    between atoms: N_2  and  C_3 
REMARK    1  A    between atoms: C_3  and  C_5 
REMARK    2  A    between atoms: C_5  and  N_6 
REMARK    3  A    between atoms: C_9  and  N_12 
REMARK       I    between atoms: N_12  and  C_13 
REMARK       I    between atoms: C_13  and  N_15 
REMARK    4  A    between atoms: N_15  and  C_16 
ROOT
HETATM    1  N   UNL     1     -41.956 -49.743  11.455  1.00  0.00    -0.338 N 
HETATM    2  C   UNL     1     -42.714 -48.596  11.330  1.00  0.00     0.321 C 
HETATM    3  O   UNL     1     -43.118 -47.967  12.302  1.00  0.00    -0.247 OA
HETATM    4  N   UNL     1     -42.977 -48.292  10.012  1.00  0.00    -0.306 N 
HETATM    5  H   UNL     1     -41.282 -49.899  10.720  1.00  0.00     0.164 HD
HETATM    6  H   UNL     1     -42.800 -48.997   9.312  1.00  0.00     0.171 HD
ENDROOT
BRANCH   1   7
HETATM    7  C   UNL     1     -41.642 -50.263  12.788  1.00  0.00     0.089 C 
HETATM    8  C   UNL     1     -40.582 -51.367  12.754  1.00  0.00     0.055 C 
HETATM    9  C   UNL     1     -41.148 -52.682  12.218  1.00  0.00     0.275 C 
HETATM   10  N   UNL     1     -42.358 -53.165  12.906  1.00  0.00     0.097 N 
HETATM   11  C   UNL     1     -43.383 -52.108  12.977  1.00  0.00     0.275 C 
HETATM   12  C   UNL     1     -42.896 -50.758  13.508  1.00  0.00     0.055 C 
BRANCH  10  13
HETATM   13  C   UNL     1     -42.069 -53.728  14.253  1.00  0.00     0.374 C 
BRANCH  13  14
HETATM   14  C   UNL     1     -43.335 -54.237  14.960  1.00  0.00     0.245 C 
HETATM   15  N   UNL     1     -43.682 -53.536  16.095  1.00  0.00    -0.364 N 
HETATM   16  C   UNL     1     -44.889 -53.831  16.820  1.00  0.00     0.149 C 
HETATM   17  H   UNL     1     -43.215 -52.640  16.215  1.00  0.00     0.161 HD
HETATM   18  O   UNL     1     -43.945 -55.230  14.571  1.00  0.00    -0.272 OA
ENDBRANCH  13  14
ENDBRANCH  10  13
ENDBRANCH   1   7
BRANCH   4  19
HETATM   19  C   UNL     1     -43.715 -47.185   9.628  1.00  0.00     0.070 A 
HETATM   20  C   UNL     1     -43.367 -45.815   9.589  1.00  0.00     0.138 A 
HETATM   21  N   UNL     1     -44.371 -45.043   9.160  1.00  0.00    -0.310 N 
HETATM   22  N   UNL     1     -45.363 -45.914   8.940  1.00  0.00    -0.310 N 
ATOM     23  HN  UNL     1     -44.378 -44.032   9.031  1.00  0.00     0.186 HD
HETATM   24  C   UNL     1     -45.016 -47.215   9.187  1.00  0.00     0.138 A 
HETATM   25  H   UNL     1     -46.254 -45.548   8.625  1.00  0.00     0.186 HD
ENDBRANCH   4  19
TORSDOF 4
ENDMDL
MODEL 3
REMARK VINA RESULT:      -5.7      4.114      7.184
REMARK  4 active torsions:
REMARK  status: ('A' for Active; 'I' for Inactive)
REMARK       I    between atoms: N_2  and  C_3 
REMARK    1  A    between atoms: C_3  and  C_5 
REMARK    2  A    between atoms: C_5  and  N_6 
REMARK    3  A    between atoms: C_9  and  N_12 
REMARK       I    between atoms: N_12  and  C_13 
REMARK       I    between atoms: C_13  and  N_15 
REMARK    4  A    between atoms: N_15  and  C_16 
ROOT
HETATM    1  N   UNL     1     -41.769 -48.977  11.249  1.00  0.00    -0.338 N 
HETATM    2  C   UNL     1     -42.841 -48.124  11.081  1.00  0.00     0.321 C 
HETATM    3  O   UNL     1     -43.340 -47.506  12.015  1.00  0.00    -0.247 OA
HETATM    4  N   UNL     1     -43.280 -48.096   9.775  1.00  0.00    -0.306 N 
HETATM    5  H   UNL     1     -41.136 -49.037  10.465  1.00  0.00     0.164 HD
HETATM    6  H   UNL     1     -42.954 -48.813   9.144  1.00  0.00     0.171 HD
ENDROOT
BRANCH   1   7
HETATM    7  C   UNL     1     -41.216 -49.194  12.588  1.00  0.00     0.089 C 
HETATM    8  C   UNL     1     -39.688 -49.115  12.614  1.00  0.00     0.055 C 
HETATM    9  C   UNL     1     -39.044 -50.354  11.992  1.00  0.00     0.275 C 
HETATM   10  N   UNL     1     -39.493 -51.639  12.559  1.00  0.00     0.097 N 
HETATM   11  C   UNL     1     -40.964 -51.724  12.571  1.00  0.00     0.275 C 
HETATM   12  C   UNL     1     -41.686 -50.521  13.181  1.00  0.00     0.055 C 
BRANCH  10  13
HETATM   13  C   UNL     1     -38.925 -51.903  13.909  1.00  0.00     0.374 C 
BRANCH  13  14
HETATM   14  C   UNL     1     -39.156 -53.351  14.369  1.00  0.00     0.245 C 
HETATM   15  N   UNL     1     -39.703 -53.474  15.628  1.00  0.00    -0.364 N 
HETATM   16  C   UNL     1     -40.062 -54.758  16.168  1.00  0.00     0.149 C 
HETATM   17  H   UNL     1     -40.101 -52.623  16.017  1.00  0.00     0.161 HD
HETATM   18  O   UNL     1     -38.818 -54.314  13.685  1.00  0.00    -0.272 OA
ENDBRANCH  13  14
ENDBRANCH  10  13
ENDBRANCH   1   7
BRANCH   4  19
HETATM   19  C   UNL     1     -44.341 -47.312   9.354  1.00  0.00     0.070 A 
HETATM   20  C   UNL     1     -44.398 -45.934   9.039  1.00  0.00     0.138 A 
HETATM   21  N   UNL     1     -45.623 -45.543   8.673  1.00  0.00    -0.310 N 
HETATM   22  N   UNL     1     -46.351 -46.662   8.769  1.00  0.00    -0.310 N 
ATOM     23  HN  UNL     1     -45.929 -44.613   8.389  1.00  0.00     0.186 HD
HETATM   24  C   UNL     1     -45.624 -47.756   9.155  1.00  0.00     0.138 A 
HETATM   25  H   UNL     1     -47.340 -46.604   8.559  1.00  0.00     0.186 HD
ENDBRANCH   4  19
TORSDOF 4
ENDMDL
MODEL 4
REMARK VINA RESULT:      -5.7      4.540      6.155
REMARK  4 active torsions:
REMARK  status: ('A' for Active; 'I' for Inactive)
REMARK       I    between atoms: N_2  and  C_3 
REMARK    1  A    between atoms: C_3  and  C_5 
REMARK    2  A    between atoms: C_5  and  N_6 
REMARK    3  A    between atoms: C_9  and  N_12 
REMARK       I    between atoms: N_12  and  C_13 
REMARK       I    between atoms: C_13  and  N_15 
REMARK    4  A    between atoms: N_15  and  C_16 
ROOT
HETATM    1  N   UNL     1     -41.415 -49.093  11.024  1.00  0.00    -0.338 N 
HETATM    2  C   UNL     1     -42.602 -48.394  10.934  1.00  0.00     0.321 C 
HETATM    3  O   UNL     1     -43.317 -48.189  11.907  1.00  0.00    -0.247 OA
HETATM    4  N   UNL     1     -42.878 -48.010   9.640  1.00  0.00    -0.306 N 
HETATM    5  H   UNL     1     -40.692 -48.805  10.380  1.00  0.00     0.164 HD
HETATM    6  H   UNL     1     -42.348 -48.430   8.891  1.00  0.00     0.171 HD
ENDROOT
BRANCH   1   7
HETATM    7  C   UNL     1     -40.995 -49.648  12.312  1.00  0.00     0.089 C 
HETATM    8  C   UNL     1     -40.583 -48.567  13.314  1.00  0.00     0.055 C 
HETATM    9  C   UNL     1     -39.222 -47.962  12.970  1.00  0.00     0.275 C 
HETATM   10  N   UNL     1     -38.131 -48.940  12.805  1.00  0.00     0.097 N 
HETATM   11  C   UNL     1     -38.517 -50.009  11.867  1.00  0.00     0.275 C 
HETATM   12  C   UNL     1     -39.869 -50.668  12.145  1.00  0.00     0.055 C 
BRANCH  10  13
HETATM   13  C   UNL     1     -37.661 -49.502  14.100  1.00  0.00     0.374 C 
BRANCH  13  14
HETATM   14  C   UNL     1     -37.204 -48.411  15.081  1.00  0.00     0.245 C 
HETATM   15  N   UNL     1     -37.909 -48.370  16.265  1.00  0.00    -0.364 N 
HETATM   16  C   UNL     1     -37.546 -47.465  17.324  1.00  0.00     0.149 C 
HETATM   17  H   UNL     1     -38.484 -49.186  16.460  1.00  0.00     0.161 HD
HETATM   18  O   UNL     1     -36.322 -47.606  14.796  1.00  0.00    -0.272 OA
ENDBRANCH  13  14
ENDBRANCH  10  13
ENDBRANCH   1   7
BRANCH   4  19
HETATM   19  C   UNL     1     -44.010 -47.292   9.293  1.00  0.00     0.070 A 
HETATM   20  C   UNL     1     -45.328 -47.727   9.022  1.00  0.00     0.138 A 
HETATM   21  N   UNL     1     -46.147 -46.717   8.713  1.00  0.00    -0.310 N 
HETATM   22  N   UNL     1     -45.352 -45.641   8.769  1.00  0.00    -0.310 N 
ATOM     23  HN  UNL     1     -47.141 -46.756   8.487  1.00  0.00     0.186 HD
HETATM   24  C   UNL     1     -44.065 -45.930   9.133  1.00  0.00     0.138 A 
HETATM   25  H   UNL     1     -45.757 -44.740   8.543  1.00  0.00     0.186 HD
ENDBRANCH   4  19
TORSDOF 4
ENDMDL
MODEL 5
REMARK VINA RESULT:      -5.6      5.514      7.132
REMARK  4 active torsions:
REMARK  status: ('A' for Active; 'I' for Inactive)
REMARK       I    between atoms: N_2  and  C_3 
REMARK    1  A    between atoms: C_3  and  C_5 
REMARK    2  A    between atoms: C_5  and  N_6 
REMARK    3  A    between atoms: C_9  and  N_12 
REMARK       I    between atoms: N_12  and  C_13 
REMARK       I    between atoms: C_13  and  N_15 
REMARK    4  A    between atoms: N_15  and  C_16 
ROOT
HETATM    1  N   UNL     1     -42.694 -44.707  11.172  1.00  0.00    -0.338 N 
HETATM    2  C   UNL     1     -43.375 -45.176  10.066  1.00  0.00     0.321 C 
HETATM    3  O   UNL     1     -43.758 -44.434   9.169  1.00  0.00    -0.247 OA
HETATM    4  N   UNL     1     -43.593 -46.534  10.132  1.00  0.00    -0.306 N 
HETATM    5  H   UNL     1     -42.017 -45.344  11.565  1.00  0.00     0.164 HD
HETATM    6  H   UNL     1     -43.447 -47.002  11.014  1.00  0.00     0.171 HD
ENDROOT
BRANCH   1   7
HETATM    7  C   UNL     1     -42.439 -43.272  11.313  1.00  0.00     0.089 C 
HETATM    8  C   UNL     1     -40.953 -42.923  11.208  1.00  0.00     0.055 C 
HETATM    9  C   UNL     1     -40.184 -43.328  12.465  1.00  0.00     0.275 C 
HETATM   10  N   UNL     1     -40.737 -42.806  13.728  1.00  0.00     0.097 N 
HETATM   11  C   UNL     1     -42.176 -43.104  13.837  1.00  0.00     0.275 C 
HETATM   12  C   UNL     1     -43.018 -42.724  12.617  1.00  0.00     0.055 C 
BRANCH  10  13
HETATM   13  C   UNL     1     -40.470 -41.354  13.916  1.00  0.00     0.374 C 
BRANCH  13  14
HETATM   14  C   UNL     1     -40.496 -40.940  15.395  1.00  0.00     0.245 C 
HETATM   15  N   UNL     1     -41.011 -39.683  15.632  1.00  0.00    -0.364 N 
HETATM   16  C   UNL     1     -41.187 -39.184  16.970  1.00  0.00     0.149 C 
HETATM   17  H   UNL     1     -41.520 -39.266  14.857  1.00  0.00     0.161 HD
HETATM   18  O   UNL     1     -40.033 -41.654  16.281  1.00  0.00    -0.272 OA
ENDBRANCH  13  14
ENDBRANCH  10  13
ENDBRANCH   1   7
BRANCH   4  19
HETATM   19  C   UNL     1     -44.252 -47.240   9.139  1.00  0.00     0.070 A 
HETATM   20  C   UNL     1     -45.601 -47.655   9.045  1.00  0.00     0.138 A 
HETATM   21  N   UNL     1     -45.852 -48.329   7.919  1.00  0.00    -0.310 N 
HETATM   22  N   UNL     1     -44.665 -48.359   7.300  1.00  0.00    -0.310 N 
ATOM     23  HN  UNL     1     -46.738 -48.726   7.605  1.00  0.00     0.186 HD
HETATM   24  C   UNL     1     -43.676 -47.703   7.981  1.00  0.00     0.138 A 
HETATM   25  H   UNL     1     -44.603 -48.850   6.416  1.00  0.00     0.186 HD
ENDBRANCH   4  19
TORSDOF 4
ENDMDL
MODEL 6
REMARK VINA RESULT:      -5.3      4.937      6.612
REMARK  4 active torsions:
REMARK  status: ('A' for Active; 'I' for Inactive)
REMARK       I    between atoms: N_2  and  C_3 
REMARK    1  A    between atoms: C_3  and  C_5 
REMARK    2  A    between atoms: C_5  and  N_6 
REMARK    3  A    between atoms: C_9  and  N_12 
REMARK       I    between atoms: N_12  and  C_13 
REMARK       I    between atoms: C_13  and  N_15 
REMARK    4  A    between atoms: N_15  and  C_16 
ROOT
HETATM    1  N   UNL     1     -39.947 -47.435  12.688  1.00  0.00    -0.338 N 
HETATM    2  C   UNL     1     -38.939 -48.235  13.187  1.00  0.00     0.321 C 
HETATM    3  O   UNL     1     -38.183 -48.867  12.458  1.00  0.00    -0.247 OA
HETATM    4  N   UNL     1     -38.929 -48.256  14.564  1.00  0.00    -0.306 N 
HETATM    5  H   UNL     1     -40.167 -46.620  13.242  1.00  0.00     0.164 HD
HETATM    6  H   UNL     1     -39.733 -47.893  15.056  1.00  0.00     0.171 HD
ENDROOT
BRANCH   1   7
HETATM    7  C   UNL     1     -40.160 -47.351  11.242  1.00  0.00     0.089 C 
HETATM    8  C   UNL     1     -40.427 -45.920  10.767  1.00  0.00     0.055 C 
HETATM    9  C   UNL     1     -41.830 -45.449  11.145  1.00  0.00     0.275 C 
HETATM   10  N   UNL     1     -42.924 -46.337  10.709  1.00  0.00     0.097 N 
HETATM   11  C   UNL     1     -42.673 -47.727  11.130  1.00  0.00     0.275 C 
HETATM   12  C   UNL     1     -41.287 -48.276  10.785  1.00  0.00     0.055 C 
BRANCH  10  13
HETATM   13  C   UNL     1     -43.185 -46.254   9.246  1.00  0.00     0.374 C 
BRANCH  13  14
HETATM   14  C   UNL     1     -44.439 -47.037   8.830  1.00  0.00     0.245 C 
HETATM   15  N   UNL     1     -45.602 -46.634   9.452  1.00  0.00    -0.364 N 
HETATM   16  C   UNL     1     -46.876 -47.207   9.105  1.00  0.00     0.149 C 
HETATM   17  H   UNL     1     -45.554 -45.739   9.930  1.00  0.00     0.161 HD
HETATM   18  O   UNL     1     -44.388 -47.986   8.051  1.00  0.00    -0.272 OA
ENDBRANCH  13  14
ENDBRANCH  10  13
ENDBRANCH   1   7
BRANCH   4  19
HETATM   19  C   UNL     1     -38.009 -48.984  15.299  1.00  0.00     0.070 A 
HETATM   20  C   UNL     1     -36.700 -48.654  15.720  1.00  0.00     0.138 A 
HETATM   21  N   UNL     1     -36.121 -49.638  16.414  1.00  0.00    -0.310 N 
HETATM   22  N   UNL     1     -37.050 -50.602  16.424  1.00  0.00    -0.310 N 
ATOM     23  HN  UNL     1     -35.192 -49.652  16.836  1.00  0.00     0.186 HD
HETATM   24  C   UNL     1     -38.209 -50.252  15.786  1.00  0.00     0.138 A 
HETATM   25  H   UNL     1     -36.822 -51.476  16.884  1.00  0.00     0.186 HD
ENDBRANCH   4  19
TORSDOF 4
ENDMDL
MODEL 7
REMARK VINA RESULT:      -5.2      4.110      8.415
REMARK  4 active torsions:
REMARK  status: ('A' for Active; 'I' for Inactive)
REMARK       I    between atoms: N_2  and  C_3 
REMARK    1  A    between atoms: C_3  and  C_5 
REMARK    2  A    between atoms: C_5  and  N_6 
REMARK    3  A    between atoms: C_9  and  N_12 
REMARK       I    between atoms: N_12  and  C_13 
REMARK       I    between atoms: C_13  and  N_15 
REMARK    4  A    between atoms: N_15  and  C_16 
ROOT
HETATM    1  N   UNL     1     -41.745 -51.126  12.420  1.00  0.00    -0.338 N 
HETATM    2  C   UNL     1     -42.084 -49.816  12.149  1.00  0.00     0.321 C 
HETATM    3  O   UNL     1     -42.799 -49.156  12.894  1.00  0.00    -0.247 OA
HETATM    4  N   UNL     1     -41.560 -49.384  10.950  1.00  0.00    -0.306 N 
HETATM    5  H   UNL     1     -40.835 -51.415  12.094  1.00  0.00     0.164 HD
HETATM    6  H   UNL     1     -41.189 -50.073  10.312  1.00  0.00     0.171 HD
ENDROOT
BRANCH   1   7
HETATM    7  C   UNL     1     -42.277 -51.781  13.616  1.00  0.00     0.089 C 
HETATM    8  C   UNL     1     -41.295 -51.754  14.789  1.00  0.00     0.055 C 
HETATM    9  C   UNL     1     -40.143 -52.739  14.589  1.00  0.00     0.275 C 
HETATM   10  N   UNL     1     -40.554 -54.126  14.306  1.00  0.00     0.097 N 
HETATM   11  C   UNL     1     -41.524 -54.174  13.198  1.00  0.00     0.275 C 
HETATM   12  C   UNL     1     -42.711 -53.217  13.325  1.00  0.00     0.055 C 
BRANCH  10  13
HETATM   13  C   UNL     1     -41.073 -54.830  15.510  1.00  0.00     0.374 C 
BRANCH  13  14
HETATM   14  C   UNL     1     -39.947 -55.391  16.392  1.00  0.00     0.245 C 
HETATM   15  N   UNL     1     -39.908 -54.879  17.671  1.00  0.00    -0.364 N 
HETATM   16  C   UNL     1     -38.970 -55.366  18.647  1.00  0.00     0.149 C 
HETATM   17  H   UNL     1     -40.741 -54.374  17.965  1.00  0.00     0.161 HD
HETATM   18  O   UNL     1     -39.114 -56.185  15.961  1.00  0.00    -0.272 OA
ENDBRANCH  13  14
ENDBRANCH  10  13
ENDBRANCH   1   7
BRANCH   4  19
HETATM   19  C   UNL     1     -41.756 -48.103  10.461  1.00  0.00     0.070 A 
HETATM   20  C   UNL     1     -41.031 -46.910  10.687  1.00  0.00     0.138 A 
HETATM   21  N   UNL     1     -41.545 -45.866  10.031  1.00  0.00    -0.310 N 
HETATM   22  N   UNL     1     -42.605 -46.384   9.399  1.00  0.00    -0.310 N 
ATOM     23  HN  UNL     1     -41.210 -44.903  10.016  1.00  0.00     0.186 HD
HETATM   24  C   UNL     1     -42.764 -47.728   9.607  1.00  0.00     0.138 A 
HETATM   25  H   UNL     1     -43.178 -45.760   8.843  1.00  0.00     0.186 HD
ENDBRANCH   4  19
TORSDOF 4
ENDMDL
MODEL 8
REMARK VINA RESULT:      -5.2      5.282      7.063
REMARK  4 active torsions:
REMARK  status: ('A' for Active; 'I' for Inactive)
REMARK       I    between atoms: N_2  and  C_3 
REMARK    1  A    between atoms: C_3  and  C_5 
REMARK    2  A    between atoms: C_5  and  N_6 
REMARK    3  A    between atoms: C_9  and  N_12 
REMARK       I    between atoms: N_12  and  C_13 
REMARK       I    between atoms: C_13  and  N_15 
REMARK    4  A    between atoms: N_15  and  C_16 
ROOT
HETATM    1  N   UNL     1     -41.995 -45.167  11.135  1.00  0.00    -0.338 N 
HETATM    2  C   UNL     1     -42.881 -45.495  10.129  1.00  0.00     0.321 C 
HETATM    3  O   UNL     1     -43.397 -44.649   9.407  1.00  0.00    -0.247 OA
HETATM    4  N   UNL     1     -43.125 -46.850  10.077  1.00  0.00    -0.306 N 
HETATM    5  H   UNL     1     -41.278 -45.853  11.322  1.00  0.00     0.164 HD
HETATM    6  H   UNL     1     -42.836 -47.421  10.858  1.00  0.00     0.171 HD
ENDROOT
BRANCH   1   7
HETATM    7  C   UNL     1     -41.674 -43.761  11.391  1.00  0.00     0.089 C 
HETATM    8  C   UNL     1     -40.276 -43.574  11.984  1.00  0.00     0.055 C 
HETATM    9  C   UNL     1     -40.220 -44.001  13.451  1.00  0.00     0.275 C 
HETATM   10  N   UNL     1     -41.227 -43.369  14.322  1.00  0.00     0.097 N 
HETATM   11  C   UNL     1     -42.579 -43.510  13.754  1.00  0.00     0.275 C 
HETATM   12  C   UNL     1     -42.721 -43.100  12.287  1.00  0.00     0.055 C 
BRANCH  10  13
HETATM   13  C   UNL     1     -40.915 -41.945  14.624  1.00  0.00     0.374 C 
BRANCH  13  14
HETATM   14  C   UNL     1     -40.843 -41.669  16.134  1.00  0.00     0.245 C 
HETATM   15  N   UNL     1     -42.067 -41.504  16.747  1.00  0.00    -0.364 N 
HETATM   16  C   UNL     1     -42.175 -41.327  18.171  1.00  0.00     0.149 C 
HETATM   17  H   UNL     1     -42.872 -41.803  16.203  1.00  0.00     0.161 HD
HETATM   18  O   UNL     1     -39.773 -41.544  16.725  1.00  0.00    -0.272 OA
ENDBRANCH  13  14
ENDBRANCH  10  13
ENDBRANCH   1   7
BRANCH   4  19
HETATM   19  C   UNL     1     -43.976 -47.427   9.149  1.00  0.00     0.070 A 
HETATM   20  C   UNL     1     -45.334 -47.807   9.256  1.00  0.00     0.138 A 
HETATM   21  N   UNL     1     -45.806 -48.344   8.127  1.00  0.00    -0.310 N 
HETATM   22  N   UNL     1     -44.751 -48.322   7.304  1.00  0.00    -0.310 N 
ATOM     23  HN  UNL     1     -46.747 -48.689   7.938  1.00  0.00     0.186 HD
HETATM   24  C   UNL     1     -43.633 -47.763   7.862  1.00  0.00     0.138 A 
HETATM   25  H   UNL     1     -44.865 -48.709   6.375  1.00  0.00     0.186 HD
ENDBRANCH   4  19
TORSDOF 4
ENDMDL
MODEL 9
REMARK VINA RESULT:      -5.0      4.715      5.495
REMARK  4 active torsions:
REMARK  status: ('A' for Active; 'I' for Inactive)
REMARK       I    between atoms: N_2  and  C_3 
REMARK    1  A    between atoms: C_3  and  C_5 
REMARK    2  A    between atoms: C_5  and  N_6 
REMARK    3  A    between atoms: C_9  and  N_12 
REMARK       I    between atoms: N_12  and  C_13 
REMARK       I    between atoms: C_13  and  N_15 
REMARK    4  A    between atoms: N_15  and  C_16 
ROOT
HETATM    1  N   UNL     1     -40.613 -52.928  14.139  1.00  0.00    -0.338 N 
HETATM    2  C   UNL     1     -40.033 -54.106  14.564  1.00  0.00     0.321 C 
HETATM    3  O   UNL     1     -39.264 -54.750  13.860  1.00  0.00    -0.247 OA
HETATM    4  N   UNL     1     -40.456 -54.464  15.825  1.00  0.00    -0.306 N 
HETATM    5  H   UNL     1     -40.791 -52.246  14.862  1.00  0.00     0.164 HD
HETATM    6  H   UNL     1     -41.259 -53.994  16.214  1.00  0.00     0.171 HD
ENDROOT
BRANCH   1   7
HETATM    7  C   UNL     1     -40.341 -52.430  12.789  1.00  0.00     0.089 C 
HETATM    8  C   UNL     1     -39.389 -51.232  12.783  1.00  0.00     0.055 C 
HETATM    9  C   UNL     1     -40.078 -49.957  13.268  1.00  0.00     0.275 C 
HETATM   10  N   UNL     1     -41.325 -49.615  12.558  1.00  0.00     0.097 N 
HETATM   11  C   UNL     1     -42.245 -50.765  12.525  1.00  0.00     0.275 C 
HETATM   12  C   UNL     1     -41.631 -52.083  12.047  1.00  0.00     0.055 C 
BRANCH  10  13
HETATM   13  C   UNL     1     -41.081 -49.079  11.192  1.00  0.00     0.374 C 
BRANCH  13  14
HETATM   14  C   UNL     1     -42.226 -48.178  10.703  1.00  0.00     0.245 C 
HETATM   15  N   UNL     1     -42.435 -48.202   9.340  1.00  0.00    -0.364 N 
HETATM   16  C   UNL     1     -43.526 -47.484   8.736  1.00  0.00     0.149 C 
HETATM   17  H   UNL     1     -41.981 -48.964   8.842  1.00  0.00     0.161 HD
HETATM   18  O   UNL     1     -42.856 -47.451  11.467  1.00  0.00    -0.272 OA
ENDBRANCH  13  14
ENDBRANCH  10  13
ENDBRANCH   1   7
BRANCH   4  19
HETATM   19  C   UNL     1     -40.011 -55.605  16.472  1.00  0.00     0.070 A 
HETATM   20  C   UNL     1     -38.734 -55.937  16.981  1.00  0.00     0.138 A 
HETATM   21  N   UNL     1     -38.704 -57.151  17.538  1.00  0.00    -0.310 N 
HETATM   22  N   UNL     1     -39.953 -57.603  17.372  1.00  0.00    -0.310 N 
ATOM     23  HN  UNL     1     -37.916 -57.622  17.983  1.00  0.00     0.186 HD
HETATM   24  C   UNL     1     -40.783 -56.705  16.756  1.00  0.00     0.138 A 
HETATM   25  H   UNL     1     -40.168 -58.536  17.702  1.00  0.00     0.186 HD
ENDBRANCH   4  19
TORSDOF 4
ENDMDL
