MODEL 1
REMARK VINA RESULT:      -6.9      0.000      0.000
REMARK  4 active torsions:
REMARK  status: ('A' for Active; 'I' for Inactive)
REMARK    1  A    between atoms: N_1  and  C_8 
REMARK    2  A    between atoms: N_2  and  C_7 
REMARK    3  A    between atoms: C_8  and  C_9 
REMARK       I    between atoms: C_9  and  N_12 
REMARK    4  A    between atoms: N_12  and  C_16 
ROOT
HETATM    1  N   UNL     1     -39.800 -50.581  11.967  1.00  0.00    -0.255 N 
HETATM    2  N   UNL     1     -39.535 -48.240  12.211  1.00  0.00    -0.279 N 
HETATM    3  C   UNL     1     -40.140 -49.299  11.537  1.00  0.00     0.334 C 
HETATM    4  C   UNL     1     -38.739 -50.839  12.820  1.00  0.00     0.292 C 
HETATM    5  C   UNL     1     -38.032 -49.657  13.348  1.00  0.00     0.200 C 
HETATM    6  C   UNL     1     -38.479 -48.435  13.081  1.00  0.00     0.146 C 
HETATM    7  O   UNL     1     -40.995 -49.115  10.670  1.00  0.00    -0.246 OA
HETATM    8  O   UNL     1     -38.411 -51.974  13.152  1.00  0.00    -0.264 OA
HETATM    9  F   UNL     1     -37.005 -49.874  14.198  1.00  0.00    -0.199 F 
ENDROOT
BRANCH   1  10
HETATM   10  C   UNL     1     -40.798 -51.632  11.773  1.00  0.00     0.240 C 
BRANCH  10  11
HETATM   11  C   UNL     1     -41.873 -51.947  12.819  1.00  0.00     0.236 C 
HETATM   12  N   UNL     1     -43.098 -52.382  12.386  1.00  0.00    -0.355 N 
HETATM   13  H   UNL     1     -43.193 -52.661  11.417  1.00  0.00     0.162 HD
HETATM   14  O   UNL     1     -41.598 -51.840  14.015  1.00  0.00    -0.272 OA
BRANCH  12  15
HETATM   15  C   UNL     1     -44.230 -52.624  13.289  1.00  0.00     0.084 C 
HETATM   16  C   UNL     1     -44.946 -53.945  12.955  1.00  0.00     0.025 C 
HETATM   17  C   UNL     1     -45.428 -54.670  14.197  1.00  0.00     0.002 C 
HETATM   18  C   UNL     1     -46.629 -54.079  14.935  1.00  0.00     0.000 C 
HETATM   19  C   UNL     1     -47.182 -52.726  14.496  1.00  0.00     0.000 C 
HETATM   20  C   UNL     1     -46.217 -51.542  14.520  1.00  0.00     0.002 C 
HETATM   21  C   UNL     1     -45.219 -51.456  13.356  1.00  0.00     0.025 C 
ENDBRANCH  12  15
ENDBRANCH  10  11
ENDBRANCH   1  10
BRANCH   2  22
HETATM   22  C   UNL     1     -40.181 -46.938  12.069  1.00  0.00     0.232 C 
HETATM   23  O   UNL     1     -39.758 -46.233  10.887  1.00  0.00    -0.366 OA
HETATM   24  C   UNL     1     -39.792 -44.824  11.173  1.00  0.00     0.170 C 
HETATM   25  C   UNL     1     -40.117 -44.649  12.643  1.00  0.00     0.031 C 
HETATM   26  C   UNL     1     -39.827 -46.004  13.220  1.00  0.00     0.056 C 
ENDBRANCH   2  22
TORSDOF 4
ENDMDL
MODEL 2
REMARK VINA RESULT:      -6.8      2.662      3.294
REMARK  4 active torsions:
REMARK  status: ('A' for Active; 'I' for Inactive)
REMARK    1  A    between atoms: N_1  and  C_8 
REMARK    2  A    between atoms: N_2  and  C_7 
REMARK    3  A    between atoms: C_8  and  C_9 
REMARK       I    between atoms: C_9  and  N_12 
REMARK    4  A    between atoms: N_12  and  C_16 
ROOT
HETATM    1  N   UNL     1     -40.266 -48.282  12.648  1.00  0.00    -0.255 N 
HETATM    2  N   UNL     1     -41.531 -47.050  11.069  1.00  0.00    -0.279 N 
HETATM    3  C   UNL     1     -40.862 -48.230  11.388  1.00  0.00     0.334 C 
HETATM    4  C   UNL     1     -40.097 -47.167  13.454  1.00  0.00     0.292 C 
HETATM    5  C   UNL     1     -40.682 -45.910  12.950  1.00  0.00     0.200 C 
HETATM    6  C   UNL     1     -41.408 -45.909  11.838  1.00  0.00     0.146 C 
HETATM    7  O   UNL     1     -40.870 -49.207  10.638  1.00  0.00    -0.246 OA
HETATM    8  O   UNL     1     -39.524 -47.208  14.538  1.00  0.00    -0.264 OA
HETATM    9  F   UNL     1     -40.551 -44.809  13.721  1.00  0.00    -0.199 F 
ENDROOT
BRANCH   1  10
HETATM   10  C   UNL     1     -40.125 -49.601  13.262  1.00  0.00     0.240 C 
BRANCH  10  11
HETATM   11  C   UNL     1     -41.321 -50.379  13.821  1.00  0.00     0.236 C 
HETATM   12  N   UNL     1     -42.139 -51.041  12.943  1.00  0.00    -0.355 N 
HETATM   13  H   UNL     1     -41.825 -51.153  11.987  1.00  0.00     0.162 HD
HETATM   14  O   UNL     1     -41.492 -50.424  15.040  1.00  0.00    -0.272 OA
BRANCH  12  15
HETATM   15  C   UNL     1     -43.363 -51.739  13.355  1.00  0.00     0.084 C 
HETATM   16  C   UNL     1     -43.617 -52.988  12.493  1.00  0.00     0.025 C 
HETATM   17  C   UNL     1     -44.197 -54.136  13.297  1.00  0.00     0.002 C 
HETATM   18  C   UNL     1     -45.653 -54.015  13.746  1.00  0.00     0.000 C 
HETATM   19  C   UNL     1     -46.400 -52.705  13.512  1.00  0.00     0.000 C 
HETATM   20  C   UNL     1     -45.801 -51.445  14.134  1.00  0.00     0.002 C 
HETATM   21  C   UNL     1     -44.597 -50.833  13.401  1.00  0.00     0.025 C 
ENDBRANCH  12  15
ENDBRANCH  10  11
ENDBRANCH   1  10
BRANCH   2  22
HETATM   22  C   UNL     1     -42.490 -47.136   9.970  1.00  0.00     0.232 C 
HETATM   23  O   UNL     1     -42.693 -45.874   9.308  1.00  0.00    -0.366 OA
HETATM   24  C   UNL     1     -44.050 -45.831   8.837  1.00  0.00     0.170 C 
HETATM   25  C   UNL     1     -44.767 -47.064   9.351  1.00  0.00     0.031 C 
HETATM   26  C   UNL     1     -43.876 -47.538  10.462  1.00  0.00     0.056 C 
ENDBRANCH   2  22
TORSDOF 4
ENDMDL
MODEL 3
REMARK VINA RESULT:      -6.6      2.027      7.558
REMARK  4 active torsions:
REMARK  status: ('A' for Active; 'I' for Inactive)
REMARK    1  A    between atoms: N_1  and  C_8 
REMARK    2  A    between atoms: N_2  and  C_7 
REMARK    3  A    between atoms: C_8  and  C_9 
REMARK       I    between atoms: C_9  and  N_12 
REMARK    4  A    between atoms: N_12  and  C_16 
ROOT
HETATM    1  N   UNL     1     -40.962 -51.918  13.028  1.00  0.00    -0.255 N 
HETATM    2  N   UNL     1     -42.781 -52.979  14.112  1.00  0.00    -0.279 N 
HETATM    3  C   UNL     1     -42.313 -51.893  13.375  1.00  0.00     0.334 C 
HETATM    4  C   UNL     1     -40.053 -52.805  13.581  1.00  0.00     0.292 C 
HETATM    5  C   UNL     1     -40.611 -53.815  14.499  1.00  0.00     0.200 C 
HETATM    6  C   UNL     1     -41.924 -53.902  14.680  1.00  0.00     0.146 C 
HETATM    7  O   UNL     1     -43.065 -51.003  12.976  1.00  0.00    -0.246 OA
HETATM    8  O   UNL     1     -38.855 -52.787  13.311  1.00  0.00    -0.264 OA
HETATM    9  F   UNL     1     -39.753 -54.708  15.039  1.00  0.00    -0.199 F 
ENDROOT
BRANCH   1  10
HETATM   10  C   UNL     1     -40.578 -51.210  11.807  1.00  0.00     0.240 C 
BRANCH  10  11
HETATM   11  C   UNL     1     -39.884 -49.845  11.833  1.00  0.00     0.236 C 
HETATM   12  N   UNL     1     -40.643 -48.730  12.072  1.00  0.00    -0.355 N 
HETATM   13  H   UNL     1     -41.589 -48.857  12.409  1.00  0.00     0.162 HD
HETATM   14  O   UNL     1     -38.663 -49.789  11.680  1.00  0.00    -0.272 OA
BRANCH  12  15
HETATM   15  C   UNL     1     -40.103 -47.365  12.028  1.00  0.00     0.084 C 
HETATM   16  C   UNL     1     -40.316 -46.630  13.363  1.00  0.00     0.025 C 
HETATM   17  C   UNL     1     -39.148 -45.730  13.719  1.00  0.00     0.002 C 
HETATM   18  C   UNL     1     -38.980 -44.443  12.912  1.00  0.00     0.000 C 
HETATM   19  C   UNL     1     -39.878 -44.199  11.702  1.00  0.00     0.000 C 
HETATM   20  C   UNL     1     -39.840 -45.245  10.589  1.00  0.00     0.002 C 
HETATM   21  C   UNL     1     -40.625 -46.540  10.848  1.00  0.00     0.025 C 
ENDBRANCH  12  15
ENDBRANCH  10  11
ENDBRANCH   1  10
BRANCH   2  22
HETATM   22  C   UNL     1     -44.229 -53.174  14.114  1.00  0.00     0.232 C 
HETATM   23  O   UNL     1     -44.811 -53.009  15.420  1.00  0.00    -0.366 OA
HETATM   24  C   UNL     1     -45.947 -53.885  15.515  1.00  0.00     0.170 C 
HETATM   25  C   UNL     1     -45.993 -54.736  14.262  1.00  0.00     0.031 C 
HETATM   26  C   UNL     1     -44.608 -54.591  13.702  1.00  0.00     0.056 C 
ENDBRANCH   2  22
TORSDOF 4
ENDMDL
MODEL 4
REMARK VINA RESULT:      -6.5      4.733      7.976
REMARK  4 active torsions:
REMARK  status: ('A' for Active; 'I' for Inactive)
REMARK    1  A    between atoms: N_1  and  C_8 
REMARK    2  A    between atoms: N_2  and  C_7 
REMARK    3  A    between atoms: C_8  and  C_9 
REMARK       I    between atoms: C_9  and  N_12 
REMARK    4  A    between atoms: N_12  and  C_16 
ROOT
HETATM    1  N   UNL     1     -45.484 -53.912  14.304  1.00  0.00    -0.255 N 
HETATM    2  N   UNL     1     -46.632 -52.324  15.636  1.00  0.00    -0.279 N 
HETATM    3  C   UNL     1     -46.078 -53.598  15.527  1.00  0.00     0.334 C 
HETATM    4  C   UNL     1     -45.646 -53.142  13.163  1.00  0.00     0.292 C 
HETATM    5  C   UNL     1     -46.408 -51.891  13.329  1.00  0.00     0.200 C 
HETATM    6  C   UNL     1     -46.811 -51.508  14.536  1.00  0.00     0.146 C 
HETATM    7  O   UNL     1     -46.034 -54.374  16.482  1.00  0.00    -0.246 OA
HETATM    8  O   UNL     1     -45.165 -53.451  12.077  1.00  0.00    -0.264 OA
HETATM    9  F   UNL     1     -46.567 -51.109  12.240  1.00  0.00    -0.199 F 
ENDROOT
BRANCH   1  10
HETATM   10  C   UNL     1     -44.399 -54.891  14.326  1.00  0.00     0.240 C 
BRANCH  10  11
HETATM   11  C   UNL     1     -42.995 -54.551  14.836  1.00  0.00     0.236 C 
HETATM   12  N   UNL     1     -42.460 -53.332  14.513  1.00  0.00    -0.355 N 
HETATM   13  H   UNL     1     -43.072 -52.629  14.117  1.00  0.00     0.162 HD
HETATM   14  O   UNL     1     -42.403 -55.360  15.553  1.00  0.00    -0.272 OA
BRANCH  12  15
HETATM   15  C   UNL     1     -41.091 -52.935  14.867  1.00  0.00     0.084 C 
HETATM   16  C   UNL     1     -41.060 -52.104  16.162  1.00  0.00     0.025 C 
HETATM   17  C   UNL     1     -39.846 -52.412  17.018  1.00  0.00     0.002 C 
HETATM   18  C   UNL     1     -38.492 -51.899  16.527  1.00  0.00     0.000 C 
HETATM   19  C   UNL     1     -38.395 -51.252  15.148  1.00  0.00     0.000 C 
HETATM   20  C   UNL     1     -38.833 -52.097  13.953  1.00  0.00     0.002 C 
HETATM   21  C   UNL     1     -40.348 -52.225  13.732  1.00  0.00     0.025 C 
ENDBRANCH  12  15
ENDBRANCH  10  11
ENDBRANCH   1  10
BRANCH   2  22
HETATM   22  C   UNL     1     -46.866 -51.843  16.995  1.00  0.00     0.232 C 
HETATM   23  O   UNL     1     -48.244 -51.502  17.236  1.00  0.00    -0.366 OA
HETATM   24  C   UNL     1     -48.275 -50.421  18.183  1.00  0.00     0.170 C 
HETATM   25  C   UNL     1     -46.850 -49.975  18.439  1.00  0.00     0.031 C 
HETATM   26  C   UNL     1     -46.098 -50.557  17.277  1.00  0.00     0.056 C 
ENDBRANCH   2  22
TORSDOF 4
ENDMDL
MODEL 5
REMARK VINA RESULT:      -6.5      3.742      7.619
REMARK  4 active torsions:
REMARK  status: ('A' for Active; 'I' for Inactive)
REMARK    1  A    between atoms: N_1  and  C_8 
REMARK    2  A    between atoms: N_2  and  C_7 
REMARK    3  A    between atoms: C_8  and  C_9 
REMARK       I    between atoms: C_9  and  N_12 
REMARK    4  A    between atoms: N_12  and  C_16 
ROOT
HETATM    1  N   UNL     1     -41.551 -53.657  12.891  1.00  0.00    -0.255 N 
HETATM    2  N   UNL     1     -40.814 -54.627  14.922  1.00  0.00    -0.279 N 
HETATM    3  C   UNL     1     -40.487 -54.115  13.668  1.00  0.00     0.334 C 
HETATM    4  C   UNL     1     -42.879 -53.917  13.193  1.00  0.00     0.292 C 
HETATM    5  C   UNL     1     -43.126 -54.630  14.460  1.00  0.00     0.200 C 
HETATM    6  C   UNL     1     -42.119 -54.898  15.284  1.00  0.00     0.146 C 
HETATM    7  O   UNL     1     -39.319 -53.991  13.298  1.00  0.00    -0.246 OA
HETATM    8  O   UNL     1     -43.808 -53.557  12.477  1.00  0.00    -0.264 OA
HETATM    9  F   UNL     1     -44.410 -54.881  14.793  1.00  0.00    -0.199 F 
ENDROOT
BRANCH   1  10
HETATM   10  C   UNL     1     -41.260 -52.597  11.926  1.00  0.00     0.240 C 
BRANCH  10  11
HETATM   11  C   UNL     1     -41.380 -51.111  12.278  1.00  0.00     0.236 C 
HETATM   12  N   UNL     1     -41.420 -50.199  11.256  1.00  0.00    -0.355 N 
HETATM   13  H   UNL     1     -41.561 -50.541  10.314  1.00  0.00     0.162 HD
HETATM   14  O   UNL     1     -41.477 -50.778  13.460  1.00  0.00    -0.272 OA
BRANCH  12  15
HETATM   15  C   UNL     1     -41.440 -48.747  11.474  1.00  0.00     0.084 C 
HETATM   16  C   UNL     1     -42.248 -48.023  10.383  1.00  0.00     0.025 C 
HETATM   17  C   UNL     1     -43.034 -46.847  10.930  1.00  0.00     0.002 C 
HETATM   18  C   UNL     1     -42.246 -45.599  11.329  1.00  0.00     0.000 C 
HETATM   19  C   UNL     1     -40.720 -45.643  11.311  1.00  0.00     0.000 C 
HETATM   20  C   UNL     1     -40.047 -46.700  12.185  1.00  0.00     0.002 C 
HETATM   21  C   UNL     1     -40.046 -48.134  11.634  1.00  0.00     0.025 C 
ENDBRANCH  12  15
ENDBRANCH  10  11
ENDBRANCH   1  10
BRANCH   2  22
HETATM   22  C   UNL     1     -39.717 -54.710  15.884  1.00  0.00     0.232 C 
HETATM   23  O   UNL     1     -39.038 -55.978  15.846  1.00  0.00    -0.366 OA
HETATM   24  C   UNL     1     -38.569 -56.271  17.173  1.00  0.00     0.170 C 
HETATM   25  C   UNL     1     -39.099 -55.203  18.108  1.00  0.00     0.031 C 
HETATM   26  C   UNL     1     -40.216 -54.584  17.318  1.00  0.00     0.056 C 
ENDBRANCH   2  22
TORSDOF 4
ENDMDL
MODEL 6
REMARK VINA RESULT:      -6.5      3.870      7.843
REMARK  4 active torsions:
REMARK  status: ('A' for Active; 'I' for Inactive)
REMARK    1  A    between atoms: N_1  and  C_8 
REMARK    2  A    between atoms: N_2  and  C_7 
REMARK    3  A    between atoms: C_8  and  C_9 
REMARK       I    between atoms: C_9  and  N_12 
REMARK    4  A    between atoms: N_12  and  C_16 
ROOT
HETATM    1  N   UNL     1     -45.117 -53.731  14.259  1.00  0.00    -0.255 N 
HETATM    2  N   UNL     1     -46.469 -52.325  15.603  1.00  0.00    -0.279 N 
HETATM    3  C   UNL     1     -45.691 -53.477  15.504  1.00  0.00     0.334 C 
HETATM    4  C   UNL     1     -45.483 -53.057  13.104  1.00  0.00     0.292 C 
HETATM    5  C   UNL     1     -46.457 -51.963  13.274  1.00  0.00     0.200 C 
HETATM    6  C   UNL     1     -46.857 -51.607  14.489  1.00  0.00     0.146 C 
HETATM    7  O   UNL     1     -45.450 -54.187  16.481  1.00  0.00    -0.246 OA
HETATM    8  O   UNL     1     -45.013 -53.321  12.001  1.00  0.00    -0.264 OA
HETATM    9  F   UNL     1     -46.819 -51.274  12.170  1.00  0.00    -0.199 F 
ENDROOT
BRANCH   1  10
HETATM   10  C   UNL     1     -43.868 -54.490  14.246  1.00  0.00     0.240 C 
BRANCH  10  11
HETATM   11  C   UNL     1     -42.540 -53.878  13.787  1.00  0.00     0.236 C 
HETATM   12  N   UNL     1     -42.457 -52.517  13.656  1.00  0.00    -0.355 N 
HETATM   13  H   UNL     1     -43.203 -51.953  14.044  1.00  0.00     0.162 HD
HETATM   14  O   UNL     1     -41.575 -54.618  13.588  1.00  0.00    -0.272 OA
BRANCH  12  15
HETATM   15  C   UNL     1     -41.269 -51.830  13.136  1.00  0.00     0.084 C 
HETATM   16  C   UNL     1     -40.291 -51.460  14.265  1.00  0.00     0.025 C 
HETATM   17  C   UNL     1     -38.841 -51.606  13.844  1.00  0.00     0.002 C 
HETATM   18  C   UNL     1     -38.283 -50.566  12.872  1.00  0.00     0.000 C 
HETATM   19  C   UNL     1     -39.229 -49.541  12.253  1.00  0.00     0.000 C 
HETATM   20  C   UNL     1     -40.409 -50.084  11.449  1.00  0.00     0.002 C 
HETATM   21  C   UNL     1     -41.598 -50.615  12.264  1.00  0.00     0.025 C 
ENDBRANCH  12  15
ENDBRANCH  10  11
ENDBRANCH   1  10
BRANCH   2  22
HETATM   22  C   UNL     1     -46.713 -51.833  16.957  1.00  0.00     0.232 C 
HETATM   23  O   UNL     1     -48.109 -51.597  17.220  1.00  0.00    -0.366 OA
HETATM   24  C   UNL     1     -48.208 -50.501  18.145  1.00  0.00     0.170 C 
HETATM   25  C   UNL     1     -46.817 -49.939  18.362  1.00  0.00     0.031 C 
HETATM   26  C   UNL     1     -46.044 -50.486  17.197  1.00  0.00     0.056 C 
ENDBRANCH   2  22
TORSDOF 4
ENDMDL
MODEL 7
REMARK VINA RESULT:      -6.2      6.046      9.175
REMARK  4 active torsions:
REMARK  status: ('A' for Active; 'I' for Inactive)
REMARK    1  A    between atoms: N_1  and  C_8 
REMARK    2  A    between atoms: N_2  and  C_7 
REMARK    3  A    between atoms: C_8  and  C_9 
REMARK       I    between atoms: C_9  and  N_12 
REMARK    4  A    between atoms: N_12  and  C_16 
ROOT
HETATM    1  N   UNL     1     -40.439 -54.581  15.142  1.00  0.00    -0.255 N 
HETATM    2  N   UNL     1     -42.724 -54.385  14.550  1.00  0.00    -0.279 N 
HETATM    3  C   UNL     1     -41.771 -54.860  15.449  1.00  0.00     0.334 C 
HETATM    4  C   UNL     1     -40.029 -54.101  13.908  1.00  0.00     0.292 C 
HETATM    5  C   UNL     1     -41.102 -53.795  12.944  1.00  0.00     0.200 C 
HETATM    6  C   UNL     1     -42.376 -53.888  13.309  1.00  0.00     0.146 C 
HETATM    7  O   UNL     1     -42.087 -55.418  16.500  1.00  0.00    -0.246 OA
HETATM    8  O   UNL     1     -38.850 -53.908  13.627  1.00  0.00    -0.264 OA
HETATM    9  F   UNL     1     -40.736 -53.307  11.739  1.00  0.00    -0.199 F 
ENDROOT
BRANCH   1  10
HETATM   10  C   UNL     1     -39.508 -54.477  16.265  1.00  0.00     0.240 C 
BRANCH  10  11
HETATM   11  C   UNL     1     -38.597 -55.635  16.686  1.00  0.00     0.236 C 
HETATM   12  N   UNL     1     -37.405 -55.340  17.294  1.00  0.00    -0.355 N 
HETATM   13  H   UNL     1     -37.252 -54.392  17.615  1.00  0.00     0.162 HD
HETATM   14  O   UNL     1     -38.974 -56.794  16.504  1.00  0.00    -0.272 OA
BRANCH  12  15
HETATM   15  C   UNL     1     -36.413 -56.361  17.655  1.00  0.00     0.084 C 
HETATM   16  C   UNL     1     -36.620 -56.866  19.094  1.00  0.00     0.025 C 
HETATM   17  C   UNL     1     -36.339 -58.350  19.230  1.00  0.00     0.002 C 
HETATM   18  C   UNL     1     -34.879 -58.798  19.167  1.00  0.00     0.000 C 
HETATM   19  C   UNL     1     -33.800 -57.777  18.815  1.00  0.00     0.000 C 
HETATM   20  C   UNL     1     -33.939 -57.056  17.475  1.00  0.00     0.002 C 
HETATM   21  C   UNL     1     -34.966 -55.914  17.423  1.00  0.00     0.025 C 
ENDBRANCH  12  15
ENDBRANCH  10  11
ENDBRANCH   1  10
BRANCH   2  22
HETATM   22  C   UNL     1     -44.092 -54.296  15.056  1.00  0.00     0.232 C 
HETATM   23  O   UNL     1     -44.956 -55.308  14.506  1.00  0.00    -0.366 OA
HETATM   24  C   UNL     1     -46.281 -54.760  14.415  1.00  0.00     0.170 C 
HETATM   25  C   UNL     1     -46.213 -53.294  14.795  1.00  0.00     0.031 C 
HETATM   26  C   UNL     1     -44.751 -52.978  14.670  1.00  0.00     0.056 C 
ENDBRANCH   2  22
TORSDOF 4
ENDMDL
MODEL 8
REMARK VINA RESULT:      -6.2      5.695      8.089
REMARK  4 active torsions:
REMARK  status: ('A' for Active; 'I' for Inactive)
REMARK    1  A    between atoms: N_1  and  C_8 
REMARK    2  A    between atoms: N_2  and  C_7 
REMARK    3  A    between atoms: C_8  and  C_9 
REMARK       I    between atoms: C_9  and  N_12 
REMARK    4  A    between atoms: N_12  and  C_16 
ROOT
HETATM    1  N   UNL     1     -42.239 -54.498  15.158  1.00  0.00    -0.255 N 
HETATM    2  N   UNL     1     -43.915 -53.753  13.659  1.00  0.00    -0.279 N 
HETATM    3  C   UNL     1     -43.597 -54.394  14.855  1.00  0.00     0.334 C 
HETATM    4  C   UNL     1     -41.234 -54.235  14.240  1.00  0.00     0.292 C 
HETATM    5  C   UNL     1     -41.674 -53.729  12.927  1.00  0.00     0.200 C 
HETATM    6  C   UNL     1     -42.956 -53.456  12.710  1.00  0.00     0.146 C 
HETATM    7  O   UNL     1     -44.464 -54.771  15.643  1.00  0.00    -0.246 OA
HETATM    8  O   UNL     1     -40.043 -54.381  14.497  1.00  0.00    -0.264 OA
HETATM    9  F   UNL     1     -40.717 -53.445  12.017  1.00  0.00    -0.199 F 
ENDROOT
BRANCH   1  10
HETATM   10  C   UNL     1     -41.879 -54.562  16.573  1.00  0.00     0.240 C 
BRANCH  10  11
HETATM   11  C   UNL     1     -41.761 -55.887  17.333  1.00  0.00     0.236 C 
HETATM   12  N   UNL     1     -40.542 -56.237  17.852  1.00  0.00    -0.355 N 
HETATM   13  H   UNL     1     -39.815 -55.532  17.884  1.00  0.00     0.162 HD
HETATM   14  O   UNL     1     -42.766 -56.581  17.491  1.00  0.00    -0.272 OA
BRANCH  12  15
HETATM   15  C   UNL     1     -40.289 -57.522  18.515  1.00  0.00     0.084 C 
HETATM   16  C   UNL     1     -40.075 -57.344  20.029  1.00  0.00     0.025 C 
HETATM   17  C   UNL     1     -40.676 -58.480  20.834  1.00  0.00     0.002 C 
HETATM   18  C   UNL     1     -39.965 -59.831  20.782  1.00  0.00     0.000 C 
HETATM   19  C   UNL     1     -38.798 -60.023  19.818  1.00  0.00     0.000 C 
HETATM   20  C   UNL     1     -39.078 -59.788  18.334  1.00  0.00     0.002 C 
HETATM   21  C   UNL     1     -39.147 -58.322  17.882  1.00  0.00     0.025 C 
ENDBRANCH  12  15
ENDBRANCH  10  11
ENDBRANCH   1  10
BRANCH   2  22
HETATM   22  C   UNL     1     -45.289 -53.270  13.539  1.00  0.00     0.232 C 
HETATM   23  O   UNL     1     -45.684 -53.052  12.172  1.00  0.00    -0.366 OA
HETATM   24  C   UNL     1     -46.621 -51.962  12.148  1.00  0.00     0.170 C 
HETATM   25  C   UNL     1     -46.707 -51.383  13.546  1.00  0.00     0.031 C 
HETATM   26  C   UNL     1     -45.471 -51.915  14.211  1.00  0.00     0.056 C 
ENDBRANCH   2  22
TORSDOF 4
ENDMDL
MODEL 9
REMARK VINA RESULT:      -6.1      3.548      5.390
REMARK  4 active torsions:
REMARK  status: ('A' for Active; 'I' for Inactive)
REMARK    1  A    between atoms: N_1  and  C_8 
REMARK    2  A    between atoms: N_2  and  C_7 
REMARK    3  A    between atoms: C_8  and  C_9 
REMARK       I    between atoms: C_9  and  N_12 
REMARK    4  A    between atoms: N_12  and  C_16 
ROOT
HETATM    1  N   UNL     1     -43.345 -53.735  13.334  1.00  0.00    -0.255 N 
HETATM    2  N   UNL     1     -41.119 -52.994  13.662  1.00  0.00    -0.279 N 
HETATM    3  C   UNL     1     -42.265 -52.987  12.867  1.00  0.00     0.334 C 
HETATM    4  C   UNL     1     -43.244 -54.650  14.371  1.00  0.00     0.292 C 
HETATM    5  C   UNL     1     -41.933 -54.723  15.043  1.00  0.00     0.200 C 
HETATM    6  C   UNL     1     -40.964 -53.875  14.714  1.00  0.00     0.146 C 
HETATM    7  O   UNL     1     -42.352 -52.291  11.855  1.00  0.00    -0.246 OA
HETATM    8  O   UNL     1     -44.185 -55.344  14.742  1.00  0.00    -0.264 OA
HETATM    9  F   UNL     1     -41.807 -55.591  16.070  1.00  0.00    -0.199 F 
ENDROOT
BRANCH   1  10
HETATM   10  C   UNL     1     -44.680 -53.291  12.937  1.00  0.00     0.240 C 
BRANCH  10  11
HETATM   11  C   UNL     1     -45.503 -52.309  13.777  1.00  0.00     0.236 C 
HETATM   12  N   UNL     1     -45.146 -52.107  15.084  1.00  0.00    -0.355 N 
HETATM   13  H   UNL     1     -44.250 -52.461  15.396  1.00  0.00     0.162 HD
HETATM   14  O   UNL     1     -46.434 -51.699  13.248  1.00  0.00    -0.272 OA
BRANCH  12  15
HETATM   15  C   UNL     1     -45.915 -51.263  16.007  1.00  0.00     0.084 C 
HETATM   16  C   UNL     1     -45.063 -50.821  17.210  1.00  0.00     0.025 C 
HETATM   17  C   UNL     1     -45.376 -49.403  17.649  1.00  0.00     0.002 C 
HETATM   18  C   UNL     1     -46.706 -49.166  18.364  1.00  0.00     0.000 C 
HETATM   19  C   UNL     1     -47.714 -50.308  18.463  1.00  0.00     0.000 C 
HETATM   20  C   UNL     1     -48.198 -50.921  17.150  1.00  0.00     0.002 C 
HETATM   21  C   UNL     1     -47.233 -51.898  16.461  1.00  0.00     0.025 C 
ENDBRANCH  12  15
ENDBRANCH  10  11
ENDBRANCH   1  10
BRANCH   2  22
HETATM   22  C   UNL     1     -40.166 -51.913  13.418  1.00  0.00     0.232 C 
HETATM   23  O   UNL     1     -38.798 -52.358  13.464  1.00  0.00    -0.366 OA
HETATM   24  C   UNL     1     -37.995 -51.274  13.961  1.00  0.00     0.170 C 
HETATM   25  C   UNL     1     -38.923 -50.149  14.375  1.00  0.00     0.031 C 
HETATM   26  C   UNL     1     -40.255 -50.833  14.489  1.00  0.00     0.056 C 
ENDBRANCH   2  22
TORSDOF 4
ENDMDL
