MODEL 1
REMARK VINA RESULT:      -6.3      0.000      0.000
REMARK  5 active torsions:
REMARK  status: ('A' for Active; 'I' for Inactive)
REMARK    1  A    between atoms: C_2  and  N_3 
REMARK    2  A    between atoms: C_2  and  C_15 
REMARK    3  A    between atoms: N_3  and  C_4 
REMARK    4  A    between atoms: C_4  and  C_5 
REMARK       I    between atoms: C_5  and  N_7 
REMARK    5  A    between atoms: C_15  and  N_17 
ROOT
HETATM    1  N   UNL     1     -40.712 -50.355  10.931  1.00  0.00     0.098 N 
HETATM    2  H   UNL     1     -39.729 -50.597  10.796  1.00  0.00     0.317 HD
ENDROOT
BRANCH   1   3
HETATM    3  C   UNL     1     -40.920 -48.897  10.981  1.00  0.00     0.241 C 
HETATM    4  C   UNL     1     -39.872 -48.236  11.889  1.00  0.00     0.045 C 
BRANCH   3   5
HETATM    5  C   UNL     1     -42.382 -48.480  11.349  1.00  0.00     0.136 C 
HETATM    6  C   UNL     1     -42.457 -47.482  12.509  1.00  0.00     0.036 C 
BRANCH   5   7
HETATM    7  N   UNL     1     -43.122 -47.948  10.201  1.00  0.00    -0.297 N 
HETATM    8  C   UNL     1     -44.399 -47.456  10.188  1.00  0.00     0.112 A 
HETATM    9  C   UNL     1     -44.664 -47.110   8.884  1.00  0.00     0.037 A 
HETATM   10  C   UNL     1     -43.498 -47.460   8.182  1.00  0.00     0.108 A 
HETATM   11  N   UNL     1     -42.571 -48.008   8.972  1.00  0.00    -0.310 N 
ATOM     12  HN  UNL     1     -41.660 -48.383   8.707  1.00  0.00     0.186 HD
ENDBRANCH   5   7
ENDBRANCH   3   5
ENDBRANCH   1   3
BRANCH   1  13
HETATM   13  C   UNL     1     -41.237 -51.092  12.091  1.00  0.00     0.372 C 
BRANCH  13  14
HETATM   14  C   UNL     1     -40.207 -52.083  12.652  1.00  0.00     0.248 C 
HETATM   15  O   UNL     1     -39.022 -51.778  12.807  1.00  0.00    -0.271 OA
HETATM   16  N   UNL     1     -40.704 -53.321  13.042  1.00  0.00    -0.346 N 
HETATM   17  C   UNL     1     -42.106 -53.756  12.987  1.00  0.00     0.157 C 
HETATM   18  C   UNL     1     -39.846 -54.233  13.795  1.00  0.00     0.157 C 
HETATM   19  C   UNL     1     -42.641 -54.027  14.410  1.00  0.00     0.136 C 
HETATM   20  C   UNL     1     -44.024 -54.664  14.357  1.00  0.00     0.041 C 
HETATM   21  O   UNL     1     -41.773 -54.928  15.127  1.00  0.00    -0.378 OA
HETATM   22  C   UNL     1     -40.429 -54.410  15.208  1.00  0.00     0.136 C 
HETATM   23  C   UNL     1     -39.596 -55.379  16.029  1.00  0.00     0.041 C 
ENDBRANCH  13  14
ENDBRANCH   1  13
TORSDOF 5
ENDMDL
MODEL 2
REMARK VINA RESULT:      -6.1      1.609      2.069
REMARK  5 active torsions:
REMARK  status: ('A' for Active; 'I' for Inactive)
REMARK    1  A    between atoms: C_2  and  N_3 
REMARK    2  A    between atoms: C_2  and  C_15 
REMARK    3  A    between atoms: N_3  and  C_4 
REMARK    4  A    between atoms: C_4  and  C_5 
REMARK       I    between atoms: C_5  and  N_7 
REMARK    5  A    between atoms: C_15  and  N_17 
ROOT
HETATM    1  N   UNL     1     -40.720 -50.139  10.875  1.00  0.00     0.098 N 
HETATM    2  H   UNL     1     -39.933 -50.372  10.267  1.00  0.00     0.317 HD
ENDROOT
BRANCH   1   3
HETATM    3  C   UNL     1     -40.969 -48.688  10.926  1.00  0.00     0.241 C 
HETATM    4  C   UNL     1     -39.946 -48.000  11.842  1.00  0.00     0.045 C 
BRANCH   3   5
HETATM    5  C   UNL     1     -42.445 -48.313  11.286  1.00  0.00     0.136 C 
HETATM    6  C   UNL     1     -42.552 -47.230  12.364  1.00  0.00     0.036 C 
BRANCH   5   7
HETATM    7  N   UNL     1     -43.226 -47.911  10.113  1.00  0.00    -0.297 N 
HETATM    8  C   UNL     1     -44.524 -47.479  10.085  1.00  0.00     0.112 A 
HETATM    9  C   UNL     1     -44.825 -47.253   8.762  1.00  0.00     0.037 A 
HETATM   10  C   UNL     1     -43.656 -47.609   8.069  1.00  0.00     0.108 A 
HETATM   11  N   UNL     1     -42.692 -48.048   8.882  1.00  0.00    -0.310 N 
ATOM     12  HN  UNL     1     -41.770 -48.404   8.631  1.00  0.00     0.186 HD
ENDBRANCH   5   7
ENDBRANCH   3   5
ENDBRANCH   1   3
BRANCH   1  13
HETATM   13  C   UNL     1     -40.523 -50.777  12.186  1.00  0.00     0.372 C 
BRANCH  13  14
HETATM   14  C   UNL     1     -41.109 -52.196  12.224  1.00  0.00     0.248 C 
HETATM   15  O   UNL     1     -40.470 -53.180  11.842  1.00  0.00    -0.271 OA
HETATM   16  N   UNL     1     -42.376 -52.316  12.783  1.00  0.00    -0.346 N 
HETATM   17  C   UNL     1     -43.186 -51.230  13.350  1.00  0.00     0.157 C 
HETATM   18  C   UNL     1     -42.910 -53.645  13.070  1.00  0.00     0.157 C 
HETATM   19  C   UNL     1     -43.412 -51.460  14.860  1.00  0.00     0.136 C 
HETATM   20  C   UNL     1     -44.409 -50.453  15.419  1.00  0.00     0.041 C 
HETATM   21  O   UNL     1     -43.937 -52.779  15.111  1.00  0.00    -0.378 OA
HETATM   22  C   UNL     1     -43.060 -53.801  14.593  1.00  0.00     0.136 C 
HETATM   23  C   UNL     1     -43.647 -55.156  14.952  1.00  0.00     0.041 C 
ENDBRANCH  13  14
ENDBRANCH   1  13
TORSDOF 5
ENDMDL
MODEL 3
REMARK VINA RESULT:      -6.0      2.715      3.206
REMARK  5 active torsions:
REMARK  status: ('A' for Active; 'I' for Inactive)
REMARK    1  A    between atoms: C_2  and  N_3 
REMARK    2  A    between atoms: C_2  and  C_15 
REMARK    3  A    between atoms: N_3  and  C_4 
REMARK    4  A    between atoms: C_4  and  C_5 
REMARK       I    between atoms: C_5  and  N_7 
REMARK    5  A    between atoms: C_15  and  N_17 
ROOT
HETATM    1  N   UNL     1     -40.258 -50.316  10.939  1.00  0.00     0.098 N 
HETATM    2  H   UNL     1     -39.867 -51.182  10.564  1.00  0.00     0.317 HD
ENDROOT
BRANCH   1   3
HETATM    3  C   UNL     1     -39.208 -49.361  11.336  1.00  0.00     0.241 C 
HETATM    4  C   UNL     1     -37.921 -50.109  11.719  1.00  0.00     0.045 C 
BRANCH   3   5
HETATM    5  C   UNL     1     -39.661 -48.345  12.435  1.00  0.00     0.136 C 
HETATM    6  C   UNL     1     -38.768 -48.355  13.680  1.00  0.00     0.036 C 
BRANCH   5   7
HETATM    7  N   UNL     1     -39.770 -46.975  11.925  1.00  0.00    -0.297 N 
HETATM    8  C   UNL     1     -39.727 -45.812  12.645  1.00  0.00     0.112 A 
HETATM    9  C   UNL     1     -39.903 -44.793  11.738  1.00  0.00     0.037 A 
HETATM   10  C   UNL     1     -40.076 -45.444  10.505  1.00  0.00     0.108 A 
HETATM   11  N   UNL     1     -40.035 -46.774  10.618  1.00  0.00    -0.310 N 
ATOM     12  HN  UNL     1     -40.173 -47.472   9.888  1.00  0.00     0.186 HD
ENDBRANCH   5   7
ENDBRANCH   3   5
ENDBRANCH   1   3
BRANCH   1  13
HETATM   13  C   UNL     1     -41.228 -50.640  11.997  1.00  0.00     0.372 C 
BRANCH  13  14
HETATM   14  C   UNL     1     -41.242 -52.142  12.317  1.00  0.00     0.248 C 
HETATM   15  O   UNL     1     -40.227 -52.838  12.239  1.00  0.00    -0.271 OA
HETATM   16  N   UNL     1     -42.451 -52.655  12.772  1.00  0.00    -0.346 N 
HETATM   17  C   UNL     1     -43.693 -51.901  12.990  1.00  0.00     0.157 C 
HETATM   18  C   UNL     1     -42.495 -54.009  13.318  1.00  0.00     0.157 C 
HETATM   19  C   UNL     1     -44.079 -51.922  14.484  1.00  0.00     0.136 C 
HETATM   20  C   UNL     1     -45.460 -51.315  14.697  1.00  0.00     0.041 C 
HETATM   21  O   UNL     1     -44.113 -53.270  14.993  1.00  0.00    -0.378 OA
HETATM   22  C   UNL     1     -42.842 -53.931  14.814  1.00  0.00     0.136 C 
HETATM   23  C   UNL     1     -42.938 -55.317  15.430  1.00  0.00     0.041 C 
ENDBRANCH  13  14
ENDBRANCH   1  13
TORSDOF 5
ENDMDL
MODEL 4
REMARK VINA RESULT:      -6.0      2.014      3.609
REMARK  5 active torsions:
REMARK  status: ('A' for Active; 'I' for Inactive)
REMARK    1  A    between atoms: C_2  and  N_3 
REMARK    2  A    between atoms: C_2  and  C_15 
REMARK    3  A    between atoms: N_3  and  C_4 
REMARK    4  A    between atoms: C_4  and  C_5 
REMARK       I    between atoms: C_5  and  N_7 
REMARK    5  A    between atoms: C_15  and  N_17 
ROOT
HETATM    1  N   UNL     1     -42.041 -50.452  11.768  1.00  0.00     0.098 N 
HETATM    2  H   UNL     1     -41.175 -50.938  11.530  1.00  0.00     0.317 HD
ENDROOT
BRANCH   1   3
HETATM    3  C   UNL     1     -41.834 -49.002  11.930  1.00  0.00     0.241 C 
HETATM    4  C   UNL     1     -43.076 -48.227  11.463  1.00  0.00     0.045 C 
BRANCH   3   5
HETATM    5  C   UNL     1     -40.515 -48.475  11.273  1.00  0.00     0.136 C 
HETATM    6  C   UNL     1     -40.333 -46.959  11.406  1.00  0.00     0.036 C 
BRANCH   5   7
HETATM    7  N   UNL     1     -39.321 -49.156  11.781  1.00  0.00    -0.297 N 
HETATM    8  C   UNL     1     -38.754 -49.029  13.021  1.00  0.00     0.112 A 
HETATM    9  C   UNL     1     -37.640 -49.836  13.017  1.00  0.00     0.037 A 
HETATM   10  C   UNL     1     -37.603 -50.379  11.721  1.00  0.00     0.108 A 
HETATM   11  N   UNL     1     -38.602 -49.938  10.952  1.00  0.00    -0.310 N 
ATOM     12  HN  UNL     1     -38.778 -50.145   9.969  1.00  0.00     0.186 HD
ENDBRANCH   5   7
ENDBRANCH   3   5
ENDBRANCH   1   3
BRANCH   1  13
HETATM   13  C   UNL     1     -42.669 -51.118  12.920  1.00  0.00     0.372 C 
BRANCH  13  14
HETATM   14  C   UNL     1     -41.717 -52.119  13.589  1.00  0.00     0.248 C 
HETATM   15  O   UNL     1     -40.654 -51.767  14.108  1.00  0.00    -0.271 OA
HETATM   16  N   UNL     1     -42.158 -53.436  13.641  1.00  0.00    -0.346 N 
HETATM   17  C   UNL     1     -43.440 -53.948  13.139  1.00  0.00     0.157 C 
HETATM   18  C   UNL     1     -41.430 -54.404  14.457  1.00  0.00     0.157 C 
HETATM   19  C   UNL     1     -44.293 -54.495  14.303  1.00  0.00     0.136 C 
HETATM   20  C   UNL     1     -45.535 -55.204  13.779  1.00  0.00     0.041 C 
HETATM   21  O   UNL     1     -43.548 -55.446  15.090  1.00  0.00    -0.378 OA
HETATM   22  C   UNL     1     -42.337 -54.861  15.613  1.00  0.00     0.136 C 
HETATM   23  C   UNL     1     -41.644 -55.899  16.479  1.00  0.00     0.041 C 
ENDBRANCH  13  14
ENDBRANCH   1  13
TORSDOF 5
ENDMDL
MODEL 5
REMARK VINA RESULT:      -5.9      1.646      2.209
REMARK  5 active torsions:
REMARK  status: ('A' for Active; 'I' for Inactive)
REMARK    1  A    between atoms: C_2  and  N_3 
REMARK    2  A    between atoms: C_2  and  C_15 
REMARK    3  A    between atoms: N_3  and  C_4 
REMARK    4  A    between atoms: C_4  and  C_5 
REMARK       I    between atoms: C_5  and  N_7 
REMARK    5  A    between atoms: C_15  and  N_17 
ROOT
HETATM    1  N   UNL     1     -41.152 -50.114  11.247  1.00  0.00     0.098 N 
HETATM    2  H   UNL     1     -40.132 -50.113  11.221  1.00  0.00     0.317 HD
ENDROOT
BRANCH   1   3
HETATM    3  C   UNL     1     -41.698 -48.793  11.607  1.00  0.00     0.241 C 
HETATM    4  C   UNL     1     -42.986 -48.951  12.429  1.00  0.00     0.045 C 
BRANCH   3   5
HETATM    5  C   UNL     1     -41.878 -47.831  10.387  1.00  0.00     0.136 C 
HETATM    6  C   UNL     1     -43.339 -47.647   9.967  1.00  0.00     0.036 C 
BRANCH   5   7
HETATM    7  N   UNL     1     -41.266 -46.517  10.611  1.00  0.00    -0.297 N 
HETATM    8  C   UNL     1     -41.898 -45.353  10.954  1.00  0.00     0.112 A 
HETATM    9  C   UNL     1     -40.917 -44.390  11.019  1.00  0.00     0.037 A 
HETATM   10  C   UNL     1     -39.736 -45.065  10.667  1.00  0.00     0.108 A 
HETATM   11  N   UNL     1     -39.948 -46.352  10.379  1.00  0.00    -0.310 N 
ATOM     12  HN  UNL     1     -39.272 -47.045  10.059  1.00  0.00     0.186 HD
ENDBRANCH   5   7
ENDBRANCH   3   5
ENDBRANCH   1   3
BRANCH   1  13
HETATM   13  C   UNL     1     -41.613 -51.224  12.097  1.00  0.00     0.372 C 
BRANCH  13  14
HETATM   14  C   UNL     1     -40.449 -52.112  12.557  1.00  0.00     0.248 C 
HETATM   15  O   UNL     1     -39.283 -51.709  12.572  1.00  0.00    -0.271 OA
HETATM   16  N   UNL     1     -40.795 -53.375  13.025  1.00  0.00    -0.346 N 
HETATM   17  C   UNL     1     -42.154 -53.922  13.136  1.00  0.00     0.157 C 
HETATM   18  C   UNL     1     -39.786 -54.193  13.693  1.00  0.00     0.157 C 
HETATM   19  C   UNL     1     -42.503 -54.195  14.615  1.00  0.00     0.136 C 
HETATM   20  C   UNL     1     -43.825 -54.942  14.731  1.00  0.00     0.041 C 
HETATM   21  O   UNL     1     -41.490 -55.002  15.247  1.00  0.00    -0.378 OA
HETATM   22  C   UNL     1     -40.192 -54.375  15.166  1.00  0.00     0.136 C 
HETATM   23  C   UNL     1     -39.196 -55.251  15.906  1.00  0.00     0.041 C 
ENDBRANCH  13  14
ENDBRANCH   1  13
TORSDOF 5
ENDMDL
MODEL 6
REMARK VINA RESULT:      -5.9      1.838      2.720
REMARK  5 active torsions:
REMARK  status: ('A' for Active; 'I' for Inactive)
REMARK    1  A    between atoms: C_2  and  N_3 
REMARK    2  A    between atoms: C_2  and  C_15 
REMARK    3  A    between atoms: N_3  and  C_4 
REMARK    4  A    between atoms: C_4  and  C_5 
REMARK       I    between atoms: C_5  and  N_7 
REMARK    5  A    between atoms: C_15  and  N_17 
ROOT
HETATM    1  N   UNL     1     -41.837 -49.981  11.525  1.00  0.00     0.098 N 
HETATM    2  H   UNL     1     -41.478 -50.883  11.210  1.00  0.00     0.317 HD
ENDROOT
BRANCH   1   3
HETATM    3  C   UNL     1     -41.040 -48.855  11.006  1.00  0.00     0.241 C 
HETATM    4  C   UNL     1     -39.730 -48.717  11.796  1.00  0.00     0.045 C 
BRANCH   3   5
HETATM    5  C   UNL     1     -41.832 -47.509  10.917  1.00  0.00     0.136 C 
HETATM    6  C   UNL     1     -40.938 -46.293  10.651  1.00  0.00     0.036 C 
BRANCH   5   7
HETATM    7  N   UNL     1     -42.906 -47.552   9.920  1.00  0.00    -0.297 N 
HETATM    8  C   UNL     1     -44.249 -47.403  10.136  1.00  0.00     0.112 A 
HETATM    9  C   UNL     1     -44.853 -47.553   8.909  1.00  0.00     0.037 A 
HETATM   10  C   UNL     1     -43.794 -47.821   8.025  1.00  0.00     0.108 A 
HETATM   11  N   UNL     1     -42.610 -47.861   8.641  1.00  0.00    -0.310 N 
ATOM     12  HN  UNL     1     -41.698 -48.075   8.239  1.00  0.00     0.186 HD
ENDBRANCH   5   7
ENDBRANCH   3   5
ENDBRANCH   1   3
BRANCH   1  13
HETATM   13  C   UNL     1     -41.990 -50.005  12.989  1.00  0.00     0.372 C 
BRANCH  13  14
HETATM   14  C   UNL     1     -43.255 -50.760  13.418  1.00  0.00     0.248 C 
HETATM   15  O   UNL     1     -44.381 -50.418  13.046  1.00  0.00    -0.271 OA
HETATM   16  N   UNL     1     -43.052 -51.897  14.193  1.00  0.00    -0.346 N 
HETATM   17  C   UNL     1     -41.756 -52.444  14.616  1.00  0.00     0.157 C 
HETATM   18  C   UNL     1     -44.172 -52.799  14.449  1.00  0.00     0.157 C 
HETATM   19  C   UNL     1     -41.537 -53.843  14.000  1.00  0.00     0.136 C 
HETATM   20  C   UNL     1     -40.295 -54.504  14.583  1.00  0.00     0.041 C 
HETATM   21  O   UNL     1     -42.658 -54.709  14.269  1.00  0.00    -0.378 OA
HETATM   22  C   UNL     1     -43.889 -54.148  13.765  1.00  0.00     0.136 C 
HETATM   23  C   UNL     1     -45.006 -55.143  14.028  1.00  0.00     0.041 C 
ENDBRANCH  13  14
ENDBRANCH   1  13
TORSDOF 5
ENDMDL
MODEL 7
REMARK VINA RESULT:      -5.9      2.602      7.241
REMARK  5 active torsions:
REMARK  status: ('A' for Active; 'I' for Inactive)
REMARK    1  A    between atoms: C_2  and  N_3 
REMARK    2  A    between atoms: C_2  and  C_15 
REMARK    3  A    between atoms: N_3  and  C_4 
REMARK    4  A    between atoms: C_4  and  C_5 
REMARK       I    between atoms: C_5  and  N_7 
REMARK    5  A    between atoms: C_15  and  N_17 
ROOT
HETATM    1  N   UNL     1     -40.379 -50.955  11.749  1.00  0.00     0.098 N 
HETATM    2  H   UNL     1     -40.477 -51.499  10.891  1.00  0.00     0.317 HD
ENDROOT
BRANCH   1   3
HETATM    3  C   UNL     1     -40.421 -51.805  12.952  1.00  0.00     0.241 C 
HETATM    4  C   UNL     1     -39.085 -51.731  13.708  1.00  0.00     0.045 C 
BRANCH   3   5
HETATM    5  C   UNL     1     -40.870 -53.277  12.669  1.00  0.00     0.136 C 
HETATM    6  C   UNL     1     -40.093 -54.317  13.483  1.00  0.00     0.036 C 
BRANCH   5   7
HETATM    7  N   UNL     1     -42.308 -53.475  12.871  1.00  0.00    -0.297 N 
HETATM    8  C   UNL     1     -42.919 -54.188  13.867  1.00  0.00     0.112 A 
HETATM    9  C   UNL     1     -44.270 -54.113  13.618  1.00  0.00     0.037 A 
HETATM   10  C   UNL     1     -44.370 -53.362  12.435  1.00  0.00     0.108 A 
HETATM   11  N   UNL     1     -43.177 -53.005  11.953  1.00  0.00    -0.310 N 
ATOM     12  HN  UNL     1     -42.971 -52.496  11.093  1.00  0.00     0.186 HD
ENDBRANCH   5   7
ENDBRANCH   3   5
ENDBRANCH   1   3
BRANCH   1  13
HETATM   13  C   UNL     1     -41.355 -49.854  11.739  1.00  0.00     0.372 C 
BRANCH  13  14
HETATM   14  C   UNL     1     -40.711 -48.516  12.130  1.00  0.00     0.248 C 
HETATM   15  O   UNL     1     -39.588 -48.453  12.637  1.00  0.00    -0.271 OA
HETATM   16  N   UNL     1     -41.438 -47.375  11.811  1.00  0.00    -0.346 N 
HETATM   17  C   UNL     1     -42.737 -47.330  11.127  1.00  0.00     0.157 C 
HETATM   18  C   UNL     1     -40.805 -46.064  11.934  1.00  0.00     0.157 C 
HETATM   19  C   UNL     1     -42.604 -46.611   9.767  1.00  0.00     0.136 C 
HETATM   20  C   UNL     1     -43.972 -46.383   9.138  1.00  0.00     0.041 C 
HETATM   21  O   UNL     1     -41.976 -45.323   9.921  1.00  0.00    -0.378 OA
HETATM   22  C   UNL     1     -40.673 -45.443  10.532  1.00  0.00     0.136 C 
HETATM   23  C   UNL     1     -40.053 -44.058  10.601  1.00  0.00     0.041 C 
ENDBRANCH  13  14
ENDBRANCH   1  13
TORSDOF 5
ENDMDL
MODEL 8
REMARK VINA RESULT:      -5.8      1.977      2.595
REMARK  5 active torsions:
REMARK  status: ('A' for Active; 'I' for Inactive)
REMARK    1  A    between atoms: C_2  and  N_3 
REMARK    2  A    between atoms: C_2  and  C_15 
REMARK    3  A    between atoms: N_3  and  C_4 
REMARK    4  A    between atoms: C_4  and  C_5 
REMARK       I    between atoms: C_5  and  N_7 
REMARK    5  A    between atoms: C_15  and  N_17 
ROOT
HETATM    1  N   UNL     1     -41.817 -50.809  11.866  1.00  0.00     0.098 N 
HETATM    2  H   UNL     1     -42.732 -50.713  11.423  1.00  0.00     0.317 HD
ENDROOT
BRANCH   1   3
HETATM    3  C   UNL     1     -40.850 -49.821  11.356  1.00  0.00     0.241 C 
HETATM    4  C   UNL     1     -39.452 -50.093  11.933  1.00  0.00     0.045 C 
BRANCH   3   5
HETATM    5  C   UNL     1     -41.301 -48.336  11.551  1.00  0.00     0.136 C 
HETATM    6  C   UNL     1     -40.155 -47.329  11.413  1.00  0.00     0.036 C 
BRANCH   5   7
HETATM    7  N   UNL     1     -42.394 -47.957  10.650  1.00  0.00    -0.297 N 
HETATM    8  C   UNL     1     -43.670 -47.600  10.993  1.00  0.00     0.112 A 
HETATM    9  C   UNL     1     -44.333 -47.366   9.811  1.00  0.00     0.037 A 
HETATM   10  C   UNL     1     -43.382 -47.639   8.813  1.00  0.00     0.108 A 
HETATM   11  N   UNL     1     -42.211 -48.038   9.316  1.00  0.00    -0.310 N 
ATOM     12  HN  UNL     1     -41.376 -48.334   8.811  1.00  0.00     0.186 HD
ENDBRANCH   5   7
ENDBRANCH   3   5
ENDBRANCH   1   3
BRANCH   1  13
HETATM   13  C   UNL     1     -41.377 -52.210  11.770  1.00  0.00     0.372 C 
BRANCH  13  14
HETATM   14  C   UNL     1     -41.602 -52.970  13.085  1.00  0.00     0.248 C 
HETATM   15  O   UNL     1     -40.702 -53.126  13.914  1.00  0.00    -0.271 OA
HETATM   16  N   UNL     1     -42.900 -53.409  13.319  1.00  0.00    -0.346 N 
HETATM   17  C   UNL     1     -44.063 -53.199  12.447  1.00  0.00     0.157 C 
HETATM   18  C   UNL     1     -43.253 -53.931  14.637  1.00  0.00     0.157 C 
HETATM   19  C   UNL     1     -45.120 -52.329  13.161  1.00  0.00     0.136 C 
HETATM   20  C   UNL     1     -46.409 -52.266  12.351  1.00  0.00     0.041 C 
HETATM   21  O   UNL     1     -45.447 -52.869  14.458  1.00  0.00    -0.378 OA
HETATM   22  C   UNL     1     -44.273 -52.982  15.290  1.00  0.00     0.136 C 
HETATM   23  C   UNL     1     -44.707 -53.495  16.653  1.00  0.00     0.041 C 
ENDBRANCH  13  14
ENDBRANCH   1  13
TORSDOF 5
ENDMDL
MODEL 9
REMARK VINA RESULT:      -5.7      3.606      5.902
REMARK  5 active torsions:
REMARK  status: ('A' for Active; 'I' for Inactive)
REMARK    1  A    between atoms: C_2  and  N_3 
REMARK    2  A    between atoms: C_2  and  C_15 
REMARK    3  A    between atoms: N_3  and  C_4 
REMARK    4  A    between atoms: C_4  and  C_5 
REMARK       I    between atoms: C_5  and  N_7 
REMARK    5  A    between atoms: C_15  and  N_17 
ROOT
HETATM    1  N   UNL     1     -42.152 -54.066  12.750  1.00  0.00     0.098 N 
HETATM    2  H   UNL     1     -42.444 -53.598  11.891  1.00  0.00     0.317 HD
ENDROOT
BRANCH   1   3
HETATM    3  C   UNL     1     -43.216 -54.063  13.770  1.00  0.00     0.241 C 
HETATM    4  C   UNL     1     -42.882 -55.053  14.897  1.00  0.00     0.045 C 
BRANCH   3   5
HETATM    5  C   UNL     1     -44.651 -54.280  13.186  1.00  0.00     0.136 C 
HETATM    6  C   UNL     1     -45.409 -55.435  13.848  1.00  0.00     0.036 C 
BRANCH   5   7
HETATM    7  N   UNL     1     -45.470 -53.066  13.239  1.00  0.00    -0.297 N 
HETATM    8  C   UNL     1     -45.991 -52.460  14.350  1.00  0.00     0.112 A 
HETATM    9  C   UNL     1     -46.709 -51.378  13.896  1.00  0.00     0.037 A 
HETATM   10  C   UNL     1     -46.587 -51.436  12.498  1.00  0.00     0.108 A 
HETATM   11  N   UNL     1     -45.867 -52.484  12.089  1.00  0.00    -0.310 N 
ATOM     12  HN  UNL     1     -45.665 -52.775  11.133  1.00  0.00     0.186 HD
ENDBRANCH   5   7
ENDBRANCH   3   5
ENDBRANCH   1   3
BRANCH   1  13
HETATM   13  C   UNL     1     -40.868 -53.503  13.197  1.00  0.00     0.372 C 
BRANCH  13  14
HETATM   14  C   UNL     1     -40.549 -52.178  12.489  1.00  0.00     0.248 C 
HETATM   15  O   UNL     1     -41.233 -51.754  11.554  1.00  0.00    -0.271 OA
HETATM   16  N   UNL     1     -39.487 -51.450  13.013  1.00  0.00    -0.346 N 
HETATM   17  C   UNL     1     -38.667 -51.815  14.176  1.00  0.00     0.157 C 
HETATM   18  C   UNL     1     -39.262 -50.081  12.554  1.00  0.00     0.157 C 
HETATM   19  C   UNL     1     -38.846 -50.778  15.306  1.00  0.00     0.136 C 
HETATM   20  C   UNL     1     -37.858 -51.033  16.437  1.00  0.00     0.041 C 
HETATM   21  O   UNL     1     -38.618 -49.439  14.823  1.00  0.00    -0.378 OA
HETATM   22  C   UNL     1     -39.504 -49.117  13.729  1.00  0.00     0.136 C 
HETATM   23  C   UNL     1     -39.249 -47.677  13.320  1.00  0.00     0.041 C 
ENDBRANCH  13  14
ENDBRANCH   1  13
TORSDOF 5
ENDMDL
