MODEL 1
REMARK VINA RESULT:      -6.0      0.000      0.000
REMARK  3 active torsions:
REMARK  status: ('A' for Active; 'I' for Inactive)
REMARK    1  A    between atoms: C_6  and  N_8 
REMARK       I    between atoms: N_8  and  C_9 
REMARK    2  A    between atoms: C_9  and  C_11 
REMARK    3  A    between atoms: C_11  and  N_12 
ROOT
HETATM    1  N   UNL     1     -43.176 -51.233  12.517  1.00  0.00    -0.355 N 
HETATM    2  C   UNL     1     -42.402 -50.137  12.846  1.00  0.00     0.236 C 
HETATM    3  O   UNL     1     -42.526 -49.510  13.896  1.00  0.00    -0.272 OA
HETATM    4  H   UNL     1     -43.071 -51.649  11.596  1.00  0.00     0.162 HD
ENDROOT
BRANCH   2   5
HETATM    5  C   UNL     1     -41.413 -49.702  11.771  1.00  0.00     0.235 C 
BRANCH   5   6
HETATM    6  N   UNL     1     -41.762 -48.390  11.229  1.00  0.00    -0.301 N 
HETATM    7  C   UNL     1     -43.047 -48.157  10.796  1.00  0.00     0.102 A 
HETATM    8  C   UNL     1     -43.429 -46.963  10.350  1.00  0.00     0.092 A 
HETATM    9  C   UNL     1     -42.462 -45.853  10.339  1.00  0.00     0.252 A 
HETATM   10  O   UNL     1     -42.852 -44.736  10.010  1.00  0.00    -0.268 OA
HETATM   11  N   UNL     1     -41.169 -46.168  10.716  1.00  0.00    -0.271 N 
HETATM   12  C   UNL     1     -40.174 -45.114  10.726  1.00  0.00     0.164 C 
HETATM   13  C   UNL     1     -40.762 -47.427  11.153  1.00  0.00     0.331 A 
HETATM   14  O   UNL     1     -39.596 -47.680  11.470  1.00  0.00    -0.246 OA
ENDBRANCH   5   6
ENDBRANCH   2   5
BRANCH   1  15
HETATM   15  C   UNL     1     -44.148 -51.784  13.448  1.00  0.00     0.084 C 
HETATM   16  C   UNL     1     -44.190 -53.315  13.365  1.00  0.00     0.025 C 
HETATM   17  C   UNL     1     -45.203 -53.901  14.346  1.00  0.00     0.002 C 
HETATM   18  C   UNL     1     -46.592 -53.284  14.175  1.00  0.00     0.004 C 
HETATM   19  C   UNL     1     -46.579 -51.747  14.203  1.00  0.00    -0.017 C 
HETATM   20  C   UNL     1     -46.339 -51.212  15.619  1.00  0.00     0.010 C 
HETATM   21  C   UNL     1     -45.545 -51.199  13.206  1.00  0.00     0.029 C 
ENDBRANCH   1  15
TORSDOF 3
ENDMDL
MODEL 2
REMARK VINA RESULT:      -6.0      2.832      7.250
REMARK  3 active torsions:
REMARK  status: ('A' for Active; 'I' for Inactive)
REMARK    1  A    between atoms: C_6  and  N_8 
REMARK       I    between atoms: N_8  and  C_9 
REMARK    2  A    between atoms: C_9  and  C_11 
REMARK    3  A    between atoms: C_11  and  N_12 
ROOT
HETATM    1  N   UNL     1     -41.680 -50.392  11.512  1.00  0.00    -0.355 N 
HETATM    2  C   UNL     1     -41.016 -51.248  12.368  1.00  0.00     0.236 C 
HETATM    3  O   UNL     1     -40.314 -50.864  13.302  1.00  0.00    -0.272 OA
HETATM    4  H   UNL     1     -42.174 -50.783  10.714  1.00  0.00     0.162 HD
ENDROOT
BRANCH   2   5
HETATM    5  C   UNL     1     -41.155 -52.729  12.034  1.00  0.00     0.235 C 
BRANCH   5   6
HETATM    6  N   UNL     1     -42.238 -53.346  12.798  1.00  0.00    -0.301 N 
HETATM    7  C   UNL     1     -43.537 -53.192  12.374  1.00  0.00     0.102 A 
HETATM    8  C   UNL     1     -44.552 -53.782  13.000  1.00  0.00     0.092 A 
HETATM    9  C   UNL     1     -44.280 -54.643  14.163  1.00  0.00     0.252 A 
HETATM   10  O   UNL     1     -45.215 -55.253  14.676  1.00  0.00    -0.268 OA
HETATM   11  N   UNL     1     -42.964 -54.700  14.584  1.00  0.00    -0.271 N 
HETATM   12  C   UNL     1     -42.637 -55.533  15.724  1.00  0.00     0.164 C 
HETATM   13  C   UNL     1     -41.906 -54.055  13.947  1.00  0.00     0.331 A 
HETATM   14  O   UNL     1     -40.743 -54.114  14.356  1.00  0.00    -0.246 OA
ENDBRANCH   5   6
ENDBRANCH   2   5
BRANCH   1  15
HETATM   15  C   UNL     1     -41.665 -48.952  11.713  1.00  0.00     0.084 C 
HETATM   16  C   UNL     1     -42.869 -48.495  12.545  1.00  0.00     0.025 C 
HETATM   17  C   UNL     1     -42.854 -46.984  12.767  1.00  0.00     0.002 C 
HETATM   18  C   UNL     1     -42.745 -46.211  11.452  1.00  0.00     0.004 C 
HETATM   19  C   UNL     1     -41.577 -46.679  10.570  1.00  0.00    -0.017 C 
HETATM   20  C   UNL     1     -40.227 -46.224  11.135  1.00  0.00     0.010 C 
HETATM   21  C   UNL     1     -41.626 -48.204  10.375  1.00  0.00     0.029 C 
ENDBRANCH   1  15
TORSDOF 3
ENDMDL
MODEL 3
REMARK VINA RESULT:      -5.9      2.841      7.346
REMARK  3 active torsions:
REMARK  status: ('A' for Active; 'I' for Inactive)
REMARK    1  A    between atoms: C_6  and  N_8 
REMARK       I    between atoms: N_8  and  C_9 
REMARK    2  A    between atoms: C_9  and  C_11 
REMARK    3  A    between atoms: C_11  and  N_12 
ROOT
HETATM    1  N   UNL     1     -41.800 -50.668  11.735  1.00  0.00    -0.355 N 
HETATM    2  C   UNL     1     -40.870 -51.511  12.308  1.00  0.00     0.236 C 
HETATM    3  O   UNL     1     -39.892 -51.114  12.939  1.00  0.00    -0.272 OA
HETATM    4  H   UNL     1     -42.537 -51.069  11.159  1.00  0.00     0.162 HD
ENDROOT
BRANCH   2   5
HETATM    5  C   UNL     1     -41.097 -52.996  12.044  1.00  0.00     0.235 C 
BRANCH   5   6
HETATM    6  N   UNL     1     -41.822 -53.625  13.147  1.00  0.00    -0.301 N 
HETATM    7  C   UNL     1     -41.117 -54.185  14.187  1.00  0.00     0.102 A 
HETATM    8  C   UNL     1     -41.731 -54.717  15.241  1.00  0.00     0.092 A 
HETATM    9  C   UNL     1     -43.202 -54.688  15.311  1.00  0.00     0.252 A 
HETATM   10  O   UNL     1     -43.751 -55.101  16.329  1.00  0.00    -0.268 OA
HETATM   11  N   UNL     1     -43.854 -54.179  14.203  1.00  0.00    -0.271 N 
HETATM   12  C   UNL     1     -45.302 -54.124  14.217  1.00  0.00     0.164 C 
HETATM   13  C   UNL     1     -43.211 -53.651  13.086  1.00  0.00     0.331 A 
HETATM   14  O   UNL     1     -43.823 -53.216  12.105  1.00  0.00    -0.246 OA
ENDBRANCH   5   6
ENDBRANCH   2   5
BRANCH   1  15
HETATM   15  C   UNL     1     -41.735 -49.227  11.916  1.00  0.00     0.084 C 
HETATM   16  C   UNL     1     -42.989 -48.699  12.624  1.00  0.00     0.025 C 
HETATM   17  C   UNL     1     -42.922 -47.186  12.826  1.00  0.00     0.002 C 
HETATM   18  C   UNL     1     -42.652 -46.443  11.517  1.00  0.00     0.004 C 
HETATM   19  C   UNL     1     -41.430 -46.981  10.757  1.00  0.00    -0.017 C 
HETATM   20  C   UNL     1     -40.119 -46.580  11.441  1.00  0.00     0.010 C 
HETATM   21  C   UNL     1     -41.534 -48.505  10.579  1.00  0.00     0.029 C 
ENDBRANCH   1  15
TORSDOF 3
ENDMDL
MODEL 4
REMARK VINA RESULT:      -5.8      2.281      2.835
REMARK  3 active torsions:
REMARK  status: ('A' for Active; 'I' for Inactive)
REMARK    1  A    between atoms: C_6  and  N_8 
REMARK       I    between atoms: N_8  and  C_9 
REMARK    2  A    between atoms: C_9  and  C_11 
REMARK    3  A    between atoms: C_11  and  N_12 
ROOT
HETATM    1  N   UNL     1     -43.444 -52.031  12.690  1.00  0.00    -0.355 N 
HETATM    2  C   UNL     1     -42.113 -52.319  12.915  1.00  0.00     0.236 C 
HETATM    3  O   UNL     1     -41.685 -52.765  13.978  1.00  0.00    -0.272 OA
HETATM    4  H   UNL     1     -43.709 -51.587  11.815  1.00  0.00     0.162 HD
ENDROOT
BRANCH   2   5
HETATM    5  C   UNL     1     -41.176 -51.974  11.763  1.00  0.00     0.235 C 
BRANCH   5   6
HETATM    6  N   UNL     1     -40.642 -50.621  11.900  1.00  0.00    -0.301 N 
HETATM    7  C   UNL     1     -41.376 -49.553  11.439  1.00  0.00     0.102 A 
HETATM    8  C   UNL     1     -40.960 -48.299  11.595  1.00  0.00     0.092 A 
HETATM    9  C   UNL     1     -39.692 -48.040  12.298  1.00  0.00     0.252 A 
HETATM   10  O   UNL     1     -39.365 -46.876  12.514  1.00  0.00    -0.268 OA
HETATM   11  N   UNL     1     -38.965 -49.156  12.673  1.00  0.00    -0.271 N 
HETATM   12  C   UNL     1     -37.710 -48.961  13.370  1.00  0.00     0.164 C 
HETATM   13  C   UNL     1     -39.386 -50.469  12.481  1.00  0.00     0.331 A 
HETATM   14  O   UNL     1     -38.707 -51.445  12.815  1.00  0.00    -0.246 OA
ENDBRANCH   5   6
ENDBRANCH   2   5
BRANCH   1  15
HETATM   15  C   UNL     1     -44.465 -52.325  13.684  1.00  0.00     0.084 C 
HETATM   16  C   UNL     1     -44.900 -53.795  13.614  1.00  0.00     0.025 C 
HETATM   17  C   UNL     1     -45.966 -54.112  14.662  1.00  0.00     0.002 C 
HETATM   18  C   UNL     1     -47.159 -53.160  14.574  1.00  0.00     0.004 C 
HETATM   19  C   UNL     1     -46.753 -51.677  14.591  1.00  0.00    -0.017 C 
HETATM   20  C   UNL     1     -46.297 -51.234  15.984  1.00  0.00     0.010 C 
HETATM   21  C   UNL     1     -45.678 -51.401  13.527  1.00  0.00     0.029 C 
ENDBRANCH   1  15
TORSDOF 3
ENDMDL
MODEL 5
REMARK VINA RESULT:      -5.8      5.031      7.713
REMARK  3 active torsions:
REMARK  status: ('A' for Active; 'I' for Inactive)
REMARK    1  A    between atoms: C_6  and  N_8 
REMARK       I    between atoms: N_8  and  C_9 
REMARK    2  A    between atoms: C_9  and  C_11 
REMARK    3  A    between atoms: C_11  and  N_12 
ROOT
HETATM    1  N   UNL     1     -43.375 -53.901  14.448  1.00  0.00    -0.355 N 
HETATM    2  C   UNL     1     -44.414 -54.235  13.602  1.00  0.00     0.236 C 
HETATM    3  O   UNL     1     -44.335 -54.181  12.376  1.00  0.00    -0.272 OA
HETATM    4  H   UNL     1     -43.542 -53.892  15.451  1.00  0.00     0.162 HD
ENDROOT
BRANCH   2   5
HETATM    5  C   UNL     1     -45.715 -54.615  14.300  1.00  0.00     0.235 C 
BRANCH   5   6
HETATM    6  N   UNL     1     -46.179 -53.542  15.178  1.00  0.00    -0.301 N 
HETATM    7  C   UNL     1     -46.752 -52.418  14.630  1.00  0.00     0.102 A 
HETATM    8  C   UNL     1     -47.242 -51.441  15.389  1.00  0.00     0.092 A 
HETATM    9  C   UNL     1     -47.193 -51.573  16.855  1.00  0.00     0.252 A 
HETATM   10  O   UNL     1     -47.730 -50.707  17.541  1.00  0.00    -0.268 OA
HETATM   11  N   UNL     1     -46.540 -52.689  17.345  1.00  0.00    -0.271 N 
HETATM   12  C   UNL     1     -46.463 -52.871  18.780  1.00  0.00     0.164 C 
HETATM   13  C   UNL     1     -45.999 -53.695  16.549  1.00  0.00     0.331 A 
HETATM   14  O   UNL     1     -45.408 -54.674  17.017  1.00  0.00    -0.246 OA
ENDBRANCH   5   6
ENDBRANCH   2   5
BRANCH   1  15
HETATM   15  C   UNL     1     -42.063 -53.541  13.935  1.00  0.00     0.084 C 
HETATM   16  C   UNL     1     -40.983 -54.501  14.452  1.00  0.00     0.025 C 
HETATM   17  C   UNL     1     -39.603 -54.132  13.910  1.00  0.00     0.002 C 
HETATM   18  C   UNL     1     -39.247 -52.671  14.188  1.00  0.00     0.004 C 
HETATM   19  C   UNL     1     -40.333 -51.686  13.727  1.00  0.00    -0.017 C 
HETATM   20  C   UNL     1     -40.363 -51.555  12.200  1.00  0.00     0.010 C 
HETATM   21  C   UNL     1     -41.704 -52.094  14.290  1.00  0.00     0.029 C 
ENDBRANCH   1  15
TORSDOF 3
ENDMDL
MODEL 6
REMARK VINA RESULT:      -5.7      1.695      2.290
REMARK  3 active torsions:
REMARK  status: ('A' for Active; 'I' for Inactive)
REMARK    1  A    between atoms: C_6  and  N_8 
REMARK       I    between atoms: N_8  and  C_9 
REMARK    2  A    between atoms: C_9  and  C_11 
REMARK    3  A    between atoms: C_11  and  N_12 
ROOT
HETATM    1  N   UNL     1     -42.646 -51.187  12.324  1.00  0.00    -0.355 N 
HETATM    2  C   UNL     1     -41.339 -51.169  12.768  1.00  0.00     0.236 C 
HETATM    3  O   UNL     1     -40.994 -51.571  13.878  1.00  0.00    -0.272 OA
HETATM    4  H   UNL     1     -42.865 -50.761  11.427  1.00  0.00     0.162 HD
ENDROOT
BRANCH   2   5
HETATM    5  C   UNL     1     -40.340 -50.540  11.804  1.00  0.00     0.235 C 
BRANCH   5   6
HETATM    6  N   UNL     1     -40.194 -49.106  12.052  1.00  0.00    -0.301 N 
HETATM    7  C   UNL     1     -39.374 -48.675  13.068  1.00  0.00     0.102 A 
HETATM    8  C   UNL     1     -39.163 -47.381  13.296  1.00  0.00     0.092 A 
HETATM    9  C   UNL     1     -39.803 -46.382  12.425  1.00  0.00     0.252 A 
HETATM   10  O   UNL     1     -39.527 -45.195  12.589  1.00  0.00    -0.268 OA
HETATM   11  N   UNL     1     -40.672 -46.874  11.468  1.00  0.00    -0.271 N 
HETATM   12  C   UNL     1     -41.328 -45.935  10.581  1.00  0.00     0.164 C 
HETATM   13  C   UNL     1     -40.917 -48.227  11.251  1.00  0.00     0.331 A 
HETATM   14  O   UNL     1     -41.711 -48.636  10.398  1.00  0.00    -0.246 OA
ENDBRANCH   5   6
ENDBRANCH   2   5
BRANCH   1  15
HETATM   15  C   UNL     1     -43.712 -51.776  13.118  1.00  0.00     0.084 C 
HETATM   16  C   UNL     1     -44.150 -53.129  12.542  1.00  0.00     0.025 C 
HETATM   17  C   UNL     1     -45.264 -53.757  13.379  1.00  0.00     0.002 C 
HETATM   18  C   UNL     1     -46.448 -52.808  13.565  1.00  0.00     0.004 C 
HETATM   19  C   UNL     1     -46.036 -51.424  14.094  1.00  0.00    -0.017 C 
HETATM   20  C   UNL     1     -45.642 -51.482  15.574  1.00  0.00     0.010 C 
HETATM   21  C   UNL     1     -44.913 -50.830  13.230  1.00  0.00     0.029 C 
ENDBRANCH   1  15
TORSDOF 3
ENDMDL
MODEL 7
REMARK VINA RESULT:      -5.7      2.736      7.627
REMARK  3 active torsions:
REMARK  status: ('A' for Active; 'I' for Inactive)
REMARK    1  A    between atoms: C_6  and  N_8 
REMARK       I    between atoms: N_8  and  C_9 
REMARK    2  A    between atoms: C_9  and  C_11 
REMARK    3  A    between atoms: C_11  and  N_12 
ROOT
HETATM    1  N   UNL     1     -41.635 -50.043  11.389  1.00  0.00    -0.355 N 
HETATM    2  C   UNL     1     -41.905 -50.977  12.369  1.00  0.00     0.236 C 
HETATM    3  O   UNL     1     -42.116 -50.684  13.545  1.00  0.00    -0.272 OA
HETATM    4  H   UNL     1     -41.390 -50.368  10.457  1.00  0.00     0.162 HD
ENDROOT
BRANCH   2   5
HETATM    5  C   UNL     1     -41.853 -52.429  11.908  1.00  0.00     0.235 C 
BRANCH   5   6
HETATM    6  N   UNL     1     -42.286 -53.337  12.968  1.00  0.00    -0.301 N 
HETATM    7  C   UNL     1     -41.377 -53.761  13.909  1.00  0.00     0.102 A 
HETATM    8  C   UNL     1     -41.736 -54.541  14.927  1.00  0.00     0.092 A 
HETATM    9  C   UNL     1     -43.145 -54.943  15.066  1.00  0.00     0.252 A 
HETATM   10  O   UNL     1     -43.478 -55.587  16.058  1.00  0.00    -0.268 OA
HETATM   11  N   UNL     1     -43.995 -54.546  14.050  1.00  0.00    -0.271 N 
HETATM   12  C   UNL     1     -45.395 -54.913  14.135  1.00  0.00     0.164 C 
HETATM   13  C   UNL     1     -43.612 -53.757  12.968  1.00  0.00     0.331 A 
HETATM   14  O   UNL     1     -44.392 -53.431  12.068  1.00  0.00    -0.246 OA
ENDBRANCH   5   6
ENDBRANCH   2   5
BRANCH   1  15
HETATM   15  C   UNL     1     -41.671 -48.616  11.666  1.00  0.00     0.084 C 
HETATM   16  C   UNL     1     -42.756 -47.917  10.837  1.00  0.00     0.025 C 
HETATM   17  C   UNL     1     -42.804 -46.418  11.131  1.00  0.00     0.002 C 
HETATM   18  C   UNL     1     -41.438 -45.754  10.956  1.00  0.00     0.004 C 
HETATM   19  C   UNL     1     -40.318 -46.461  11.735  1.00  0.00    -0.017 C 
HETATM   20  C   UNL     1     -40.430 -46.204  13.241  1.00  0.00     0.010 C 
HETATM   21  C   UNL     1     -40.306 -47.965  11.415  1.00  0.00     0.029 C 
ENDBRANCH   1  15
TORSDOF 3
ENDMDL
MODEL 8
REMARK VINA RESULT:      -5.6      4.566      7.840
REMARK  3 active torsions:
REMARK  status: ('A' for Active; 'I' for Inactive)
REMARK    1  A    between atoms: C_6  and  N_8 
REMARK       I    between atoms: N_8  and  C_9 
REMARK    2  A    between atoms: C_9  and  C_11 
REMARK    3  A    between atoms: C_11  and  N_12 
ROOT
HETATM    1  N   UNL     1     -39.880 -51.946  14.815  1.00  0.00    -0.355 N 
HETATM    2  C   UNL     1     -40.053 -53.205  14.274  1.00  0.00     0.236 C 
HETATM    3  O   UNL     1     -39.404 -53.628  13.319  1.00  0.00    -0.272 OA
HETATM    4  H   UNL     1     -40.510 -51.637  15.550  1.00  0.00     0.162 HD
ENDROOT
BRANCH   2   5
HETATM    5  C   UNL     1     -41.171 -54.027  14.904  1.00  0.00     0.235 C 
BRANCH   5   6
HETATM    6  N   UNL     1     -42.452 -53.772  14.246  1.00  0.00    -0.301 N 
HETATM    7  C   UNL     1     -42.598 -52.652  13.461  1.00  0.00     0.102 A 
HETATM    8  C   UNL     1     -43.724 -52.406  12.795  1.00  0.00     0.092 A 
HETATM    9  C   UNL     1     -44.836 -53.367  12.879  1.00  0.00     0.252 A 
HETATM   10  O   UNL     1     -45.834 -53.174  12.189  1.00  0.00    -0.268 OA
HETATM   11  N   UNL     1     -44.656 -54.434  13.741  1.00  0.00    -0.271 N 
HETATM   12  C   UNL     1     -45.718 -55.413  13.862  1.00  0.00     0.164 C 
HETATM   13  C   UNL     1     -43.489 -54.673  14.463  1.00  0.00     0.331 A 
HETATM   14  O   UNL     1     -43.364 -55.628  15.235  1.00  0.00    -0.246 OA
ENDBRANCH   5   6
ENDBRANCH   2   5
BRANCH   1  15
HETATM   15  C   UNL     1     -38.837 -51.051  14.339  1.00  0.00     0.084 C 
HETATM   16  C   UNL     1     -38.133 -50.349  15.507  1.00  0.00     0.025 C 
HETATM   17  C   UNL     1     -37.030 -49.413  15.014  1.00  0.00     0.002 C 
HETATM   18  C   UNL     1     -37.546 -48.415  13.977  1.00  0.00     0.004 C 
HETATM   19  C   UNL     1     -38.301 -49.082  12.817  1.00  0.00    -0.017 C 
HETATM   20  C   UNL     1     -37.345 -49.816  11.871  1.00  0.00     0.010 C 
HETATM   21  C   UNL     1     -39.397 -50.017  13.355  1.00  0.00     0.029 C 
ENDBRANCH   1  15
TORSDOF 3
ENDMDL
MODEL 9
REMARK VINA RESULT:      -5.5      4.012      8.027
REMARK  3 active torsions:
REMARK  status: ('A' for Active; 'I' for Inactive)
REMARK    1  A    between atoms: C_6  and  N_8 
REMARK       I    between atoms: N_8  and  C_9 
REMARK    2  A    between atoms: C_9  and  C_11 
REMARK    3  A    between atoms: C_11  and  N_12 
ROOT
HETATM    1  N   UNL     1     -41.176 -51.266  12.443  1.00  0.00    -0.355 N 
HETATM    2  C   UNL     1     -41.512 -52.595  12.278  1.00  0.00     0.236 C 
HETATM    3  O   UNL     1     -40.682 -53.491  12.130  1.00  0.00    -0.272 OA
HETATM    4  H   UNL     1     -41.919 -50.572  12.477  1.00  0.00     0.162 HD
ENDROOT
BRANCH   2   5
HETATM    5  C   UNL     1     -43.008 -52.878  12.219  1.00  0.00     0.235 C 
BRANCH   5   6
HETATM    6  N   UNL     1     -43.503 -53.388  13.497  1.00  0.00    -0.301 N 
HETATM    7  C   UNL     1     -42.651 -53.451  14.575  1.00  0.00     0.102 A 
HETATM    8  C   UNL     1     -43.069 -53.851  15.774  1.00  0.00     0.092 A 
HETATM    9  C   UNL     1     -44.483 -54.215  15.961  1.00  0.00     0.252 A 
HETATM   10  O   UNL     1     -44.874 -54.495  17.091  1.00  0.00    -0.268 OA
HETATM   11  N   UNL     1     -45.271 -54.201  14.825  1.00  0.00    -0.271 N 
HETATM   12  C   UNL     1     -46.673 -54.548  14.950  1.00  0.00     0.164 C 
HETATM   13  C   UNL     1     -44.826 -53.812  13.564  1.00  0.00     0.331 A 
HETATM   14  O   UNL     1     -45.551 -53.824  12.564  1.00  0.00    -0.246 OA
ENDBRANCH   5   6
ENDBRANCH   2   5
BRANCH   1  15
HETATM   15  C   UNL     1     -39.790 -50.838  12.544  1.00  0.00     0.084 C 
HETATM   16  C   UNL     1     -39.360 -50.689  14.009  1.00  0.00     0.025 C 
HETATM   17  C   UNL     1     -37.901 -50.249  14.121  1.00  0.00     0.002 C 
HETATM   18  C   UNL     1     -37.621 -48.981  13.314  1.00  0.00     0.004 C 
HETATM   19  C   UNL     1     -38.085 -49.078  11.852  1.00  0.00    -0.017 C 
HETATM   20  C   UNL     1     -37.173 -49.996  11.031  1.00  0.00     0.010 C 
HETATM   21  C   UNL     1     -39.554 -49.528  11.783  1.00  0.00     0.029 C 
ENDBRANCH   1  15
TORSDOF 3
ENDMDL
