MODEL 1
REMARK VINA RESULT:      -6.5      0.000      0.000
REMARK  4 active torsions:
REMARK  status: ('A' for Active; 'I' for Inactive)
REMARK    1  A    between atoms: C_8  and  N_9 
REMARK       I    between atoms: N_9  and  C_10 
REMARK       I    between atoms: C_10  and  N_12 
REMARK    2  A    between atoms: N_12  and  C_13 
REMARK    3  A    between atoms: C_13  and  C_14 
REMARK    4  A    between atoms: C_14  and  C_15 
REMARK       I    between atoms: C_15  and  N_17 
ROOT
HETATM    1  N   UNL     1     -41.136 -49.200  10.606  1.00  0.00    -0.306 N 
HETATM    2  C   UNL     1     -41.082 -50.040  11.692  1.00  0.00     0.320 C 
HETATM    3  O   UNL     1     -41.222 -49.702  12.864  1.00  0.00    -0.247 OA
HETATM    4  N   UNL     1     -40.821 -51.345  11.358  1.00  0.00    -0.342 N 
HETATM    5  H   UNL     1     -41.228 -49.619   9.689  1.00  0.00     0.171 HD
HETATM    6  H   UNL     1     -41.018 -51.671  10.420  1.00  0.00     0.164 HD
ENDROOT
BRANCH   1   7
HETATM    7  C   UNL     1     -41.257 -47.789  10.671  1.00  0.00     0.077 A 
HETATM    8  C   UNL     1     -42.453 -47.192  10.280  1.00  0.00     0.158 A 
HETATM    9  F   UNL     1     -43.485 -47.936   9.853  1.00  0.00    -0.202 F 
HETATM   10  C   UNL     1     -42.579 -45.815  10.368  1.00  0.00     0.132 A 
HETATM   11  N   UNL     1     -41.590 -44.994  10.793  1.00  0.00    -0.372 N 
HETATM   12  C   UNL     1     -40.430 -45.589  11.143  1.00  0.00     0.090 A 
ATOM     13  HN  UNL     1     -41.714 -43.983  10.847  1.00  0.00     0.164 HD
HETATM   14  C   UNL     1     -40.216 -46.958  11.094  1.00  0.00     0.050 A 
ENDBRANCH   1   7
BRANCH   4  15
HETATM   15  C   UNL     1     -40.747 -52.362  12.401  1.00  0.00     0.133 C 
BRANCH  15  16
HETATM   16  C   UNL     1     -42.093 -53.043  12.646  1.00  0.00     0.122 C 
BRANCH  16  17
HETATM   17  C   UNL     1     -42.677 -52.617  13.980  1.00  0.00     0.221 C 
HETATM   18  O   UNL     1     -41.960 -52.538  14.981  1.00  0.00    -0.273 OA
HETATM   19  N   UNL     1     -44.036 -52.317  14.025  1.00  0.00    -0.352 N 
HETATM   20  C   UNL     1     -44.954 -52.510  12.901  1.00  0.00     0.125 C 
HETATM   21  C   UNL     1     -44.656 -52.240  15.347  1.00  0.00     0.125 C 
HETATM   22  C   UNL     1     -46.118 -51.521  12.928  1.00  0.00     0.020 C 
HETATM   23  C   UNL     1     -46.800 -51.473  14.290  1.00  0.00     0.003 C 
HETATM   24  C   UNL     1     -45.781 -51.215  15.391  1.00  0.00     0.020 C 
ENDBRANCH  16  17
ENDBRANCH  15  16
ENDBRANCH   4  15
TORSDOF 4
ENDMDL
MODEL 2
REMARK VINA RESULT:      -6.5      3.690      7.379
REMARK  4 active torsions:
REMARK  status: ('A' for Active; 'I' for Inactive)
REMARK    1  A    between atoms: C_8  and  N_9 
REMARK       I    between atoms: N_9  and  C_10 
REMARK       I    between atoms: C_10  and  N_12 
REMARK    2  A    between atoms: N_12  and  C_13 
REMARK    3  A    between atoms: C_13  and  C_14 
REMARK    4  A    between atoms: C_14  and  C_15 
REMARK       I    between atoms: C_15  and  N_17 
ROOT
HETATM    1  N   UNL     1     -41.857 -52.935  12.134  1.00  0.00    -0.306 N 
HETATM    2  C   UNL     1     -41.505 -51.613  12.265  1.00  0.00     0.320 C 
HETATM    3  O   UNL     1     -41.961 -50.831  13.095  1.00  0.00    -0.247 OA
HETATM    4  N   UNL     1     -40.579 -51.203  11.340  1.00  0.00    -0.342 N 
HETATM    5  H   UNL     1     -41.262 -53.529  11.571  1.00  0.00     0.171 HD
HETATM    6  H   UNL     1     -39.987 -51.887  10.886  1.00  0.00     0.164 HD
ENDROOT
BRANCH   1   7
HETATM    7  C   UNL     1     -42.884 -53.582  12.867  1.00  0.00     0.077 A 
HETATM    8  C   UNL     1     -42.542 -54.352  13.977  1.00  0.00     0.158 A 
HETATM    9  F   UNL     1     -41.262 -54.478  14.358  1.00  0.00    -0.202 F 
HETATM   10  C   UNL     1     -43.548 -54.964  14.708  1.00  0.00     0.132 A 
HETATM   11  N   UNL     1     -44.863 -54.882  14.395  1.00  0.00    -0.372 N 
HETATM   12  C   UNL     1     -45.171 -54.154  13.301  1.00  0.00     0.090 A 
ATOM     13  HN  UNL     1     -45.580 -55.344  14.954  1.00  0.00     0.164 HD
HETATM   14  C   UNL     1     -44.233 -53.502  12.515  1.00  0.00     0.050 A 
ENDBRANCH   1   7
BRANCH   4  15
HETATM   15  C   UNL     1     -40.093 -49.828  11.358  1.00  0.00     0.133 C 
BRANCH  15  16
HETATM   16  C   UNL     1     -38.568 -49.752  11.429  1.00  0.00     0.122 C 
BRANCH  16  17
HETATM   17  C   UNL     1     -38.049 -50.470  12.661  1.00  0.00     0.221 C 
HETATM   18  O   UNL     1     -37.942 -51.699  12.671  1.00  0.00    -0.273 OA
HETATM   19  N   UNL     1     -37.696 -49.693  13.761  1.00  0.00    -0.352 N 
HETATM   20  C   UNL     1     -37.915 -48.248  13.847  1.00  0.00     0.125 C 
HETATM   21  C   UNL     1     -37.523 -50.388  15.037  1.00  0.00     0.125 C 
HETATM   22  C   UNL     1     -36.884 -47.558  14.737  1.00  0.00     0.020 C 
HETATM   23  C   UNL     1     -36.736 -48.248  16.088  1.00  0.00     0.003 C 
HETATM   24  C   UNL     1     -36.456 -49.734  15.903  1.00  0.00     0.020 C 
ENDBRANCH  16  17
ENDBRANCH  15  16
ENDBRANCH   4  15
TORSDOF 4
ENDMDL
MODEL 3
REMARK VINA RESULT:      -6.4      2.066      7.095
REMARK  4 active torsions:
REMARK  status: ('A' for Active; 'I' for Inactive)
REMARK    1  A    between atoms: C_8  and  N_9 
REMARK       I    between atoms: N_9  and  C_10 
REMARK       I    between atoms: C_10  and  N_12 
REMARK    2  A    between atoms: N_12  and  C_13 
REMARK    3  A    between atoms: C_13  and  C_14 
REMARK    4  A    between atoms: C_14  and  C_15 
REMARK       I    between atoms: C_15  and  N_17 
ROOT
HETATM    1  N   UNL     1     -43.301 -52.739  11.984  1.00  0.00    -0.306 N 
HETATM    2  C   UNL     1     -42.192 -52.109  12.496  1.00  0.00     0.320 C 
HETATM    3  O   UNL     1     -41.949 -51.950  13.689  1.00  0.00    -0.247 OA
HETATM    4  N   UNL     1     -41.348 -51.624  11.530  1.00  0.00    -0.342 N 
HETATM    5  H   UNL     1     -43.285 -53.004  11.007  1.00  0.00     0.171 HD
HETATM    6  H   UNL     1     -41.376 -52.017  10.597  1.00  0.00     0.164 HD
ENDROOT
BRANCH   1   7
HETATM    7  C   UNL     1     -44.397 -53.213  12.750  1.00  0.00     0.077 A 
HETATM    8  C   UNL     1     -45.415 -52.328  13.097  1.00  0.00     0.158 A 
HETATM    9  F   UNL     1     -45.371 -51.044  12.711  1.00  0.00    -0.202 F 
HETATM   10  C   UNL     1     -46.497 -52.799  13.825  1.00  0.00     0.132 A 
HETATM   11  N   UNL     1     -46.620 -54.079  14.247  1.00  0.00    -0.372 N 
HETATM   12  C   UNL     1     -45.611 -54.914  13.923  1.00  0.00     0.090 A 
ATOM     13  HN  UNL     1     -47.430 -54.394  14.781  1.00  0.00     0.164 HD
HETATM   14  C   UNL     1     -44.495 -54.534  13.194  1.00  0.00     0.050 A 
ENDBRANCH   1   7
BRANCH   4  15
HETATM   15  C   UNL     1     -40.118 -50.942  11.914  1.00  0.00     0.133 C 
BRANCH  15  16
HETATM   16  C   UNL     1     -40.050 -49.515  11.370  1.00  0.00     0.122 C 
BRANCH  16  17
HETATM   17  C   UNL     1     -39.691 -48.534  12.471  1.00  0.00     0.221 C 
HETATM   18  O   UNL     1     -39.291 -48.940  13.565  1.00  0.00    -0.273 OA
HETATM   19  N   UNL     1     -39.822 -47.176  12.194  1.00  0.00    -0.352 N 
HETATM   20  C   UNL     1     -40.404 -46.644  10.961  1.00  0.00     0.125 C 
HETATM   21  C   UNL     1     -39.804 -46.262  13.336  1.00  0.00     0.125 C 
HETATM   22  C   UNL     1     -39.826 -45.280  10.589  1.00  0.00     0.020 C 
HETATM   23  C   UNL     1     -39.851 -44.306  11.762  1.00  0.00     0.003 C 
HETATM   24  C   UNL     1     -39.178 -44.920  12.982  1.00  0.00     0.020 C 
ENDBRANCH  16  17
ENDBRANCH  15  16
ENDBRANCH   4  15
TORSDOF 4
ENDMDL
MODEL 4
REMARK VINA RESULT:      -6.4      1.767      2.188
REMARK  4 active torsions:
REMARK  status: ('A' for Active; 'I' for Inactive)
REMARK    1  A    between atoms: C_8  and  N_9 
REMARK       I    between atoms: N_9  and  C_10 
REMARK       I    between atoms: C_10  and  N_12 
REMARK    2  A    between atoms: N_12  and  C_13 
REMARK    3  A    between atoms: C_13  and  C_14 
REMARK    4  A    between atoms: C_14  and  C_15 
REMARK       I    between atoms: C_15  and  N_17 
ROOT
HETATM    1  N   UNL     1     -41.358 -48.847  10.255  1.00  0.00    -0.306 N 
HETATM    2  C   UNL     1     -41.381 -49.660  11.362  1.00  0.00     0.320 C 
HETATM    3  O   UNL     1     -42.123 -49.527  12.331  1.00  0.00    -0.247 OA
HETATM    4  N   UNL     1     -40.449 -50.666  11.317  1.00  0.00    -0.342 N 
HETATM    5  H   UNL     1     -40.868 -49.180   9.434  1.00  0.00     0.171 HD
HETATM    6  H   UNL     1     -40.076 -50.963  10.424  1.00  0.00     0.164 HD
ENDROOT
BRANCH   1   7
HETATM    7  C   UNL     1     -42.116 -47.659  10.100  1.00  0.00     0.077 A 
HETATM    8  C   UNL     1     -41.672 -46.486  10.706  1.00  0.00     0.158 A 
HETATM    9  F   UNL     1     -40.538 -46.471  11.424  1.00  0.00    -0.202 F 
HETATM   10  C   UNL     1     -42.401 -45.320  10.533  1.00  0.00     0.132 A 
HETATM   11  N   UNL     1     -43.550 -45.249   9.820  1.00  0.00    -0.372 N 
HETATM   12  C   UNL     1     -43.977 -46.401   9.263  1.00  0.00     0.090 A 
ATOM     13  HN  UNL     1     -44.063 -44.375   9.711  1.00  0.00     0.164 HD
HETATM   14  C   UNL     1     -43.311 -47.612   9.377  1.00  0.00     0.050 A 
ENDBRANCH   1   7
BRANCH   4  15
HETATM   15  C   UNL     1     -40.358 -51.623  12.413  1.00  0.00     0.133 C 
BRANCH  15  16
HETATM   16  C   UNL     1     -41.059 -52.943  12.093  1.00  0.00     0.122 C 
BRANCH  16  17
HETATM   17  C   UNL     1     -41.544 -53.618  13.363  1.00  0.00     0.221 C 
HETATM   18  O   UNL     1     -40.744 -53.949  14.242  1.00  0.00    -0.273 OA
HETATM   19  N   UNL     1     -42.912 -53.838  13.496  1.00  0.00    -0.352 N 
HETATM   20  C   UNL     1     -43.890 -53.578  12.438  1.00  0.00     0.125 C 
HETATM   21  C   UNL     1     -43.337 -54.773  14.538  1.00  0.00     0.125 C 
HETATM   22  C   UNL     1     -45.267 -53.223  12.996  1.00  0.00     0.020 C 
HETATM   23  C   UNL     1     -45.736 -54.222  14.047  1.00  0.00     0.003 C 
HETATM   24  C   UNL     1     -44.683 -54.390  15.135  1.00  0.00     0.020 C 
ENDBRANCH  16  17
ENDBRANCH  15  16
ENDBRANCH   4  15
TORSDOF 4
ENDMDL
MODEL 5
REMARK VINA RESULT:      -6.1      3.119      4.349
REMARK  4 active torsions:
REMARK  status: ('A' for Active; 'I' for Inactive)
REMARK    1  A    between atoms: C_8  and  N_9 
REMARK       I    between atoms: N_9  and  C_10 
REMARK       I    between atoms: C_10  and  N_12 
REMARK    2  A    between atoms: N_12  and  C_13 
REMARK    3  A    between atoms: C_13  and  C_14 
REMARK    4  A    between atoms: C_14  and  C_15 
REMARK       I    between atoms: C_15  and  N_17 
ROOT
HETATM    1  N   UNL     1     -41.081 -48.859  10.561  1.00  0.00    -0.306 N 
HETATM    2  C   UNL     1     -41.411 -49.905  11.389  1.00  0.00     0.320 C 
HETATM    3  O   UNL     1     -42.337 -49.912  12.196  1.00  0.00    -0.247 OA
HETATM    4  N   UNL     1     -40.576 -50.985  11.261  1.00  0.00    -0.342 N 
HETATM    5  H   UNL     1     -40.449 -49.047   9.792  1.00  0.00     0.171 HD
HETATM    6  H   UNL     1     -40.038 -51.105  10.411  1.00  0.00     0.164 HD
ENDROOT
BRANCH   1   7
HETATM    7  C   UNL     1     -41.690 -47.579  10.581  1.00  0.00     0.077 A 
HETATM    8  C   UNL     1     -42.634 -47.262   9.607  1.00  0.00     0.158 A 
HETATM    9  F   UNL     1     -42.973 -48.154   8.663  1.00  0.00    -0.202 F 
HETATM   10  C   UNL     1     -43.247 -46.020   9.641  1.00  0.00     0.132 A 
HETATM   11  N   UNL     1     -42.966 -45.067  10.562  1.00  0.00    -0.372 N 
HETATM   12  C   UNL     1     -42.030 -45.384  11.481  1.00  0.00     0.090 A 
ATOM     13  HN  UNL     1     -43.436 -44.162  10.561  1.00  0.00     0.164 HD
HETATM   14  C   UNL     1     -41.371 -46.602  11.528  1.00  0.00     0.050 A 
ENDBRANCH   1   7
BRANCH   4  15
HETATM   15  C   UNL     1     -40.805 -52.182  12.062  1.00  0.00     0.133 C 
BRANCH  15  16
HETATM   16  C   UNL     1     -40.081 -52.127  13.407  1.00  0.00     0.122 C 
BRANCH  16  17
HETATM   17  C   UNL     1     -38.842 -51.254  13.319  1.00  0.00     0.221 C 
HETATM   18  O   UNL     1     -37.850 -51.637  12.693  1.00  0.00    -0.273 OA
HETATM   19  N   UNL     1     -38.876 -50.018  13.957  1.00  0.00    -0.352 N 
HETATM   20  C   UNL     1     -39.976 -49.567  14.812  1.00  0.00     0.125 C 
HETATM   21  C   UNL     1     -37.596 -49.339  14.158  1.00  0.00     0.125 C 
HETATM   22  C   UNL     1     -40.130 -48.048  14.804  1.00  0.00     0.020 C 
HETATM   23  C   UNL     1     -38.807 -47.335  15.063  1.00  0.00     0.003 C 
HETATM   24  C   UNL     1     -37.737 -47.825  14.096  1.00  0.00     0.020 C 
ENDBRANCH  16  17
ENDBRANCH  15  16
ENDBRANCH   4  15
TORSDOF 4
ENDMDL
MODEL 6
REMARK VINA RESULT:      -6.1      2.904      3.768
REMARK  4 active torsions:
REMARK  status: ('A' for Active; 'I' for Inactive)
REMARK    1  A    between atoms: C_8  and  N_9 
REMARK       I    between atoms: N_9  and  C_10 
REMARK       I    between atoms: C_10  and  N_12 
REMARK    2  A    between atoms: N_12  and  C_13 
REMARK    3  A    between atoms: C_13  and  C_14 
REMARK    4  A    between atoms: C_14  and  C_15 
REMARK       I    between atoms: C_15  and  N_17 
ROOT
HETATM    1  N   UNL     1     -40.319 -51.889  14.261  1.00  0.00    -0.306 N 
HETATM    2  C   UNL     1     -40.666 -53.219  14.260  1.00  0.00     0.320 C 
HETATM    3  O   UNL     1     -40.486 -54.003  13.333  1.00  0.00    -0.247 OA
HETATM    4  N   UNL     1     -41.284 -53.620  15.417  1.00  0.00    -0.342 N 
HETATM    5  H   UNL     1     -40.313 -51.403  15.149  1.00  0.00     0.171 HD
HETATM    6  H   UNL     1     -41.149 -53.088  16.268  1.00  0.00     0.164 HD
ENDROOT
BRANCH   1   7
HETATM    7  C   UNL     1     -39.791 -51.183  13.151  1.00  0.00     0.077 A 
HETATM    8  C   UNL     1     -40.665 -50.683  12.188  1.00  0.00     0.158 A 
HETATM    9  F   UNL     1     -41.990 -50.858  12.305  1.00  0.00    -0.202 F 
HETATM   10  C   UNL     1     -40.150 -49.971  11.115  1.00  0.00     0.132 A 
HETATM   11  N   UNL     1     -38.828 -49.746  10.926  1.00  0.00    -0.372 N 
HETATM   12  C   UNL     1     -37.997 -50.261  11.856  1.00  0.00     0.090 A 
ATOM     13  HN  UNL     1     -38.481 -49.217  10.127  1.00  0.00     0.164 HD
HETATM   14  C   UNL     1     -38.422 -50.979  12.964  1.00  0.00     0.050 A 
ENDBRANCH   1   7
BRANCH   4  15
HETATM   15  C   UNL     1     -41.701 -55.009  15.575  1.00  0.00     0.133 C 
BRANCH  15  16
HETATM   16  C   UNL     1     -43.158 -55.227  15.172  1.00  0.00     0.122 C 
BRANCH  16  17
HETATM   17  C   UNL     1     -44.043 -54.126  15.727  1.00  0.00     0.221 C 
HETATM   18  O   UNL     1     -44.010 -53.842  16.927  1.00  0.00    -0.273 OA
HETATM   19  N   UNL     1     -44.877 -53.456  14.837  1.00  0.00    -0.352 N 
HETATM   20  C   UNL     1     -45.045 -53.831  13.432  1.00  0.00     0.125 C 
HETATM   21  C   UNL     1     -45.951 -52.648  15.413  1.00  0.00     0.125 C 
HETATM   22  C   UNL     1     -45.394 -52.635  12.550  1.00  0.00     0.020 C 
HETATM   23  C   UNL     1     -46.548 -51.817  13.120  1.00  0.00     0.003 C 
HETATM   24  C   UNL     1     -46.264 -51.424  14.564  1.00  0.00     0.020 C 
ENDBRANCH  16  17
ENDBRANCH  15  16
ENDBRANCH   4  15
TORSDOF 4
ENDMDL
MODEL 7
REMARK VINA RESULT:      -6.1      2.950      7.110
REMARK  4 active torsions:
REMARK  status: ('A' for Active; 'I' for Inactive)
REMARK    1  A    between atoms: C_8  and  N_9 
REMARK       I    between atoms: N_9  and  C_10 
REMARK       I    between atoms: C_10  and  N_12 
REMARK    2  A    between atoms: N_12  and  C_13 
REMARK    3  A    between atoms: C_13  and  C_14 
REMARK    4  A    between atoms: C_14  and  C_15 
REMARK       I    between atoms: C_15  and  N_17 
ROOT
HETATM    1  N   UNL     1     -44.589 -51.438  12.601  1.00  0.00    -0.306 N 
HETATM    2  C   UNL     1     -43.817 -50.505  13.250  1.00  0.00     0.320 C 
HETATM    3  O   UNL     1     -43.490 -50.547  14.433  1.00  0.00    -0.247 OA
HETATM    4  N   UNL     1     -43.443 -49.456  12.449  1.00  0.00    -0.342 N 
HETATM    5  H   UNL     1     -44.606 -51.415  11.589  1.00  0.00     0.171 HD
HETATM    6  H   UNL     1     -43.435 -49.572  11.444  1.00  0.00     0.164 HD
ENDROOT
BRANCH   1   7
HETATM    7  C   UNL     1     -45.220 -52.548  13.218  1.00  0.00     0.077 A 
HETATM    8  C   UNL     1     -46.384 -52.342  13.955  1.00  0.00     0.158 A 
HETATM    9  F   UNL     1     -46.911 -51.114  14.078  1.00  0.00    -0.202 F 
HETATM   10  C   UNL     1     -47.014 -53.431  14.537  1.00  0.00     0.132 A 
HETATM   11  N   UNL     1     -46.551 -54.700  14.456  1.00  0.00    -0.372 N 
HETATM   12  C   UNL     1     -45.408 -54.875  13.760  1.00  0.00     0.090 A 
ATOM     13  HN  UNL     1     -47.039 -55.481  14.895  1.00  0.00     0.164 HD
HETATM   14  C   UNL     1     -44.715 -53.848  13.139  1.00  0.00     0.050 A 
ENDBRANCH   1   7
BRANCH   4  15
HETATM   15  C   UNL     1     -42.608 -48.390  12.990  1.00  0.00     0.133 C 
BRANCH  15  16
HETATM   16  C   UNL     1     -41.367 -48.133  12.136  1.00  0.00     0.122 C 
BRANCH  16  17
HETATM   17  C   UNL     1     -40.542 -49.399  11.990  1.00  0.00     0.221 C 
HETATM   18  O   UNL     1     -40.802 -50.216  11.103  1.00  0.00    -0.273 OA
HETATM   19  N   UNL     1     -39.490 -49.591  12.880  1.00  0.00    -0.352 N 
HETATM   20  C   UNL     1     -39.213 -48.718  14.022  1.00  0.00     0.125 C 
HETATM   21  C   UNL     1     -38.922 -50.937  12.957  1.00  0.00     0.125 C 
HETATM   22  C   UNL     1     -37.730 -48.691  14.385  1.00  0.00     0.020 C 
HETATM   23  C   UNL     1     -37.145 -50.093  14.516  1.00  0.00     0.003 C 
HETATM   24  C   UNL     1     -37.432 -50.912  13.264  1.00  0.00     0.020 C 
ENDBRANCH  16  17
ENDBRANCH  15  16
ENDBRANCH   4  15
TORSDOF 4
ENDMDL
MODEL 8
REMARK VINA RESULT:      -5.8      1.792      2.401
REMARK  4 active torsions:
REMARK  status: ('A' for Active; 'I' for Inactive)
REMARK    1  A    between atoms: C_8  and  N_9 
REMARK       I    between atoms: N_9  and  C_10 
REMARK       I    between atoms: C_10  and  N_12 
REMARK    2  A    between atoms: N_12  and  C_13 
REMARK    3  A    between atoms: C_13  and  C_14 
REMARK    4  A    between atoms: C_14  and  C_15 
REMARK       I    between atoms: C_15  and  N_17 
ROOT
HETATM    1  N   UNL     1     -42.536 -49.698  12.140  1.00  0.00    -0.306 N 
HETATM    2  C   UNL     1     -42.139 -51.011  12.208  1.00  0.00     0.320 C 
HETATM    3  O   UNL     1     -41.020 -51.435  11.932  1.00  0.00    -0.247 OA
HETATM    4  N   UNL     1     -43.140 -51.862  12.603  1.00  0.00    -0.342 N 
HETATM    5  H   UNL     1     -43.401 -49.441  12.599  1.00  0.00     0.171 HD
HETATM    6  H   UNL     1     -43.931 -51.499  13.120  1.00  0.00     0.164 HD
ENDROOT
BRANCH   1   7
HETATM    7  C   UNL     1     -41.747 -48.632  11.636  1.00  0.00     0.077 A 
HETATM    8  C   UNL     1     -42.290 -47.781  10.677  1.00  0.00     0.158 A 
HETATM    9  F   UNL     1     -43.545 -47.957  10.234  1.00  0.00    -0.202 F 
HETATM   10  C   UNL     1     -41.528 -46.725  10.203  1.00  0.00     0.132 A 
HETATM   11  N   UNL     1     -40.258 -46.475  10.602  1.00  0.00    -0.372 N 
HETATM   12  C   UNL     1     -39.741 -47.326  11.513  1.00  0.00     0.090 A 
ATOM     13  HN  UNL     1     -39.723 -45.689  10.235  1.00  0.00     0.164 HD
HETATM   14  C   UNL     1     -40.431 -48.404  12.046  1.00  0.00     0.050 A 
ENDBRANCH   1   7
BRANCH   4  15
HETATM   15  C   UNL     1     -42.871 -53.289  12.738  1.00  0.00     0.133 C 
BRANCH  15  16
HETATM   16  C   UNL     1     -44.076 -54.059  13.276  1.00  0.00     0.122 C 
BRANCH  16  17
HETATM   17  C   UNL     1     -45.304 -53.169  13.333  1.00  0.00     0.221 C 
HETATM   18  O   UNL     1     -45.959 -52.940  12.313  1.00  0.00    -0.273 OA
HETATM   19  N   UNL     1     -45.659 -52.636  14.569  1.00  0.00    -0.352 N 
HETATM   20  C   UNL     1     -44.852 -52.775  15.783  1.00  0.00     0.125 C 
HETATM   21  C   UNL     1     -46.617 -51.530  14.565  1.00  0.00     0.125 C 
HETATM   22  C   UNL     1     -45.704 -52.755  17.050  1.00  0.00     0.020 C 
HETATM   23  C   UNL     1     -46.670 -51.576  17.075  1.00  0.00     0.003 C 
HETATM   24  C   UNL     1     -47.505 -51.540  15.801  1.00  0.00     0.020 C 
ENDBRANCH  16  17
ENDBRANCH  15  16
ENDBRANCH   4  15
TORSDOF 4
ENDMDL
MODEL 9
REMARK VINA RESULT:      -5.8      2.158      2.727
REMARK  4 active torsions:
REMARK  status: ('A' for Active; 'I' for Inactive)
REMARK    1  A    between atoms: C_8  and  N_9 
REMARK       I    between atoms: N_9  and  C_10 
REMARK       I    between atoms: C_10  and  N_12 
REMARK    2  A    between atoms: N_12  and  C_13 
REMARK    3  A    between atoms: C_13  and  C_14 
REMARK    4  A    between atoms: C_14  and  C_15 
REMARK       I    between atoms: C_15  and  N_17 
ROOT
HETATM    1  N   UNL     1     -41.344 -50.256  13.579  1.00  0.00    -0.306 N 
HETATM    2  C   UNL     1     -41.122 -51.605  13.433  1.00  0.00     0.320 C 
HETATM    3  O   UNL     1     -40.625 -52.144  12.449  1.00  0.00    -0.247 OA
HETATM    4  N   UNL     1     -41.540 -52.344  14.510  1.00  0.00    -0.342 N 
HETATM    5  H   UNL     1     -41.549 -49.909  14.507  1.00  0.00     0.171 HD
HETATM    6  H   UNL     1     -41.646 -51.898  15.413  1.00  0.00     0.164 HD
ENDROOT
BRANCH   1   7
HETATM    7  C   UNL     1     -41.132 -49.281  12.572  1.00  0.00     0.077 A 
HETATM    8  C   UNL     1     -39.937 -48.566  12.561  1.00  0.00     0.158 A 
HETATM    9  F   UNL     1     -38.991 -48.795  13.485  1.00  0.00    -0.202 F 
HETATM   10  C   UNL     1     -39.721 -47.630  11.562  1.00  0.00     0.132 A 
HETATM   11  N   UNL     1     -40.620 -47.343  10.591  1.00  0.00    -0.372 N 
HETATM   12  C   UNL     1     -41.782 -48.028  10.634  1.00  0.00     0.090 A 
ATOM     13  HN  UNL     1     -40.430 -46.649   9.869  1.00  0.00     0.164 HD
HETATM   14  C   UNL     1     -42.082 -48.986  11.591  1.00  0.00     0.050 A 
ENDBRANCH   1   7
BRANCH   4  15
HETATM   15  C   UNL     1     -41.361 -53.791  14.513  1.00  0.00     0.133 C 
BRANCH  15  16
HETATM   16  C   UNL     1     -42.604 -54.532  14.025  1.00  0.00     0.122 C 
BRANCH  16  17
HETATM   17  C   UNL     1     -43.774 -54.301  14.963  1.00  0.00     0.221 C 
HETATM   18  O   UNL     1     -43.836 -54.893  16.045  1.00  0.00    -0.273 OA
HETATM   19  N   UNL     1     -44.756 -53.399  14.563  1.00  0.00    -0.352 N 
HETATM   20  C   UNL     1     -44.795 -52.764  13.244  1.00  0.00     0.125 C 
HETATM   21  C   UNL     1     -46.024 -53.431  15.292  1.00  0.00     0.125 C 
HETATM   22  C   UNL     1     -45.465 -51.392  13.283  1.00  0.00     0.020 C 
HETATM   23  C   UNL     1     -46.811 -51.428  13.998  1.00  0.00     0.003 C 
HETATM   24  C   UNL     1     -46.666 -52.054  15.379  1.00  0.00     0.020 C 
ENDBRANCH  16  17
ENDBRANCH  15  16
ENDBRANCH   4  15
TORSDOF 4
ENDMDL
