MODEL 1
REMARK VINA RESULT:      -5.8      0.000      0.000
REMARK  6 active torsions:
REMARK  status: ('A' for Active; 'I' for Inactive)
REMARK    1  A    between atoms: C_2  and  C_3 
REMARK    2  A    between atoms: C_3  and  C_4 
REMARK    3  A    between atoms: C_4  and  C_6 
REMARK       I    between atoms: C_6  and  N_8 
REMARK    4  A    between atoms: N_8  and  C_9 
REMARK    5  A    between atoms: C_9  and  C_10 
REMARK    6  A    between atoms: C_16  and  N_17 
ROOT
HETATM    1  C   UNL     1     -42.593 -49.317  12.521  1.00  0.00     0.004 A 
HETATM    2  C   UNL     1     -43.293 -48.286  11.853  1.00  0.00     0.014 A 
HETATM    3  C   UNL     1     -42.817 -47.752  10.669  1.00  0.00     0.018 A 
HETATM    4  C   UNL     1     -41.638 -48.262  10.186  1.00  0.00     0.089 A 
HETATM    5  N   UNL     1     -40.972 -49.279  10.772  1.00  0.00    -0.352 N 
ATOM      6  HN  UNL     1     -40.110 -49.625  10.351  1.00  0.00     0.166 HD
HETATM    7  C   UNL     1     -41.437 -49.851  11.915  1.00  0.00     0.111 A 
ENDROOT
BRANCH   1   8
HETATM    8  C   UNL     1     -43.115 -49.672  13.892  1.00  0.00     0.165 C 
BRANCH   8   9
HETATM    9  N   UNL     1     -44.345 -50.436  13.869  1.00  0.00    -0.356 N 
HETATM   10  C   UNL     1     -44.377 -51.714  14.386  1.00  0.00     0.221 C 
HETATM   11  O   UNL     1     -43.399 -52.224  14.923  1.00  0.00    -0.273 OA
HETATM   12  H   UNL     1     -45.166 -50.034  13.436  1.00  0.00     0.162 HD
BRANCH  10  13
HETATM   13  C   UNL     1     -45.707 -52.452  14.199  1.00  0.00     0.074 C 
HETATM   14  C   UNL     1     -45.439 -53.843  13.618  1.00  0.00     0.020 C 
BRANCH  13  15
HETATM   15  C   UNL     1     -46.659 -51.627  13.307  1.00  0.00     0.013 C 
BRANCH  15  16
HETATM   16  C   UNL     1     -46.712 -52.115  11.855  1.00  0.00    -0.004 C 
HETATM   17  C   UNL     1     -47.577 -51.221  10.981  1.00  0.00     0.005 C 
ENDBRANCH  15  16
ENDBRANCH  13  15
ENDBRANCH  10  13
ENDBRANCH   8   9
ENDBRANCH   1   8
BRANCH   7  18
HETATM   18  N   UNL     1     -40.733 -50.967  12.322  1.00  0.00    -0.363 N 
HETATM   19  C   UNL     1     -41.204 -52.284  11.843  1.00  0.00     0.150 C 
HETATM   20  C   UNL     1     -40.846 -53.390  12.850  1.00  0.00     0.187 C 
HETATM   21  O   UNL     1     -39.447 -53.392  13.169  1.00  0.00    -0.388 OA
HETATM   22  C   UNL     1     -39.099 -52.143  13.772  1.00  0.00     0.187 C 
HETATM   23  C   UNL     1     -39.361 -50.962  12.827  1.00  0.00     0.150 C 
ENDBRANCH   7  18
TORSDOF 6
ENDMDL
MODEL 2
REMARK VINA RESULT:      -5.7      2.394      4.533
REMARK  6 active torsions:
REMARK  status: ('A' for Active; 'I' for Inactive)
REMARK    1  A    between atoms: C_2  and  C_3 
REMARK    2  A    between atoms: C_3  and  C_4 
REMARK    3  A    between atoms: C_4  and  C_6 
REMARK       I    between atoms: C_6  and  N_8 
REMARK    4  A    between atoms: N_8  and  C_9 
REMARK    5  A    between atoms: C_9  and  C_10 
REMARK    6  A    between atoms: C_16  and  N_17 
ROOT
HETATM    1  C   UNL     1     -41.678 -49.506  12.563  1.00  0.00     0.004 A 
HETATM    2  C   UNL     1     -40.934 -50.486  13.260  1.00  0.00     0.014 A 
HETATM    3  C   UNL     1     -39.675 -50.865  12.830  1.00  0.00     0.018 A 
HETATM    4  C   UNL     1     -39.194 -50.254  11.700  1.00  0.00     0.089 A 
HETATM    5  N   UNL     1     -39.856 -49.280  11.041  1.00  0.00    -0.352 N 
ATOM      6  HN  UNL     1     -39.434 -48.853  10.217  1.00  0.00     0.166 HD
HETATM    7  C   UNL     1     -41.078 -48.859  11.463  1.00  0.00     0.111 A 
ENDROOT
BRANCH   1   8
HETATM    8  C   UNL     1     -43.104 -49.327  13.022  1.00  0.00     0.165 C 
BRANCH   8   9
HETATM    9  N   UNL     1     -43.991 -50.393  12.604  1.00  0.00    -0.356 N 
HETATM   10  C   UNL     1     -44.751 -51.068  13.535  1.00  0.00     0.221 C 
HETATM   11  O   UNL     1     -44.748 -50.762  14.724  1.00  0.00    -0.273 OA
HETATM   12  H   UNL     1     -44.015 -50.659  11.629  1.00  0.00     0.162 HD
BRANCH  10  13
HETATM   13  C   UNL     1     -45.560 -52.244  12.978  1.00  0.00     0.074 C 
HETATM   14  C   UNL     1     -46.538 -52.740  14.046  1.00  0.00     0.020 C 
BRANCH  13  15
HETATM   15  C   UNL     1     -44.616 -53.364  12.494  1.00  0.00     0.013 C 
BRANCH  15  16
HETATM   16  C   UNL     1     -43.780 -53.987  13.618  1.00  0.00    -0.004 C 
HETATM   17  C   UNL     1     -42.297 -54.006  13.285  1.00  0.00     0.005 C 
ENDBRANCH  15  16
ENDBRANCH  13  15
ENDBRANCH  10  13
ENDBRANCH   8   9
ENDBRANCH   1   8
BRANCH   7  18
HETATM   18  N   UNL     1     -41.572 -47.765  10.780  1.00  0.00    -0.363 N 
HETATM   19  C   UNL     1     -40.787 -46.513  10.837  1.00  0.00     0.150 C 
HETATM   20  C   UNL     1     -41.705 -45.287  10.686  1.00  0.00     0.187 C 
HETATM   21  O   UNL     1     -42.521 -45.371   9.508  1.00  0.00    -0.388 OA
HETATM   22  C   UNL     1     -43.363 -46.521   9.598  1.00  0.00     0.187 C 
HETATM   23  C   UNL     1     -42.549 -47.819   9.695  1.00  0.00     0.150 C 
ENDBRANCH   7  18
TORSDOF 6
ENDMDL
MODEL 3
REMARK VINA RESULT:      -5.7      2.307      4.319
REMARK  6 active torsions:
REMARK  status: ('A' for Active; 'I' for Inactive)
REMARK    1  A    between atoms: C_2  and  C_3 
REMARK    2  A    between atoms: C_3  and  C_4 
REMARK    3  A    between atoms: C_4  and  C_6 
REMARK       I    between atoms: C_6  and  N_8 
REMARK    4  A    between atoms: N_8  and  C_9 
REMARK    5  A    between atoms: C_9  and  C_10 
REMARK    6  A    between atoms: C_16  and  N_17 
ROOT
HETATM    1  C   UNL     1     -41.561 -52.783  13.304  1.00  0.00     0.004 A 
HETATM    2  C   UNL     1     -41.575 -54.036  13.960  1.00  0.00     0.014 A 
HETATM    3  C   UNL     1     -40.593 -54.373  14.875  1.00  0.00     0.018 A 
HETATM    4  C   UNL     1     -39.611 -53.443  15.104  1.00  0.00     0.089 A 
HETATM    5  N   UNL     1     -39.596 -52.220  14.534  1.00  0.00    -0.352 N 
ATOM      6  HN  UNL     1     -38.846 -51.568  14.762  1.00  0.00     0.166 HD
HETATM    7  C   UNL     1     -40.569 -51.846  13.660  1.00  0.00     0.111 A 
ENDROOT
BRANCH   1   8
HETATM    8  C   UNL     1     -42.571 -52.621  12.196  1.00  0.00     0.165 C 
BRANCH   8   9
HETATM    9  N   UNL     1     -43.867 -52.160  12.649  1.00  0.00    -0.356 N 
HETATM   10  C   UNL     1     -44.936 -53.029  12.693  1.00  0.00     0.221 C 
HETATM   11  O   UNL     1     -44.821 -54.218  12.407  1.00  0.00    -0.273 OA
HETATM   12  H   UNL     1     -43.985 -51.185  12.894  1.00  0.00     0.162 HD
BRANCH  10  13
HETATM   13  C   UNL     1     -46.272 -52.390  13.083  1.00  0.00     0.074 C 
HETATM   14  C   UNL     1     -46.876 -51.690  11.863  1.00  0.00     0.020 C 
BRANCH  13  15
HETATM   15  C   UNL     1     -46.079 -51.420  14.268  1.00  0.00     0.013 C 
BRANCH  15  16
HETATM   16  C   UNL     1     -47.097 -51.622  15.396  1.00  0.00    -0.004 C 
HETATM   17  C   UNL     1     -46.688 -50.906  16.672  1.00  0.00     0.005 C 
ENDBRANCH  15  16
ENDBRANCH  13  15
ENDBRANCH  10  13
ENDBRANCH   8   9
ENDBRANCH   1   8
BRANCH   7  18
HETATM   18  N   UNL     1     -40.504 -50.524  13.266  1.00  0.00    -0.363 N 
HETATM   19  C   UNL     1     -39.744 -50.215  12.036  1.00  0.00     0.150 C 
HETATM   20  C   UNL     1     -39.166 -48.790  12.096  1.00  0.00     0.187 C 
HETATM   21  O   UNL     1     -40.179 -47.813  12.374  1.00  0.00    -0.388 OA
HETATM   22  C   UNL     1     -40.761 -48.087  13.650  1.00  0.00     0.187 C 
HETATM   23  C   UNL     1     -41.424 -49.470  13.689  1.00  0.00     0.150 C 
ENDBRANCH   7  18
TORSDOF 6
ENDMDL
MODEL 4
REMARK VINA RESULT:      -5.5      2.368      4.331
REMARK  6 active torsions:
REMARK  status: ('A' for Active; 'I' for Inactive)
REMARK    1  A    between atoms: C_2  and  C_3 
REMARK    2  A    between atoms: C_3  and  C_4 
REMARK    3  A    between atoms: C_4  and  C_6 
REMARK       I    between atoms: C_6  and  N_8 
REMARK    4  A    between atoms: N_8  and  C_9 
REMARK    5  A    between atoms: C_9  and  C_10 
REMARK    6  A    between atoms: C_16  and  N_17 
ROOT
HETATM    1  C   UNL     1     -41.417 -49.557  12.596  1.00  0.00     0.004 A 
HETATM    2  C   UNL     1     -40.643 -50.531  13.269  1.00  0.00     0.014 A 
HETATM    3  C   UNL     1     -39.377 -50.869  12.823  1.00  0.00     0.018 A 
HETATM    4  C   UNL     1     -38.920 -50.223  11.702  1.00  0.00     0.089 A 
HETATM    5  N   UNL     1     -39.611 -49.254  11.067  1.00  0.00    -0.352 N 
ATOM      6  HN  UNL     1     -39.206 -48.801  10.248  1.00  0.00     0.166 HD
HETATM    7  C   UNL     1     -40.841 -48.873  11.505  1.00  0.00     0.111 A 
ENDROOT
BRANCH   1   8
HETATM    8  C   UNL     1     -42.844 -49.424  13.067  1.00  0.00     0.165 C 
BRANCH   8   9
HETATM    9  N   UNL     1     -43.633 -50.625  12.888  1.00  0.00    -0.356 N 
HETATM   10  C   UNL     1     -44.018 -51.372  13.980  1.00  0.00     0.221 C 
HETATM   11  O   UNL     1     -43.758 -51.027  15.130  1.00  0.00    -0.273 OA
HETATM   12  H   UNL     1     -43.864 -50.926  11.950  1.00  0.00     0.162 HD
BRANCH  10  13
HETATM   13  C   UNL     1     -44.752 -52.674  13.646  1.00  0.00     0.074 C 
HETATM   14  C   UNL     1     -44.102 -53.324  12.421  1.00  0.00     0.020 C 
BRANCH  13  15
HETATM   15  C   UNL     1     -46.255 -52.403  13.426  1.00  0.00     0.013 C 
BRANCH  15  16
HETATM   16  C   UNL     1     -46.835 -51.360  14.388  1.00  0.00    -0.004 C 
HETATM   17  C   UNL     1     -47.275 -51.979  15.705  1.00  0.00     0.005 C 
ENDBRANCH  15  16
ENDBRANCH  13  15
ENDBRANCH  10  13
ENDBRANCH   8   9
ENDBRANCH   1   8
BRANCH   7  18
HETATM   18  N   UNL     1     -41.368 -47.780  10.846  1.00  0.00    -0.363 N 
HETATM   19  C   UNL     1     -40.563 -46.540  10.829  1.00  0.00     0.150 C 
HETATM   20  C   UNL     1     -41.471 -45.301  10.732  1.00  0.00     0.187 C 
HETATM   21  O   UNL     1     -42.372 -45.385   9.617  1.00  0.00    -0.388 OA
HETATM   22  C   UNL     1     -43.223 -46.521   9.784  1.00  0.00     0.187 C 
HETATM   23  C   UNL     1     -42.423 -47.830   9.836  1.00  0.00     0.150 C 
ENDBRANCH   7  18
TORSDOF 6
ENDMDL
MODEL 5
REMARK VINA RESULT:      -5.5      1.310      2.074
REMARK  6 active torsions:
REMARK  status: ('A' for Active; 'I' for Inactive)
REMARK    1  A    between atoms: C_2  and  C_3 
REMARK    2  A    between atoms: C_3  and  C_4 
REMARK    3  A    between atoms: C_4  and  C_6 
REMARK       I    between atoms: C_6  and  N_8 
REMARK    4  A    between atoms: N_8  and  C_9 
REMARK    5  A    between atoms: C_9  and  C_10 
REMARK    6  A    between atoms: C_16  and  N_17 
ROOT
HETATM    1  C   UNL     1     -42.670 -48.745  12.039  1.00  0.00     0.004 A 
HETATM    2  C   UNL     1     -43.591 -47.870  11.416  1.00  0.00     0.014 A 
HETATM    3  C   UNL     1     -43.172 -46.949  10.472  1.00  0.00     0.018 A 
HETATM    4  C   UNL     1     -41.831 -46.923  10.181  1.00  0.00     0.089 A 
HETATM    5  N   UNL     1     -40.936 -47.776  10.719  1.00  0.00    -0.352 N 
ATOM      6  HN  UNL     1     -39.955 -47.715  10.446  1.00  0.00     0.166 HD
HETATM    7  C   UNL     1     -41.324 -48.718  11.620  1.00  0.00     0.111 A 
ENDROOT
BRANCH   1   8
HETATM    8  C   UNL     1     -43.223 -49.560  13.181  1.00  0.00     0.165 C 
BRANCH   8   9
HETATM    9  N   UNL     1     -44.170 -50.576  12.770  1.00  0.00    -0.356 N 
HETATM   10  C   UNL     1     -44.999 -51.168  13.699  1.00  0.00     0.221 C 
HETATM   11  O   UNL     1     -45.005 -50.826  14.879  1.00  0.00    -0.273 OA
HETATM   12  H   UNL     1     -44.187 -50.870  11.803  1.00  0.00     0.162 HD
BRANCH  10  13
HETATM   13  C   UNL     1     -45.872 -52.303  13.155  1.00  0.00     0.074 C 
HETATM   14  C   UNL     1     -46.818 -51.750  12.086  1.00  0.00     0.020 C 
BRANCH  13  15
HETATM   15  C   UNL     1     -46.639 -52.990  14.305  1.00  0.00     0.013 C 
BRANCH  15  16
HETATM   16  C   UNL     1     -45.909 -54.208  14.884  1.00  0.00    -0.004 C 
HETATM   17  C   UNL     1     -45.516 -55.206  13.807  1.00  0.00     0.005 C 
ENDBRANCH  15  16
ENDBRANCH  13  15
ENDBRANCH  10  13
ENDBRANCH   8   9
ENDBRANCH   1   8
BRANCH   7  18
HETATM   18  N   UNL     1     -40.331 -49.608  11.978  1.00  0.00    -0.363 N 
HETATM   19  C   UNL     1     -40.645 -51.051  11.896  1.00  0.00     0.150 C 
HETATM   20  C   UNL     1     -39.819 -51.848  12.921  1.00  0.00     0.187 C 
HETATM   21  O   UNL     1     -38.413 -51.585  12.796  1.00  0.00    -0.388 OA
HETATM   22  C   UNL     1     -38.169 -50.199  13.042  1.00  0.00     0.187 C 
HETATM   23  C   UNL     1     -38.903 -49.302  12.036  1.00  0.00     0.150 C 
ENDBRANCH   7  18
TORSDOF 6
ENDMDL
MODEL 6
REMARK VINA RESULT:      -5.5      2.143      3.175
REMARK  6 active torsions:
REMARK  status: ('A' for Active; 'I' for Inactive)
REMARK    1  A    between atoms: C_2  and  C_3 
REMARK    2  A    between atoms: C_3  and  C_4 
REMARK    3  A    between atoms: C_4  and  C_6 
REMARK       I    between atoms: C_6  and  N_8 
REMARK    4  A    between atoms: N_8  and  C_9 
REMARK    5  A    between atoms: C_9  and  C_10 
REMARK    6  A    between atoms: C_16  and  N_17 
ROOT
HETATM    1  C   UNL     1     -41.782 -51.387  12.845  1.00  0.00     0.004 A 
HETATM    2  C   UNL     1     -41.863 -50.150  12.164  1.00  0.00     0.014 A 
HETATM    3  C   UNL     1     -41.092 -49.070  12.555  1.00  0.00     0.018 A 
HETATM    4  C   UNL     1     -40.260 -49.256  13.629  1.00  0.00     0.089 A 
HETATM    5  N   UNL     1     -40.121 -50.436  14.268  1.00  0.00    -0.352 N 
ATOM      6  HN  UNL     1     -39.471 -50.512  15.050  1.00  0.00     0.166 HD
HETATM    7  C   UNL     1     -40.838 -51.526  13.883  1.00  0.00     0.111 A 
ENDROOT
BRANCH   1   8
HETATM    8  C   UNL     1     -42.810 -52.416  12.444  1.00  0.00     0.165 C 
BRANCH   8   9
HETATM    9  N   UNL     1     -44.177 -52.004  12.689  1.00  0.00    -0.356 N 
HETATM   10  C   UNL     1     -45.197 -52.929  12.654  1.00  0.00     0.221 C 
HETATM   11  O   UNL     1     -44.987 -54.125  12.469  1.00  0.00    -0.273 OA
HETATM   12  H   UNL     1     -44.374 -51.024  12.848  1.00  0.00     0.162 HD
BRANCH  10  13
HETATM   13  C   UNL     1     -46.604 -52.346  12.819  1.00  0.00     0.074 C 
HETATM   14  C   UNL     1     -47.006 -51.615  11.535  1.00  0.00     0.020 C 
BRANCH  13  15
HETATM   15  C   UNL     1     -46.660 -51.419  14.052  1.00  0.00     0.013 C 
BRANCH  15  16
HETATM   16  C   UNL     1     -47.088 -52.138  15.337  1.00  0.00    -0.004 C 
HETATM   17  C   UNL     1     -47.187 -51.187  16.519  1.00  0.00     0.005 C 
ENDBRANCH  15  16
ENDBRANCH  13  15
ENDBRANCH  10  13
ENDBRANCH   8   9
ENDBRANCH   1   8
BRANCH   7  18
HETATM   18  N   UNL     1     -40.492 -52.695  14.532  1.00  0.00    -0.363 N 
HETATM   19  C   UNL     1     -39.140 -53.240  14.285  1.00  0.00     0.150 C 
HETATM   20  C   UNL     1     -39.130 -54.770  14.448  1.00  0.00     0.187 C 
HETATM   21  O   UNL     1     -39.661 -55.176  15.718  1.00  0.00    -0.388 OA
HETATM   22  C   UNL     1     -41.021 -54.748  15.819  1.00  0.00     0.187 C 
HETATM   23  C   UNL     1     -41.147 -53.221  15.728  1.00  0.00     0.150 C 
ENDBRANCH   7  18
TORSDOF 6
ENDMDL
MODEL 7
REMARK VINA RESULT:      -5.5      2.148      3.890
REMARK  6 active torsions:
REMARK  status: ('A' for Active; 'I' for Inactive)
REMARK    1  A    between atoms: C_2  and  C_3 
REMARK    2  A    between atoms: C_3  and  C_4 
REMARK    3  A    between atoms: C_4  and  C_6 
REMARK       I    between atoms: C_6  and  N_8 
REMARK    4  A    between atoms: N_8  and  C_9 
REMARK    5  A    between atoms: C_9  and  C_10 
REMARK    6  A    between atoms: C_16  and  N_17 
ROOT
HETATM    1  C   UNL     1     -42.277 -51.096  13.274  1.00  0.00     0.004 A 
HETATM    2  C   UNL     1     -42.328 -52.452  13.675  1.00  0.00     0.014 A 
HETATM    3  C   UNL     1     -41.648 -53.430  12.971  1.00  0.00     0.018 A 
HETATM    4  C   UNL     1     -40.936 -53.022  11.871  1.00  0.00     0.089 A 
HETATM    5  N   UNL     1     -40.825 -51.732  11.492  1.00  0.00    -0.352 N 
ATOM      6  HN  UNL     1     -40.265 -51.495  10.674  1.00  0.00     0.166 HD
HETATM    7  C   UNL     1     -41.450 -50.745  12.187  1.00  0.00     0.111 A 
ENDROOT
BRANCH   1   8
HETATM    8  C   UNL     1     -43.212 -50.168  14.008  1.00  0.00     0.165 C 
BRANCH   8   9
HETATM    9  N   UNL     1     -44.604 -50.563  13.936  1.00  0.00    -0.356 N 
HETATM   10  C   UNL     1     -45.278 -50.939  15.077  1.00  0.00     0.221 C 
HETATM   11  O   UNL     1     -44.752 -50.904  16.186  1.00  0.00    -0.273 OA
HETATM   12  H   UNL     1     -45.060 -50.594  13.033  1.00  0.00     0.162 HD
BRANCH  10  13
HETATM   13  C   UNL     1     -46.708 -51.440  14.847  1.00  0.00     0.074 C 
HETATM   14  C   UNL     1     -47.386 -51.682  16.198  1.00  0.00     0.020 C 
BRANCH  13  15
HETATM   15  C   UNL     1     -46.698 -52.710  13.970  1.00  0.00     0.013 C 
BRANCH  15  16
HETATM   16  C   UNL     1     -46.220 -53.962  14.714  1.00  0.00    -0.004 C 
HETATM   17  C   UNL     1     -45.360 -54.857  13.835  1.00  0.00     0.005 C 
ENDBRANCH  15  16
ENDBRANCH  13  15
ENDBRANCH  10  13
ENDBRANCH   8   9
ENDBRANCH   1   8
BRANCH   7  18
HETATM   18  N   UNL     1     -41.135 -49.466  11.770  1.00  0.00    -0.363 N 
HETATM   19  C   UNL     1     -39.720 -49.049  11.858  1.00  0.00     0.150 C 
HETATM   20  C   UNL     1     -39.612 -47.526  12.057  1.00  0.00     0.187 C 
HETATM   21  O   UNL     1     -40.336 -46.803  11.050  1.00  0.00    -0.388 OA
HETATM   22  C   UNL     1     -41.721 -47.143  11.130  1.00  0.00     0.187 C 
HETATM   23  C   UNL     1     -41.956 -48.640  10.888  1.00  0.00     0.150 C 
ENDBRANCH   7  18
TORSDOF 6
ENDMDL
MODEL 8
REMARK VINA RESULT:      -5.3      2.606      5.534
REMARK  6 active torsions:
REMARK  status: ('A' for Active; 'I' for Inactive)
REMARK    1  A    between atoms: C_2  and  C_3 
REMARK    2  A    between atoms: C_3  and  C_4 
REMARK    3  A    between atoms: C_4  and  C_6 
REMARK       I    between atoms: C_6  and  N_8 
REMARK    4  A    between atoms: N_8  and  C_9 
REMARK    5  A    between atoms: C_9  and  C_10 
REMARK    6  A    between atoms: C_16  and  N_17 
ROOT
HETATM    1  C   UNL     1     -42.358 -50.199  12.789  1.00  0.00     0.004 A 
HETATM    2  C   UNL     1     -41.069 -50.443  12.259  1.00  0.00     0.014 A 
HETATM    3  C   UNL     1     -40.372 -51.594  12.581  1.00  0.00     0.018 A 
HETATM    4  C   UNL     1     -40.985 -52.473  13.438  1.00  0.00     0.089 A 
HETATM    5  N   UNL     1     -42.232 -52.295  13.921  1.00  0.00    -0.352 N 
ATOM      6  HN  UNL     1     -42.637 -52.996  14.540  1.00  0.00     0.166 HD
HETATM    7  C   UNL     1     -42.957 -51.192  13.591  1.00  0.00     0.111 A 
ENDROOT
BRANCH   1   8
HETATM    8  C   UNL     1     -42.921 -48.827  12.515  1.00  0.00     0.165 C 
BRANCH   8   9
HETATM    9  N   UNL     1     -43.405 -48.653  11.160  1.00  0.00    -0.356 N 
HETATM   10  C   UNL     1     -43.504 -47.391  10.616  1.00  0.00     0.221 C 
HETATM   11  O   UNL     1     -43.143 -46.388  11.226  1.00  0.00    -0.273 OA
HETATM   12  H   UNL     1     -43.703 -49.465  10.637  1.00  0.00     0.162 HD
BRANCH  10  13
HETATM   13  C   UNL     1     -44.133 -47.337   9.220  1.00  0.00     0.074 C 
HETATM   14  C   UNL     1     -43.400 -46.295   8.371  1.00  0.00     0.020 C 
BRANCH  13  15
HETATM   15  C   UNL     1     -45.644 -47.039   9.323  1.00  0.00     0.013 C 
BRANCH  15  16
HETATM   16  C   UNL     1     -46.522 -48.293   9.235  1.00  0.00    -0.004 C 
HETATM   17  C   UNL     1     -46.478 -48.927   7.854  1.00  0.00     0.005 C 
ENDBRANCH  15  16
ENDBRANCH  13  15
ENDBRANCH  10  13
ENDBRANCH   8   9
ENDBRANCH   1   8
BRANCH   7  18
HETATM   18  N   UNL     1     -44.262 -51.210  14.043  1.00  0.00    -0.363 N 
HETATM   19  C   UNL     1     -44.544 -50.564  15.342  1.00  0.00     0.150 C 
HETATM   20  C   UNL     1     -45.751 -51.227  16.030  1.00  0.00     0.187 C 
HETATM   21  O   UNL     1     -46.902 -51.263  15.173  1.00  0.00    -0.388 OA
HETATM   22  C   UNL     1     -46.601 -52.036  14.010  1.00  0.00     0.187 C 
HETATM   23  C   UNL     1     -45.441 -51.431  13.207  1.00  0.00     0.150 C 
ENDBRANCH   7  18
TORSDOF 6
ENDMDL
MODEL 9
REMARK VINA RESULT:      -5.3      2.627      4.874
REMARK  6 active torsions:
REMARK  status: ('A' for Active; 'I' for Inactive)
REMARK    1  A    between atoms: C_2  and  C_3 
REMARK    2  A    between atoms: C_3  and  C_4 
REMARK    3  A    between atoms: C_4  and  C_6 
REMARK       I    between atoms: C_6  and  N_8 
REMARK    4  A    between atoms: N_8  and  C_9 
REMARK    5  A    between atoms: C_9  and  C_10 
REMARK    6  A    between atoms: C_16  and  N_17 
ROOT
HETATM    1  C   UNL     1     -40.698 -53.720  15.768  1.00  0.00     0.004 A 
HETATM    2  C   UNL     1     -40.370 -54.693  16.740  1.00  0.00     0.014 A 
HETATM    3  C   UNL     1     -39.320 -55.572  16.544  1.00  0.00     0.018 A 
HETATM    4  C   UNL     1     -38.624 -55.457  15.367  1.00  0.00     0.089 A 
HETATM    5  N   UNL     1     -38.878 -54.508  14.442  1.00  0.00    -0.352 N 
ATOM      6  HN  UNL     1     -38.312 -54.466  13.595  1.00  0.00     0.166 HD
HETATM    7  C   UNL     1     -39.880 -53.606  14.624  1.00  0.00     0.111 A 
ENDROOT
BRANCH   1   8
HETATM    8  C   UNL     1     -41.977 -52.959  16.017  1.00  0.00     0.165 C 
BRANCH   8   9
HETATM    9  N   UNL     1     -43.033 -53.265  15.074  1.00  0.00    -0.356 N 
HETATM   10  C   UNL     1     -43.931 -54.276  15.342  1.00  0.00     0.221 C 
HETATM   11  O   UNL     1     -43.904 -54.909  16.394  1.00  0.00    -0.273 OA
HETATM   12  H   UNL     1     -43.077 -52.753  14.203  1.00  0.00     0.162 HD
BRANCH  10  13
HETATM   13  C   UNL     1     -44.926 -54.570  14.216  1.00  0.00     0.074 C 
HETATM   14  C   UNL     1     -44.329 -54.121  12.879  1.00  0.00     0.020 C 
BRANCH  13  15
HETATM   15  C   UNL     1     -46.280 -53.886  14.503  1.00  0.00     0.013 C 
BRANCH  15  16
HETATM   16  C   UNL     1     -46.481 -52.579  13.727  1.00  0.00    -0.004 C 
HETATM   17  C   UNL     1     -46.683 -51.390  14.652  1.00  0.00     0.005 C 
ENDBRANCH  15  16
ENDBRANCH  13  15
ENDBRANCH  10  13
ENDBRANCH   8   9
ENDBRANCH   1   8
BRANCH   7  18
HETATM   18  N   UNL     1     -39.934 -52.611  13.668  1.00  0.00    -0.363 N 
HETATM   19  C   UNL     1     -38.823 -51.636  13.634  1.00  0.00     0.150 C 
HETATM   20  C   UNL     1     -39.305 -50.281  13.087  1.00  0.00     0.187 C 
HETATM   21  O   UNL     1     -39.953 -50.418  11.813  1.00  0.00    -0.388 OA
HETATM   22  C   UNL     1     -41.107 -51.249  11.959  1.00  0.00     0.187 C 
HETATM   23  C   UNL     1     -40.738 -52.656  12.448  1.00  0.00     0.150 C 
ENDBRANCH   7  18
TORSDOF 6
ENDMDL
