MODEL 1
REMARK VINA RESULT:      -5.6      0.000      0.000
REMARK  4 active torsions:
REMARK  status: ('A' for Active; 'I' for Inactive)
REMARK    1  A    between atoms: C_2  and  C_3 
REMARK    2  A    between atoms: C_6  and  C_7 
REMARK    3  A    between atoms: C_7  and  C_8 
REMARK    4  A    between atoms: C_8  and  N_9 
REMARK       I    between atoms: N_9  and  C_10 
REMARK       I    between atoms: C_10  and  N_12 
ROOT
HETATM    1  C   UNL     1     -40.870 -48.507  11.646  1.00  0.00     0.084 C 
ENDROOT
BRANCH   1   2
HETATM    2  C   UNL     1     -41.810 -47.854  10.677  1.00  0.00     0.053 A 
HETATM    3  N   UNL     1     -42.250 -48.386   9.556  1.00  0.00    -0.356 N 
HETATM    4  C   UNL     1     -43.118 -47.513   8.914  1.00  0.00     0.022 A 
ATOM      5  HN  UNL     1     -41.989 -49.309   9.208  1.00  0.00     0.166 HD
HETATM    6  C   UNL     1     -43.305 -46.302   9.562  1.00  0.00     0.003 A 
HETATM    7  S   UNL     1     -42.386 -46.269  11.007  1.00  0.00    -0.080 SA
HETATM    8  C   UNL     1     -44.144 -45.137   9.166  1.00  0.00     0.058 C 
BRANCH   4   9
HETATM    9  C   UNL     1     -43.732 -47.950   7.622  1.00  0.00     0.054 C 
HETATM   10  C   UNL     1     -45.201 -48.314   7.763  1.00  0.00     0.011 C 
ENDBRANCH   4   9
ENDBRANCH   1   2
BRANCH   1  11
HETATM   11  C   UNL     1     -40.390 -49.876  11.166  1.00  0.00     0.131 C 
BRANCH  11  12
HETATM   12  N   UNL     1     -41.293 -50.945  11.570  1.00  0.00    -0.343 N 
HETATM   13  C   UNL     1     -40.841 -52.039  12.255  1.00  0.00     0.318 C 
HETATM   14  O   UNL     1     -39.653 -52.223  12.504  1.00  0.00    -0.247 OA
HETATM   15  N   UNL     1     -41.807 -52.913  12.636  1.00  0.00    -0.334 N 
HETATM   16  C   UNL     1     -41.688 -54.138  13.402  1.00  0.00     0.129 C 
HETATM   17  C   UNL     1     -43.237 -53.023  12.466  1.00  0.00     0.129 C 
HETATM   18  C   UNL     1     -43.194 -53.991  13.659  1.00  0.00     0.040 C 
HETATM   19  H   UNL     1     -42.287 -50.777  11.549  1.00  0.00     0.164 HD
ENDBRANCH  11  12
ENDBRANCH   1  11
TORSDOF 4
ENDMDL
MODEL 2
REMARK VINA RESULT:      -5.5      2.885      6.468
REMARK  4 active torsions:
REMARK  status: ('A' for Active; 'I' for Inactive)
REMARK    1  A    between atoms: C_2  and  C_3 
REMARK    2  A    between atoms: C_6  and  C_7 
REMARK    3  A    between atoms: C_7  and  C_8 
REMARK    4  A    between atoms: C_8  and  N_9 
REMARK       I    between atoms: N_9  and  C_10 
REMARK       I    between atoms: C_10  and  N_12 
ROOT
HETATM    1  C   UNL     1     -41.454 -50.560  13.067  1.00  0.00     0.084 C 
ENDROOT
BRANCH   1   2
HETATM    2  C   UNL     1     -42.709 -51.378  13.131  1.00  0.00     0.053 A 
HETATM    3  N   UNL     1     -43.936 -50.903  13.146  1.00  0.00    -0.356 N 
HETATM    4  C   UNL     1     -44.857 -51.941  13.191  1.00  0.00     0.022 A 
ATOM      5  HN  UNL     1     -44.176 -49.911  13.126  1.00  0.00     0.166 HD
HETATM    6  C   UNL     1     -44.299 -53.208  13.234  1.00  0.00     0.003 A 
HETATM    7  S   UNL     1     -42.591 -53.091  13.203  1.00  0.00    -0.080 SA
HETATM    8  C   UNL     1     -44.970 -54.535  13.300  1.00  0.00     0.058 C 
BRANCH   4   9
HETATM    9  C   UNL     1     -46.312 -51.594  13.202  1.00  0.00     0.054 C 
HETATM   10  C   UNL     1     -46.864 -51.421  14.608  1.00  0.00     0.011 C 
ENDBRANCH   4   9
ENDBRANCH   1   2
BRANCH   1  11
HETATM   11  C   UNL     1     -41.023 -50.258  11.632  1.00  0.00     0.131 C 
BRANCH  11  12
HETATM   12  N   UNL     1     -41.932 -49.329  10.973  1.00  0.00    -0.343 N 
HETATM   13  C   UNL     1     -41.629 -48.000  10.850  1.00  0.00     0.318 C 
HETATM   14  O   UNL     1     -40.623 -47.501  11.345  1.00  0.00    -0.247 OA
HETATM   15  N   UNL     1     -42.529 -47.273  10.142  1.00  0.00    -0.334 N 
HETATM   16  C   UNL     1     -42.500 -45.867   9.789  1.00  0.00     0.129 C 
HETATM   17  C   UNL     1     -43.795 -47.527   9.496  1.00  0.00     0.129 C 
HETATM   18  C   UNL     1     -43.530 -46.232   8.711  1.00  0.00     0.040 C 
HETATM   19  H   UNL     1     -42.678 -49.698  10.405  1.00  0.00     0.164 HD
ENDBRANCH  11  12
ENDBRANCH   1  11
TORSDOF 4
ENDMDL
MODEL 3
REMARK VINA RESULT:      -5.4      1.960      2.807
REMARK  4 active torsions:
REMARK  status: ('A' for Active; 'I' for Inactive)
REMARK    1  A    between atoms: C_2  and  C_3 
REMARK    2  A    between atoms: C_6  and  C_7 
REMARK    3  A    between atoms: C_7  and  C_8 
REMARK    4  A    between atoms: C_8  and  N_9 
REMARK       I    between atoms: N_9  and  C_10 
REMARK       I    between atoms: C_10  and  N_12 
ROOT
HETATM    1  C   UNL     1     -40.902 -50.932  12.645  1.00  0.00     0.084 C 
ENDROOT
BRANCH   1   2
HETATM    2  C   UNL     1     -41.032 -49.634  11.907  1.00  0.00     0.053 A 
HETATM    3  N   UNL     1     -41.980 -49.332  11.046  1.00  0.00    -0.356 N 
HETATM    4  C   UNL     1     -41.805 -48.041  10.565  1.00  0.00     0.022 A 
ATOM      5  HN  UNL     1     -42.737 -49.958  10.770  1.00  0.00     0.166 HD
HETATM    6  C   UNL     1     -40.692 -47.384  11.064  1.00  0.00     0.003 A 
HETATM    7  S   UNL     1     -39.862 -48.402  12.164  1.00  0.00    -0.080 SA
HETATM    8  C   UNL     1     -40.190 -46.014  10.768  1.00  0.00     0.058 C 
BRANCH   4   9
HETATM    9  C   UNL     1     -42.798 -47.513   9.579  1.00  0.00     0.054 C 
HETATM   10  C   UNL     1     -44.210 -47.456  10.140  1.00  0.00     0.011 C 
ENDBRANCH   4   9
ENDBRANCH   1   2
BRANCH   1  11
HETATM   11  C   UNL     1     -41.335 -52.132  11.805  1.00  0.00     0.131 C 
BRANCH  11  12
HETATM   12  N   UNL     1     -42.677 -52.583  12.148  1.00  0.00    -0.343 N 
HETATM   13  C   UNL     1     -42.880 -53.652  12.978  1.00  0.00     0.318 C 
HETATM   14  O   UNL     1     -41.960 -54.333  13.420  1.00  0.00    -0.247 OA
HETATM   15  N   UNL     1     -44.180 -53.906  13.273  1.00  0.00    -0.334 N 
HETATM   16  C   UNL     1     -44.743 -54.921  14.142  1.00  0.00     0.129 C 
HETATM   17  C   UNL     1     -45.461 -53.356  12.894  1.00  0.00     0.129 C 
HETATM   18  C   UNL     1     -46.007 -54.051  14.152  1.00  0.00     0.040 C 
HETATM   19  H   UNL     1     -43.459 -51.974  11.962  1.00  0.00     0.164 HD
ENDBRANCH  11  12
ENDBRANCH   1  11
TORSDOF 4
ENDMDL
MODEL 4
REMARK VINA RESULT:      -5.1      4.405      6.290
REMARK  4 active torsions:
REMARK  status: ('A' for Active; 'I' for Inactive)
REMARK    1  A    between atoms: C_2  and  C_3 
REMARK    2  A    between atoms: C_6  and  C_7 
REMARK    3  A    between atoms: C_7  and  C_8 
REMARK    4  A    between atoms: C_8  and  N_9 
REMARK       I    between atoms: N_9  and  C_10 
REMARK       I    between atoms: C_10  and  N_12 
ROOT
HETATM    1  C   UNL     1     -42.279 -54.150  14.342  1.00  0.00     0.084 C 
ENDROOT
BRANCH   1   2
HETATM    2  C   UNL     1     -43.539 -53.366  14.123  1.00  0.00     0.053 A 
HETATM    3  N   UNL     1     -44.146 -52.621  15.023  1.00  0.00    -0.356 N 
HETATM    4  C   UNL     1     -45.273 -52.024  14.475  1.00  0.00     0.022 A 
ATOM      5  HN  UNL     1     -43.833 -52.500  15.986  1.00  0.00     0.166 HD
HETATM    6  C   UNL     1     -45.517 -52.352  13.151  1.00  0.00     0.003 A 
HETATM    7  S   UNL     1     -44.301 -53.417  12.584  1.00  0.00    -0.080 SA
HETATM    8  C   UNL     1     -46.624 -51.916  12.257  1.00  0.00     0.058 C 
BRANCH   4   9
HETATM    9  C   UNL     1     -46.092 -51.126  15.349  1.00  0.00     0.054 C 
HETATM   10  C   UNL     1     -47.308 -51.825  15.934  1.00  0.00     0.011 C 
ENDBRANCH   4   9
ENDBRANCH   1   2
BRANCH   1  11
HETATM   11  C   UNL     1     -41.383 -54.179  13.105  1.00  0.00     0.131 C 
BRANCH  11  12
HETATM   12  N   UNL     1     -40.303 -53.207  13.190  1.00  0.00    -0.343 N 
HETATM   13  C   UNL     1     -40.350 -52.025  12.501  1.00  0.00     0.318 C 
HETATM   14  O   UNL     1     -41.257 -51.747  11.722  1.00  0.00    -0.247 OA
HETATM   15  N   UNL     1     -39.314 -51.183  12.740  1.00  0.00    -0.334 N 
HETATM   16  C   UNL     1     -39.073 -49.851  12.219  1.00  0.00     0.129 C 
HETATM   17  C   UNL     1     -38.101 -51.220  13.524  1.00  0.00     0.129 C 
HETATM   18  C   UNL     1     -38.103 -49.688  13.396  1.00  0.00     0.040 C 
HETATM   19  H   UNL     1     -39.624 -53.294  13.930  1.00  0.00     0.164 HD
ENDBRANCH  11  12
ENDBRANCH   1  11
TORSDOF 4
ENDMDL
MODEL 5
REMARK VINA RESULT:      -5.1      4.656      6.298
REMARK  4 active torsions:
REMARK  status: ('A' for Active; 'I' for Inactive)
REMARK    1  A    between atoms: C_2  and  C_3 
REMARK    2  A    between atoms: C_6  and  C_7 
REMARK    3  A    between atoms: C_7  and  C_8 
REMARK    4  A    between atoms: C_8  and  N_9 
REMARK       I    between atoms: N_9  and  C_10 
REMARK       I    between atoms: C_10  and  N_12 
ROOT
HETATM    1  C   UNL     1     -41.574 -51.827  12.201  1.00  0.00     0.084 C 
ENDROOT
BRANCH   1   2
HETATM    2  C   UNL     1     -42.908 -52.368  12.621  1.00  0.00     0.053 A 
HETATM    3  N   UNL     1     -44.040 -51.697  12.629  1.00  0.00    -0.356 N 
HETATM    4  C   UNL     1     -45.081 -52.510  13.058  1.00  0.00     0.022 A 
ATOM      5  HN  UNL     1     -44.140 -50.719  12.358  1.00  0.00     0.166 HD
HETATM    6  C   UNL     1     -44.706 -53.801  13.397  1.00  0.00     0.003 A 
HETATM    7  S   UNL     1     -43.021 -53.996  13.157  1.00  0.00    -0.080 SA
HETATM    8  C   UNL     1     -45.539 -54.927  13.901  1.00  0.00     0.058 C 
BRANCH   4   9
HETATM    9  C   UNL     1     -46.456 -51.923  13.123  1.00  0.00     0.054 C 
HETATM   10  C   UNL     1     -46.808 -51.402  14.507  1.00  0.00     0.011 C 
ENDBRANCH   4   9
ENDBRANCH   1   2
BRANCH   1  11
HETATM   11  C   UNL     1     -40.407 -52.623  12.782  1.00  0.00     0.131 C 
BRANCH  11  12
HETATM   12  N   UNL     1     -39.804 -51.953  13.926  1.00  0.00    -0.343 N 
HETATM   13  C   UNL     1     -38.533 -51.451  13.871  1.00  0.00     0.318 C 
HETATM   14  O   UNL     1     -37.804 -51.596  12.894  1.00  0.00    -0.247 OA
HETATM   15  N   UNL     1     -38.135 -50.782  14.982  1.00  0.00    -0.334 N 
HETATM   16  C   UNL     1     -36.884 -50.097  15.243  1.00  0.00     0.129 C 
HETATM   17  C   UNL     1     -38.700 -50.485  16.277  1.00  0.00     0.129 C 
HETATM   18  C   UNL     1     -37.644 -49.371  16.361  1.00  0.00     0.040 C 
HETATM   19  H   UNL     1     -40.398 -51.653  14.684  1.00  0.00     0.164 HD
ENDBRANCH  11  12
ENDBRANCH   1  11
TORSDOF 4
ENDMDL
MODEL 6
REMARK VINA RESULT:      -5.1      3.590      5.554
REMARK  4 active torsions:
REMARK  status: ('A' for Active; 'I' for Inactive)
REMARK    1  A    between atoms: C_2  and  C_3 
REMARK    2  A    between atoms: C_6  and  C_7 
REMARK    3  A    between atoms: C_7  and  C_8 
REMARK    4  A    between atoms: C_8  and  N_9 
REMARK       I    between atoms: N_9  and  C_10 
REMARK       I    between atoms: C_10  and  N_12 
ROOT
HETATM    1  C   UNL     1     -41.139 -54.229  12.932  1.00  0.00     0.084 C 
ENDROOT
BRANCH   1   2
HETATM    2  C   UNL     1     -40.596 -52.836  12.822  1.00  0.00     0.053 A 
HETATM    3  N   UNL     1     -40.833 -51.994  11.838  1.00  0.00    -0.356 N 
HETATM    4  C   UNL     1     -40.187 -50.787  12.067  1.00  0.00     0.022 A 
ATOM      5  HN  UNL     1     -41.410 -52.201  11.022  1.00  0.00     0.166 HD
HETATM    6  C   UNL     1     -39.439 -50.743  13.232  1.00  0.00     0.003 A 
HETATM    7  S   UNL     1     -39.562 -52.238  14.058  1.00  0.00    -0.080 SA
HETATM    8  C   UNL     1     -38.615 -49.633  13.786  1.00  0.00     0.058 C 
BRANCH   4   9
HETATM    9  C   UNL     1     -40.349 -49.696  11.056  1.00  0.00     0.054 C 
HETATM   10  C   UNL     1     -41.588 -48.849  11.299  1.00  0.00     0.011 C 
ENDBRANCH   4   9
ENDBRANCH   1   2
BRANCH   1  11
HETATM   11  C   UNL     1     -42.111 -54.390  14.099  1.00  0.00     0.131 C 
BRANCH  11  12
HETATM   12  N   UNL     1     -43.262 -53.505  13.979  1.00  0.00    -0.343 N 
HETATM   13  C   UNL     1     -44.502 -53.883  14.415  1.00  0.00     0.318 C 
HETATM   14  O   UNL     1     -44.736 -55.002  14.860  1.00  0.00    -0.247 OA
HETATM   15  N   UNL     1     -45.459 -52.926  14.314  1.00  0.00    -0.334 N 
HETATM   16  C   UNL     1     -46.851 -52.973  14.716  1.00  0.00     0.129 C 
HETATM   17  C   UNL     1     -45.532 -51.576  13.807  1.00  0.00     0.129 C 
HETATM   18  C   UNL     1     -46.802 -51.441  14.662  1.00  0.00     0.040 C 
HETATM   19  H   UNL     1     -43.106 -52.527  13.786  1.00  0.00     0.164 HD
ENDBRANCH  11  12
ENDBRANCH   1  11
TORSDOF 4
ENDMDL
MODEL 7
REMARK VINA RESULT:      -5.0      4.471      6.240
REMARK  4 active torsions:
REMARK  status: ('A' for Active; 'I' for Inactive)
REMARK    1  A    between atoms: C_2  and  C_3 
REMARK    2  A    between atoms: C_6  and  C_7 
REMARK    3  A    between atoms: C_7  and  C_8 
REMARK    4  A    between atoms: C_8  and  N_9 
REMARK       I    between atoms: N_9  and  C_10 
REMARK       I    between atoms: C_10  and  N_12 
ROOT
HETATM    1  C   UNL     1     -42.139 -54.297  14.404  1.00  0.00     0.084 C 
ENDROOT
BRANCH   1   2
HETATM    2  C   UNL     1     -43.437 -53.547  14.432  1.00  0.00     0.053 A 
HETATM    3  N   UNL     1     -43.872 -52.729  13.497  1.00  0.00    -0.356 N 
HETATM    4  C   UNL     1     -45.118 -52.222  13.839  1.00  0.00     0.022 A 
ATOM      5  HN  UNL     1     -43.364 -52.499  12.642  1.00  0.00     0.166 HD
HETATM    6  C   UNL     1     -45.604 -52.657  15.062  1.00  0.00     0.003 A 
HETATM    7  S   UNL     1     -44.481 -53.729  15.785  1.00  0.00    -0.080 SA
HETATM    8  C   UNL     1     -46.881 -52.317  15.748  1.00  0.00     0.058 C 
BRANCH   4   9
HETATM    9  C   UNL     1     -45.782 -51.278  12.888  1.00  0.00     0.054 C 
HETATM   10  C   UNL     1     -46.828 -51.958  12.019  1.00  0.00     0.011 C 
ENDBRANCH   4   9
ENDBRANCH   1   2
BRANCH   1  11
HETATM   11  C   UNL     1     -41.432 -54.198  13.052  1.00  0.00     0.131 C 
BRANCH  11  12
HETATM   12  N   UNL     1     -40.359 -53.213  13.068  1.00  0.00    -0.343 N 
HETATM   13  C   UNL     1     -40.488 -52.007  12.436  1.00  0.00     0.318 C 
HETATM   14  O   UNL     1     -41.472 -51.712  11.763  1.00  0.00    -0.247 OA
HETATM   15  N   UNL     1     -39.442 -51.159  12.604  1.00  0.00    -0.334 N 
HETATM   16  C   UNL     1     -39.269 -49.805  12.116  1.00  0.00     0.129 C 
HETATM   17  C   UNL     1     -38.157 -51.209  13.261  1.00  0.00     0.129 C 
HETATM   18  C   UNL     1     -38.187 -49.673  13.196  1.00  0.00     0.040 C 
HETATM   19  H   UNL     1     -39.609 -53.320  13.733  1.00  0.00     0.164 HD
ENDBRANCH  11  12
ENDBRANCH   1  11
TORSDOF 4
ENDMDL
MODEL 8
REMARK VINA RESULT:      -4.9      3.993      4.940
REMARK  4 active torsions:
REMARK  status: ('A' for Active; 'I' for Inactive)
REMARK    1  A    between atoms: C_2  and  C_3 
REMARK    2  A    between atoms: C_6  and  C_7 
REMARK    3  A    between atoms: C_7  and  C_8 
REMARK    4  A    between atoms: C_8  and  N_9 
REMARK       I    between atoms: N_9  and  C_10 
REMARK       I    between atoms: C_10  and  N_12 
ROOT
HETATM    1  C   UNL     1     -42.554 -49.959  13.340  1.00  0.00     0.084 C 
ENDROOT
BRANCH   1   2
HETATM    2  C   UNL     1     -43.910 -50.563  13.553  1.00  0.00     0.053 A 
HETATM    3  N   UNL     1     -44.674 -51.083  12.617  1.00  0.00    -0.356 N 
HETATM    4  C   UNL     1     -45.853 -51.567  13.168  1.00  0.00     0.022 A 
ATOM      5  HN  UNL     1     -44.435 -51.125  11.626  1.00  0.00     0.166 HD
HETATM    6  C   UNL     1     -45.972 -51.380  14.536  1.00  0.00     0.003 A 
HETATM    7  S   UNL     1     -44.574 -50.596  15.138  1.00  0.00    -0.080 SA
HETATM    8  C   UNL     1     -47.087 -51.754  15.449  1.00  0.00     0.058 C 
BRANCH   4   9
HETATM    9  C   UNL     1     -46.849 -52.209  12.254  1.00  0.00     0.054 C 
HETATM   10  C   UNL     1     -47.288 -51.290  11.126  1.00  0.00     0.011 C 
ENDBRANCH   4   9
ENDBRANCH   1   2
BRANCH   1  11
HETATM   11  C   UNL     1     -41.581 -50.924  12.666  1.00  0.00     0.131 C 
BRANCH  11  12
HETATM   12  N   UNL     1     -41.420 -52.158  13.423  1.00  0.00    -0.343 N 
HETATM   13  C   UNL     1     -40.204 -52.774  13.534  1.00  0.00     0.318 C 
HETATM   14  O   UNL     1     -39.201 -52.374  12.950  1.00  0.00    -0.247 OA
HETATM   15  N   UNL     1     -40.190 -53.868  14.337  1.00  0.00    -0.334 N 
HETATM   16  C   UNL     1     -39.078 -54.723  14.705  1.00  0.00     0.129 C 
HETATM   17  C   UNL     1     -41.164 -54.612  15.100  1.00  0.00     0.129 C 
HETATM   18  C   UNL     1     -39.963 -55.180  15.872  1.00  0.00     0.040 C 
HETATM   19  H   UNL     1     -42.152 -52.439  14.057  1.00  0.00     0.164 HD
ENDBRANCH  11  12
ENDBRANCH   1  11
TORSDOF 4
ENDMDL
MODEL 9
REMARK VINA RESULT:      -4.8      4.763      5.813
REMARK  4 active torsions:
REMARK  status: ('A' for Active; 'I' for Inactive)
REMARK    1  A    between atoms: C_2  and  C_3 
REMARK    2  A    between atoms: C_6  and  C_7 
REMARK    3  A    between atoms: C_7  and  C_8 
REMARK    4  A    between atoms: C_8  and  N_9 
REMARK       I    between atoms: N_9  and  C_10 
REMARK       I    between atoms: C_10  and  N_12 
ROOT
HETATM    1  C   UNL     1     -39.003 -52.717  15.625  1.00  0.00     0.084 C 
ENDROOT
BRANCH   1   2
HETATM    2  C   UNL     1     -38.582 -51.438  14.965  1.00  0.00     0.053 A 
HETATM    3  N   UNL     1     -38.727 -51.148  13.690  1.00  0.00    -0.356 N 
HETATM    4  C   UNL     1     -38.245 -49.873  13.426  1.00  0.00     0.022 A 
ATOM      5  HN  UNL     1     -39.136 -51.772  12.994  1.00  0.00     0.166 HD
HETATM    6  C   UNL     1     -37.712 -49.217  14.523  1.00  0.00     0.003 A 
HETATM    7  S   UNL     1     -37.832 -50.214  15.910  1.00  0.00    -0.080 SA
HETATM    8  C   UNL     1     -37.101 -47.862  14.611  1.00  0.00     0.058 C 
BRANCH   4   9
HETATM    9  C   UNL     1     -38.336 -49.360  12.023  1.00  0.00     0.054 C 
HETATM   10  C   UNL     1     -37.305 -49.989  11.100  1.00  0.00     0.011 C 
ENDBRANCH   4   9
ENDBRANCH   1   2
BRANCH   1  11
HETATM   11  C   UNL     1     -39.414 -53.790  14.618  1.00  0.00     0.131 C 
BRANCH  11  12
HETATM   12  N   UNL     1     -40.860 -53.948  14.548  1.00  0.00    -0.343 N 
HETATM   13  C   UNL     1     -41.581 -53.460  13.492  1.00  0.00     0.318 C 
HETATM   14  O   UNL     1     -41.073 -52.803  12.588  1.00  0.00    -0.247 OA
HETATM   15  N   UNL     1     -42.906 -53.752  13.521  1.00  0.00    -0.334 N 
HETATM   16  C   UNL     1     -43.939 -53.432  12.556  1.00  0.00     0.129 C 
HETATM   17  C   UNL     1     -43.803 -54.430  14.428  1.00  0.00     0.129 C 
HETATM   18  C   UNL     1     -44.754 -54.546  13.226  1.00  0.00     0.040 C 
HETATM   19  H   UNL     1     -41.308 -54.614  15.158  1.00  0.00     0.164 HD
ENDBRANCH  11  12
ENDBRANCH   1  11
TORSDOF 4
ENDMDL
