MODEL 1
REMARK VINA RESULT:      -6.1      0.000      0.000
REMARK  3 active torsions:
REMARK  status: ('A' for Active; 'I' for Inactive)
REMARK    1  A    between atoms: C_9  and  C_10 
REMARK       I    between atoms: C_10  and  N_12 
REMARK    2  A    between atoms: N_12  and  C_13 
REMARK    3  A    between atoms: C_13  and  C_14 
ROOT
HETATM    1 CL   UNL     1     -41.437 -45.154  10.538  1.00  0.00    -0.080 Cl
HETATM    2  C   UNL     1     -41.455 -46.764  11.126  1.00  0.00     0.082 A 
HETATM    3  C   UNL     1     -40.578 -47.103  12.124  1.00  0.00     0.132 A 
HETATM    4  N   UNL     1     -40.491 -48.332  12.673  1.00  0.00    -0.200 N 
ATOM      5  HN  UNL     1     -39.818 -48.525  13.415  1.00  0.00     0.183 HD
HETATM    6  C   UNL     1     -41.309 -49.293  12.222  1.00  0.00     0.680 A 
HETATM    7  N   UNL     1     -42.201 -49.067  11.244  1.00  0.00    -0.184 N 
ATOM      8  HN  UNL     1     -42.813 -49.810  10.908  1.00  0.00     0.184 HD
HETATM    9  C   UNL     1     -42.262 -47.806  10.714  1.00  0.00     0.139 A 
HETATM   10  N   UNL     1     -41.218 -50.531  12.790  1.00  0.00    -0.214 N 
HETATM   11  C   UNL     1     -40.241 -50.835  13.837  1.00  0.00     0.167 C 
HETATM   12  C   UNL     1     -39.370 -52.026  13.404  1.00  0.00     0.188 C 
HETATM   13  O   UNL     1     -40.172 -53.159  13.026  1.00  0.00    -0.388 OA
HETATM   14  C   UNL     1     -41.045 -52.816  11.936  1.00  0.00     0.188 C 
HETATM   15  C   UNL     1     -41.999 -51.671  12.317  1.00  0.00     0.167 C 
ENDROOT
BRANCH   9  16
HETATM   16  C   UNL     1     -43.296 -47.632   9.632  1.00  0.00     0.270 C 
HETATM   17  O   UNL     1     -43.062 -47.871   8.454  1.00  0.00    -0.266 OA
HETATM   18  N   UNL     1     -44.530 -47.177  10.055  1.00  0.00    -0.352 N 
HETATM   19  H   UNL     1     -44.636 -46.949  11.038  1.00  0.00     0.163 HD
BRANCH  18  20
HETATM   20  C   UNL     1     -45.600 -46.897   9.129  1.00  0.00     0.149 C 
BRANCH  20  21
HETATM   21  C   UNL     1     -46.491 -48.095   9.067  1.00  0.00    -0.018 C 
HETATM   22  C   UNL     1     -46.564 -48.938   8.029  1.00  0.00     0.008 C 
ENDBRANCH  20  21
ENDBRANCH  18  20
ENDBRANCH   9  16
TORSDOF 3
ENDMDL
MODEL 2
REMARK VINA RESULT:      -5.9      4.322      5.719
REMARK  3 active torsions:
REMARK  status: ('A' for Active; 'I' for Inactive)
REMARK    1  A    between atoms: C_9  and  C_10 
REMARK       I    between atoms: C_10  and  N_12 
REMARK    2  A    between atoms: N_12  and  C_13 
REMARK    3  A    between atoms: C_13  and  C_14 
ROOT
HETATM    1 CL   UNL     1     -42.801 -55.167  14.871  1.00  0.00    -0.080 Cl
HETATM    2  C   UNL     1     -42.034 -53.900  14.009  1.00  0.00     0.082 A 
HETATM    3  C   UNL     1     -40.693 -53.695  14.208  1.00  0.00     0.132 A 
HETATM    4  N   UNL     1     -39.973 -52.735  13.593  1.00  0.00    -0.200 N 
ATOM      5  HN  UNL     1     -38.975 -52.631  13.781  1.00  0.00     0.183 HD
HETATM    6  C   UNL     1     -40.597 -51.922  12.730  1.00  0.00     0.680 A 
HETATM    7  N   UNL     1     -41.908 -52.034  12.468  1.00  0.00    -0.184 N 
ATOM      8  HN  UNL     1     -42.371 -51.404  11.812  1.00  0.00     0.184 HD
HETATM    9  C   UNL     1     -42.605 -53.023  13.109  1.00  0.00     0.139 A 
HETATM   10  N   UNL     1     -39.857 -50.958  12.107  1.00  0.00    -0.214 N 
HETATM   11  C   UNL     1     -38.431 -50.775  12.383  1.00  0.00     0.167 C 
HETATM   12  C   UNL     1     -38.170 -49.328  12.831  1.00  0.00     0.188 C 
HETATM   13  O   UNL     1     -38.694 -48.377  11.888  1.00  0.00    -0.388 OA
HETATM   14  C   UNL     1     -40.113 -48.556  11.730  1.00  0.00     0.188 C 
HETATM   15  C   UNL     1     -40.450 -49.965  11.216  1.00  0.00     0.167 C 
ENDROOT
BRANCH   9  16
HETATM   16  C   UNL     1     -44.068 -53.090  12.751  1.00  0.00     0.270 C 
HETATM   17  O   UNL     1     -44.595 -54.112  12.327  1.00  0.00    -0.266 OA
HETATM   18  N   UNL     1     -44.778 -51.918  12.926  1.00  0.00    -0.352 N 
HETATM   19  H   UNL     1     -44.265 -51.098  13.230  1.00  0.00     0.163 HD
BRANCH  18  20
HETATM   20  C   UNL     1     -46.170 -51.807  12.562  1.00  0.00     0.149 C 
BRANCH  20  21
HETATM   21  C   UNL     1     -46.959 -51.556  13.806  1.00  0.00    -0.018 C 
HETATM   22  C   UNL     1     -46.427 -51.335  15.015  1.00  0.00     0.008 C 
ENDBRANCH  20  21
ENDBRANCH  18  20
ENDBRANCH   9  16
TORSDOF 3
ENDMDL
MODEL 3
REMARK VINA RESULT:      -5.7      2.813      3.777
REMARK  3 active torsions:
REMARK  status: ('A' for Active; 'I' for Inactive)
REMARK    1  A    between atoms: C_9  and  C_10 
REMARK       I    between atoms: C_10  and  N_12 
REMARK    2  A    between atoms: N_12  and  C_13 
REMARK    3  A    between atoms: C_13  and  C_14 
ROOT
HETATM    1 CL   UNL     1     -38.738 -49.720  11.404  1.00  0.00    -0.080 Cl
HETATM    2  C   UNL     1     -40.233 -50.356  11.952  1.00  0.00     0.082 A 
HETATM    3  C   UNL     1     -40.238 -51.592  12.543  1.00  0.00     0.132 A 
HETATM    4  N   UNL     1     -41.344 -52.203  13.015  1.00  0.00    -0.200 N 
ATOM      5  HN  UNL     1     -41.286 -53.125  13.448  1.00  0.00     0.183 HD
HETATM    6  C   UNL     1     -42.520 -51.570  12.904  1.00  0.00     0.680 A 
HETATM    7  N   UNL     1     -42.626 -50.358  12.336  1.00  0.00    -0.184 N 
ATOM      8  HN  UNL     1     -43.529 -49.892  12.253  1.00  0.00     0.184 HD
HETATM    9  C   UNL     1     -41.480 -49.769  11.871  1.00  0.00     0.139 A 
HETATM   10  N   UNL     1     -43.633 -52.194  13.392  1.00  0.00    -0.214 N 
HETATM   11  C   UNL     1     -43.575 -53.528  13.992  1.00  0.00     0.167 C 
HETATM   12  C   UNL     1     -44.545 -54.469  13.259  1.00  0.00     0.188 C 
HETATM   13  O   UNL     1     -45.875 -53.925  13.208  1.00  0.00    -0.388 OA
HETATM   14  C   UNL     1     -45.874 -52.656  12.530  1.00  0.00     0.188 C 
HETATM   15  C   UNL     1     -44.974 -51.635  13.246  1.00  0.00     0.167 C 
ENDROOT
BRANCH   9  16
HETATM   16  C   UNL     1     -41.682 -48.407  11.260  1.00  0.00     0.270 C 
HETATM   17  O   UNL     1     -41.200 -47.390  11.745  1.00  0.00    -0.266 OA
HETATM   18  N   UNL     1     -42.454 -48.376  10.115  1.00  0.00    -0.352 N 
HETATM   19  H   UNL     1     -42.863 -49.248   9.800  1.00  0.00     0.163 HD
BRANCH  18  20
HETATM   20  C   UNL     1     -42.792 -47.139   9.454  1.00  0.00     0.149 C 
BRANCH  20  21
HETATM   21  C   UNL     1     -44.063 -47.346   8.695  1.00  0.00    -0.018 C 
HETATM   22  C   UNL     1     -45.236 -46.779   9.004  1.00  0.00     0.008 C 
ENDBRANCH  20  21
ENDBRANCH  18  20
ENDBRANCH   9  16
TORSDOF 3
ENDMDL
MODEL 4
REMARK VINA RESULT:      -5.6      2.889      5.310
REMARK  3 active torsions:
REMARK  status: ('A' for Active; 'I' for Inactive)
REMARK    1  A    between atoms: C_9  and  C_10 
REMARK       I    between atoms: C_10  and  N_12 
REMARK    2  A    between atoms: N_12  and  C_13 
REMARK    3  A    between atoms: C_13  and  C_14 
ROOT
HETATM    1 CL   UNL     1     -40.836 -51.949  15.046  1.00  0.00    -0.080 Cl
HETATM    2  C   UNL     1     -41.095 -50.818  13.784  1.00  0.00     0.082 A 
HETATM    3  C   UNL     1     -40.279 -49.719  13.717  1.00  0.00     0.132 A 
HETATM    4  N   UNL     1     -40.377 -48.758  12.776  1.00  0.00    -0.200 N 
ATOM      5  HN  UNL     1     -39.739 -47.961  12.775  1.00  0.00     0.183 HD
HETATM    6  C   UNL     1     -41.330 -48.873  11.841  1.00  0.00     0.680 A 
HETATM    7  N   UNL     1     -42.185 -49.907  11.821  1.00  0.00    -0.184 N 
ATOM      8  HN  UNL     1     -42.910 -49.978  11.106  1.00  0.00     0.184 HD
HETATM    9  C   UNL     1     -42.052 -50.865  12.791  1.00  0.00     0.139 A 
HETATM   10  N   UNL     1     -41.416 -47.898  10.889  1.00  0.00    -0.214 N 
HETATM   11  C   UNL     1     -40.528 -46.735  10.887  1.00  0.00     0.167 C 
HETATM   12  C   UNL     1     -41.363 -45.444  10.909  1.00  0.00     0.188 C 
HETATM   13  O   UNL     1     -42.334 -45.422   9.848  1.00  0.00    -0.388 OA
HETATM   14  C   UNL     1     -43.227 -46.543   9.961  1.00  0.00     0.188 C 
HETATM   15  C   UNL     1     -42.470 -47.878   9.878  1.00  0.00     0.167 C 
ENDROOT
BRANCH   9  16
HETATM   16  C   UNL     1     -43.040 -51.998  12.690  1.00  0.00     0.270 C 
HETATM   17  O   UNL     1     -42.693 -53.170  12.616  1.00  0.00    -0.266 OA
HETATM   18  N   UNL     1     -44.372 -51.628  12.681  1.00  0.00    -0.352 N 
HETATM   19  H   UNL     1     -44.585 -50.637  12.693  1.00  0.00     0.163 HD
BRANCH  18  20
HETATM   20  C   UNL     1     -45.432 -52.593  12.521  1.00  0.00     0.149 C 
BRANCH  20  21
HETATM   21  C   UNL     1     -46.715 -51.851  12.327  1.00  0.00    -0.018 C 
HETATM   22  C   UNL     1     -47.341 -51.708  11.151  1.00  0.00     0.008 C 
ENDBRANCH  20  21
ENDBRANCH  18  20
ENDBRANCH   9  16
TORSDOF 3
ENDMDL
MODEL 5
REMARK VINA RESULT:      -5.6      2.630      5.812
REMARK  3 active torsions:
REMARK  status: ('A' for Active; 'I' for Inactive)
REMARK    1  A    between atoms: C_9  and  C_10 
REMARK       I    between atoms: C_10  and  N_12 
REMARK    2  A    between atoms: N_12  and  C_13 
REMARK    3  A    between atoms: C_13  and  C_14 
ROOT
HETATM    1 CL   UNL     1     -39.719 -51.372  14.463  1.00  0.00    -0.080 Cl
HETATM    2  C   UNL     1     -40.348 -50.324  13.261  1.00  0.00     0.082 A 
HETATM    3  C   UNL     1     -39.910 -49.026  13.234  1.00  0.00     0.132 A 
HETATM    4  N   UNL     1     -40.325 -48.103  12.343  1.00  0.00    -0.200 N 
ATOM      5  HN  UNL     1     -39.961 -47.150  12.371  1.00  0.00     0.183 HD
HETATM    6  C   UNL     1     -41.225 -48.466  11.419  1.00  0.00     0.680 A 
HETATM    7  N   UNL     1     -41.724 -49.711  11.362  1.00  0.00    -0.184 N 
ATOM      8  HN  UNL     1     -42.413 -49.971  10.657  1.00  0.00     0.184 HD
HETATM    9  C   UNL     1     -41.275 -50.621  12.282  1.00  0.00     0.139 A 
HETATM   10  N   UNL     1     -41.634 -47.526  10.517  1.00  0.00    -0.214 N 
HETATM   11  C   UNL     1     -41.144 -46.148  10.557  1.00  0.00     0.167 C 
HETATM   12  C   UNL     1     -42.332 -45.177  10.655  1.00  0.00     0.188 C 
HETATM   13  O   UNL     1     -43.295 -45.410   9.612  1.00  0.00    -0.388 OA
HETATM   14  C   UNL     1     -43.799 -46.754   9.685  1.00  0.00     0.188 C 
HETATM   15  C   UNL     1     -42.673 -47.789   9.525  1.00  0.00     0.167 C 
ENDROOT
BRANCH   9  16
HETATM   16  C   UNL     1     -41.873 -51.998  12.143  1.00  0.00     0.270 C 
HETATM   17  O   UNL     1     -41.216 -52.967  11.783  1.00  0.00    -0.266 OA
HETATM   18  N   UNL     1     -43.218 -52.096  12.442  1.00  0.00    -0.352 N 
HETATM   19  H   UNL     1     -43.710 -51.242  12.682  1.00  0.00     0.163 HD
BRANCH  18  20
HETATM   20  C   UNL     1     -43.946 -53.332  12.290  1.00  0.00     0.149 C 
BRANCH  20  21
HETATM   21  C   UNL     1     -44.479 -53.729  13.630  1.00  0.00    -0.018 C 
HETATM   22  C   UNL     1     -45.092 -54.890  13.892  1.00  0.00     0.008 C 
ENDBRANCH  20  21
ENDBRANCH  18  20
ENDBRANCH   9  16
TORSDOF 3
ENDMDL
MODEL 6
REMARK VINA RESULT:      -5.3      3.610      5.940
REMARK  3 active torsions:
REMARK  status: ('A' for Active; 'I' for Inactive)
REMARK    1  A    between atoms: C_9  and  C_10 
REMARK       I    between atoms: C_10  and  N_12 
REMARK    2  A    between atoms: N_12  and  C_13 
REMARK    3  A    between atoms: C_13  and  C_14 
ROOT
HETATM    1 CL   UNL     1     -40.978 -54.317  12.919  1.00  0.00    -0.080 Cl
HETATM    2  C   UNL     1     -41.341 -52.682  12.554  1.00  0.00     0.082 A 
HETATM    3  C   UNL     1     -40.310 -51.847  12.208  1.00  0.00     0.132 A 
HETATM    4  N   UNL     1     -40.460 -50.543  11.899  1.00  0.00    -0.200 N 
ATOM      5  HN  UNL     1     -39.654 -49.971  11.647  1.00  0.00     0.183 HD
HETATM    6  C   UNL     1     -41.692 -50.017  11.928  1.00  0.00     0.680 A 
HETATM    7  N   UNL     1     -42.769 -50.746  12.260  1.00  0.00    -0.184 N 
ATOM      8  HN  UNL     1     -43.700 -50.330  12.284  1.00  0.00     0.184 HD
HETATM    9  C   UNL     1     -42.577 -52.067  12.565  1.00  0.00     0.139 A 
HETATM   10  N   UNL     1     -41.834 -48.698  11.607  1.00  0.00    -0.214 N 
HETATM   11  C   UNL     1     -40.687 -47.853  11.269  1.00  0.00     0.167 C 
HETATM   12  C   UNL     1     -40.651 -46.630  12.200  1.00  0.00     0.188 C 
HETATM   13  O   UNL     1     -41.903 -45.921  12.193  1.00  0.00    -0.388 OA
HETATM   14  C   UNL     1     -42.972 -46.784  12.617  1.00  0.00     0.188 C 
HETATM   15  C   UNL     1     -43.116 -48.002  11.690  1.00  0.00     0.167 C 
ENDROOT
BRANCH   9  16
HETATM   16  C   UNL     1     -43.836 -52.818  12.913  1.00  0.00     0.270 C 
HETATM   17  O   UNL     1     -44.488 -53.434  12.078  1.00  0.00    -0.266 OA
HETATM   18  N   UNL     1     -44.214 -52.763  14.241  1.00  0.00    -0.352 N 
HETATM   19  H   UNL     1     -43.656 -52.191  14.866  1.00  0.00     0.163 HD
BRANCH  18  20
HETATM   20  C   UNL     1     -45.432 -53.374  14.714  1.00  0.00     0.149 C 
BRANCH  20  21
HETATM   21  C   UNL     1     -46.149 -52.383  15.574  1.00  0.00    -0.018 C 
HETATM   22  C   UNL     1     -47.053 -51.501  15.129  1.00  0.00     0.008 C 
ENDBRANCH  20  21
ENDBRANCH  18  20
ENDBRANCH   9  16
TORSDOF 3
ENDMDL
MODEL 7
REMARK VINA RESULT:      -5.3      2.919      4.673
REMARK  3 active torsions:
REMARK  status: ('A' for Active; 'I' for Inactive)
REMARK    1  A    between atoms: C_9  and  C_10 
REMARK       I    between atoms: C_10  and  N_12 
REMARK    2  A    between atoms: N_12  and  C_13 
REMARK    3  A    between atoms: C_13  and  C_14 
ROOT
HETATM    1 CL   UNL     1     -43.491 -45.805   9.688  1.00  0.00    -0.080 Cl
HETATM    2  C   UNL     1     -42.285 -46.847  10.319  1.00  0.00     0.082 A 
HETATM    3  C   UNL     1     -42.602 -48.166  10.516  1.00  0.00     0.132 A 
HETATM    4  N   UNL     1     -41.746 -49.087  11.004  1.00  0.00    -0.200 N 
ATOM      5  HN  UNL     1     -42.039 -50.057  11.128  1.00  0.00     0.183 HD
HETATM    6  C   UNL     1     -40.504 -48.700  11.323  1.00  0.00     0.680 A 
HETATM    7  N   UNL     1     -40.094 -47.431  11.175  1.00  0.00    -0.184 N 
ATOM      8  HN  UNL     1     -39.146 -47.150  11.427  1.00  0.00     0.184 HD
HETATM    9  C   UNL     1     -40.990 -46.525  10.672  1.00  0.00     0.139 A 
HETATM   10  N   UNL     1     -39.644 -49.642  11.810  1.00  0.00    -0.214 N 
HETATM   11  C   UNL     1     -40.052 -51.032  12.019  1.00  0.00     0.167 C 
HETATM   12  C   UNL     1     -39.798 -51.434  13.482  1.00  0.00     0.188 C 
HETATM   13  O   UNL     1     -38.438 -51.174  13.874  1.00  0.00    -0.388 OA
HETATM   14  C   UNL     1     -38.131 -49.777  13.726  1.00  0.00     0.188 C 
HETATM   15  C   UNL     1     -38.297 -49.314  12.269  1.00  0.00     0.167 C 
ENDROOT
BRANCH   9  16
HETATM   16  C   UNL     1     -40.449 -45.127  10.525  1.00  0.00     0.270 C 
HETATM   17  O   UNL     1     -39.712 -44.800   9.602  1.00  0.00    -0.266 OA
HETATM   18  N   UNL     1     -40.833 -44.233  11.506  1.00  0.00    -0.352 N 
HETATM   19  H   UNL     1     -41.400 -44.586  12.268  1.00  0.00     0.163 HD
BRANCH  18  20
HETATM   20  C   UNL     1     -40.342 -42.876  11.538  1.00  0.00     0.149 C 
BRANCH  20  21
HETATM   21  C   UNL     1     -40.480 -42.363  12.935  1.00  0.00    -0.018 C 
HETATM   22  C   UNL     1     -39.939 -41.222  13.385  1.00  0.00     0.008 C 
ENDBRANCH  20  21
ENDBRANCH  18  20
ENDBRANCH   9  16
TORSDOF 3
ENDMDL
MODEL 8
REMARK VINA RESULT:      -5.2      3.949      6.484
REMARK  3 active torsions:
REMARK  status: ('A' for Active; 'I' for Inactive)
REMARK    1  A    between atoms: C_9  and  C_10 
REMARK       I    between atoms: C_10  and  N_12 
REMARK    2  A    between atoms: N_12  and  C_13 
REMARK    3  A    between atoms: C_13  and  C_14 
ROOT
HETATM    1 CL   UNL     1     -39.702 -48.483  11.899  1.00  0.00    -0.080 Cl
HETATM    2  C   UNL     1     -40.416 -49.990  12.295  1.00  0.00     0.082 A 
HETATM    3  C   UNL     1     -41.704 -50.226  11.891  1.00  0.00     0.132 A 
HETATM    4  N   UNL     1     -42.380 -51.367  12.138  1.00  0.00    -0.200 N 
ATOM      5  HN  UNL     1     -43.339 -51.487  11.810  1.00  0.00     0.183 HD
HETATM    6  C   UNL     1     -41.762 -52.340  12.822  1.00  0.00     0.680 A 
HETATM    7  N   UNL     1     -40.503 -52.208  13.268  1.00  0.00    -0.184 N 
ATOM      8  HN  UNL     1     -40.048 -52.955  13.792  1.00  0.00     0.184 HD
HETATM    9  C   UNL     1     -39.849 -51.036  12.995  1.00  0.00     0.139 A 
HETATM   10  N   UNL     1     -42.452 -53.494  13.060  1.00  0.00    -0.214 N 
HETATM   11  C   UNL     1     -43.837 -53.675  12.622  1.00  0.00     0.167 C 
HETATM   12  C   UNL     1     -44.721 -54.032  13.828  1.00  0.00     0.188 C 
HETATM   13  O   UNL     1     -44.200 -55.161  14.552  1.00  0.00    -0.388 OA
HETATM   14  C   UNL     1     -42.871 -54.883  15.028  1.00  0.00     0.188 C 
HETATM   15  C   UNL     1     -41.908 -54.582  13.868  1.00  0.00     0.167 C 
ENDROOT
BRANCH   9  16
HETATM   16  C   UNL     1     -38.437 -50.971  13.518  1.00  0.00     0.270 C 
HETATM   17  O   UNL     1     -37.510 -51.567  12.984  1.00  0.00    -0.266 OA
HETATM   18  N   UNL     1     -38.256 -50.197  14.648  1.00  0.00    -0.352 N 
HETATM   19  H   UNL     1     -39.078 -49.776  15.067  1.00  0.00     0.163 HD
BRANCH  18  20
HETATM   20  C   UNL     1     -36.976 -50.093  15.306  1.00  0.00     0.149 C 
BRANCH  20  21
HETATM   21  C   UNL     1     -36.675 -48.644  15.515  1.00  0.00    -0.018 C 
HETATM   22  C   UNL     1     -37.088 -47.655  14.711  1.00  0.00     0.008 C 
ENDBRANCH  20  21
ENDBRANCH  18  20
ENDBRANCH   9  16
TORSDOF 3
ENDMDL
MODEL 9
REMARK VINA RESULT:      -5.1      4.493      5.986
REMARK  3 active torsions:
REMARK  status: ('A' for Active; 'I' for Inactive)
REMARK    1  A    between atoms: C_9  and  C_10 
REMARK       I    between atoms: C_10  and  N_12 
REMARK    2  A    between atoms: N_12  and  C_13 
REMARK    3  A    between atoms: C_13  and  C_14 
ROOT
HETATM    1 CL   UNL     1     -44.055 -54.648  13.892  1.00  0.00    -0.080 Cl
HETATM    2  C   UNL     1     -43.352 -53.207  13.286  1.00  0.00     0.082 A 
HETATM    3  C   UNL     1     -42.026 -53.225  12.939  1.00  0.00     0.132 A 
HETATM    4  N   UNL     1     -41.356 -52.161  12.450  1.00  0.00    -0.200 N 
ATOM      5  HN  UNL     1     -40.367 -52.234  12.208  1.00  0.00     0.183 HD
HETATM    6  C   UNL     1     -42.017 -51.007  12.291  1.00  0.00     0.680 A 
HETATM    7  N   UNL     1     -43.316 -50.881  12.606  1.00  0.00    -0.184 N 
ATOM      8  HN  UNL     1     -43.804 -49.994  12.484  1.00  0.00     0.184 HD
HETATM    9  C   UNL     1     -43.963 -51.984  13.095  1.00  0.00     0.139 A 
HETATM   10  N   UNL     1     -41.331 -49.938  11.789  1.00  0.00    -0.214 N 
HETATM   11  C   UNL     1     -39.907 -50.016  11.460  1.00  0.00     0.167 C 
HETATM   12  C   UNL     1     -39.137 -48.926  12.224  1.00  0.00     0.188 C 
HETATM   13  O   UNL     1     -39.703 -47.622  12.003  1.00  0.00    -0.388 OA
HETATM   14  C   UNL     1     -41.076 -47.592  12.428  1.00  0.00     0.188 C 
HETATM   15  C   UNL     1     -41.929 -48.612  11.656  1.00  0.00     0.167 C 
ENDROOT
BRANCH   9  16
HETATM   16  C   UNL     1     -45.420 -51.764  13.412  1.00  0.00     0.270 C 
HETATM   17  O   UNL     1     -46.266 -51.601  12.541  1.00  0.00    -0.266 OA
HETATM   18  N   UNL     1     -45.742 -51.753  14.755  1.00  0.00    -0.352 N 
HETATM   19  H   UNL     1     -44.984 -51.842  15.422  1.00  0.00     0.163 HD
BRANCH  18  20
HETATM   20  C   UNL     1     -47.083 -51.486  15.217  1.00  0.00     0.149 C 
BRANCH  20  21
HETATM   21  C   UNL     1     -47.007 -51.044  16.643  1.00  0.00    -0.018 C 
HETATM   22  C   UNL     1     -48.062 -50.917  17.459  1.00  0.00     0.008 C 
ENDBRANCH  20  21
ENDBRANCH  18  20
ENDBRANCH   9  16
TORSDOF 3
ENDMDL
