MODEL 1
REMARK VINA RESULT:      -6.3      0.000      0.000
REMARK  5 active torsions:
REMARK  status: ('A' for Active; 'I' for Inactive)
REMARK       I    between atoms: N_2  and  C_3 
REMARK    1  A    between atoms: N_2  and  C_16 
REMARK       I    between atoms: C_3  and  N_5 
REMARK    2  A    between atoms: N_5  and  C_6 
REMARK    3  A    between atoms: C_6  and  C_7 
REMARK    4  A    between atoms: C_7  and  C_8 
REMARK       I    between atoms: C_8  and  N_10 
REMARK    5  A    between atoms: N_10  and  C_11 
ROOT
HETATM    1  C   UNL     1     -41.645 -45.440  10.338  1.00  0.00     0.163 C 
HETATM    2  N   UNL     1     -41.880 -46.875  10.238  1.00  0.00    -0.290 N 
HETATM    3  C   UNL     1     -40.963 -47.713  10.881  1.00  0.00     0.323 C 
HETATM    4  O   UNL     1     -40.009 -47.284  11.533  1.00  0.00    -0.247 OA
HETATM    5  N   UNL     1     -41.146 -49.056  10.714  1.00  0.00    -0.342 N 
HETATM    6  H   UNL     1     -42.008 -49.326  10.243  1.00  0.00     0.164 HD
ENDROOT
BRANCH   5   7
HETATM    7  C   UNL     1     -40.322 -50.084  11.314  1.00  0.00     0.133 C 
BRANCH   7   8
HETATM    8  C   UNL     1     -41.169 -51.205  11.903  1.00  0.00     0.122 C 
BRANCH   8   9
HETATM    9  C   UNL     1     -42.237 -50.654  12.821  1.00  0.00     0.219 C 
HETATM   10  O   UNL     1     -42.042 -49.672  13.529  1.00  0.00    -0.274 OA
HETATM   11  N   UNL     1     -43.425 -51.345  12.787  1.00  0.00    -0.356 N 
HETATM   12  H   UNL     1     -43.442 -52.252  12.332  1.00  0.00     0.162 HD
BRANCH  11  13
HETATM   13  C   UNL     1     -44.563 -50.969  13.598  1.00  0.00     0.084 C 
HETATM   14  C   UNL     1     -44.532 -51.588  14.997  1.00  0.00     0.025 C 
HETATM   15  C   UNL     1     -45.992 -51.856  15.370  1.00  0.00     0.002 C 
HETATM   16  C   UNL     1     -46.830 -51.395  14.182  1.00  0.00     0.002 C 
HETATM   17  C   UNL     1     -45.875 -51.465  13.003  1.00  0.00     0.025 C 
ENDBRANCH  11  13
ENDBRANCH   8   9
ENDBRANCH   7   8
ENDBRANCH   5   7
BRANCH   2  18
HETATM   18  C   UNL     1     -43.099 -47.315   9.624  1.00  0.00     0.110 A 
HETATM   19  C   UNL     1     -43.129 -47.740   8.293  1.00  0.00     0.049 A 
HETATM   20  C   UNL     1     -44.345 -48.075   7.697  1.00  0.00     0.005 A 
HETATM   21  C   UNL     1     -45.516 -47.975   8.430  1.00  0.00     0.017 A 
HETATM   22  C   UNL     1     -45.415 -47.576   9.746  1.00  0.00     0.089 A 
HETATM   23  N   UNL     1     -44.244 -47.267  10.351  1.00  0.00    -0.352 N 
ATOM     24  HN  UNL     1     -44.222 -47.003  11.335  1.00  0.00     0.166 HD
ENDBRANCH   2  18
TORSDOF 5
ENDMDL
MODEL 2
REMARK VINA RESULT:      -5.9      1.758      6.024
REMARK  5 active torsions:
REMARK  status: ('A' for Active; 'I' for Inactive)
REMARK       I    between atoms: N_2  and  C_3 
REMARK    1  A    between atoms: N_2  and  C_16 
REMARK       I    between atoms: C_3  and  N_5 
REMARK    2  A    between atoms: N_5  and  C_6 
REMARK    3  A    between atoms: C_6  and  C_7 
REMARK    4  A    between atoms: C_7  and  C_8 
REMARK       I    between atoms: C_8  and  N_10 
REMARK    5  A    between atoms: N_10  and  C_11 
ROOT
HETATM    1  C   UNL     1     -42.411 -54.509  13.590  1.00  0.00     0.163 C 
HETATM    2  N   UNL     1     -42.536 -53.075  13.363  1.00  0.00    -0.290 N 
HETATM    3  C   UNL     1     -41.372 -52.389  13.000  1.00  0.00     0.323 C 
HETATM    4  O   UNL     1     -40.286 -52.950  12.844  1.00  0.00    -0.247 OA
HETATM    5  N   UNL     1     -41.482 -51.034  12.868  1.00  0.00    -0.342 N 
HETATM    6  H   UNL     1     -42.429 -50.663  12.920  1.00  0.00     0.164 HD
ENDROOT
BRANCH   5   7
HETATM    7  C   UNL     1     -40.403 -50.151  12.479  1.00  0.00     0.133 C 
BRANCH   7   8
HETATM    8  C   UNL     1     -40.602 -49.614  11.066  1.00  0.00     0.122 C 
BRANCH   8   9
HETATM    9  C   UNL     1     -41.428 -48.346  11.078  1.00  0.00     0.219 C 
HETATM   10  O   UNL     1     -41.085 -47.354  11.713  1.00  0.00    -0.274 OA
HETATM   11  N   UNL     1     -42.575 -48.410  10.324  1.00  0.00    -0.356 N 
HETATM   12  H   UNL     1     -42.886 -49.319   9.995  1.00  0.00     0.162 HD
BRANCH  11  13
HETATM   13  C   UNL     1     -43.493 -47.297  10.216  1.00  0.00     0.084 C 
HETATM   14  C   UNL     1     -44.916 -47.727   9.853  1.00  0.00     0.025 C 
HETATM   15  C   UNL     1     -45.483 -46.606   8.978  1.00  0.00     0.002 C 
HETATM   16  C   UNL     1     -44.379 -45.562   8.850  1.00  0.00     0.002 C 
HETATM   17  C   UNL     1     -43.099 -46.340   9.097  1.00  0.00     0.025 C 
ENDBRANCH  11  13
ENDBRANCH   8   9
ENDBRANCH   7   8
ENDBRANCH   5   7
BRANCH   2  18
HETATM   18  C   UNL     1     -43.851 -52.504  13.380  1.00  0.00     0.110 A 
HETATM   19  C   UNL     1     -44.297 -51.744  14.464  1.00  0.00     0.049 A 
HETATM   20  C   UNL     1     -45.613 -51.278  14.492  1.00  0.00     0.005 A 
HETATM   21  C   UNL     1     -46.467 -51.581  13.445  1.00  0.00     0.017 A 
HETATM   22  C   UNL     1     -45.956 -52.311  12.392  1.00  0.00     0.089 A 
HETATM   23  N   UNL     1     -44.679 -52.754  12.334  1.00  0.00    -0.352 N 
ATOM     24  HN  UNL     1     -44.344 -53.267  11.519  1.00  0.00     0.166 HD
ENDBRANCH   2  18
TORSDOF 5
ENDMDL
MODEL 3
REMARK VINA RESULT:      -5.7      2.329      3.415
REMARK  5 active torsions:
REMARK  status: ('A' for Active; 'I' for Inactive)
REMARK       I    between atoms: N_2  and  C_3 
REMARK    1  A    between atoms: N_2  and  C_16 
REMARK       I    between atoms: C_3  and  N_5 
REMARK    2  A    between atoms: N_5  and  C_6 
REMARK    3  A    between atoms: C_6  and  C_7 
REMARK    4  A    between atoms: C_7  and  C_8 
REMARK       I    between atoms: C_8  and  N_10 
REMARK    5  A    between atoms: N_10  and  C_11 
ROOT
HETATM    1  C   UNL     1     -38.296 -49.171  12.303  1.00  0.00     0.163 C 
HETATM    2  N   UNL     1     -39.556 -49.875  12.099  1.00  0.00    -0.290 N 
HETATM    3  C   UNL     1     -39.560 -51.251  12.354  1.00  0.00     0.323 C 
HETATM    4  O   UNL     1     -38.568 -51.858  12.761  1.00  0.00    -0.247 OA
HETATM    5  N   UNL     1     -40.722 -51.915  12.083  1.00  0.00    -0.342 N 
HETATM    6  H   UNL     1     -41.517 -51.327  11.842  1.00  0.00     0.164 HD
ENDROOT
BRANCH   5   7
HETATM    7  C   UNL     1     -40.935 -53.330  12.300  1.00  0.00     0.133 C 
BRANCH   7   8
HETATM    8  C   UNL     1     -41.250 -53.630  13.760  1.00  0.00     0.122 C 
BRANCH   8   9
HETATM    9  C   UNL     1     -42.265 -52.652  14.309  1.00  0.00     0.219 C 
HETATM   10  O   UNL     1     -41.933 -51.583  14.810  1.00  0.00    -0.274 OA
HETATM   11  N   UNL     1     -43.571 -53.066  14.193  1.00  0.00    -0.356 N 
HETATM   12  H   UNL     1     -43.749 -54.036  13.952  1.00  0.00     0.162 HD
BRANCH  11  13
HETATM   13  C   UNL     1     -44.682 -52.267  14.663  1.00  0.00     0.084 C 
HETATM   14  C   UNL     1     -45.683 -53.066  15.500  1.00  0.00     0.025 C 
HETATM   15  C   UNL     1     -47.058 -52.465  15.195  1.00  0.00     0.002 C 
HETATM   16  C   UNL     1     -46.822 -51.343  14.190  1.00  0.00     0.002 C 
HETATM   17  C   UNL     1     -45.516 -51.717  13.513  1.00  0.00     0.025 C 
ENDBRANCH  11  13
ENDBRANCH   8   9
ENDBRANCH   7   8
ENDBRANCH   5   7
BRANCH   2  18
HETATM   18  C   UNL     1     -40.721 -49.094  11.800  1.00  0.00     0.110 A 
HETATM   19  C   UNL     1     -41.582 -48.661  12.812  1.00  0.00     0.049 A 
HETATM   20  C   UNL     1     -42.755 -47.980  12.483  1.00  0.00     0.005 A 
HETATM   21  C   UNL     1     -43.058 -47.747  11.151  1.00  0.00     0.017 A 
HETATM   22  C   UNL     1     -42.152 -48.175  10.204  1.00  0.00     0.089 A 
HETATM   23  N   UNL     1     -40.999 -48.818  10.502  1.00  0.00    -0.352 N 
ATOM     24  HN  UNL     1     -40.351 -49.089   9.763  1.00  0.00     0.166 HD
ENDBRANCH   2  18
TORSDOF 5
ENDMDL
MODEL 4
REMARK VINA RESULT:      -5.7      2.238      3.579
REMARK  5 active torsions:
REMARK  status: ('A' for Active; 'I' for Inactive)
REMARK       I    between atoms: N_2  and  C_3 
REMARK    1  A    between atoms: N_2  and  C_16 
REMARK       I    between atoms: C_3  and  N_5 
REMARK    2  A    between atoms: N_5  and  C_6 
REMARK    3  A    between atoms: C_6  and  C_7 
REMARK    4  A    between atoms: C_7  and  C_8 
REMARK       I    between atoms: C_8  and  N_10 
REMARK    5  A    between atoms: N_10  and  C_11 
ROOT
HETATM    1  C   UNL     1     -38.811 -49.870  11.897  1.00  0.00     0.163 C 
HETATM    2  N   UNL     1     -40.235 -50.181  11.884  1.00  0.00    -0.290 N 
HETATM    3  C   UNL     1     -40.610 -51.450  12.338  1.00  0.00     0.323 C 
HETATM    4  O   UNL     1     -39.799 -52.274  12.762  1.00  0.00    -0.247 OA
HETATM    5  N   UNL     1     -41.937 -51.760  12.245  1.00  0.00    -0.342 N 
HETATM    6  H   UNL     1     -42.549 -50.992  11.974  1.00  0.00     0.164 HD
ENDROOT
BRANCH   5   7
HETATM    7  C   UNL     1     -42.527 -53.008  12.682  1.00  0.00     0.133 C 
BRANCH   7   8
HETATM    8  C   UNL     1     -44.038 -53.012  12.482  1.00  0.00     0.122 C 
BRANCH   8   9
HETATM    9  C   UNL     1     -44.691 -51.886  13.253  1.00  0.00     0.219 C 
HETATM   10  O   UNL     1     -44.488 -50.707  12.978  1.00  0.00    -0.274 OA
HETATM   11  N   UNL     1     -45.518 -52.301  14.269  1.00  0.00    -0.356 N 
HETATM   12  H   UNL     1     -45.478 -53.273  14.557  1.00  0.00     0.162 HD
BRANCH  11  13
HETATM   13  C   UNL     1     -46.228 -51.368  15.119  1.00  0.00     0.084 C 
HETATM   14  C   UNL     1     -45.397 -50.893  16.313  1.00  0.00     0.025 C 
HETATM   15  C   UNL     1     -46.390 -50.698  17.462  1.00  0.00     0.002 C 
HETATM   16  C   UNL     1     -47.763 -51.067  16.911  1.00  0.00     0.002 C 
HETATM   17  C   UNL     1     -47.460 -52.001  15.753  1.00  0.00     0.025 C 
ENDBRANCH  11  13
ENDBRANCH   8   9
ENDBRANCH   7   8
ENDBRANCH   5   7
BRANCH   2  18
HETATM   18  C   UNL     1     -41.149 -49.126  11.552  1.00  0.00     0.110 A 
HETATM   19  C   UNL     1     -41.811 -48.402  12.546  1.00  0.00     0.049 A 
HETATM   20  C   UNL     1     -42.762 -47.443  12.192  1.00  0.00     0.005 A 
HETATM   21  C   UNL     1     -43.046 -47.225  10.854  1.00  0.00     0.017 A 
HETATM   22  C   UNL     1     -42.336 -47.953   9.922  1.00  0.00     0.089 A 
HETATM   23  N   UNL     1     -41.396 -48.872  10.243  1.00  0.00    -0.352 N 
ATOM     24  HN  UNL     1     -40.881 -49.363   9.513  1.00  0.00     0.166 HD
ENDBRANCH   2  18
TORSDOF 5
ENDMDL
MODEL 5
REMARK VINA RESULT:      -5.7      2.965      6.716
REMARK  5 active torsions:
REMARK  status: ('A' for Active; 'I' for Inactive)
REMARK       I    between atoms: N_2  and  C_3 
REMARK    1  A    between atoms: N_2  and  C_16 
REMARK       I    between atoms: C_3  and  N_5 
REMARK    2  A    between atoms: N_5  and  C_6 
REMARK    3  A    between atoms: C_6  and  C_7 
REMARK    4  A    between atoms: C_7  and  C_8 
REMARK       I    between atoms: C_8  and  N_10 
REMARK    5  A    between atoms: N_10  and  C_11 
ROOT
HETATM    1  C   UNL     1     -42.216 -54.183  13.572  1.00  0.00     0.163 C 
HETATM    2  N   UNL     1     -42.514 -52.853  13.054  1.00  0.00    -0.290 N 
HETATM    3  C   UNL     1     -41.504 -52.218  12.324  1.00  0.00     0.323 C 
HETATM    4  O   UNL     1     -40.415 -52.746  12.091  1.00  0.00    -0.247 OA
HETATM    5  N   UNL     1     -41.763 -50.942  11.913  1.00  0.00    -0.342 N 
HETATM    6  H   UNL     1     -42.717 -50.618  12.064  1.00  0.00     0.164 HD
ENDROOT
BRANCH   5   7
HETATM    7  C   UNL     1     -40.860 -50.126  11.129  1.00  0.00     0.133 C 
BRANCH   7   8
HETATM    8  C   UNL     1     -39.916 -49.326  12.019  1.00  0.00     0.122 C 
BRANCH   8   9
HETATM    9  C   UNL     1     -40.548 -48.018  12.443  1.00  0.00     0.219 C 
HETATM   10  O   UNL     1     -41.586 -47.979  13.095  1.00  0.00    -0.274 OA
HETATM   11  N   UNL     1     -39.860 -46.900  12.037  1.00  0.00    -0.356 N 
HETATM   12  H   UNL     1     -39.130 -47.008  11.341  1.00  0.00     0.162 HD
BRANCH  11  13
HETATM   13  C   UNL     1     -40.312 -45.559  12.345  1.00  0.00     0.084 C 
HETATM   14  C   UNL     1     -40.702 -44.757  11.101  1.00  0.00     0.025 C 
HETATM   15  C   UNL     1     -40.317 -43.306  11.400  1.00  0.00     0.002 C 
HETATM   16  C   UNL     1     -39.711 -43.303  12.799  1.00  0.00     0.002 C 
HETATM   17  C   UNL     1     -39.215 -44.724  12.995  1.00  0.00     0.025 C 
ENDBRANCH  11  13
ENDBRANCH   8   9
ENDBRANCH   7   8
ENDBRANCH   5   7
BRANCH   2  18
HETATM   18  C   UNL     1     -43.853 -52.362  13.198  1.00  0.00     0.110 A 
HETATM   19  C   UNL     1     -44.229 -51.595  14.304  1.00  0.00     0.049 A 
HETATM   20  C   UNL     1     -45.560 -51.207  14.462  1.00  0.00     0.005 A 
HETATM   21  C   UNL     1     -46.500 -51.594  13.522  1.00  0.00     0.017 A 
HETATM   22  C   UNL     1     -46.059 -52.326  12.439  1.00  0.00     0.089 A 
HETATM   23  N   UNL     1     -44.770 -52.695  12.255  1.00  0.00    -0.352 N 
ATOM     24  HN  UNL     1     -44.493 -53.213  11.423  1.00  0.00     0.166 HD
ENDBRANCH   2  18
TORSDOF 5
ENDMDL
MODEL 6
REMARK VINA RESULT:      -5.7      3.290      6.673
REMARK  5 active torsions:
REMARK  status: ('A' for Active; 'I' for Inactive)
REMARK       I    between atoms: N_2  and  C_3 
REMARK    1  A    between atoms: N_2  and  C_16 
REMARK       I    between atoms: C_3  and  N_5 
REMARK    2  A    between atoms: N_5  and  C_6 
REMARK    3  A    between atoms: C_6  and  C_7 
REMARK    4  A    between atoms: C_7  and  C_8 
REMARK       I    between atoms: C_8  and  N_10 
REMARK    5  A    between atoms: N_10  and  C_11 
ROOT
HETATM    1  C   UNL     1     -42.142 -54.064  13.594  1.00  0.00     0.163 C 
HETATM    2  N   UNL     1     -42.489 -52.758  13.047  1.00  0.00    -0.290 N 
HETATM    3  C   UNL     1     -41.500 -52.097  12.311  1.00  0.00     0.323 C 
HETATM    4  O   UNL     1     -40.390 -52.584  12.096  1.00  0.00    -0.247 OA
HETATM    5  N   UNL     1     -41.808 -50.840  11.873  1.00  0.00    -0.342 N 
HETATM    6  H   UNL     1     -42.775 -50.552  12.011  1.00  0.00     0.164 HD
ENDROOT
BRANCH   5   7
HETATM    7  C   UNL     1     -40.932 -50.004  11.079  1.00  0.00     0.133 C 
BRANCH   7   8
HETATM    8  C   UNL     1     -40.462 -48.785  11.863  1.00  0.00     0.122 C 
BRANCH   8   9
HETATM    9  C   UNL     1     -39.023 -48.944  12.302  1.00  0.00     0.219 C 
HETATM   10  O   UNL     1     -38.152 -49.350  11.539  1.00  0.00    -0.274 OA
HETATM   11  N   UNL     1     -38.789 -48.596  13.611  1.00  0.00    -0.356 N 
HETATM   12  H   UNL     1     -39.586 -48.462  14.225  1.00  0.00     0.162 HD
BRANCH  11  13
HETATM   13  C   UNL     1     -37.475 -48.684  14.212  1.00  0.00     0.084 C 
HETATM   14  C   UNL     1     -37.224 -50.021  14.912  1.00  0.00     0.025 C 
HETATM   15  C   UNL     1     -36.336 -49.703  16.118  1.00  0.00     0.002 C 
HETATM   16  C   UNL     1     -36.099 -48.197  16.091  1.00  0.00     0.002 C 
HETATM   17  C   UNL     1     -37.281 -47.648  15.312  1.00  0.00     0.025 C 
ENDBRANCH  11  13
ENDBRANCH   8   9
ENDBRANCH   7   8
ENDBRANCH   5   7
BRANCH   2  18
HETATM   18  C   UNL     1     -43.848 -52.318  13.173  1.00  0.00     0.110 A 
HETATM   19  C   UNL     1     -44.260 -51.538  14.256  1.00  0.00     0.049 A 
HETATM   20  C   UNL     1     -45.607 -51.201  14.398  1.00  0.00     0.005 A 
HETATM   21  C   UNL     1     -46.526 -51.652  13.465  1.00  0.00     0.017 A 
HETATM   22  C   UNL     1     -46.050 -52.394  12.405  1.00  0.00     0.089 A 
HETATM   23  N   UNL     1     -44.746 -52.714  12.236  1.00  0.00    -0.352 N 
ATOM     24  HN  UNL     1     -44.444 -53.243  11.419  1.00  0.00     0.166 HD
ENDBRANCH   2  18
TORSDOF 5
ENDMDL
MODEL 7
REMARK VINA RESULT:      -5.6      2.408      6.638
REMARK  5 active torsions:
REMARK  status: ('A' for Active; 'I' for Inactive)
REMARK       I    between atoms: N_2  and  C_3 
REMARK    1  A    between atoms: N_2  and  C_16 
REMARK       I    between atoms: C_3  and  N_5 
REMARK    2  A    between atoms: N_5  and  C_6 
REMARK    3  A    between atoms: C_6  and  C_7 
REMARK    4  A    between atoms: C_7  and  C_8 
REMARK       I    between atoms: C_8  and  N_10 
REMARK    5  A    between atoms: N_10  and  C_11 
ROOT
HETATM    1  C   UNL     1     -43.175 -49.238  15.002  1.00  0.00     0.163 C 
HETATM    2  N   UNL     1     -43.335 -49.501  13.577  1.00  0.00    -0.290 N 
HETATM    3  C   UNL     1     -42.811 -48.550  12.696  1.00  0.00     0.323 C 
HETATM    4  O   UNL     1     -42.213 -47.543  13.078  1.00  0.00    -0.247 OA
HETATM    5  N   UNL     1     -43.036 -48.765  11.366  1.00  0.00    -0.342 N 
HETATM    6  H   UNL     1     -43.453 -49.665  11.132  1.00  0.00     0.164 HD
ENDROOT
BRANCH   5   7
HETATM    7  C   UNL     1     -42.558 -47.913  10.298  1.00  0.00     0.133 C 
BRANCH   7   8
HETATM    8  C   UNL     1     -43.683 -47.069   9.711  1.00  0.00     0.122 C 
BRANCH   8   9
HETATM    9  C   UNL     1     -43.389 -45.592   9.864  1.00  0.00     0.219 C 
HETATM   10  O   UNL     1     -43.717 -44.773   9.012  1.00  0.00    -0.274 OA
HETATM   11  N   UNL     1     -42.735 -45.262  11.027  1.00  0.00    -0.356 N 
HETATM   12  H   UNL     1     -42.327 -46.010  11.580  1.00  0.00     0.162 HD
BRANCH  11  13
HETATM   13  C   UNL     1     -42.366 -43.900  11.348  1.00  0.00     0.084 C 
HETATM   14  C   UNL     1     -40.872 -43.625  11.167  1.00  0.00     0.025 C 
HETATM   15  C   UNL     1     -40.497 -42.615  12.255  1.00  0.00     0.002 C 
HETATM   16  C   UNL     1     -41.774 -42.335  13.039  1.00  0.00     0.002 C 
HETATM   17  C   UNL     1     -42.630 -43.569  12.811  1.00  0.00     0.025 C 
ENDBRANCH  11  13
ENDBRANCH   8   9
ENDBRANCH   7   8
ENDBRANCH   5   7
BRANCH   2  18
HETATM   18  C   UNL     1     -43.876 -50.770  13.186  1.00  0.00     0.110 A 
HETATM   19  C   UNL     1     -45.241 -51.044  13.303  1.00  0.00     0.049 A 
HETATM   20  C   UNL     1     -45.724 -52.317  13.000  1.00  0.00     0.005 A 
HETATM   21  C   UNL     1     -44.841 -53.303  12.591  1.00  0.00     0.017 A 
HETATM   22  C   UNL     1     -43.510 -52.960  12.469  1.00  0.00     0.089 A 
HETATM   23  N   UNL     1     -43.024 -51.726  12.737  1.00  0.00    -0.352 N 
ATOM     24  HN  UNL     1     -42.035 -51.518  12.604  1.00  0.00     0.166 HD
ENDBRANCH   2  18
TORSDOF 5
ENDMDL
MODEL 8
REMARK VINA RESULT:      -5.6      2.765      4.255
REMARK  5 active torsions:
REMARK  status: ('A' for Active; 'I' for Inactive)
REMARK       I    between atoms: N_2  and  C_3 
REMARK    1  A    between atoms: N_2  and  C_16 
REMARK       I    between atoms: C_3  and  N_5 
REMARK    2  A    between atoms: N_5  and  C_6 
REMARK    3  A    between atoms: C_6  and  C_7 
REMARK    4  A    between atoms: C_7  and  C_8 
REMARK       I    between atoms: C_8  and  N_10 
REMARK    5  A    between atoms: N_10  and  C_11 
ROOT
HETATM    1  C   UNL     1     -42.650 -47.999  10.513  1.00  0.00     0.163 C 
HETATM    2  N   UNL     1     -41.293 -47.780  10.997  1.00  0.00    -0.290 N 
HETATM    3  C   UNL     1     -40.501 -48.916  11.197  1.00  0.00     0.323 C 
HETATM    4  O   UNL     1     -40.898 -50.057  10.956  1.00  0.00    -0.247 OA
HETATM    5  N   UNL     1     -39.260 -48.705  11.726  1.00  0.00    -0.342 N 
HETATM    6  H   UNL     1     -38.977 -47.730  11.806  1.00  0.00     0.164 HD
ENDROOT
BRANCH   5   7
HETATM    7  C   UNL     1     -38.285 -49.743  11.986  1.00  0.00     0.133 C 
BRANCH   7   8
HETATM    8  C   UNL     1     -38.430 -50.306  13.394  1.00  0.00     0.122 C 
BRANCH   8   9
HETATM    9  C   UNL     1     -38.980 -51.715  13.362  1.00  0.00     0.219 C 
HETATM   10  O   UNL     1     -38.247 -52.699  13.344  1.00  0.00    -0.274 OA
HETATM   11  N   UNL     1     -40.353 -51.788  13.356  1.00  0.00    -0.356 N 
HETATM   12  H   UNL     1     -40.880 -50.940  13.173  1.00  0.00     0.162 HD
BRANCH  11  13
HETATM   13  C   UNL     1     -41.061 -53.050  13.323  1.00  0.00     0.084 C 
HETATM   14  C   UNL     1     -42.420 -52.956  12.626  1.00  0.00     0.025 C 
HETATM   15  C   UNL     1     -43.337 -53.937  13.361  1.00  0.00     0.002 C 
HETATM   16  C   UNL     1     -42.494 -54.568  14.464  1.00  0.00     0.002 C 
HETATM   17  C   UNL     1     -41.396 -53.551  14.723  1.00  0.00     0.025 C 
ENDBRANCH  11  13
ENDBRANCH   8   9
ENDBRANCH   7   8
ENDBRANCH   5   7
BRANCH   2  18
HETATM   18  C   UNL     1     -40.823 -46.428  11.088  1.00  0.00     0.110 A 
HETATM   19  C   UNL     1     -41.256 -45.577  12.108  1.00  0.00     0.049 A 
HETATM   20  C   UNL     1     -40.852 -44.241  12.118  1.00  0.00     0.005 A 
HETATM   21  C   UNL     1     -40.030 -43.769  11.109  1.00  0.00     0.017 A 
HETATM   22  C   UNL     1     -39.615 -44.667  10.148  1.00  0.00     0.089 A 
HETATM   23  N   UNL     1     -39.977 -45.971  10.131  1.00  0.00    -0.352 N 
ATOM     24  HN  UNL     1     -39.620 -46.599   9.411  1.00  0.00     0.166 HD
ENDBRANCH   2  18
TORSDOF 5
ENDMDL
MODEL 9
REMARK VINA RESULT:      -5.5      2.205      6.884
REMARK  5 active torsions:
REMARK  status: ('A' for Active; 'I' for Inactive)
REMARK       I    between atoms: N_2  and  C_3 
REMARK    1  A    between atoms: N_2  and  C_16 
REMARK       I    between atoms: C_3  and  N_5 
REMARK    2  A    between atoms: N_5  and  C_6 
REMARK    3  A    between atoms: C_6  and  C_7 
REMARK    4  A    between atoms: C_7  and  C_8 
REMARK       I    between atoms: C_8  and  N_10 
REMARK    5  A    between atoms: N_10  and  C_11 
ROOT
HETATM    1  C   UNL     1     -41.534 -52.586  13.603  1.00  0.00     0.163 C 
HETATM    2  N   UNL     1     -42.381 -51.545  13.034  1.00  0.00    -0.290 N 
HETATM    3  C   UNL     1     -41.751 -50.584  12.235  1.00  0.00     0.323 C 
HETATM    4  O   UNL     1     -40.545 -50.609  11.985  1.00  0.00    -0.247 OA
HETATM    5  N   UNL     1     -42.539 -49.568  11.773  1.00  0.00    -0.342 N 
HETATM    6  H   UNL     1     -43.537 -49.674  11.946  1.00  0.00     0.164 HD
ENDROOT
BRANCH   5   7
HETATM    7  C   UNL     1     -42.085 -48.494  10.917  1.00  0.00     0.133 C 
BRANCH   7   8
HETATM    8  C   UNL     1     -43.014 -47.289  10.991  1.00  0.00     0.122 C 
BRANCH   8   9
HETATM    9  C   UNL     1     -42.282 -46.015  10.631  1.00  0.00     0.219 C 
HETATM   10  O   UNL     1     -42.239 -45.593   9.480  1.00  0.00    -0.274 OA
HETATM   11  N   UNL     1     -41.682 -45.387  11.696  1.00  0.00    -0.356 N 
HETATM   12  H   UNL     1     -41.595 -45.895  12.569  1.00  0.00     0.162 HD
BRANCH  11  13
HETATM   13  C   UNL     1     -40.933 -44.157  11.547  1.00  0.00     0.084 C 
HETATM   14  C   UNL     1     -39.806 -44.014  12.573  1.00  0.00     0.025 C 
HETATM   15  C   UNL     1     -39.712 -42.518  12.886  1.00  0.00     0.002 C 
HETATM   16  C   UNL     1     -40.784 -41.835  12.043  1.00  0.00     0.002 C 
HETATM   17  C   UNL     1     -41.804 -42.928  11.779  1.00  0.00     0.025 C 
ENDBRANCH  11  13
ENDBRANCH   8   9
ENDBRANCH   7   8
ENDBRANCH   5   7
BRANCH   2  18
HETATM   18  C   UNL     1     -43.799 -51.665  13.207  1.00  0.00     0.110 A 
HETATM   19  C   UNL     1     -44.451 -51.064  14.286  1.00  0.00     0.049 A 
HETATM   20  C   UNL     1     -45.818 -51.274  14.478  1.00  0.00     0.005 A 
HETATM   21  C   UNL     1     -46.514 -52.084  13.597  1.00  0.00     0.017 A 
HETATM   22  C   UNL     1     -45.817 -52.624  12.536  1.00  0.00     0.089 A 
HETATM   23  N   UNL     1     -44.498 -52.417  12.320  1.00  0.00    -0.352 N 
ATOM     24  HN  UNL     1     -44.037 -52.818  11.504  1.00  0.00     0.166 HD
ENDBRANCH   2  18
TORSDOF 5
ENDMDL
