MODEL 1
REMARK VINA RESULT:      -5.3      0.000      0.000
REMARK  7 active torsions:
REMARK  status: ('A' for Active; 'I' for Inactive)
REMARK    1  A    between atoms: N_5  and  C_6 
REMARK    2  A    between atoms: C_6  and  C_7 
REMARK       I    between atoms: C_7  and  N_9 
REMARK    3  A    between atoms: N_9  and  C_10 
REMARK    4  A    between atoms: C_10  and  C_11 
REMARK    5  A    between atoms: C_11  and  C_12 
REMARK    6  A    between atoms: C_12  and  O_13 
REMARK    7  A    between atoms: O_13  and  C_14 
ROOT
HETATM    1  C   UNL     1     -39.283 -52.383  13.974  1.00  0.00     0.235 C 
HETATM    2  O   UNL     1     -38.593 -51.965  13.047  1.00  0.00    -0.272 OA
HETATM    3  N   UNL     1     -39.861 -51.557  14.921  1.00  0.00    -0.360 N 
HETATM    4  H   UNL     1     -40.268 -51.977  15.749  1.00  0.00     0.162 HD
ENDROOT
BRANCH   3   5
HETATM    5  C   UNL     1     -39.633 -50.124  14.931  1.00  0.00     0.125 C 
BRANCH   5   6
HETATM    6  C   UNL     1     -40.857 -49.351  14.445  1.00  0.00     0.046 C 
BRANCH   6   7
HETATM    7  C   UNL     1     -41.951 -50.288  13.943  1.00  0.00     0.169 C 
BRANCH   7   8
HETATM    8  O   UNL     1     -42.646 -50.814  15.063  1.00  0.00    -0.386 OA
BRANCH   8   9
HETATM    9  C   UNL     1     -43.971 -51.295  14.847  1.00  0.00     0.121 C 
HETATM   10  C   UNL     1     -44.923 -50.998  16.006  1.00  0.00     0.032 C 
HETATM   11  C   UNL     1     -46.257 -51.704  15.794  1.00  0.00     0.002 C 
HETATM   12  C   UNL     1     -46.882 -51.348  14.445  1.00  0.00     0.000 C 
HETATM   13  C   UNL     1     -45.915 -51.506  13.271  1.00  0.00     0.002 C 
HETATM   14  C   UNL     1     -44.575 -50.814  13.524  1.00  0.00     0.032 C 
ENDBRANCH   8   9
ENDBRANCH   7   8
ENDBRANCH   6   7
ENDBRANCH   5   6
ENDBRANCH   3   5
BRANCH   1  15
HETATM   15  C   UNL     1     -39.577 -53.873  14.172  1.00  0.00     0.234 C 
BRANCH  15  16
HETATM   16  N   UNL     1     -41.013 -54.134  14.168  1.00  0.00    -0.316 N 
HETATM   17  C   UNL     1     -41.753 -53.893  13.023  1.00  0.00     0.095 A 
HETATM   18  C   UNL     1     -43.069 -54.141  12.983  1.00  0.00     0.024 A 
HETATM   19  C   UNL     1     -43.747 -54.687  14.138  1.00  0.00    -0.055 A 
HETATM   20  C   UNL     1     -45.211 -54.985  14.033  1.00  0.00     0.048 C 
HETATM   21  C   UNL     1     -43.046 -54.944  15.254  1.00  0.00     0.081 A 
HETATM   22  C   UNL     1     -41.582 -54.672  15.314  1.00  0.00     0.248 A 
HETATM   23  O   UNL     1     -40.962 -54.923  16.343  1.00  0.00    -0.268 OA
ENDBRANCH  15  16
ENDBRANCH   1  15
TORSDOF 7
ENDMDL
MODEL 2
REMARK VINA RESULT:      -5.2      2.211      5.178
REMARK  7 active torsions:
REMARK  status: ('A' for Active; 'I' for Inactive)
REMARK    1  A    between atoms: N_5  and  C_6 
REMARK    2  A    between atoms: C_6  and  C_7 
REMARK       I    between atoms: C_7  and  N_9 
REMARK    3  A    between atoms: N_9  and  C_10 
REMARK    4  A    between atoms: C_10  and  C_11 
REMARK    5  A    between atoms: C_11  and  C_12 
REMARK    6  A    between atoms: C_12  and  O_13 
REMARK    7  A    between atoms: O_13  and  C_14 
ROOT
HETATM    1  C   UNL     1     -43.146 -53.562  12.713  1.00  0.00     0.235 C 
HETATM    2  O   UNL     1     -42.405 -54.051  13.563  1.00  0.00    -0.272 OA
HETATM    3  N   UNL     1     -42.710 -52.668  11.751  1.00  0.00    -0.360 N 
HETATM    4  H   UNL     1     -43.401 -52.176  11.196  1.00  0.00     0.162 HD
ENDROOT
BRANCH   3   5
HETATM    5  C   UNL     1     -41.344 -52.178  11.722  1.00  0.00     0.125 C 
BRANCH   5   6
HETATM    6  C   UNL     1     -41.165 -50.947  12.607  1.00  0.00     0.046 C 
BRANCH   6   7
HETATM    7  C   UNL     1     -39.859 -51.004  13.394  1.00  0.00     0.169 C 
BRANCH   7   8
HETATM    8  O   UNL     1     -39.306 -52.304  13.260  1.00  0.00    -0.386 OA
BRANCH   8   9
HETATM    9  C   UNL     1     -39.022 -53.024  14.457  1.00  0.00     0.121 C 
HETATM   10  C   UNL     1     -39.857 -52.568  15.654  1.00  0.00     0.032 C 
HETATM   11  C   UNL     1     -39.369 -53.239  16.932  1.00  0.00     0.002 C 
HETATM   12  C   UNL     1     -39.351 -54.763  16.804  1.00  0.00     0.000 C 
HETATM   13  C   UNL     1     -38.636 -55.254  15.545  1.00  0.00     0.002 C 
HETATM   14  C   UNL     1     -39.125 -54.542  14.283  1.00  0.00     0.032 C 
ENDBRANCH   8   9
ENDBRANCH   7   8
ENDBRANCH   6   7
ENDBRANCH   5   6
ENDBRANCH   3   5
BRANCH   1  15
HETATM   15  C   UNL     1     -44.637 -53.903  12.628  1.00  0.00     0.234 C 
BRANCH  15  16
HETATM   16  N   UNL     1     -45.396 -53.216  13.668  1.00  0.00    -0.316 N 
HETATM   17  C   UNL     1     -45.928 -51.962  13.418  1.00  0.00     0.095 A 
HETATM   18  C   UNL     1     -46.646 -51.316  14.346  1.00  0.00     0.024 A 
HETATM   19  C   UNL     1     -46.898 -51.925  15.632  1.00  0.00    -0.055 A 
HETATM   20  C   UNL     1     -47.740 -51.180  16.624  1.00  0.00     0.048 C 
HETATM   21  C   UNL     1     -46.406 -53.147  15.892  1.00  0.00     0.081 A 
HETATM   22  C   UNL     1     -45.605 -53.878  14.870  1.00  0.00     0.248 A 
HETATM   23  O   UNL     1     -45.174 -54.998  15.127  1.00  0.00    -0.268 OA
ENDBRANCH  15  16
ENDBRANCH   1  15
TORSDOF 7
ENDMDL
MODEL 3
REMARK VINA RESULT:      -5.2      3.491      5.597
REMARK  7 active torsions:
REMARK  status: ('A' for Active; 'I' for Inactive)
REMARK    1  A    between atoms: N_5  and  C_6 
REMARK    2  A    between atoms: C_6  and  C_7 
REMARK       I    between atoms: C_7  and  N_9 
REMARK    3  A    between atoms: N_9  and  C_10 
REMARK    4  A    between atoms: C_10  and  C_11 
REMARK    5  A    between atoms: C_11  and  C_12 
REMARK    6  A    between atoms: C_12  and  O_13 
REMARK    7  A    between atoms: O_13  and  C_14 
ROOT
HETATM    1  C   UNL     1     -43.052 -53.446  12.775  1.00  0.00     0.235 C 
HETATM    2  O   UNL     1     -42.271 -53.884  13.617  1.00  0.00    -0.272 OA
HETATM    3  N   UNL     1     -42.691 -52.517  11.816  1.00  0.00    -0.360 N 
HETATM    4  H   UNL     1     -43.421 -52.074  11.270  1.00  0.00     0.162 HD
ENDROOT
BRANCH   3   5
HETATM    5  C   UNL     1     -41.365 -51.928  11.780  1.00  0.00     0.125 C 
BRANCH   5   6
HETATM    6  C   UNL     1     -41.380 -50.470  12.232  1.00  0.00     0.046 C 
BRANCH   6   7
HETATM    7  C   UNL     1     -40.486 -49.598  11.354  1.00  0.00     0.169 C 
BRANCH   7   8
HETATM    8  O   UNL     1     -41.305 -48.688  10.636  1.00  0.00    -0.386 OA
BRANCH   8   9
HETATM    9  C   UNL     1     -41.302 -47.327  11.060  1.00  0.00     0.121 C 
HETATM   10  C   UNL     1     -39.899 -46.727  11.168  1.00  0.00     0.032 C 
HETATM   11  C   UNL     1     -39.959 -45.344  11.807  1.00  0.00     0.002 C 
HETATM   12  C   UNL     1     -40.916 -44.413  11.061  1.00  0.00     0.000 C 
HETATM   13  C   UNL     1     -42.293 -45.033  10.817  1.00  0.00     0.002 C 
HETATM   14  C   UNL     1     -42.201 -46.431  10.204  1.00  0.00     0.032 C 
ENDBRANCH   8   9
ENDBRANCH   7   8
ENDBRANCH   6   7
ENDBRANCH   5   6
ENDBRANCH   3   5
BRANCH   1  15
HETATM   15  C   UNL     1     -44.515 -53.894  12.701  1.00  0.00     0.234 C 
BRANCH  15  16
HETATM   16  N   UNL     1     -45.329 -53.214  13.703  1.00  0.00    -0.316 N 
HETATM   17  C   UNL     1     -45.920 -51.999  13.401  1.00  0.00     0.095 A 
HETATM   18  C   UNL     1     -46.689 -51.361  14.294  1.00  0.00     0.024 A 
HETATM   19  C   UNL     1     -46.934 -51.940  15.595  1.00  0.00    -0.055 A 
HETATM   20  C   UNL     1     -47.832 -51.209  16.546  1.00  0.00     0.048 C 
HETATM   21  C   UNL     1     -46.384 -53.126  15.905  1.00  0.00     0.081 A 
HETATM   22  C   UNL     1     -45.526 -53.847  14.923  1.00  0.00     0.248 A 
HETATM   23  O   UNL     1     -45.042 -54.933  15.225  1.00  0.00    -0.268 OA
ENDBRANCH  15  16
ENDBRANCH   1  15
TORSDOF 7
ENDMDL
MODEL 4
REMARK VINA RESULT:      -5.1      1.663      2.431
REMARK  7 active torsions:
REMARK  status: ('A' for Active; 'I' for Inactive)
REMARK    1  A    between atoms: N_5  and  C_6 
REMARK    2  A    between atoms: C_6  and  C_7 
REMARK       I    between atoms: C_7  and  N_9 
REMARK    3  A    between atoms: N_9  and  C_10 
REMARK    4  A    between atoms: C_10  and  C_11 
REMARK    5  A    between atoms: C_11  and  C_12 
REMARK    6  A    between atoms: C_12  and  O_13 
REMARK    7  A    between atoms: O_13  and  C_14 
ROOT
HETATM    1  C   UNL     1     -39.323 -50.459  13.942  1.00  0.00     0.235 C 
HETATM    2  O   UNL     1     -39.028 -49.805  14.940  1.00  0.00    -0.272 OA
HETATM    3  N   UNL     1     -39.926 -49.907  12.826  1.00  0.00    -0.360 N 
HETATM    4  H   UNL     1     -40.297 -50.530  12.117  1.00  0.00     0.162 HD
ENDROOT
BRANCH   3   5
HETATM    5  C   UNL     1     -40.329 -48.514  12.781  1.00  0.00     0.125 C 
BRANCH   5   6
HETATM    6  C   UNL     1     -41.795 -48.334  13.167  1.00  0.00     0.046 C 
BRANCH   6   7
HETATM    7  C   UNL     1     -42.698 -49.310  12.418  1.00  0.00     0.169 C 
BRANCH   7   8
HETATM    8  O   UNL     1     -42.924 -50.442  13.243  1.00  0.00    -0.386 OA
BRANCH   8   9
HETATM    9  C   UNL     1     -44.202 -50.557  13.865  1.00  0.00     0.121 C 
HETATM   10  C   UNL     1     -45.120 -51.574  13.185  1.00  0.00     0.032 C 
HETATM   11  C   UNL     1     -46.523 -51.504  13.777  1.00  0.00     0.002 C 
HETATM   12  C   UNL     1     -46.510 -51.682  15.296  1.00  0.00     0.000 C 
HETATM   13  C   UNL     1     -45.503 -50.772  16.001  1.00  0.00     0.002 C 
HETATM   14  C   UNL     1     -44.114 -50.840  15.367  1.00  0.00     0.032 C 
ENDBRANCH   8   9
ENDBRANCH   7   8
ENDBRANCH   6   7
ENDBRANCH   5   6
ENDBRANCH   3   5
BRANCH   1  15
HETATM   15  C   UNL     1     -39.043 -51.961  13.831  1.00  0.00     0.234 C 
BRANCH  15  16
HETATM   16  N   UNL     1     -40.258 -52.742  14.035  1.00  0.00    -0.316 N 
HETATM   17  C   UNL     1     -40.716 -52.980  15.319  1.00  0.00     0.095 A 
HETATM   18  C   UNL     1     -41.840 -53.678  15.536  1.00  0.00     0.024 A 
HETATM   19  C   UNL     1     -42.613 -54.185  14.426  1.00  0.00    -0.055 A 
HETATM   20  C   UNL     1     -43.883 -54.924  14.717  1.00  0.00     0.048 C 
HETATM   21  C   UNL     1     -42.197 -53.952  13.170  1.00  0.00     0.081 A 
HETATM   22  C   UNL     1     -40.949 -53.179  12.913  1.00  0.00     0.248 A 
HETATM   23  O   UNL     1     -40.594 -52.972  11.757  1.00  0.00    -0.268 OA
ENDBRANCH  15  16
ENDBRANCH   1  15
TORSDOF 7
ENDMDL
MODEL 5
REMARK VINA RESULT:      -5.0      2.271      4.306
REMARK  7 active torsions:
REMARK  status: ('A' for Active; 'I' for Inactive)
REMARK    1  A    between atoms: N_5  and  C_6 
REMARK    2  A    between atoms: C_6  and  C_7 
REMARK       I    between atoms: C_7  and  N_9 
REMARK    3  A    between atoms: N_9  and  C_10 
REMARK    4  A    between atoms: C_10  and  C_11 
REMARK    5  A    between atoms: C_11  and  C_12 
REMARK    6  A    between atoms: C_12  and  O_13 
REMARK    7  A    between atoms: O_13  and  C_14 
ROOT
HETATM    1  C   UNL     1     -43.187 -53.730  12.998  1.00  0.00     0.235 C 
HETATM    2  O   UNL     1     -42.360 -54.257  13.738  1.00  0.00    -0.272 OA
HETATM    3  N   UNL     1     -42.877 -52.701  12.127  1.00  0.00    -0.360 N 
HETATM    4  H   UNL     1     -43.636 -52.201  11.677  1.00  0.00     0.162 HD
ENDROOT
BRANCH   3   5
HETATM    5  C   UNL     1     -41.552 -52.111  12.076  1.00  0.00     0.125 C 
BRANCH   5   6
HETATM    6  C   UNL     1     -41.613 -50.587  12.012  1.00  0.00     0.046 C 
BRANCH   6   7
HETATM    7  C   UNL     1     -41.563 -49.962  13.403  1.00  0.00     0.169 C 
BRANCH   7   8
HETATM    8  O   UNL     1     -41.689 -50.996  14.368  1.00  0.00    -0.386 OA
BRANCH   8   9
HETATM    9  C   UNL     1     -42.306 -50.663  15.609  1.00  0.00     0.121 C 
HETATM   10  C   UNL     1     -43.583 -49.836  15.452  1.00  0.00     0.032 C 
HETATM   11  C   UNL     1     -44.078 -49.356  16.811  1.00  0.00     0.002 C 
HETATM   12  C   UNL     1     -44.273 -50.516  17.789  1.00  0.00     0.000 C 
HETATM   13  C   UNL     1     -43.061 -51.444  17.873  1.00  0.00     0.002 C 
HETATM   14  C   UNL     1     -42.568 -51.885  16.495  1.00  0.00     0.032 C 
ENDBRANCH   8   9
ENDBRANCH   7   8
ENDBRANCH   6   7
ENDBRANCH   5   6
ENDBRANCH   3   5
BRANCH   1  15
HETATM   15  C   UNL     1     -44.654 -54.168  12.962  1.00  0.00     0.234 C 
BRANCH  15  16
HETATM   16  N   UNL     1     -45.459 -53.400  13.905  1.00  0.00    -0.316 N 
HETATM   17  C   UNL     1     -45.541 -53.801  15.228  1.00  0.00     0.095 A 
HETATM   18  C   UNL     1     -46.257 -53.104  16.121  1.00  0.00     0.024 A 
HETATM   19  C   UNL     1     -46.949 -51.899  15.725  1.00  0.00    -0.055 A 
HETATM   20  C   UNL     1     -47.704 -51.132  16.767  1.00  0.00     0.048 C 
HETATM   21  C   UNL     1     -46.871 -51.481  14.450  1.00  0.00     0.081 A 
HETATM   22  C   UNL     1     -46.081 -52.246  13.445  1.00  0.00     0.248 A 
HETATM   23  O   UNL     1     -46.017 -51.840  12.289  1.00  0.00    -0.268 OA
ENDBRANCH  15  16
ENDBRANCH   1  15
TORSDOF 7
ENDMDL
MODEL 6
REMARK VINA RESULT:      -5.0      4.055      6.944
REMARK  7 active torsions:
REMARK  status: ('A' for Active; 'I' for Inactive)
REMARK    1  A    between atoms: N_5  and  C_6 
REMARK    2  A    between atoms: C_6  and  C_7 
REMARK       I    between atoms: C_7  and  N_9 
REMARK    3  A    between atoms: N_9  and  C_10 
REMARK    4  A    between atoms: C_10  and  C_11 
REMARK    5  A    between atoms: C_11  and  C_12 
REMARK    6  A    between atoms: C_12  and  O_13 
REMARK    7  A    between atoms: O_13  and  C_14 
ROOT
HETATM    1  C   UNL     1     -42.383 -48.817  11.438  1.00  0.00     0.235 C 
HETATM    2  O   UNL     1     -43.223 -48.562  12.299  1.00  0.00    -0.272 OA
HETATM    3  N   UNL     1     -41.605 -49.960  11.453  1.00  0.00    -0.360 N 
HETATM    4  H   UNL     1     -40.819 -50.021  10.815  1.00  0.00     0.162 HD
ENDROOT
BRANCH   3   5
HETATM    5  C   UNL     1     -41.670 -50.919  12.540  1.00  0.00     0.125 C 
BRANCH   5   6
HETATM    6  C   UNL     1     -41.770 -52.353  12.025  1.00  0.00     0.046 C 
BRANCH   6   7
HETATM    7  C   UNL     1     -42.766 -53.175  12.838  1.00  0.00     0.169 C 
BRANCH   7   8
HETATM    8  O   UNL     1     -44.008 -53.190  12.151  1.00  0.00    -0.386 OA
BRANCH   8   9
HETATM    9  C   UNL     1     -45.189 -52.998  12.927  1.00  0.00     0.121 C 
HETATM   10  C   UNL     1     -45.312 -53.973  14.099  1.00  0.00     0.032 C 
HETATM   11  C   UNL     1     -46.678 -53.840  14.761  1.00  0.00     0.002 C 
HETATM   12  C   UNL     1     -46.965 -52.401  15.192  1.00  0.00     0.000 C 
HETATM   13  C   UNL     1     -46.723 -51.379  14.079  1.00  0.00     0.002 C 
HETATM   14  C   UNL     1     -45.359 -51.556  13.413  1.00  0.00     0.032 C 
ENDBRANCH   8   9
ENDBRANCH   7   8
ENDBRANCH   6   7
ENDBRANCH   5   6
ENDBRANCH   3   5
BRANCH   1  15
HETATM   15  C   UNL     1     -42.119 -47.887  10.249  1.00  0.00     0.234 C 
BRANCH  15  16
HETATM   16  N   UNL     1     -41.629 -46.586  10.694  1.00  0.00    -0.316 N 
HETATM   17  C   UNL     1     -42.469 -45.486  10.659  1.00  0.00     0.095 A 
HETATM   18  C   UNL     1     -42.053 -44.283  11.079  1.00  0.00     0.024 A 
HETATM   19  C   UNL     1     -40.716 -44.111  11.597  1.00  0.00    -0.055 A 
HETATM   20  C   UNL     1     -40.309 -42.756  12.092  1.00  0.00     0.048 C 
HETATM   21  C   UNL     1     -39.888 -45.167  11.656  1.00  0.00     0.081 A 
HETATM   22  C   UNL     1     -40.335 -46.511  11.191  1.00  0.00     0.248 A 
HETATM   23  O   UNL     1     -39.565 -47.463  11.263  1.00  0.00    -0.268 OA
ENDBRANCH  15  16
ENDBRANCH   1  15
TORSDOF 7
ENDMDL
MODEL 7
REMARK VINA RESULT:      -4.9      2.470      5.326
REMARK  7 active torsions:
REMARK  status: ('A' for Active; 'I' for Inactive)
REMARK    1  A    between atoms: N_5  and  C_6 
REMARK    2  A    between atoms: C_6  and  C_7 
REMARK       I    between atoms: C_7  and  N_9 
REMARK    3  A    between atoms: N_9  and  C_10 
REMARK    4  A    between atoms: C_10  and  C_11 
REMARK    5  A    between atoms: C_11  and  C_12 
REMARK    6  A    between atoms: C_12  and  O_13 
REMARK    7  A    between atoms: O_13  and  C_14 
ROOT
HETATM    1  C   UNL     1     -40.526 -50.394  11.686  1.00  0.00     0.235 C 
HETATM    2  O   UNL     1     -41.542 -49.726  11.864  1.00  0.00    -0.272 OA
HETATM    3  N   UNL     1     -40.520 -51.777  11.671  1.00  0.00    -0.360 N 
HETATM    4  H   UNL     1     -39.629 -52.259  11.693  1.00  0.00     0.162 HD
ENDROOT
BRANCH   3   5
HETATM    5  C   UNL     1     -41.717 -52.552  11.941  1.00  0.00     0.125 C 
BRANCH   5   6
HETATM    6  C   UNL     1     -41.458 -53.654  12.967  1.00  0.00     0.046 C 
BRANCH   6   7
HETATM    7  C   UNL     1     -42.756 -54.152  13.597  1.00  0.00     0.169 C 
BRANCH   7   8
HETATM    8  O   UNL     1     -43.821 -53.911  12.691  1.00  0.00    -0.386 OA
BRANCH   8   9
HETATM    9  C   UNL     1     -45.040 -53.405  13.230  1.00  0.00     0.121 C 
HETATM   10  C   UNL     1     -45.342 -53.919  14.638  1.00  0.00     0.032 C 
HETATM   11  C   UNL     1     -46.741 -53.496  15.071  1.00  0.00     0.002 C 
HETATM   12  C   UNL     1     -46.935 -51.983  14.969  1.00  0.00     0.000 C 
HETATM   13  C   UNL     1     -46.517 -51.411  13.614  1.00  0.00     0.002 C 
HETATM   14  C   UNL     1     -45.123 -51.877  13.192  1.00  0.00     0.032 C 
ENDBRANCH   8   9
ENDBRANCH   7   8
ENDBRANCH   6   7
ENDBRANCH   5   6
ENDBRANCH   3   5
BRANCH   1  15
HETATM   15  C   UNL     1     -39.153 -49.754  11.456  1.00  0.00     0.234 C 
BRANCH  15  16
HETATM   16  N   UNL     1     -38.483 -49.468  12.720  1.00  0.00    -0.316 N 
HETATM   17  C   UNL     1     -38.653 -48.234  13.325  1.00  0.00     0.095 A 
HETATM   18  C   UNL     1     -38.066 -47.949  14.496  1.00  0.00     0.024 A 
HETATM   19  C   UNL     1     -37.253 -48.937  15.166  1.00  0.00    -0.055 A 
HETATM   20  C   UNL     1     -36.650 -48.587  16.493  1.00  0.00     0.048 C 
HETATM   21  C   UNL     1     -37.088 -50.147  14.607  1.00  0.00     0.081 A 
HETATM   22  C   UNL     1     -37.732 -50.478  13.305  1.00  0.00     0.248 A 
HETATM   23  O   UNL     1     -37.574 -51.593  12.817  1.00  0.00    -0.268 OA
ENDBRANCH  15  16
ENDBRANCH   1  15
TORSDOF 7
ENDMDL
MODEL 8
REMARK VINA RESULT:      -4.9      2.572      5.694
REMARK  7 active torsions:
REMARK  status: ('A' for Active; 'I' for Inactive)
REMARK    1  A    between atoms: N_5  and  C_6 
REMARK    2  A    between atoms: C_6  and  C_7 
REMARK       I    between atoms: C_7  and  N_9 
REMARK    3  A    between atoms: N_9  and  C_10 
REMARK    4  A    between atoms: C_10  and  C_11 
REMARK    5  A    between atoms: C_11  and  C_12 
REMARK    6  A    between atoms: C_12  and  O_13 
REMARK    7  A    between atoms: O_13  and  C_14 
ROOT
HETATM    1  C   UNL     1     -42.888 -53.328  12.740  1.00  0.00     0.235 C 
HETATM    2  O   UNL     1     -42.239 -53.785  13.679  1.00  0.00    -0.272 OA
HETATM    3  N   UNL     1     -42.355 -52.465  11.800  1.00  0.00    -0.360 N 
HETATM    4  H   UNL     1     -42.986 -51.994  11.160  1.00  0.00     0.162 HD
ENDROOT
BRANCH   3   5
HETATM    5  C   UNL     1     -40.994 -51.970  11.895  1.00  0.00     0.125 C 
BRANCH   5   6
HETATM    6  C   UNL     1     -40.937 -50.448  11.793  1.00  0.00     0.046 C 
BRANCH   6   7
HETATM    7  C   UNL     1     -39.507 -49.929  11.918  1.00  0.00     0.169 C 
BRANCH   7   8
HETATM    8  O   UNL     1     -39.499 -48.839  12.827  1.00  0.00    -0.386 OA
BRANCH   8   9
HETATM    9  C   UNL     1     -38.727 -48.982  14.016  1.00  0.00     0.121 C 
HETATM   10  C   UNL     1     -38.218 -50.406  14.244  1.00  0.00     0.032 C 
HETATM   11  C   UNL     1     -37.572 -50.528  15.619  1.00  0.00     0.002 C 
HETATM   12  C   UNL     1     -36.464 -49.494  15.822  1.00  0.00     0.000 C 
HETATM   13  C   UNL     1     -36.898 -48.069  15.475  1.00  0.00     0.002 C 
HETATM   14  C   UNL     1     -37.570 -47.983  14.104  1.00  0.00     0.032 C 
ENDBRANCH   8   9
ENDBRANCH   7   8
ENDBRANCH   6   7
ENDBRANCH   5   6
ENDBRANCH   3   5
BRANCH   1  15
HETATM   15  C   UNL     1     -44.362 -53.678  12.514  1.00  0.00     0.234 C 
BRANCH  15  16
HETATM   16  N   UNL     1     -45.208 -53.104  13.555  1.00  0.00    -0.316 N 
HETATM   17  C   UNL     1     -45.614 -51.784  13.462  1.00  0.00     0.095 A 
HETATM   18  C   UNL     1     -46.407 -51.235  14.393  1.00  0.00     0.024 A 
HETATM   19  C   UNL     1     -46.873 -52.020  15.513  1.00  0.00    -0.055 A 
HETATM   20  C   UNL     1     -47.790 -51.374  16.507  1.00  0.00     0.048 C 
HETATM   21  C   UNL     1     -46.504 -53.307  15.616  1.00  0.00     0.081 A 
HETATM   22  C   UNL     1     -45.622 -53.931  14.590  1.00  0.00     0.248 A 
HETATM   23  O   UNL     1     -45.307 -55.112  14.701  1.00  0.00    -0.268 OA
ENDBRANCH  15  16
ENDBRANCH   1  15
TORSDOF 7
ENDMDL
MODEL 9
REMARK VINA RESULT:      -4.9      2.182      5.228
REMARK  7 active torsions:
REMARK  status: ('A' for Active; 'I' for Inactive)
REMARK    1  A    between atoms: N_5  and  C_6 
REMARK    2  A    between atoms: C_6  and  C_7 
REMARK       I    between atoms: C_7  and  N_9 
REMARK    3  A    between atoms: N_9  and  C_10 
REMARK    4  A    between atoms: C_10  and  C_11 
REMARK    5  A    between atoms: C_11  and  C_12 
REMARK    6  A    between atoms: C_12  and  O_13 
REMARK    7  A    between atoms: O_13  and  C_14 
ROOT
HETATM    1  C   UNL     1     -43.000 -53.413  12.801  1.00  0.00     0.235 C 
HETATM    2  O   UNL     1     -42.614 -52.384  12.250  1.00  0.00    -0.272 OA
HETATM    3  N   UNL     1     -42.166 -54.240  13.531  1.00  0.00    -0.360 N 
HETATM    4  H   UNL     1     -42.510 -55.153  13.809  1.00  0.00     0.162 HD
ENDROOT
BRANCH   3   5
HETATM    5  C   UNL     1     -40.741 -53.991  13.641  1.00  0.00     0.125 C 
BRANCH   5   6
HETATM    6  C   UNL     1     -40.325 -53.700  15.081  1.00  0.00     0.046 C 
BRANCH   6   7
HETATM    7  C   UNL     1     -40.457 -52.218  15.417  1.00  0.00     0.169 C 
BRANCH   7   8
HETATM    8  O   UNL     1     -39.169 -51.625  15.366  1.00  0.00    -0.386 OA
BRANCH   8   9
HETATM    9  C   UNL     1     -38.892 -50.747  14.278  1.00  0.00     0.121 C 
HETATM   10  C   UNL     1     -37.939 -51.343  13.242  1.00  0.00     0.032 C 
HETATM   11  C   UNL     1     -37.538 -50.288  12.217  1.00  0.00     0.002 C 
HETATM   12  C   UNL     1     -38.758 -49.643  11.557  1.00  0.00     0.000 C 
HETATM   13  C   UNL     1     -39.799 -49.152  12.563  1.00  0.00     0.002 C 
HETATM   14  C   UNL     1     -40.159 -50.220  13.596  1.00  0.00     0.032 C 
ENDBRANCH   8   9
ENDBRANCH   7   8
ENDBRANCH   6   7
ENDBRANCH   5   6
ENDBRANCH   3   5
BRANCH   1  15
HETATM   15  C   UNL     1     -44.457 -53.881  12.738  1.00  0.00     0.234 C 
BRANCH  15  16
HETATM   16  N   UNL     1     -45.272 -53.210  13.745  1.00  0.00    -0.316 N 
HETATM   17  C   UNL     1     -45.949 -52.047  13.421  1.00  0.00     0.095 A 
HETATM   18  C   UNL     1     -46.720 -51.420  14.320  1.00  0.00     0.024 A 
HETATM   19  C   UNL     1     -46.879 -51.958  15.651  1.00  0.00    -0.055 A 
HETATM   20  C   UNL     1     -47.783 -51.244  16.609  1.00  0.00     0.048 C 
HETATM   21  C   UNL     1     -46.245 -53.095  15.984  1.00  0.00     0.081 A 
HETATM   22  C   UNL     1     -45.383 -53.803  14.996  1.00  0.00     0.248 A 
HETATM   23  O   UNL     1     -44.821 -54.845  15.320  1.00  0.00    -0.268 OA
ENDBRANCH  15  16
ENDBRANCH   1  15
TORSDOF 7
ENDMDL
