MODEL 1
REMARK VINA RESULT:      -6.6      0.000      0.000
REMARK  6 active torsions:
REMARK  status: ('A' for Active; 'I' for Inactive)
REMARK    1  A    between atoms: C_2  and  C_4 
REMARK    2  A    between atoms: C_4  and  N_5 
REMARK    3  A    between atoms: C_9  and  C_10 
REMARK    4  A    between atoms: C_10  and  N_11 
REMARK       I    between atoms: N_11  and  C_12 
REMARK    5  A    between atoms: C_12  and  C_14 
REMARK    6  A    between atoms: C_14  and  N_15 
ROOT
HETATM    1  N   UNL     1     -42.290 -52.292  11.874  1.00  0.00    -0.357 N 
HETATM    2  C   UNL     1     -42.819 -53.177  12.785  1.00  0.00     0.235 C 
HETATM    3  O   UNL     1     -42.214 -53.563  13.782  1.00  0.00    -0.272 OA
HETATM    4  H   UNL     1     -42.877 -51.936  11.121  1.00  0.00     0.162 HD
ENDROOT
BRANCH   1   5
HETATM    5  C   UNL     1     -40.925 -51.804  11.944  1.00  0.00     0.156 C 
BRANCH   5   6
HETATM    6  C   UNL     1     -40.823 -50.329  11.530  1.00  0.00     0.167 C 
HETATM    7  O   UNL     1     -39.698 -49.735  12.213  1.00  0.00    -0.381 OA
HETATM    8  C   UNL     1     -39.560 -48.349  11.874  1.00  0.00     0.198 C 
HETATM    9  C   UNL     1     -40.852 -47.558  12.154  1.00  0.00     0.298 C 
HETATM   10  N   UNL     1     -42.057 -48.120  11.499  1.00  0.00     0.093 N 
HETATM   11  C   UNL     1     -42.120 -49.555  11.859  1.00  0.00     0.305 C 
BRANCH  10  12
HETATM   12  C   UNL     1     -42.051 -47.875  10.045  1.00  0.00     0.276 C 
BRANCH  12  13
HETATM   13  C   UNL     1     -43.392 -47.354   9.480  1.00  0.00     0.006 C 
HETATM   14  C   UNL     1     -43.490 -45.829   9.552  1.00  0.00     0.011 C 
HETATM   15  C   UNL     1     -43.585 -47.827   8.038  1.00  0.00     0.011 C 
ENDBRANCH  12  13
ENDBRANCH  10  12
ENDBRANCH   5   6
ENDBRANCH   1   5
BRANCH   2  16
HETATM   16  C   UNL     1     -44.248 -53.615  12.477  1.00  0.00     0.234 C 
BRANCH  16  17
HETATM   17  N   UNL     1     -45.173 -53.090  13.473  1.00  0.00    -0.316 N 
HETATM   18  C   UNL     1     -45.658 -51.802  13.338  1.00  0.00     0.095 A 
HETATM   19  C   UNL     1     -46.490 -51.277  14.247  1.00  0.00     0.024 A 
HETATM   20  C   UNL     1     -46.894 -52.053  15.399  1.00  0.00    -0.055 A 
HETATM   21  C   UNL     1     -47.768 -51.400  16.427  1.00  0.00     0.048 C 
HETATM   22  C   UNL     1     -46.475 -53.323  15.525  1.00  0.00     0.081 A 
HETATM   23  C   UNL     1     -45.573 -53.931  14.506  1.00  0.00     0.248 A 
HETATM   24  O   UNL     1     -45.221 -55.103  14.621  1.00  0.00    -0.268 OA
ENDBRANCH  16  17
ENDBRANCH   2  16
TORSDOF 6
ENDMDL
MODEL 2
REMARK VINA RESULT:      -6.4      1.092      1.397
REMARK  6 active torsions:
REMARK  status: ('A' for Active; 'I' for Inactive)
REMARK    1  A    between atoms: C_2  and  C_4 
REMARK    2  A    between atoms: C_4  and  N_5 
REMARK    3  A    between atoms: C_9  and  C_10 
REMARK    4  A    between atoms: C_10  and  N_11 
REMARK       I    between atoms: N_11  and  C_12 
REMARK    5  A    between atoms: C_12  and  C_14 
REMARK    6  A    between atoms: C_14  and  N_15 
ROOT
HETATM    1  N   UNL     1     -42.063 -52.821  12.278  1.00  0.00    -0.357 N 
HETATM    2  C   UNL     1     -42.832 -53.742  12.952  1.00  0.00     0.235 C 
HETATM    3  O   UNL     1     -42.411 -54.422  13.884  1.00  0.00    -0.272 OA
HETATM    4  H   UNL     1     -42.498 -52.220  11.580  1.00  0.00     0.162 HD
ENDROOT
BRANCH   1   5
HETATM    5  C   UNL     1     -40.647 -52.634  12.532  1.00  0.00     0.156 C 
BRANCH   5   6
HETATM    6  C   UNL     1     -40.168 -51.239  12.106  1.00  0.00     0.167 C 
HETATM    7  O   UNL     1     -38.737 -51.171  12.276  1.00  0.00    -0.381 OA
HETATM    8  C   UNL     1     -38.233 -49.881  11.905  1.00  0.00     0.198 C 
HETATM    9  C   UNL     1     -38.932 -48.747  12.677  1.00  0.00     0.298 C 
HETATM   10  N   UNL     1     -40.410 -48.762  12.565  1.00  0.00     0.093 N 
HETATM   11  C   UNL     1     -40.861 -50.126  12.926  1.00  0.00     0.305 C 
BRANCH  10  12
HETATM   12  C   UNL     1     -40.859 -48.325  11.231  1.00  0.00     0.276 C 
BRANCH  12  13
HETATM   13  C   UNL     1     -42.393 -48.198  11.083  1.00  0.00     0.006 C 
HETATM   14  C   UNL     1     -42.992 -47.252  12.125  1.00  0.00     0.011 C 
HETATM   15  C   UNL     1     -42.758 -47.730   9.674  1.00  0.00     0.011 C 
ENDBRANCH  12  13
ENDBRANCH  10  12
ENDBRANCH   5   6
ENDBRANCH   1   5
BRANCH   2  16
HETATM   16  C   UNL     1     -44.279 -53.822  12.473  1.00  0.00     0.234 C 
BRANCH  16  17
HETATM   17  N   UNL     1     -45.181 -53.241  13.458  1.00  0.00    -0.316 N 
HETATM   18  C   UNL     1     -45.348 -51.869  13.500  1.00  0.00     0.095 A 
HETATM   19  C   UNL     1     -46.150 -51.298  14.408  1.00  0.00     0.024 A 
HETATM   20  C   UNL     1     -46.856 -52.112  15.373  1.00  0.00    -0.055 A 
HETATM   21  C   UNL     1     -47.684 -51.425  16.416  1.00  0.00     0.048 C 
HETATM   22  C   UNL     1     -46.747 -53.450  15.319  1.00  0.00     0.081 A 
HETATM   23  C   UNL     1     -45.883 -54.102  14.295  1.00  0.00     0.248 A 
HETATM   24  O   UNL     1     -45.816 -55.329  14.240  1.00  0.00    -0.268 OA
ENDBRANCH  16  17
ENDBRANCH   2  16
TORSDOF 6
ENDMDL
MODEL 3
REMARK VINA RESULT:      -6.3      1.545      2.207
REMARK  6 active torsions:
REMARK  status: ('A' for Active; 'I' for Inactive)
REMARK    1  A    between atoms: C_2  and  C_4 
REMARK    2  A    between atoms: C_4  and  N_5 
REMARK    3  A    between atoms: C_9  and  C_10 
REMARK    4  A    between atoms: C_10  and  N_11 
REMARK       I    between atoms: N_11  and  C_12 
REMARK    5  A    between atoms: C_12  and  C_14 
REMARK    6  A    between atoms: C_14  and  N_15 
ROOT
HETATM    1  N   UNL     1     -42.532 -51.773  12.014  1.00  0.00    -0.357 N 
HETATM    2  C   UNL     1     -42.820 -52.942  12.680  1.00  0.00     0.235 C 
HETATM    3  O   UNL     1     -42.031 -53.499  13.439  1.00  0.00    -0.272 OA
HETATM    4  H   UNL     1     -43.263 -51.310  11.476  1.00  0.00     0.162 HD
ENDROOT
BRANCH   1   5
HETATM    5  C   UNL     1     -41.230 -51.135  12.060  1.00  0.00     0.156 C 
BRANCH   5   6
HETATM    6  C   UNL     1     -41.345 -49.607  12.156  1.00  0.00     0.167 C 
HETATM    7  O   UNL     1     -42.632 -49.275  12.720  1.00  0.00    -0.381 OA
HETATM    8  C   UNL     1     -42.801 -47.855  12.821  1.00  0.00     0.198 C 
HETATM    9  C   UNL     1     -42.599 -47.154  11.465  1.00  0.00     0.298 C 
HETATM   10  N   UNL     1     -41.303 -47.462  10.814  1.00  0.00     0.093 N 
HETATM   11  C   UNL     1     -41.175 -48.937  10.773  1.00  0.00     0.305 C 
BRANCH  10  12
HETATM   12  C   UNL     1     -40.179 -46.789  11.492  1.00  0.00     0.276 C 
BRANCH  12  13
HETATM   13  C   UNL     1     -40.167 -45.252  11.335  1.00  0.00     0.006 C 
HETATM   14  C   UNL     1     -39.478 -44.561  12.513  1.00  0.00     0.011 C 
HETATM   15  C   UNL     1     -39.490 -44.854  10.022  1.00  0.00     0.011 C 
ENDBRANCH  12  13
ENDBRANCH  10  12
ENDBRANCH   5   6
ENDBRANCH   1   5
BRANCH   2  16
HETATM   16  C   UNL     1     -44.228 -53.476  12.432  1.00  0.00     0.234 C 
BRANCH  16  17
HETATM   17  N   UNL     1     -45.148 -53.000  13.456  1.00  0.00    -0.316 N 
HETATM   18  C   UNL     1     -45.790 -51.788  13.283  1.00  0.00     0.095 A 
HETATM   19  C   UNL     1     -46.623 -51.307  14.215  1.00  0.00     0.024 A 
HETATM   20  C   UNL     1     -46.862 -52.050  15.433  1.00  0.00    -0.055 A 
HETATM   21  C   UNL     1     -47.745 -51.440  16.479  1.00  0.00     0.048 C 
HETATM   22  C   UNL     1     -46.287 -53.254  15.600  1.00  0.00     0.081 A 
HETATM   23  C   UNL     1     -45.382 -53.816  14.559  1.00  0.00     0.248 A 
HETATM   24  O   UNL     1     -44.886 -54.930  14.714  1.00  0.00    -0.268 OA
ENDBRANCH  16  17
ENDBRANCH   2  16
TORSDOF 6
ENDMDL
MODEL 4
REMARK VINA RESULT:      -6.3      1.677      3.307
REMARK  6 active torsions:
REMARK  status: ('A' for Active; 'I' for Inactive)
REMARK    1  A    between atoms: C_2  and  C_4 
REMARK    2  A    between atoms: C_4  and  N_5 
REMARK    3  A    between atoms: C_9  and  C_10 
REMARK    4  A    between atoms: C_10  and  N_11 
REMARK       I    between atoms: N_11  and  C_12 
REMARK    5  A    between atoms: C_12  and  C_14 
REMARK    6  A    between atoms: C_14  and  N_15 
ROOT
HETATM    1  N   UNL     1     -42.318 -52.427  11.804  1.00  0.00    -0.357 N 
HETATM    2  C   UNL     1     -42.872 -53.215  12.786  1.00  0.00     0.235 C 
HETATM    3  O   UNL     1     -42.284 -53.519  13.821  1.00  0.00    -0.272 OA
HETATM    4  H   UNL     1     -42.891 -52.132  11.015  1.00  0.00     0.162 HD
ENDROOT
BRANCH   1   5
HETATM    5  C   UNL     1     -40.945 -51.959  11.844  1.00  0.00     0.156 C 
BRANCH   5   6
HETATM    6  C   UNL     1     -40.856 -50.476  12.232  1.00  0.00     0.167 C 
HETATM    7  O   UNL     1     -42.021 -49.795  11.720  1.00  0.00    -0.381 OA
HETATM    8  C   UNL     1     -41.987 -48.399  12.042  1.00  0.00     0.198 C 
HETATM    9  C   UNL     1     -40.694 -47.726  11.544  1.00  0.00     0.298 C 
HETATM   10  N   UNL     1     -39.452 -48.383  12.015  1.00  0.00     0.093 N 
HETATM   11  C   UNL     1     -39.567 -49.822  11.685  1.00  0.00     0.305 C 
BRANCH  10  12
HETATM   12  C   UNL     1     -39.207 -48.122  13.446  1.00  0.00     0.276 C 
BRANCH  12  13
HETATM   13  C   UNL     1     -37.875 -48.698  13.981  1.00  0.00     0.006 C 
HETATM   14  C   UNL     1     -36.980 -47.611  14.576  1.00  0.00     0.011 C 
HETATM   15  C   UNL     1     -38.143 -49.788  15.020  1.00  0.00     0.011 C 
ENDBRANCH  12  13
ENDBRANCH  10  12
ENDBRANCH   5   6
ENDBRANCH   1   5
BRANCH   2  16
HETATM   16  C   UNL     1     -44.306 -53.653  12.504  1.00  0.00     0.234 C 
BRANCH  16  17
HETATM   17  N   UNL     1     -45.216 -53.111  13.505  1.00  0.00    -0.316 N 
HETATM   18  C   UNL     1     -45.696 -51.823  13.360  1.00  0.00     0.095 A 
HETATM   19  C   UNL     1     -46.514 -51.283  14.272  1.00  0.00     0.024 A 
HETATM   20  C   UNL     1     -46.908 -52.042  15.439  1.00  0.00    -0.055 A 
HETATM   21  C   UNL     1     -47.767 -51.372  16.469  1.00  0.00     0.048 C 
HETATM   22  C   UNL     1     -46.494 -53.313  15.575  1.00  0.00     0.081 A 
HETATM   23  C   UNL     1     -45.608 -53.938  14.554  1.00  0.00     0.248 A 
HETATM   24  O   UNL     1     -45.260 -55.110  14.678  1.00  0.00    -0.268 OA
ENDBRANCH  16  17
ENDBRANCH   2  16
TORSDOF 6
ENDMDL
MODEL 5
REMARK VINA RESULT:      -5.9      1.901      2.727
REMARK  6 active torsions:
REMARK  status: ('A' for Active; 'I' for Inactive)
REMARK    1  A    between atoms: C_2  and  C_4 
REMARK    2  A    between atoms: C_4  and  N_5 
REMARK    3  A    between atoms: C_9  and  C_10 
REMARK    4  A    between atoms: C_10  and  N_11 
REMARK       I    between atoms: N_11  and  C_12 
REMARK    5  A    between atoms: C_12  and  C_14 
REMARK    6  A    between atoms: C_14  and  N_15 
ROOT
HETATM    1  N   UNL     1     -43.259 -54.049  13.347  1.00  0.00    -0.357 N 
HETATM    2  C   UNL     1     -43.926 -54.877  14.220  1.00  0.00     0.235 C 
HETATM    3  O   UNL     1     -43.358 -55.585  15.048  1.00  0.00    -0.272 OA
HETATM    4  H   UNL     1     -43.790 -53.415  12.752  1.00  0.00     0.162 HD
ENDROOT
BRANCH   1   5
HETATM    5  C   UNL     1     -41.812 -54.005  13.245  1.00  0.00     0.156 C 
BRANCH   5   6
HETATM    6  C   UNL     1     -41.308 -52.609  12.853  1.00  0.00     0.167 C 
HETATM    7  O   UNL     1     -39.871 -52.583  12.986  1.00  0.00    -0.381 OA
HETATM    8  C   UNL     1     -39.343 -51.295  12.644  1.00  0.00     0.198 C 
HETATM    9  C   UNL     1     -39.992 -50.169  13.472  1.00  0.00     0.298 C 
HETATM   10  N   UNL     1     -41.472 -50.143  13.399  1.00  0.00     0.093 N 
HETATM   11  C   UNL     1     -41.949 -51.507  13.726  1.00  0.00     0.305 C 
BRANCH  10  12
HETATM   12  C   UNL     1     -41.944 -49.650  12.091  1.00  0.00     0.276 C 
BRANCH  12  13
HETATM   13  C   UNL     1     -43.053 -48.577  12.177  1.00  0.00     0.006 C 
HETATM   14  C   UNL     1     -42.856 -47.644  13.372  1.00  0.00     0.011 C 
HETATM   15  C   UNL     1     -43.115 -47.767  10.880  1.00  0.00     0.011 C 
ENDBRANCH  12  13
ENDBRANCH  10  12
ENDBRANCH   5   6
ENDBRANCH   1   5
BRANCH   2  16
HETATM   16  C   UNL     1     -45.446 -54.815  14.106  1.00  0.00     0.234 C 
BRANCH  16  17
HETATM   17  N   UNL     1     -45.978 -53.717  14.901  1.00  0.00    -0.316 N 
HETATM   18  C   UNL     1     -45.932 -53.792  16.281  1.00  0.00     0.095 A 
HETATM   19  C   UNL     1     -46.433 -52.813  17.044  1.00  0.00     0.024 A 
HETATM   20  C   UNL     1     -47.045 -51.652  16.435  1.00  0.00    -0.055 A 
HETATM   21  C   UNL     1     -47.658 -50.617  17.328  1.00  0.00     0.048 C 
HETATM   22  C   UNL     1     -47.058 -51.535  15.096  1.00  0.00     0.081 A 
HETATM   23  C   UNL     1     -46.476 -52.602  14.233  1.00  0.00     0.248 A 
HETATM   24  O   UNL     1     -46.469 -52.467  13.012  1.00  0.00    -0.268 OA
ENDBRANCH  16  17
ENDBRANCH   2  16
TORSDOF 6
ENDMDL
MODEL 6
REMARK VINA RESULT:      -5.7      1.865      6.398
REMARK  6 active torsions:
REMARK  status: ('A' for Active; 'I' for Inactive)
REMARK    1  A    between atoms: C_2  and  C_4 
REMARK    2  A    between atoms: C_4  and  N_5 
REMARK    3  A    between atoms: C_9  and  C_10 
REMARK    4  A    between atoms: C_10  and  N_11 
REMARK       I    between atoms: N_11  and  C_12 
REMARK    5  A    between atoms: C_12  and  C_14 
REMARK    6  A    between atoms: C_14  and  N_15 
ROOT
HETATM    1  N   UNL     1     -41.221 -51.445  11.484  1.00  0.00    -0.357 N 
HETATM    2  C   UNL     1     -40.548 -50.260  11.668  1.00  0.00     0.235 C 
HETATM    3  O   UNL     1     -39.570 -50.145  12.403  1.00  0.00    -0.272 OA
HETATM    4  H   UNL     1     -41.963 -51.497  10.788  1.00  0.00     0.162 HD
ENDROOT
BRANCH   1   5
HETATM    5  C   UNL     1     -40.907 -52.657  12.217  1.00  0.00     0.156 C 
BRANCH   5   6
HETATM    6  C   UNL     1     -42.023 -53.036  13.202  1.00  0.00     0.167 C 
HETATM    7  O   UNL     1     -41.607 -54.201  13.945  1.00  0.00    -0.381 OA
HETATM    8  C   UNL     1     -42.619 -54.610  14.874  1.00  0.00     0.198 C 
HETATM    9  C   UNL     1     -43.971 -54.855  14.180  1.00  0.00     0.298 C 
HETATM   10  N   UNL     1     -44.457 -53.705  13.380  1.00  0.00     0.093 N 
HETATM   11  C   UNL     1     -43.356 -53.312  12.470  1.00  0.00     0.305 C 
BRANCH  10  12
HETATM   12  C   UNL     1     -44.934 -52.607  14.240  1.00  0.00     0.276 C 
BRANCH  12  13
HETATM   13  C   UNL     1     -46.420 -52.233  14.034  1.00  0.00     0.006 C 
HETATM   14  C   UNL     1     -46.950 -51.349  15.163  1.00  0.00     0.011 C 
HETATM   15  C   UNL     1     -46.614 -51.539  12.684  1.00  0.00     0.011 C 
ENDBRANCH  12  13
ENDBRANCH  10  12
ENDBRANCH   5   6
ENDBRANCH   1   5
BRANCH   2  16
HETATM   16  C   UNL     1     -41.093 -49.094  10.848  1.00  0.00     0.234 C 
BRANCH  16  17
HETATM   17  N   UNL     1     -41.539 -48.015  11.719  1.00  0.00    -0.316 N 
HETATM   18  C   UNL     1     -40.857 -46.813  11.715  1.00  0.00     0.095 A 
HETATM   19  C   UNL     1     -41.223 -45.807  12.521  1.00  0.00     0.024 A 
HETATM   20  C   UNL     1     -42.344 -45.965  13.421  1.00  0.00    -0.055 A 
HETATM   21  C   UNL     1     -42.673 -44.840  14.354  1.00  0.00     0.048 C 
HETATM   22  C   UNL     1     -43.053 -47.107  13.406  1.00  0.00     0.081 A 
HETATM   23  C   UNL     1     -42.676 -48.223  12.494  1.00  0.00     0.248 A 
HETATM   24  O   UNL     1     -43.351 -49.251  12.471  1.00  0.00    -0.268 OA
ENDBRANCH  16  17
ENDBRANCH   2  16
TORSDOF 6
ENDMDL
MODEL 7
REMARK VINA RESULT:      -5.7      1.830      7.035
REMARK  6 active torsions:
REMARK  status: ('A' for Active; 'I' for Inactive)
REMARK    1  A    between atoms: C_2  and  C_4 
REMARK    2  A    between atoms: C_4  and  N_5 
REMARK    3  A    between atoms: C_9  and  C_10 
REMARK    4  A    between atoms: C_10  and  N_11 
REMARK       I    between atoms: N_11  and  C_12 
REMARK    5  A    between atoms: C_12  and  C_14 
REMARK    6  A    between atoms: C_14  and  N_15 
ROOT
HETATM    1  N   UNL     1     -40.411 -50.027  13.386  1.00  0.00    -0.357 N 
HETATM    2  C   UNL     1     -40.079 -48.696  13.277  1.00  0.00     0.235 C 
HETATM    3  O   UNL     1     -40.102 -47.915  14.225  1.00  0.00    -0.272 OA
HETATM    4  H   UNL     1     -40.279 -50.644  12.586  1.00  0.00     0.162 HD
ENDROOT
BRANCH   1   5
HETATM    5  C   UNL     1     -40.921 -50.620  14.608  1.00  0.00     0.156 C 
BRANCH   5   6
HETATM    6  C   UNL     1     -41.951 -51.722  14.323  1.00  0.00     0.167 C 
HETATM    7  O   UNL     1     -41.262 -52.866  13.774  1.00  0.00    -0.381 OA
HETATM    8  C   UNL     1     -42.179 -53.927  13.475  1.00  0.00     0.198 C 
HETATM    9  C   UNL     1     -43.307 -53.463  12.536  1.00  0.00     0.298 C 
HETATM   10  N   UNL     1     -44.051 -52.278  13.025  1.00  0.00     0.093 N 
HETATM   11  C   UNL     1     -43.048 -51.237  13.349  1.00  0.00     0.305 C 
BRANCH  10  12
HETATM   12  C   UNL     1     -44.935 -52.618  14.155  1.00  0.00     0.276 C 
BRANCH  12  13
HETATM   13  C   UNL     1     -46.422 -52.256  13.934  1.00  0.00     0.006 C 
HETATM   14  C   UNL     1     -46.970 -51.376  15.057  1.00  0.00     0.011 C 
HETATM   15  C   UNL     1     -46.609 -51.565  12.583  1.00  0.00     0.011 C 
ENDBRANCH  12  13
ENDBRANCH  10  12
ENDBRANCH   5   6
ENDBRANCH   1   5
BRANCH   2  16
HETATM   16  C   UNL     1     -39.636 -48.272  11.881  1.00  0.00     0.234 C 
BRANCH  16  17
HETATM   17  N   UNL     1     -40.722 -47.605  11.176  1.00  0.00    -0.316 N 
HETATM   18  C   UNL     1     -41.706 -48.363  10.569  1.00  0.00     0.095 A 
HETATM   19  C   UNL     1     -42.705 -47.785   9.891  1.00  0.00     0.024 A 
HETATM   20  C   UNL     1     -42.771 -46.344   9.774  1.00  0.00    -0.055 A 
HETATM   21  C   UNL     1     -43.866 -45.745   8.946  1.00  0.00     0.048 C 
HETATM   22  C   UNL     1     -41.853 -45.586  10.398  1.00  0.00     0.081 A 
HETATM   23  C   UNL     1     -40.752 -46.213  11.181  1.00  0.00     0.248 A 
HETATM   24  O   UNL     1     -39.937 -45.505  11.769  1.00  0.00    -0.268 OA
ENDBRANCH  16  17
ENDBRANCH   2  16
TORSDOF 6
ENDMDL
MODEL 8
REMARK VINA RESULT:      -5.6      2.798      4.141
REMARK  6 active torsions:
REMARK  status: ('A' for Active; 'I' for Inactive)
REMARK    1  A    between atoms: C_2  and  C_4 
REMARK    2  A    between atoms: C_4  and  N_5 
REMARK    3  A    between atoms: C_9  and  C_10 
REMARK    4  A    between atoms: C_10  and  N_11 
REMARK       I    between atoms: N_11  and  C_12 
REMARK    5  A    between atoms: C_12  and  C_14 
REMARK    6  A    between atoms: C_14  and  N_15 
ROOT
HETATM    1  N   UNL     1     -43.597 -54.484  14.349  1.00  0.00    -0.357 N 
HETATM    2  C   UNL     1     -44.780 -54.540  13.651  1.00  0.00     0.235 C 
HETATM    3  O   UNL     1     -44.842 -54.527  12.424  1.00  0.00    -0.272 OA
HETATM    4  H   UNL     1     -43.606 -54.597  15.362  1.00  0.00     0.162 HD
ENDROOT
BRANCH   1   5
HETATM    5  C   UNL     1     -42.307 -54.301  13.711  1.00  0.00     0.156 C 
BRANCH   5   6
HETATM    6  C   UNL     1     -41.863 -52.831  13.729  1.00  0.00     0.167 C 
HETATM    7  O   UNL     1     -43.009 -52.000  13.445  1.00  0.00    -0.381 OA
HETATM    8  C   UNL     1     -42.650 -50.612  13.436  1.00  0.00     0.198 C 
HETATM    9  C   UNL     1     -41.503 -50.320  12.451  1.00  0.00     0.298 C 
HETATM   10  N   UNL     1     -40.295 -51.151  12.670  1.00  0.00     0.093 N 
HETATM   11  C   UNL     1     -40.737 -52.564  12.704  1.00  0.00     0.305 C 
BRANCH  10  12
HETATM   12  C   UNL     1     -39.558 -50.733  13.877  1.00  0.00     0.276 C 
BRANCH  12  13
HETATM   13  C   UNL     1     -38.198 -50.055  13.592  1.00  0.00     0.006 C 
HETATM   14  C   UNL     1     -37.237 -50.180  14.775  1.00  0.00     0.011 C 
HETATM   15  C   UNL     1     -37.562 -50.640  12.331  1.00  0.00     0.011 C 
ENDBRANCH  12  13
ENDBRANCH  10  12
ENDBRANCH   5   6
ENDBRANCH   1   5
BRANCH   2  16
HETATM   16  C   UNL     1     -46.022 -54.662  14.528  1.00  0.00     0.234 C 
BRANCH  16  17
HETATM   17  N   UNL     1     -46.160 -53.497  15.392  1.00  0.00    -0.316 N 
HETATM   18  C   UNL     1     -46.775 -52.359  14.906  1.00  0.00     0.095 A 
HETATM   19  C   UNL     1     -46.897 -51.261  15.663  1.00  0.00     0.024 A 
HETATM   20  C   UNL     1     -46.375 -51.244  17.012  1.00  0.00    -0.055 A 
HETATM   21  C   UNL     1     -46.470 -49.971  17.797  1.00  0.00     0.048 C 
HETATM   22  C   UNL     1     -45.817 -52.355  17.523  1.00  0.00     0.081 A 
HETATM   23  C   UNL     1     -45.702 -53.594  16.703  1.00  0.00     0.248 A 
HETATM   24  O   UNL     1     -45.215 -54.610  17.193  1.00  0.00    -0.268 OA
ENDBRANCH  16  17
ENDBRANCH   2  16
TORSDOF 6
ENDMDL
MODEL 9
REMARK VINA RESULT:      -5.6      2.803      7.076
REMARK  6 active torsions:
REMARK  status: ('A' for Active; 'I' for Inactive)
REMARK    1  A    between atoms: C_2  and  C_4 
REMARK    2  A    between atoms: C_4  and  N_5 
REMARK    3  A    between atoms: C_9  and  C_10 
REMARK    4  A    between atoms: C_10  and  N_11 
REMARK       I    between atoms: N_11  and  C_12 
REMARK    5  A    between atoms: C_12  and  C_14 
REMARK    6  A    between atoms: C_14  and  N_15 
ROOT
HETATM    1  N   UNL     1     -40.303 -51.167  11.818  1.00  0.00    -0.357 N 
HETATM    2  C   UNL     1     -39.014 -50.951  12.247  1.00  0.00     0.235 C 
HETATM    3  O   UNL     1     -38.404 -51.732  12.973  1.00  0.00    -0.272 OA
HETATM    4  H   UNL     1     -40.719 -50.531  11.139  1.00  0.00     0.162 HD
ENDROOT
BRANCH   1   5
HETATM    5  C   UNL     1     -41.110 -52.288  12.264  1.00  0.00     0.156 C 
BRANCH   5   6
HETATM    6  C   UNL     1     -42.064 -51.890  13.399  1.00  0.00     0.167 C 
HETATM    7  O   UNL     1     -41.326 -51.880  14.640  1.00  0.00    -0.381 OA
HETATM    8  C   UNL     1     -42.172 -51.527  15.742  1.00  0.00     0.198 C 
HETATM    9  C   UNL     1     -43.401 -52.450  15.842  1.00  0.00     0.298 C 
HETATM   10  N   UNL     1     -44.201 -52.525  14.596  1.00  0.00     0.093 N 
HETATM   11  C   UNL     1     -43.266 -52.857  13.496  1.00  0.00     0.305 C 
BRANCH  10  12
HETATM   12  C   UNL     1     -44.969 -51.287  14.366  1.00  0.00     0.276 C 
BRANCH  12  13
HETATM   13  C   UNL     1     -46.456 -51.515  14.008  1.00  0.00     0.006 C 
HETATM   14  C   UNL     1     -46.677 -51.582  12.497  1.00  0.00     0.011 C 
HETATM   15  C   UNL     1     -46.977 -52.790  14.674  1.00  0.00     0.011 C 
ENDBRANCH  12  13
ENDBRANCH  10  12
ENDBRANCH   5   6
ENDBRANCH   1   5
BRANCH   2  16
HETATM   16  C   UNL     1     -38.380 -49.672  11.709  1.00  0.00     0.234 C 
BRANCH  16  17
HETATM   17  N   UNL     1     -38.597 -48.563  12.628  1.00  0.00    -0.316 N 
HETATM   18  C   UNL     1     -37.800 -48.444  13.751  1.00  0.00     0.095 A 
HETATM   19  C   UNL     1     -37.987 -47.452  14.630  1.00  0.00     0.024 A 
HETATM   20  C   UNL     1     -39.041 -46.483  14.423  1.00  0.00    -0.055 A 
HETATM   21  C   UNL     1     -39.260 -45.433  15.470  1.00  0.00     0.048 C 
HETATM   22  C   UNL     1     -39.796 -46.550  13.314  1.00  0.00     0.081 A 
HETATM   23  C   UNL     1     -39.579 -47.630  12.310  1.00  0.00     0.248 A 
HETATM   24  O   UNL     1     -40.259 -47.661  11.287  1.00  0.00    -0.268 OA
ENDBRANCH  16  17
ENDBRANCH   2  16
TORSDOF 6
ENDMDL
