MODEL 1
REMARK VINA RESULT:      -6.3      0.000      0.000
REMARK  5 active torsions:
REMARK  status: ('A' for Active; 'I' for Inactive)
REMARK    1  A    between atoms: C_7  and  O_8 
REMARK    2  A    between atoms: O_8  and  C_9 
REMARK    3  A    between atoms: C_9  and  C_10 
REMARK    4  A    between atoms: C_10  and  N_11 
REMARK       I    between atoms: N_11  and  C_12 
REMARK       I    between atoms: C_12  and  N_14 
REMARK    5  A    between atoms: N_14  and  C_15 
ROOT
HETATM    1  N   UNL     1     -41.193 -52.715  11.742  1.00  0.00    -0.341 N 
HETATM    2  C   UNL     1     -40.854 -51.408  12.051  1.00  0.00     0.322 C 
HETATM    3  O   UNL     1     -40.684 -51.040  13.205  1.00  0.00    -0.247 OA
HETATM    4  N   UNL     1     -40.807 -50.629  10.925  1.00  0.00    -0.288 N 
HETATM    5  H   UNL     1     -40.736 -53.088  10.920  1.00  0.00     0.164 HD
HETATM    6  H   UNL     1     -41.267 -50.953  10.096  1.00  0.00     0.172 HD
ENDROOT
BRANCH   1   7
HETATM    7  C   UNL     1     -41.308 -53.652  12.843  1.00  0.00     0.150 C 
BRANCH   7   8
HETATM    8  C   UNL     1     -42.757 -53.985  13.169  1.00  0.00     0.188 C 
BRANCH   8   9
HETATM    9  O   UNL     1     -43.622 -53.217  12.322  1.00  0.00    -0.384 OA
BRANCH   9  10
HETATM   10  C   UNL     1     -44.942 -53.049  12.856  1.00  0.00     0.125 C 
HETATM   11  C   UNL     1     -45.309 -51.568  13.105  1.00  0.00     0.010 C 
HETATM   12  C   UNL     1     -44.244 -50.822  13.919  1.00  0.00     0.012 C 
HETATM   13  C   UNL     1     -46.696 -51.466  13.752  1.00  0.00     0.007 C 
HETATM   14  C   UNL     1     -46.810 -52.281  15.036  1.00  0.00     0.001 C 
HETATM   15  C   UNL     1     -46.400 -53.735  14.822  1.00  0.00     0.002 C 
HETATM   16  C   UNL     1     -45.033 -53.866  14.154  1.00  0.00     0.032 C 
ENDBRANCH   9  10
ENDBRANCH   8   9
ENDBRANCH   7   8
ENDBRANCH   1   7
BRANCH   4  17
HETATM   17  C   UNL     1     -40.504 -49.298  11.015  1.00  0.00     0.168 A 
HETATM   18  N   UNL     1     -39.385 -48.702  11.352  1.00  0.00    -0.279 N 
HETATM   19  N   UNL     1     -39.515 -47.326  11.361  1.00  0.00    -0.303 N 
ATOM     20  HN  UNL     1     -38.521 -49.195  11.579  1.00  0.00     0.189 HD
HETATM   21  C   UNL     1     -40.732 -46.953  11.030  1.00  0.00     0.160 A 
ATOM     22  HN  UNL     1     -38.761 -46.681  11.596  1.00  0.00     0.186 HD
HETATM   23  S   UNL     1     -41.794 -48.243  10.636  1.00  0.00    -0.046 SA
ENDBRANCH   4  17
TORSDOF 5
ENDMDL
MODEL 2
REMARK VINA RESULT:      -6.3      0.693      1.664
REMARK  5 active torsions:
REMARK  status: ('A' for Active; 'I' for Inactive)
REMARK    1  A    between atoms: C_7  and  O_8 
REMARK    2  A    between atoms: O_8  and  C_9 
REMARK    3  A    between atoms: C_9  and  C_10 
REMARK    4  A    between atoms: C_10  and  N_11 
REMARK       I    between atoms: N_11  and  C_12 
REMARK       I    between atoms: C_12  and  N_14 
REMARK    5  A    between atoms: N_14  and  C_15 
ROOT
HETATM    1  N   UNL     1     -41.062 -52.821  11.804  1.00  0.00    -0.341 N 
HETATM    2  C   UNL     1     -40.580 -51.542  12.033  1.00  0.00     0.322 C 
HETATM    3  O   UNL     1     -39.955 -51.259  13.046  1.00  0.00    -0.247 OA
HETATM    4  N   UNL     1     -40.952 -50.686  11.032  1.00  0.00    -0.288 N 
HETATM    5  H   UNL     1     -40.981 -53.139  10.847  1.00  0.00     0.164 HD
HETATM    6  H   UNL     1     -41.714 -50.946  10.434  1.00  0.00     0.172 HD
ENDROOT
BRANCH   1   7
HETATM    7  C   UNL     1     -40.768 -53.833  12.801  1.00  0.00     0.150 C 
BRANCH   7   8
HETATM    8  C   UNL     1     -41.992 -54.205  13.625  1.00  0.00     0.188 C 
BRANCH   8   9
HETATM    9  O   UNL     1     -43.169 -53.697  12.983  1.00  0.00    -0.384 OA
BRANCH   9  10
HETATM   10  C   UNL     1     -44.101 -53.097  13.892  1.00  0.00     0.125 C 
HETATM   11  C   UNL     1     -44.909 -54.137  14.701  1.00  0.00     0.010 C 
HETATM   12  C   UNL     1     -45.557 -55.207  13.812  1.00  0.00     0.012 C 
HETATM   13  C   UNL     1     -45.943 -53.432  15.589  1.00  0.00     0.007 C 
HETATM   14  C   UNL     1     -46.869 -52.512  14.802  1.00  0.00     0.001 C 
HETATM   15  C   UNL     1     -46.087 -51.512  13.954  1.00  0.00     0.002 C 
HETATM   16  C   UNL     1     -45.032 -52.185  13.078  1.00  0.00     0.032 C 
ENDBRANCH   9  10
ENDBRANCH   8   9
ENDBRANCH   7   8
ENDBRANCH   1   7
BRANCH   4  17
HETATM   17  C   UNL     1     -40.589 -49.368  11.075  1.00  0.00     0.168 A 
HETATM   18  N   UNL     1     -39.430 -48.814  11.343  1.00  0.00    -0.279 N 
HETATM   19  N   UNL     1     -39.502 -47.434  11.327  1.00  0.00    -0.303 N 
ATOM     20  HN  UNL     1     -38.578 -49.339  11.540  1.00  0.00     0.189 HD
HETATM   21  C   UNL     1     -40.717 -47.015  11.048  1.00  0.00     0.160 A 
ATOM     22  HN  UNL     1     -38.711 -46.817  11.510  1.00  0.00     0.186 HD
HETATM   23  S   UNL     1     -41.851 -48.266  10.736  1.00  0.00    -0.046 SA
ENDBRANCH   4  17
TORSDOF 5
ENDMDL
MODEL 3
REMARK VINA RESULT:      -6.3      2.252      3.077
REMARK  5 active torsions:
REMARK  status: ('A' for Active; 'I' for Inactive)
REMARK    1  A    between atoms: C_7  and  O_8 
REMARK    2  A    between atoms: O_8  and  C_9 
REMARK    3  A    between atoms: C_9  and  C_10 
REMARK    4  A    between atoms: C_10  and  N_11 
REMARK       I    between atoms: N_11  and  C_12 
REMARK       I    between atoms: C_12  and  N_14 
REMARK    5  A    between atoms: N_14  and  C_15 
ROOT
HETATM    1  N   UNL     1     -40.629 -50.103  10.869  1.00  0.00    -0.341 N 
HETATM    2  C   UNL     1     -41.484 -49.018  10.978  1.00  0.00     0.322 C 
HETATM    3  O   UNL     1     -41.985 -48.694  12.046  1.00  0.00    -0.247 OA
HETATM    4  N   UNL     1     -41.712 -48.442   9.756  1.00  0.00    -0.288 N 
HETATM    5  H   UNL     1     -39.840 -49.960  10.252  1.00  0.00     0.164 HD
HETATM    6  H   UNL     1     -41.512 -48.973   8.929  1.00  0.00     0.172 HD
ENDROOT
BRANCH   1   7
HETATM    7  C   UNL     1     -40.318 -50.830  12.085  1.00  0.00     0.150 C 
BRANCH   7   8
HETATM    8  C   UNL     1     -40.924 -52.226  12.094  1.00  0.00     0.188 C 
BRANCH   8   9
HETATM    9  O   UNL     1     -42.351 -52.122  12.192  1.00  0.00    -0.384 OA
BRANCH   9  10
HETATM   10  C   UNL     1     -42.978 -53.317  12.677  1.00  0.00     0.125 C 
HETATM   11  C   UNL     1     -44.522 -53.244  12.645  1.00  0.00     0.010 C 
HETATM   12  C   UNL     1     -45.070 -51.977  13.314  1.00  0.00     0.012 C 
HETATM   13  C   UNL     1     -45.127 -54.516  13.253  1.00  0.00     0.007 C 
HETATM   14  C   UNL     1     -44.621 -54.794  14.665  1.00  0.00     0.001 C 
HETATM   15  C   UNL     1     -43.096 -54.817  14.726  1.00  0.00     0.002 C 
HETATM   16  C   UNL     1     -42.466 -53.572  14.103  1.00  0.00     0.032 C 
ENDBRANCH   9  10
ENDBRANCH   8   9
ENDBRANCH   7   8
ENDBRANCH   1   7
BRANCH   4  17
HETATM   17  C   UNL     1     -42.543 -47.362   9.643  1.00  0.00     0.168 A 
HETATM   18  N   UNL     1     -42.627 -46.274  10.371  1.00  0.00    -0.279 N 
HETATM   19  N   UNL     1     -43.644 -45.443   9.942  1.00  0.00    -0.303 N 
ATOM     20  HN  UNL     1     -42.014 -46.066  11.160  1.00  0.00     0.189 HD
HETATM   21  C   UNL     1     -44.280 -45.949   8.908  1.00  0.00     0.160 A 
ATOM     22  HN  UNL     1     -43.874 -44.548  10.374  1.00  0.00     0.186 HD
HETATM   23  S   UNL     1     -43.657 -47.448   8.349  1.00  0.00    -0.046 SA
ENDBRANCH   4  17
TORSDOF 5
ENDMDL
MODEL 4
REMARK VINA RESULT:      -6.0      2.244      2.409
REMARK  5 active torsions:
REMARK  status: ('A' for Active; 'I' for Inactive)
REMARK    1  A    between atoms: C_7  and  O_8 
REMARK    2  A    between atoms: O_8  and  C_9 
REMARK    3  A    between atoms: C_9  and  C_10 
REMARK    4  A    between atoms: C_10  and  N_11 
REMARK       I    between atoms: N_11  and  C_12 
REMARK       I    between atoms: C_12  and  N_14 
REMARK    5  A    between atoms: N_14  and  C_15 
ROOT
HETATM    1  N   UNL     1     -41.074 -53.344  14.543  1.00  0.00    -0.341 N 
HETATM    2  C   UNL     1     -40.471 -52.850  13.398  1.00  0.00     0.322 C 
HETATM    3  O   UNL     1     -40.444 -53.488  12.355  1.00  0.00    -0.247 OA
HETATM    4  N   UNL     1     -39.891 -51.631  13.630  1.00  0.00    -0.288 N 
HETATM    5  H   UNL     1     -41.594 -52.659  15.077  1.00  0.00     0.164 HD
HETATM    6  H   UNL     1     -39.702 -51.360  14.576  1.00  0.00     0.172 HD
ENDROOT
BRANCH   1   7
HETATM    7  C   UNL     1     -41.709 -54.645  14.454  1.00  0.00     0.150 C 
BRANCH   7   8
HETATM    8  C   UNL     1     -43.215 -54.568  14.664  1.00  0.00     0.188 C 
BRANCH   8   9
HETATM    9  O   UNL     1     -43.847 -54.200  13.430  1.00  0.00    -0.384 OA
BRANCH   9  10
HETATM   10  C   UNL     1     -45.115 -53.556  13.609  1.00  0.00     0.125 C 
HETATM   11  C   UNL     1     -45.175 -52.152  12.965  1.00  0.00     0.010 C 
HETATM   12  C   UNL     1     -43.997 -51.260  13.378  1.00  0.00     0.012 C 
HETATM   13  C   UNL     1     -46.526 -51.487  13.264  1.00  0.00     0.007 C 
HETATM   14  C   UNL     1     -46.832 -51.419  14.757  1.00  0.00     0.001 C 
HETATM   15  C   UNL     1     -46.726 -52.789  15.421  1.00  0.00     0.002 C 
HETATM   16  C   UNL     1     -45.400 -53.485  15.117  1.00  0.00     0.032 C 
ENDBRANCH   9  10
ENDBRANCH   8   9
ENDBRANCH   7   8
ENDBRANCH   1   7
BRANCH   4  17
HETATM   17  C   UNL     1     -39.227 -50.977  12.628  1.00  0.00     0.168 A 
HETATM   18  N   UNL     1     -39.664 -50.513  11.481  1.00  0.00    -0.279 N 
HETATM   19  N   UNL     1     -38.647 -49.954  10.730  1.00  0.00    -0.303 N 
ATOM     20  HN  UNL     1     -40.637 -50.560  11.180  1.00  0.00     0.189 HD
HETATM   21  C   UNL     1     -37.490 -50.026  11.351  1.00  0.00     0.160 A 
ATOM     22  HN  UNL     1     -38.778 -49.538   9.808  1.00  0.00     0.186 HD
HETATM   23  S   UNL     1     -37.560 -50.733  12.914  1.00  0.00    -0.046 SA
ENDBRANCH   4  17
TORSDOF 5
ENDMDL
MODEL 5
REMARK VINA RESULT:      -6.0      2.851      4.189
REMARK  5 active torsions:
REMARK  status: ('A' for Active; 'I' for Inactive)
REMARK    1  A    between atoms: C_7  and  O_8 
REMARK    2  A    between atoms: O_8  and  C_9 
REMARK    3  A    between atoms: C_9  and  C_10 
REMARK    4  A    between atoms: C_10  and  N_11 
REMARK       I    between atoms: N_11  and  C_12 
REMARK       I    between atoms: C_12  and  N_14 
REMARK    5  A    between atoms: N_14  and  C_15 
ROOT
HETATM    1  N   UNL     1     -40.608 -49.290  10.531  1.00  0.00    -0.341 N 
HETATM    2  C   UNL     1     -41.799 -48.607  10.712  1.00  0.00     0.322 C 
HETATM    3  O   UNL     1     -42.279 -48.428  11.823  1.00  0.00    -0.247 OA
HETATM    4  N   UNL     1     -42.350 -48.245   9.512  1.00  0.00    -0.288 N 
HETATM    5  H   UNL     1     -39.999 -48.899   9.823  1.00  0.00     0.164 HD
HETATM    6  H   UNL     1     -42.043 -48.714   8.680  1.00  0.00     0.172 HD
ENDROOT
BRANCH   1   7
HETATM    7  C   UNL     1     -39.922 -49.761  11.720  1.00  0.00     0.150 C 
BRANCH   7   8
HETATM    8  C   UNL     1     -40.279 -51.201  12.060  1.00  0.00     0.188 C 
BRANCH   8   9
HETATM    9  O   UNL     1     -40.616 -51.290  13.451  1.00  0.00    -0.384 OA
BRANCH   9  10
HETATM   10  C   UNL     1     -41.847 -51.982  13.696  1.00  0.00     0.125 C 
HETATM   11  C   UNL     1     -41.663 -53.256  14.552  1.00  0.00     0.010 C 
HETATM   12  C   UNL     1     -40.564 -54.180  14.012  1.00  0.00     0.012 C 
HETATM   13  C   UNL     1     -43.002 -53.991  14.706  1.00  0.00     0.007 C 
HETATM   14  C   UNL     1     -43.651 -54.321  13.366  1.00  0.00     0.001 C 
HETATM   15  C   UNL     1     -43.792 -53.083  12.484  1.00  0.00     0.002 C 
HETATM   16  C   UNL     1     -42.479 -52.317  12.336  1.00  0.00     0.032 C 
ENDBRANCH   9  10
ENDBRANCH   8   9
ENDBRANCH   7   8
ENDBRANCH   1   7
BRANCH   4  17
HETATM   17  C   UNL     1     -43.540 -47.573   9.469  1.00  0.00     0.168 A 
HETATM   18  N   UNL     1     -44.717 -47.898   9.951  1.00  0.00    -0.279 N 
HETATM   19  N   UNL     1     -45.678 -46.952   9.647  1.00  0.00    -0.303 N 
ATOM     20  HN  UNL     1     -44.902 -48.747  10.485  1.00  0.00     0.189 HD
HETATM   21  C   UNL     1     -45.175 -45.957   8.948  1.00  0.00     0.160 A 
ATOM     22  HN  UNL     1     -46.656 -47.017   9.929  1.00  0.00     0.186 HD
HETATM   23  S   UNL     1     -43.488 -46.074   8.650  1.00  0.00    -0.046 SA
ENDBRANCH   4  17
TORSDOF 5
ENDMDL
MODEL 6
REMARK VINA RESULT:      -5.9      1.827      2.329
REMARK  5 active torsions:
REMARK  status: ('A' for Active; 'I' for Inactive)
REMARK    1  A    between atoms: C_7  and  O_8 
REMARK    2  A    between atoms: O_8  and  C_9 
REMARK    3  A    between atoms: C_9  and  C_10 
REMARK    4  A    between atoms: C_10  and  N_11 
REMARK       I    between atoms: N_11  and  C_12 
REMARK       I    between atoms: C_12  and  N_14 
REMARK    5  A    between atoms: N_14  and  C_15 
ROOT
HETATM    1  N   UNL     1     -43.502 -52.771  12.267  1.00  0.00    -0.341 N 
HETATM    2  C   UNL     1     -42.185 -52.380  12.093  1.00  0.00     0.322 C 
HETATM    3  O   UNL     1     -41.259 -53.176  12.174  1.00  0.00    -0.247 OA
HETATM    4  N   UNL     1     -42.091 -51.029  11.891  1.00  0.00    -0.288 N 
HETATM    5  H   UNL     1     -44.161 -52.333  11.635  1.00  0.00     0.164 HD
HETATM    6  H   UNL     1     -42.862 -50.448  12.159  1.00  0.00     0.172 HD
ENDROOT
BRANCH   1   7
HETATM    7  C   UNL     1     -43.754 -54.177  12.518  1.00  0.00     0.150 C 
BRANCH   7   8
HETATM    8  C   UNL     1     -44.725 -54.393  13.670  1.00  0.00     0.188 C 
BRANCH   8   9
HETATM    9  O   UNL     1     -45.879 -53.563  13.480  1.00  0.00    -0.384 OA
BRANCH   9  10
HETATM   10  C   UNL     1     -46.523 -53.192  14.706  1.00  0.00     0.125 C 
HETATM   11  C   UNL     1     -46.683 -51.663  14.865  1.00  0.00     0.010 C 
HETATM   12  C   UNL     1     -45.371 -50.902  14.634  1.00  0.00     0.012 C 
HETATM   13  C   UNL     1     -47.301 -51.332  16.230  1.00  0.00     0.007 C 
HETATM   14  C   UNL     1     -46.513 -51.924  17.394  1.00  0.00     0.001 C 
HETATM   15  C   UNL     1     -46.299 -53.426  17.227  1.00  0.00     0.002 C 
HETATM   16  C   UNL     1     -45.708 -53.786  15.865  1.00  0.00     0.032 C 
ENDBRANCH   9  10
ENDBRANCH   8   9
ENDBRANCH   7   8
ENDBRANCH   1   7
BRANCH   4  17
HETATM   17  C   UNL     1     -40.871 -50.437  11.713  1.00  0.00     0.168 A 
HETATM   18  N   UNL     1     -40.192 -50.205  10.614  1.00  0.00    -0.279 N 
HETATM   19  N   UNL     1     -38.966 -49.622  10.878  1.00  0.00    -0.303 N 
ATOM     20  HN  UNL     1     -40.528 -50.428   9.677  1.00  0.00     0.189 HD
HETATM   21  C   UNL     1     -38.783 -49.445  12.169  1.00  0.00     0.160 A 
ATOM     22  HN  UNL     1     -38.289 -49.362  10.161  1.00  0.00     0.186 HD
HETATM   23  S   UNL     1     -40.104 -49.928  13.153  1.00  0.00    -0.046 SA
ENDBRANCH   4  17
TORSDOF 5
ENDMDL
MODEL 7
REMARK VINA RESULT:      -5.5      4.819      7.398
REMARK  5 active torsions:
REMARK  status: ('A' for Active; 'I' for Inactive)
REMARK    1  A    between atoms: C_7  and  O_8 
REMARK    2  A    between atoms: O_8  and  C_9 
REMARK    3  A    between atoms: C_9  and  C_10 
REMARK    4  A    between atoms: C_10  and  N_11 
REMARK       I    between atoms: N_11  and  C_12 
REMARK       I    between atoms: C_12  and  N_14 
REMARK    5  A    between atoms: N_14  and  C_15 
ROOT
HETATM    1  N   UNL     1     -41.017 -48.846  10.306  1.00  0.00    -0.341 N 
HETATM    2  C   UNL     1     -42.310 -48.355  10.389  1.00  0.00     0.322 C 
HETATM    3  O   UNL     1     -42.920 -48.319  11.448  1.00  0.00    -0.247 OA
HETATM    4  N   UNL     1     -42.785 -48.000   9.155  1.00  0.00    -0.288 N 
HETATM    5  H   UNL     1     -40.406 -48.327   9.688  1.00  0.00     0.164 HD
HETATM    6  H   UNL     1     -42.329 -48.365   8.340  1.00  0.00     0.172 HD
ENDROOT
BRANCH   1   7
HETATM    7  C   UNL     1     -40.391 -49.289  11.537  1.00  0.00     0.150 C 
BRANCH   7   8
HETATM    8  C   UNL     1     -39.372 -48.287  12.060  1.00  0.00     0.188 C 
BRANCH   8   9
HETATM    9  O   UNL     1     -40.050 -47.264  12.801  1.00  0.00    -0.384 OA
BRANCH   9  10
HETATM   10  C   UNL     1     -39.771 -45.939  12.330  1.00  0.00     0.125 C 
HETATM   11  C   UNL     1     -39.096 -45.048  13.399  1.00  0.00     0.010 C 
HETATM   12  C   UNL     1     -39.849 -45.053  14.736  1.00  0.00     0.012 C 
HETATM   13  C   UNL     1     -38.902 -43.625  12.859  1.00  0.00     0.007 C 
HETATM   14  C   UNL     1     -40.202 -42.998  12.366  1.00  0.00     0.001 C 
HETATM   15  C   UNL     1     -40.910 -43.889  11.348  1.00  0.00     0.002 C 
HETATM   16  C   UNL     1     -41.092 -45.320  11.850  1.00  0.00     0.032 C 
ENDBRANCH   9  10
ENDBRANCH   8   9
ENDBRANCH   7   8
ENDBRANCH   1   7
BRANCH   4  17
HETATM   17  C   UNL     1     -44.052 -47.504   9.016  1.00  0.00     0.168 A 
HETATM   18  N   UNL     1     -45.201 -48.129   8.901  1.00  0.00    -0.279 N 
HETATM   19  N   UNL     1     -46.252 -47.248   8.733  1.00  0.00    -0.303 N 
ATOM     20  HN  UNL     1     -45.305 -49.143   8.933  1.00  0.00     0.189 HD
HETATM   21  C   UNL     1     -45.841 -45.998   8.728  1.00  0.00     0.160 A 
ATOM     22  HN  UNL     1     -47.226 -47.532   8.625  1.00  0.00     0.186 HD
HETATM   23  S   UNL     1     -44.155 -45.799   8.976  1.00  0.00    -0.046 SA
ENDBRANCH   4  17
TORSDOF 5
ENDMDL
MODEL 8
REMARK VINA RESULT:      -5.5      3.079      4.376
REMARK  5 active torsions:
REMARK  status: ('A' for Active; 'I' for Inactive)
REMARK    1  A    between atoms: C_7  and  O_8 
REMARK    2  A    between atoms: O_8  and  C_9 
REMARK    3  A    between atoms: C_9  and  C_10 
REMARK    4  A    between atoms: C_10  and  N_11 
REMARK       I    between atoms: N_11  and  C_12 
REMARK       I    between atoms: C_12  and  N_14 
REMARK    5  A    between atoms: N_14  and  C_15 
ROOT
HETATM    1  N   UNL     1     -38.858 -49.032  13.085  1.00  0.00    -0.341 N 
HETATM    2  C   UNL     1     -39.648 -49.043  11.947  1.00  0.00     0.322 C 
HETATM    3  O   UNL     1     -39.457 -49.836  11.035  1.00  0.00    -0.247 OA
HETATM    4  N   UNL     1     -40.578 -48.039  11.981  1.00  0.00    -0.288 N 
HETATM    5  H   UNL     1     -39.361 -48.874  13.949  1.00  0.00     0.164 HD
HETATM    6  H   UNL     1     -40.436 -47.271  12.610  1.00  0.00     0.172 HD
ENDROOT
BRANCH   1   7
HETATM    7  C   UNL     1     -37.806 -50.027  13.176  1.00  0.00     0.150 C 
BRANCH   7   8
HETATM    8  C   UNL     1     -38.197 -51.202  14.061  1.00  0.00     0.188 C 
BRANCH   8   9
HETATM    9  O   UNL     1     -38.866 -52.191  13.268  1.00  0.00    -0.384 OA
BRANCH   9  10
HETATM   10  C   UNL     1     -40.143 -52.576  13.793  1.00  0.00     0.125 C 
HETATM   11  C   UNL     1     -40.035 -53.551  14.988  1.00  0.00     0.010 C 
HETATM   12  C   UNL     1     -39.132 -54.755  14.691  1.00  0.00     0.012 C 
HETATM   13  C   UNL     1     -41.433 -53.986  15.447  1.00  0.00     0.007 C 
HETATM   14  C   UNL     1     -42.263 -54.592  14.320  1.00  0.00     0.001 C 
HETATM   15  C   UNL     1     -42.336 -53.665  13.110  1.00  0.00     0.002 C 
HETATM   16  C   UNL     1     -40.958 -53.195  12.648  1.00  0.00     0.032 C 
ENDBRANCH   9  10
ENDBRANCH   8   9
ENDBRANCH   7   8
ENDBRANCH   1   7
BRANCH   4  17
HETATM   17  C   UNL     1     -41.450 -47.866  10.941  1.00  0.00     0.168 A 
HETATM   18  N   UNL     1     -41.658 -48.602   9.875  1.00  0.00    -0.279 N 
HETATM   19  N   UNL     1     -42.605 -48.043   9.038  1.00  0.00    -0.303 N 
ATOM     20  HN  UNL     1     -41.178 -49.482   9.686  1.00  0.00     0.189 HD
HETATM   21  C   UNL     1     -43.065 -46.907   9.518  1.00  0.00     0.160 A 
ATOM     22  HN  UNL     1     -42.910 -48.459   8.158  1.00  0.00     0.186 HD
HETATM   23  S   UNL     1     -42.417 -46.460  11.043  1.00  0.00    -0.046 SA
ENDBRANCH   4  17
TORSDOF 5
ENDMDL
MODEL 9
REMARK VINA RESULT:      -5.4      2.587      3.415
REMARK  5 active torsions:
REMARK  status: ('A' for Active; 'I' for Inactive)
REMARK    1  A    between atoms: C_7  and  O_8 
REMARK    2  A    between atoms: O_8  and  C_9 
REMARK    3  A    between atoms: C_9  and  C_10 
REMARK    4  A    between atoms: C_10  and  N_11 
REMARK       I    between atoms: N_11  and  C_12 
REMARK       I    between atoms: C_12  and  N_14 
REMARK    5  A    between atoms: N_14  and  C_15 
ROOT
HETATM    1  N   UNL     1     -39.215 -49.833  13.816  1.00  0.00    -0.341 N 
HETATM    2  C   UNL     1     -39.080 -48.964  12.746  1.00  0.00     0.322 C 
HETATM    3  O   UNL     1     -38.264 -49.156  11.856  1.00  0.00    -0.247 OA
HETATM    4  N   UNL     1     -39.916 -47.886  12.875  1.00  0.00    -0.288 N 
HETATM    5  H   UNL     1     -40.169 -49.998  14.110  1.00  0.00     0.164 HD
HETATM    6  H   UNL     1     -40.295 -47.676  13.778  1.00  0.00     0.172 HD
ENDROOT
BRANCH   1   7
HETATM    7  C   UNL     1     -38.369 -51.011  13.829  1.00  0.00     0.150 C 
BRANCH   7   8
HETATM    8  C   UNL     1     -39.176 -52.301  13.813  1.00  0.00     0.188 C 
BRANCH   8   9
HETATM    9  O   UNL     1     -39.908 -52.389  12.583  1.00  0.00    -0.384 OA
BRANCH   9  10
HETATM   10  C   UNL     1     -41.095 -53.186  12.680  1.00  0.00     0.125 C 
HETATM   11  C   UNL     1     -42.369 -52.426  12.245  1.00  0.00     0.010 C 
HETATM   12  C   UNL     1     -42.514 -51.065  12.939  1.00  0.00     0.012 C 
HETATM   13  C   UNL     1     -43.609 -53.306  12.453  1.00  0.00     0.007 C 
HETATM   14  C   UNL     1     -43.738 -53.817  13.884  1.00  0.00     0.001 C 
HETATM   15  C   UNL     1     -42.468 -54.524  14.349  1.00  0.00     0.002 C 
HETATM   16  C   UNL     1     -41.214 -53.680  14.130  1.00  0.00     0.032 C 
ENDBRANCH   9  10
ENDBRANCH   8   9
ENDBRANCH   7   8
ENDBRANCH   1   7
BRANCH   4  17
HETATM   17  C   UNL     1     -39.926 -46.899  11.928  1.00  0.00     0.168 A 
HETATM   18  N   UNL     1     -40.030 -46.975  10.622  1.00  0.00    -0.279 N 
HETATM   19  N   UNL     1     -39.949 -45.732  10.024  1.00  0.00    -0.303 N 
ATOM     20  HN  UNL     1     -40.155 -47.848  10.109  1.00  0.00     0.189 HD
HETATM   21  C   UNL     1     -39.786 -44.777  10.914  1.00  0.00     0.160 A 
ATOM     22  HN  UNL     1     -40.007 -45.575   9.018  1.00  0.00     0.186 HD
HETATM   23  S   UNL     1     -39.769 -45.313  12.544  1.00  0.00    -0.046 SA
ENDBRANCH   4  17
TORSDOF 5
ENDMDL
