MODEL 1
REMARK VINA RESULT:      -7.2      0.000      0.000
REMARK  7 active torsions:
REMARK  status: ('A' for Active; 'I' for Inactive)
REMARK    1  A    between atoms: N_2  and  C_13 
REMARK    2  A    between atoms: C_6  and  N_7 
REMARK    3  A    between atoms: C_13  and  C_14 
REMARK    4  A    between atoms: C_14  and  O_25 
REMARK    5  A    between atoms: C_17  and  C_22 
REMARK    6  A    between atoms: O_21  and  C_26 
REMARK    7  A    between atoms: O_21  and  C_22 
ROOT
HETATM    1  C   UNL     1     -41.867 -49.703  12.248  1.00  0.00     0.117 A 
HETATM    2  N   UNL     1     -42.485 -51.408  13.470  1.00  0.00    -0.324 N 
HETATM    3  C   UNL     1     -41.419 -50.903  12.776  1.00  0.00     0.140 A 
HETATM    4  N   UNL     1     -43.199 -49.508  12.570  1.00  0.00    -0.346 N 
ATOM      5  HN  UNL     1     -43.798 -48.733  12.284  1.00  0.00     0.167 HD
HETATM    6  C   UNL     1     -40.927 -48.922  11.531  1.00  0.00     0.114 A 
HETATM    7  C   UNL     1     -43.528 -50.534  13.323  1.00  0.00     0.185 A 
HETATM    8  N   UNL     1     -40.197 -51.442  12.654  1.00  0.00    -0.336 N 
ATOM      9  HN  UNL     1     -39.922 -52.348  13.035  1.00  0.00     0.168 HD
HETATM   10  N   UNL     1     -39.664 -49.418  11.415  1.00  0.00    -0.341 N 
ATOM     11  HN  UNL     1     -38.942 -48.889  10.925  1.00  0.00     0.167 HD
HETATM   12  C   UNL     1     -39.382 -50.623  11.960  1.00  0.00     0.183 A 
ENDROOT
BRANCH   6  13
HETATM   13  N   UNL     1     -41.271 -47.683  10.973  1.00  0.00    -0.265 NA
HETATM   14  C   UNL     1     -42.494 -47.671  10.154  1.00  0.00     0.129 C 
HETATM   15  C   UNL     1     -42.569 -46.330   9.380  1.00  0.00     0.135 C 
HETATM   16  C   UNL     1     -42.465 -45.155  10.366  1.00  0.00     0.034 C 
HETATM   17  C   UNL     1     -41.264 -45.279  11.296  1.00  0.00     0.017 C 
HETATM   18  C   UNL     1     -41.237 -46.632  11.993  1.00  0.00     0.097 C 
BRANCH  15  19
HETATM   19  O   UNL     1     -43.798 -46.255   8.640  1.00  0.00    -0.384 OA
BRANCH  19  20
HETATM   20  C   UNL     1     -44.399 -47.537   8.442  1.00  0.00     0.172 C 
BRANCH  20  21
HETATM   21  C   UNL     1     -45.582 -47.677   9.346  1.00  0.00     0.009 A 
HETATM   22  C   UNL     1     -46.783 -48.462   8.876  1.00  0.00     0.007 A 
HETATM   23  C   UNL     1     -46.878 -46.970   9.033  1.00  0.00     0.007 A 
ENDBRANCH  20  21
ENDBRANCH  19  20
ENDBRANCH  15  19
ENDBRANCH   6  13
BRANCH   2  24
HETATM   24  C   UNL     1     -42.469 -52.573  14.337  1.00  0.00     0.171 C 
BRANCH  24  25
HETATM   25  C   UNL     1     -43.244 -53.781  13.808  1.00  0.00     0.097 C 
HETATM   26  C   UNL     1     -44.748 -53.615  13.705  1.00  0.00     0.068 C 
HETATM   27  C   UNL     1     -45.274 -55.031  13.870  1.00  0.00     0.170 C 
HETATM   28  O   UNL     1     -44.297 -55.782  14.597  1.00  0.00    -0.388 OA
HETATM   29  C   UNL     1     -43.145 -54.947  14.801  1.00  0.00     0.207 C 
BRANCH  25  30
HETATM   30  O   UNL     1     -42.733 -54.224  12.544  1.00  0.00    -0.386 OA
HETATM   31  H   UNL     1     -43.135 -55.083  12.313  1.00  0.00     0.210 HD
ENDBRANCH  25  30
ENDBRANCH  24  25
ENDBRANCH   2  24
TORSDOF 7
ENDMDL
MODEL 2
REMARK VINA RESULT:      -7.2      1.525      6.928
REMARK  7 active torsions:
REMARK  status: ('A' for Active; 'I' for Inactive)
REMARK    1  A    between atoms: N_2  and  C_13 
REMARK    2  A    between atoms: C_6  and  N_7 
REMARK    3  A    between atoms: C_13  and  C_14 
REMARK    4  A    between atoms: C_14  and  O_25 
REMARK    5  A    between atoms: C_17  and  C_22 
REMARK    6  A    between atoms: O_21  and  C_26 
REMARK    7  A    between atoms: O_21  and  C_22 
ROOT
HETATM    1  C   UNL     1     -42.122 -49.889  12.202  1.00  0.00     0.117 A 
HETATM    2  N   UNL     1     -42.500 -47.954  11.256  1.00  0.00    -0.324 N 
HETATM    3  C   UNL     1     -41.557 -48.938  11.368  1.00  0.00     0.140 A 
HETATM    4  N   UNL     1     -43.367 -49.464  12.634  1.00  0.00    -0.346 N 
ATOM      5  HN  UNL     1     -43.992 -49.941  13.284  1.00  0.00     0.167 HD
HETATM    6  C   UNL     1     -41.376 -51.071  12.434  1.00  0.00     0.114 A 
HETATM    7  C   UNL     1     -43.571 -48.316  12.028  1.00  0.00     0.185 A 
HETATM    8  N   UNL     1     -40.353 -48.984  10.776  1.00  0.00    -0.336 N 
ATOM      9  HN  UNL     1     -39.964 -48.242  10.193  1.00  0.00     0.168 HD
HETATM   10  N   UNL     1     -40.163 -51.172  11.822  1.00  0.00    -0.341 N 
ATOM     11  HN  UNL     1     -39.592 -52.009  11.939  1.00  0.00     0.167 HD
HETATM   12  C   UNL     1     -39.728 -50.145  11.057  1.00  0.00     0.183 A 
ENDROOT
BRANCH   6  13
HETATM   13  N   UNL     1     -41.864 -52.104  13.246  1.00  0.00    -0.265 NA
HETATM   14  C   UNL     1     -43.148 -52.690  12.827  1.00  0.00     0.129 C 
HETATM   15  C   UNL     1     -43.688 -53.588  13.969  1.00  0.00     0.135 C 
HETATM   16  C   UNL     1     -42.624 -54.627  14.360  1.00  0.00     0.034 C 
HETATM   17  C   UNL     1     -41.267 -53.993  14.644  1.00  0.00     0.017 C 
HETATM   18  C   UNL     1     -40.818 -53.098  13.498  1.00  0.00     0.097 C 
BRANCH  15  19
HETATM   19  O   UNL     1     -44.897 -54.243  13.552  1.00  0.00    -0.384 OA
BRANCH  19  20
HETATM   20  C   UNL     1     -45.992 -53.986  14.434  1.00  0.00     0.172 C 
BRANCH  20  21
HETATM   21  C   UNL     1     -45.924 -52.573  14.915  1.00  0.00     0.009 A 
HETATM   22  C   UNL     1     -47.165 -51.923  15.479  1.00  0.00     0.007 A 
HETATM   23  C   UNL     1     -46.616 -51.467  14.156  1.00  0.00     0.007 A 
ENDBRANCH  20  21
ENDBRANCH  19  20
ENDBRANCH  15  19
ENDBRANCH   6  13
BRANCH   2  24
HETATM   24  C   UNL     1     -42.447 -46.813  10.358  1.00  0.00     0.171 C 
BRANCH  24  25
HETATM   25  C   UNL     1     -43.499 -46.817   9.248  1.00  0.00     0.097 C 
HETATM   26  C   UNL     1     -44.879 -47.311   9.638  1.00  0.00     0.068 C 
HETATM   27  C   UNL     1     -45.436 -47.869   8.339  1.00  0.00     0.170 C 
HETATM   28  O   UNL     1     -44.331 -48.234   7.506  1.00  0.00    -0.388 OA
HETATM   29  C   UNL     1     -43.118 -47.835   8.164  1.00  0.00     0.207 C 
BRANCH  25  30
HETATM   30  O   UNL     1     -43.619 -45.529   8.630  1.00  0.00    -0.386 OA
HETATM   31  H   UNL     1     -44.075 -45.621   7.773  1.00  0.00     0.210 HD
ENDBRANCH  25  30
ENDBRANCH  24  25
ENDBRANCH   2  24
TORSDOF 7
ENDMDL
MODEL 3
REMARK VINA RESULT:      -7.2      2.161      7.380
REMARK  7 active torsions:
REMARK  status: ('A' for Active; 'I' for Inactive)
REMARK    1  A    between atoms: N_2  and  C_13 
REMARK    2  A    between atoms: C_6  and  N_7 
REMARK    3  A    between atoms: C_13  and  C_14 
REMARK    4  A    between atoms: C_14  and  O_25 
REMARK    5  A    between atoms: C_17  and  C_22 
REMARK    6  A    between atoms: O_21  and  C_26 
REMARK    7  A    between atoms: O_21  and  C_22 
ROOT
HETATM    1  C   UNL     1     -41.787 -49.826  12.140  1.00  0.00     0.117 A 
HETATM    2  N   UNL     1     -41.977 -47.841  11.240  1.00  0.00    -0.324 N 
HETATM    3  C   UNL     1     -41.091 -48.869  11.420  1.00  0.00     0.140 A 
HETATM    4  N   UNL     1     -43.058 -49.365  12.440  1.00  0.00    -0.346 N 
ATOM      5  HN  UNL     1     -43.774 -49.839  12.991  1.00  0.00     0.167 HD
HETATM    6  C   UNL     1     -41.120 -51.047  12.406  1.00  0.00     0.114 A 
HETATM    7  C   UNL     1     -43.145 -48.187  11.864  1.00  0.00     0.185 A 
HETATM    8  N   UNL     1     -39.828 -48.943  10.972  1.00  0.00    -0.336 N 
ATOM      9  HN  UNL     1     -39.345 -48.196  10.472  1.00  0.00     0.168 HD
HETATM   10  N   UNL     1     -39.848 -51.176  11.938  1.00  0.00    -0.341 N 
ATOM     11  HN  UNL     1     -39.326 -52.040  12.085  1.00  0.00     0.167 HD
HETATM   12  C   UNL     1     -39.286 -50.140  11.274  1.00  0.00     0.183 A 
ENDROOT
BRANCH   6  13
HETATM   13  N   UNL     1     -41.740 -52.088  13.110  1.00  0.00    -0.265 NA
HETATM   14  C   UNL     1     -42.971 -52.621  12.504  1.00  0.00     0.129 C 
HETATM   15  C   UNL     1     -43.683 -53.537  13.531  1.00  0.00     0.135 C 
HETATM   16  C   UNL     1     -42.710 -54.619  14.025  1.00  0.00     0.034 C 
HETATM   17  C   UNL     1     -41.387 -54.037  14.509  1.00  0.00     0.017 C 
HETATM   18  C   UNL     1     -40.764 -53.122  13.464  1.00  0.00     0.097 C 
BRANCH  15  19
HETATM   19  O   UNL     1     -44.843 -54.140  12.935  1.00  0.00    -0.384 OA
BRANCH  19  20
HETATM   20  C   UNL     1     -46.027 -53.941  13.711  1.00  0.00     0.172 C 
BRANCH  20  21
HETATM   21  C   UNL     1     -45.904 -52.672  14.490  1.00  0.00     0.009 A 
HETATM   22  C   UNL     1     -47.083 -52.181  15.295  1.00  0.00     0.007 A 
HETATM   23  C   UNL     1     -46.652 -51.432  14.065  1.00  0.00     0.007 A 
ENDBRANCH  20  21
ENDBRANCH  19  20
ENDBRANCH  15  19
ENDBRANCH   6  13
BRANCH   2  24
HETATM   24  C   UNL     1     -41.774 -46.671  10.406  1.00  0.00     0.171 C 
BRANCH  24  25
HETATM   25  C   UNL     1     -40.666 -45.726  10.878  1.00  0.00     0.097 C 
HETATM   26  C   UNL     1     -40.365 -45.742  12.364  1.00  0.00     0.068 C 
HETATM   27  C   UNL     1     -39.840 -44.342  12.635  1.00  0.00     0.170 C 
HETATM   28  O   UNL     1     -40.366 -43.472  11.627  1.00  0.00    -0.388 OA
HETATM   29  C   UNL     1     -41.099 -44.267  10.681  1.00  0.00     0.207 C 
BRANCH  25  30
HETATM   30  O   UNL     1     -39.449 -45.935  10.150  1.00  0.00    -0.386 OA
HETATM   31  H   UNL     1     -39.177 -45.100   9.726  1.00  0.00     0.210 HD
ENDBRANCH  25  30
ENDBRANCH  24  25
ENDBRANCH   2  24
TORSDOF 7
ENDMDL
MODEL 4
REMARK VINA RESULT:      -7.1      1.899      2.349
REMARK  7 active torsions:
REMARK  status: ('A' for Active; 'I' for Inactive)
REMARK    1  A    between atoms: N_2  and  C_13 
REMARK    2  A    between atoms: C_6  and  N_7 
REMARK    3  A    between atoms: C_13  and  C_14 
REMARK    4  A    between atoms: C_14  and  O_25 
REMARK    5  A    between atoms: C_17  and  C_22 
REMARK    6  A    between atoms: O_21  and  C_26 
REMARK    7  A    between atoms: O_21  and  C_22 
ROOT
HETATM    1  C   UNL     1     -40.885 -49.913  11.768  1.00  0.00     0.117 A 
HETATM    2  N   UNL     1     -40.968 -52.015  12.367  1.00  0.00    -0.324 N 
HETATM    3  C   UNL     1     -40.095 -51.026  12.003  1.00  0.00     0.140 A 
HETATM    4  N   UNL     1     -42.222 -50.234  11.933  1.00  0.00    -0.346 N 
ATOM      5  HN  UNL     1     -43.027 -49.624  11.789  1.00  0.00     0.167 HD
HETATM    6  C   UNL     1     -40.220 -48.706  11.439  1.00  0.00     0.114 A 
HETATM    7  C   UNL     1     -42.232 -51.491  12.317  1.00  0.00     0.185 A 
HETATM    8  N   UNL     1     -38.759 -51.111  11.916  1.00  0.00    -0.336 N 
ATOM      9  HN  UNL     1     -38.220 -51.964  12.068  1.00  0.00     0.168 HD
HETATM   10  N   UNL     1     -38.861 -48.741  11.377  1.00  0.00    -0.341 N 
ATOM     11  HN  UNL     1     -38.329 -47.897  11.163  1.00  0.00     0.167 HD
HETATM   12  C   UNL     1     -38.225 -49.913  11.602  1.00  0.00     0.183 A 
ENDROOT
BRANCH   6  13
HETATM   13  N   UNL     1     -40.924 -47.517  11.202  1.00  0.00    -0.265 NA
HETATM   14  C   UNL     1     -42.014 -47.609  10.216  1.00  0.00     0.129 C 
HETATM   15  C   UNL     1     -42.485 -46.178   9.851  1.00  0.00     0.135 C 
HETATM   16  C   UNL     1     -42.860 -45.413  11.130  1.00  0.00     0.034 C 
HETATM   17  C   UNL     1     -41.762 -45.465  12.185  1.00  0.00     0.017 C 
HETATM   18  C   UNL     1     -41.326 -46.896  12.466  1.00  0.00     0.097 C 
BRANCH  15  19
HETATM   19  O   UNL     1     -43.607 -46.241   8.957  1.00  0.00    -0.384 OA
BRANCH  19  20
HETATM   20  C   UNL     1     -44.134 -47.563   8.828  1.00  0.00     0.172 C 
BRANCH  20  21
HETATM   21  C   UNL     1     -45.457 -47.642   9.518  1.00  0.00     0.009 A 
HETATM   22  C   UNL     1     -46.616 -48.313   8.820  1.00  0.00     0.007 A 
HETATM   23  C   UNL     1     -46.629 -46.825   9.031  1.00  0.00     0.007 A 
ENDBRANCH  20  21
ENDBRANCH  19  20
ENDBRANCH  15  19
ENDBRANCH   6  13
BRANCH   2  24
HETATM   24  C   UNL     1     -40.613 -53.329  12.871  1.00  0.00     0.171 C 
BRANCH  24  25
HETATM   25  C   UNL     1     -40.223 -53.369  14.350  1.00  0.00     0.097 C 
HETATM   26  C   UNL     1     -39.206 -54.423  14.743  1.00  0.00     0.068 C 
HETATM   27  C   UNL     1     -39.541 -54.713  16.197  1.00  0.00     0.170 C 
HETATM   28  O   UNL     1     -40.915 -54.376  16.409  1.00  0.00    -0.388 OA
HETATM   29  C   UNL     1     -41.428 -53.791  15.201  1.00  0.00     0.207 C 
BRANCH  25  30
HETATM   30  O   UNL     1     -39.774 -52.089  14.812  1.00  0.00    -0.386 OA
HETATM   31  H   UNL     1     -40.088 -51.395  14.202  1.00  0.00     0.210 HD
ENDBRANCH  25  30
ENDBRANCH  24  25
ENDBRANCH   2  24
TORSDOF 7
ENDMDL
MODEL 5
REMARK VINA RESULT:      -7.0      2.365      7.706
REMARK  7 active torsions:
REMARK  status: ('A' for Active; 'I' for Inactive)
REMARK    1  A    between atoms: N_2  and  C_13 
REMARK    2  A    between atoms: C_6  and  N_7 
REMARK    3  A    between atoms: C_13  and  C_14 
REMARK    4  A    between atoms: C_14  and  O_25 
REMARK    5  A    between atoms: C_17  and  C_22 
REMARK    6  A    between atoms: O_21  and  C_26 
REMARK    7  A    between atoms: O_21  and  C_22 
ROOT
HETATM    1  C   UNL     1     -41.002 -47.345  11.811  1.00  0.00     0.117 A 
HETATM    2  N   UNL     1     -40.691 -45.208  11.465  1.00  0.00    -0.324 N 
HETATM    3  C   UNL     1     -41.294 -46.315  10.932  1.00  0.00     0.140 A 
HETATM    4  N   UNL     1     -40.190 -46.884  12.833  1.00  0.00    -0.346 N 
ATOM      5  HN  UNL     1     -39.789 -47.427  13.597  1.00  0.00     0.167 HD
HETATM    6  C   UNL     1     -41.573 -48.612  11.534  1.00  0.00     0.114 A 
HETATM    7  C   UNL     1     -40.047 -45.596  12.609  1.00  0.00     0.185 A 
HETATM    8  N   UNL     1     -42.030 -46.381   9.812  1.00  0.00    -0.336 N 
ATOM      9  HN  UNL     1     -42.191 -45.600   9.177  1.00  0.00     0.168 HD
HETATM   10  N   UNL     1     -42.356 -48.713  10.425  1.00  0.00    -0.341 N 
ATOM     11  HN  UNL     1     -42.808 -49.596  10.188  1.00  0.00     0.167 HD
HETATM   12  C   UNL     1     -42.527 -47.623   9.642  1.00  0.00     0.183 A 
ENDROOT
BRANCH   6  13
HETATM   13  N   UNL     1     -41.357 -49.717  12.370  1.00  0.00    -0.265 NA
HETATM   14  C   UNL     1     -42.545 -50.533  12.666  1.00  0.00     0.129 C 
HETATM   15  C   UNL     1     -42.208 -51.514  13.817  1.00  0.00     0.135 C 
HETATM   16  C   UNL     1     -40.961 -52.335  13.451  1.00  0.00     0.034 C 
HETATM   17  C   UNL     1     -39.796 -51.459  13.009  1.00  0.00     0.017 C 
HETATM   18  C   UNL     1     -40.208 -50.497  11.903  1.00  0.00     0.097 C 
BRANCH  15  19
HETATM   19  O   UNL     1     -43.325 -52.384  14.067  1.00  0.00    -0.384 OA
BRANCH  19  20
HETATM   20  C   UNL     1     -44.130 -52.593  12.904  1.00  0.00     0.172 C 
BRANCH  20  21
HETATM   21  C   UNL     1     -45.573 -52.597  13.292  1.00  0.00     0.009 A 
HETATM   22  C   UNL     1     -46.527 -51.650  12.604  1.00  0.00     0.007 A 
HETATM   23  C   UNL     1     -46.171 -51.436  14.048  1.00  0.00     0.007 A 
ENDBRANCH  20  21
ENDBRANCH  19  20
ENDBRANCH  15  19
ENDBRANCH   6  13
BRANCH   2  24
HETATM   24  C   UNL     1     -40.841 -43.841  10.997  1.00  0.00     0.171 C 
BRANCH  24  25
HETATM   25  C   UNL     1     -42.204 -43.207  11.285  1.00  0.00     0.097 C 
HETATM   26  C   UNL     1     -42.264 -41.694  11.210  1.00  0.00     0.068 C 
HETATM   27  C   UNL     1     -43.386 -41.336  12.170  1.00  0.00     0.170 C 
HETATM   28  O   UNL     1     -43.506 -42.396  13.123  1.00  0.00    -0.388 OA
HETATM   29  C   UNL     1     -42.598 -43.445  12.748  1.00  0.00     0.207 C 
BRANCH  25  30
HETATM   30  O   UNL     1     -43.229 -43.759  10.449  1.00  0.00    -0.386 OA
HETATM   31  H   UNL     1     -42.904 -43.818   9.531  1.00  0.00     0.210 HD
ENDBRANCH  25  30
ENDBRANCH  24  25
ENDBRANCH   2  24
TORSDOF 7
ENDMDL
MODEL 6
REMARK VINA RESULT:      -7.0      2.397      4.097
REMARK  7 active torsions:
REMARK  status: ('A' for Active; 'I' for Inactive)
REMARK    1  A    between atoms: N_2  and  C_13 
REMARK    2  A    between atoms: C_6  and  N_7 
REMARK    3  A    between atoms: C_13  and  C_14 
REMARK    4  A    between atoms: C_14  and  O_25 
REMARK    5  A    between atoms: C_17  and  C_22 
REMARK    6  A    between atoms: O_21  and  C_26 
REMARK    7  A    between atoms: O_21  and  C_22 
ROOT
HETATM    1  C   UNL     1     -42.229 -53.116  13.025  1.00  0.00     0.117 A 
HETATM    2  N   UNL     1     -44.047 -54.295  13.320  1.00  0.00    -0.324 N 
HETATM    3  C   UNL     1     -42.799 -54.082  13.838  1.00  0.00     0.140 A 
HETATM    4  N   UNL     1     -43.095 -52.786  11.997  1.00  0.00    -0.346 N 
ATOM      5  HN  UNL     1     -42.926 -52.135  11.230  1.00  0.00     0.167 HD
HETATM    6  C   UNL     1     -40.940 -52.648  13.384  1.00  0.00     0.114 A 
HETATM    7  C   UNL     1     -44.183 -53.491  12.220  1.00  0.00     0.185 A 
HETATM    8  N   UNL     1     -42.255 -54.666  14.917  1.00  0.00    -0.336 N 
ATOM      9  HN  UNL     1     -42.703 -55.399  15.468  1.00  0.00     0.168 HD
HETATM   10  N   UNL     1     -40.368 -53.190  14.494  1.00  0.00    -0.341 N 
ATOM     11  HN  UNL     1     -39.449 -52.877  14.809  1.00  0.00     0.167 HD
HETATM   12  C   UNL     1     -41.036 -54.150  15.173  1.00  0.00     0.183 A 
ENDROOT
BRANCH   6  13
HETATM   13  N   UNL     1     -40.282 -51.659  12.641  1.00  0.00    -0.265 NA
HETATM   14  C   UNL     1     -41.080 -50.463  12.325  1.00  0.00     0.129 C 
HETATM   15  C   UNL     1     -40.325 -49.619  11.267  1.00  0.00     0.135 C 
HETATM   16  C   UNL     1     -38.905 -49.309  11.767  1.00  0.00     0.034 C 
HETATM   17  C   UNL     1     -38.161 -50.558  12.223  1.00  0.00     0.017 C 
HETATM   18  C   UNL     1     -38.976 -51.355  13.232  1.00  0.00     0.097 C 
BRANCH  15  19
HETATM   19  O   UNL     1     -41.041 -48.400  11.005  1.00  0.00    -0.384 OA
BRANCH  19  20
HETATM   20  C   UNL     1     -42.386 -48.439  11.487  1.00  0.00     0.172 C 
BRANCH  20  21
HETATM   21  C   UNL     1     -43.158 -47.301  10.901  1.00  0.00     0.009 A 
HETATM   22  C   UNL     1     -44.397 -47.589  10.087  1.00  0.00     0.007 A 
HETATM   23  C   UNL     1     -43.163 -47.061   9.411  1.00  0.00     0.007 A 
ENDBRANCH  20  21
ENDBRANCH  19  20
ENDBRANCH  15  19
ENDBRANCH   6  13
BRANCH   2  24
HETATM   24  C   UNL     1     -45.097 -55.101  13.916  1.00  0.00     0.171 C 
BRANCH  24  25
HETATM   25  C   UNL     1     -46.196 -54.307  14.626  1.00  0.00     0.097 C 
HETATM   26  C   UNL     1     -46.472 -52.918  14.083  1.00  0.00     0.068 C 
HETATM   27  C   UNL     1     -46.992 -52.161  15.294  1.00  0.00     0.170 C 
HETATM   28  O   UNL     1     -46.483 -52.803  16.467  1.00  0.00    -0.388 OA
HETATM   29  C   UNL     1     -45.766 -53.981  16.063  1.00  0.00     0.207 C 
BRANCH  25  30
HETATM   30  O   UNL     1     -47.425 -55.042  14.682  1.00  0.00    -0.386 OA
HETATM   31  H   UNL     1     -47.539 -55.419  15.575  1.00  0.00     0.210 HD
ENDBRANCH  25  30
ENDBRANCH  24  25
ENDBRANCH   2  24
TORSDOF 7
ENDMDL
MODEL 7
REMARK VINA RESULT:      -6.8      1.926      7.560
REMARK  7 active torsions:
REMARK  status: ('A' for Active; 'I' for Inactive)
REMARK    1  A    between atoms: N_2  and  C_13 
REMARK    2  A    between atoms: C_6  and  N_7 
REMARK    3  A    between atoms: C_13  and  C_14 
REMARK    4  A    between atoms: C_14  and  O_25 
REMARK    5  A    between atoms: C_17  and  C_22 
REMARK    6  A    between atoms: O_21  and  C_26 
REMARK    7  A    between atoms: O_21  and  C_22 
ROOT
HETATM    1  C   UNL     1     -41.198 -50.362  12.636  1.00  0.00     0.117 A 
HETATM    2  N   UNL     1     -42.180 -48.826  11.428  1.00  0.00    -0.324 N 
HETATM    3  C   UNL     1     -40.979 -49.455  11.613  1.00  0.00     0.140 A 
HETATM    4  N   UNL     1     -42.497 -50.249  13.103  1.00  0.00    -0.346 N 
ATOM      5  HN  UNL     1     -42.924 -50.762  13.874  1.00  0.00     0.167 HD
HETATM    6  C   UNL     1     -40.121 -51.213  12.988  1.00  0.00     0.114 A 
HETATM    7  C   UNL     1     -43.062 -49.340  12.341  1.00  0.00     0.185 A 
HETATM    8  N   UNL     1     -39.841 -49.253  10.931  1.00  0.00    -0.336 N 
ATOM      9  HN  UNL     1     -39.717 -48.548  10.204  1.00  0.00     0.168 HD
HETATM   10  N   UNL     1     -38.959 -51.064  12.294  1.00  0.00    -0.341 N 
ATOM     11  HN  UNL     1     -38.156 -51.662  12.493  1.00  0.00     0.167 HD
HETATM   12  C   UNL     1     -38.884 -50.111  11.338  1.00  0.00     0.183 A 
ENDROOT
BRANCH   6  13
HETATM   13  N   UNL     1     -40.243 -52.180  13.996  1.00  0.00    -0.265 NA
HETATM   14  C   UNL     1     -41.285 -53.196  13.780  1.00  0.00     0.129 C 
HETATM   15  C   UNL     1     -41.492 -53.993  15.093  1.00  0.00     0.135 C 
HETATM   16  C   UNL     1     -40.148 -54.566  15.569  1.00  0.00     0.034 C 
HETATM   17  C   UNL     1     -39.054 -53.507  15.640  1.00  0.00     0.017 C 
HETATM   18  C   UNL     1     -38.933 -52.742  14.329  1.00  0.00     0.097 C 
BRANCH  15  19
HETATM   19  O   UNL     1     -42.442 -55.050  14.885  1.00  0.00    -0.384 OA
BRANCH  19  20
HETATM   20  C   UNL     1     -43.764 -54.690  15.293  1.00  0.00     0.172 C 
BRANCH  20  21
HETATM   21  C   UNL     1     -44.728 -55.007  14.195  1.00  0.00     0.009 A 
HETATM   22  C   UNL     1     -45.356 -53.878  13.414  1.00  0.00     0.007 A 
HETATM   23  C   UNL     1     -46.197 -54.699  14.349  1.00  0.00     0.007 A 
ENDBRANCH  20  21
ENDBRANCH  19  20
ENDBRANCH  15  19
ENDBRANCH   6  13
BRANCH   2  24
HETATM   24  C   UNL     1     -42.508 -47.901  10.358  1.00  0.00     0.171 C 
BRANCH  24  25
HETATM   25  C   UNL     1     -42.009 -46.470  10.566  1.00  0.00     0.097 C 
HETATM   26  C   UNL     1     -42.123 -45.923  11.976  1.00  0.00     0.068 C 
HETATM   27  C   UNL     1     -42.260 -44.424  11.764  1.00  0.00     0.170 C 
HETATM   28  O   UNL     1     -42.795 -44.212  10.454  1.00  0.00    -0.388 OA
HETATM   29  C   UNL     1     -42.896 -45.484   9.795  1.00  0.00     0.207 C 
BRANCH  25  30
HETATM   30  O   UNL     1     -40.659 -46.311  10.109  1.00  0.00    -0.386 OA
HETATM   31  H   UNL     1     -40.051 -46.353  10.870  1.00  0.00     0.210 HD
ENDBRANCH  25  30
ENDBRANCH  24  25
ENDBRANCH   2  24
TORSDOF 7
ENDMDL
MODEL 8
REMARK VINA RESULT:      -6.7      1.656      2.520
REMARK  7 active torsions:
REMARK  status: ('A' for Active; 'I' for Inactive)
REMARK    1  A    between atoms: N_2  and  C_13 
REMARK    2  A    between atoms: C_6  and  N_7 
REMARK    3  A    between atoms: C_13  and  C_14 
REMARK    4  A    between atoms: C_14  and  O_25 
REMARK    5  A    between atoms: C_17  and  C_22 
REMARK    6  A    between atoms: O_21  and  C_26 
REMARK    7  A    between atoms: O_21  and  C_22 
ROOT
HETATM    1  C   UNL     1     -42.679 -51.142  12.543  1.00  0.00     0.117 A 
HETATM    2  N   UNL     1     -44.258 -52.582  13.006  1.00  0.00    -0.324 N 
HETATM    3  C   UNL     1     -42.953 -52.498  12.605  1.00  0.00     0.140 A 
HETATM    4  N   UNL     1     -43.814 -50.411  12.849  1.00  0.00    -0.346 N 
ATOM      5  HN  UNL     1     -43.917 -49.397  12.845  1.00  0.00     0.167 HD
HETATM    6  C   UNL     1     -41.352 -50.764  12.218  1.00  0.00     0.114 A 
HETATM    7  C   UNL     1     -44.732 -51.305  13.146  1.00  0.00     0.185 A 
HETATM    8  N   UNL     1     -42.112 -53.513  12.350  1.00  0.00    -0.336 N 
ATOM      9  HN  UNL     1     -42.369 -54.500  12.377  1.00  0.00     0.168 HD
HETATM   10  N   UNL     1     -40.459 -51.765  11.987  1.00  0.00    -0.341 N 
ATOM     11  HN  UNL     1     -39.486 -51.551  11.767  1.00  0.00     0.167 HD
HETATM   12  C   UNL     1     -40.881 -53.048  12.054  1.00  0.00     0.183 A 
ENDROOT
BRANCH   6  13
HETATM   13  N   UNL     1     -40.964 -49.419  12.148  1.00  0.00    -0.265 NA
HETATM   14  C   UNL     1     -41.665 -48.605  11.141  1.00  0.00     0.129 C 
HETATM   15  C   UNL     1     -40.928 -47.251  10.986  1.00  0.00     0.135 C 
HETATM   16  C   UNL     1     -40.797 -46.571  12.359  1.00  0.00     0.034 C 
HETATM   17  C   UNL     1     -40.201 -47.495  13.413  1.00  0.00     0.017 C 
HETATM   18  C   UNL     1     -40.952 -48.818  13.484  1.00  0.00     0.097 C 
BRANCH  15  19
HETATM   19  O   UNL     1     -41.643 -46.402  10.073  1.00  0.00    -0.384 OA
BRANCH  19  20
HETATM   20  C   UNL     1     -43.050 -46.387  10.323  1.00  0.00     0.172 C 
BRANCH  20  21
HETATM   21  C   UNL     1     -43.787 -46.442   9.024  1.00  0.00     0.009 A 
HETATM   22  C   UNL     1     -44.866 -47.480   8.829  1.00  0.00     0.007 A 
HETATM   23  C   UNL     1     -43.575 -47.589   8.067  1.00  0.00     0.007 A 
ENDBRANCH  20  21
ENDBRANCH  19  20
ENDBRANCH  15  19
ENDBRANCH   6  13
BRANCH   2  24
HETATM   24  C   UNL     1     -44.966 -53.795  13.373  1.00  0.00     0.171 C 
BRANCH  24  25
HETATM   25  C   UNL     1     -44.822 -54.207  14.840  1.00  0.00     0.097 C 
HETATM   26  C   UNL     1     -44.358 -53.123  15.794  1.00  0.00     0.068 C 
HETATM   27  C   UNL     1     -43.649 -53.898  16.892  1.00  0.00     0.170 C 
HETATM   28  O   UNL     1     -43.206 -55.141  16.339  1.00  0.00    -0.388 OA
HETATM   29  C   UNL     1     -43.693 -55.235  14.991  1.00  0.00     0.207 C 
BRANCH  25  30
HETATM   30  O   UNL     1     -46.030 -54.790  15.344  1.00  0.00    -0.386 OA
HETATM   31  H   UNL     1     -46.682 -54.864  14.622  1.00  0.00     0.210 HD
ENDBRANCH  25  30
ENDBRANCH  24  25
ENDBRANCH   2  24
TORSDOF 7
ENDMDL
MODEL 9
REMARK VINA RESULT:      -6.5      2.690      8.594
REMARK  7 active torsions:
REMARK  status: ('A' for Active; 'I' for Inactive)
REMARK    1  A    between atoms: N_2  and  C_13 
REMARK    2  A    between atoms: C_6  and  N_7 
REMARK    3  A    between atoms: C_13  and  C_14 
REMARK    4  A    between atoms: C_14  and  O_25 
REMARK    5  A    between atoms: C_17  and  C_22 
REMARK    6  A    between atoms: O_21  and  C_26 
REMARK    7  A    between atoms: O_21  and  C_22 
ROOT
HETATM    1  C   UNL     1     -42.324 -48.850  11.982  1.00  0.00     0.117 A 
HETATM    2  N   UNL     1     -42.398 -46.866  11.066  1.00  0.00    -0.324 N 
HETATM    3  C   UNL     1     -42.613 -47.522  12.248  1.00  0.00     0.140 A 
HETATM    4  N   UNL     1     -41.991 -49.008  10.648  1.00  0.00    -0.346 N 
ATOM      5  HN  UNL     1     -41.770 -49.878  10.164  1.00  0.00     0.167 HD
HETATM    6  C   UNL     1     -42.395 -49.757  13.069  1.00  0.00     0.114 A 
HETATM    7  C   UNL     1     -42.020 -47.797  10.137  1.00  0.00     0.185 A 
HETATM    8  N   UNL     1     -42.997 -46.988  13.417  1.00  0.00    -0.336 N 
ATOM      9  HN  UNL     1     -43.231 -46.005  13.557  1.00  0.00     0.168 HD
HETATM   10  N   UNL     1     -42.747 -49.248  14.282  1.00  0.00    -0.341 N 
ATOM     11  HN  UNL     1     -42.796 -49.852  15.103  1.00  0.00     0.167 HD
HETATM   12  C   UNL     1     -43.031 -47.930  14.382  1.00  0.00     0.183 A 
ENDROOT
BRANCH   6  13
HETATM   13  N   UNL     1     -42.103 -51.119  12.913  1.00  0.00    -0.265 NA
HETATM   14  C   UNL     1     -40.776 -51.544  13.388  1.00  0.00     0.129 C 
HETATM   15  C   UNL     1     -40.496 -52.981  12.881  1.00  0.00     0.135 C 
HETATM   16  C   UNL     1     -41.642 -53.914  13.306  1.00  0.00     0.034 C 
HETATM   17  C   UNL     1     -43.012 -53.367  12.925  1.00  0.00     0.017 C 
HETATM   18  C   UNL     1     -43.202 -51.942  13.424  1.00  0.00     0.097 C 
BRANCH  15  19
HETATM   19  O   UNL     1     -39.244 -53.454  13.404  1.00  0.00    -0.384 OA
BRANCH  19  20
HETATM   20  C   UNL     1     -39.367 -54.716  14.066  1.00  0.00     0.172 C 
BRANCH  20  21
HETATM   21  C   UNL     1     -38.919 -54.580  15.485  1.00  0.00     0.009 A 
HETATM   22  C   UNL     1     -38.156 -55.711  16.132  1.00  0.00     0.007 A 
HETATM   23  C   UNL     1     -39.558 -55.403  16.576  1.00  0.00     0.007 A 
ENDBRANCH  20  21
ENDBRANCH  19  20
ENDBRANCH  15  19
ENDBRANCH   6  13
BRANCH   2  24
HETATM   24  C   UNL     1     -42.409 -45.427  10.871  1.00  0.00     0.171 C 
BRANCH  24  25
HETATM   25  C   UNL     1     -41.039 -44.752  10.968  1.00  0.00     0.097 C 
HETATM   26  C   UNL     1     -40.155 -45.201  12.115  1.00  0.00     0.068 C 
HETATM   27  C   UNL     1     -39.292 -43.982  12.396  1.00  0.00     0.170 C 
HETATM   28  O   UNL     1     -40.001 -42.826  11.940  1.00  0.00    -0.388 OA
HETATM   29  C   UNL     1     -41.207 -43.262  11.292  1.00  0.00     0.207 C 
BRANCH  25  30
HETATM   30  O   UNL     1     -40.308 -44.864   9.740  1.00  0.00    -0.386 OA
HETATM   31  H   UNL     1     -39.550 -44.250   9.756  1.00  0.00     0.210 HD
ENDBRANCH  25  30
ENDBRANCH  24  25
ENDBRANCH   2  24
TORSDOF 7
ENDMDL
