MODEL 1
REMARK VINA RESULT:      -6.1      0.000      0.000
REMARK  6 active torsions:
REMARK  status: ('A' for Active; 'I' for Inactive)
REMARK    1  A    between atoms: C_2  and  N_5 
REMARK       I    between atoms: N_5  and  C_6 
REMARK    2  A    between atoms: C_6  and  C_8 
REMARK    3  A    between atoms: C_8  and  N_9 
REMARK    4  A    between atoms: C_12  and  C_13 
REMARK    5  A    between atoms: C_13  and  N_14 
REMARK    6  A    between atoms: N_18  and  C_19 
ROOT
HETATM    1  N   UNL     1     -41.559 -48.380  12.419  1.00  0.00    -0.256 N 
HETATM    2  C   UNL     1     -42.293 -49.558  12.394  1.00  0.00     0.273 A 
HETATM    3  O   UNL     1     -43.520 -49.594  12.446  1.00  0.00    -0.266 OA
HETATM    4  C   UNL     1     -41.510 -50.810  12.328  1.00  0.00     0.110 A 
HETATM    5  C   UNL     1     -40.177 -50.742  12.332  1.00  0.00     0.123 A 
HETATM    6  N   UNL     1     -39.503 -49.542  12.370  1.00  0.00    -0.303 N 
HETATM    7  C   UNL     1     -40.167 -48.306  12.348  1.00  0.00     0.332 A 
HETATM    8  O   UNL     1     -39.572 -47.229  12.297  1.00  0.00    -0.246 OA
ENDROOT
BRANCH   1   9
HETATM    9  C   UNL     1     -42.302 -47.125  12.427  1.00  0.00     0.239 C 
BRANCH   9  10
HETATM   10  C   UNL     1     -42.661 -46.706  10.996  1.00  0.00     0.236 C 
HETATM   11  N   UNL     1     -43.909 -47.147  10.588  1.00  0.00    -0.352 N 
HETATM   12  H   UNL     1     -44.452 -47.711  11.231  1.00  0.00     0.163 HD
HETATM   13  O   UNL     1     -41.902 -46.046  10.293  1.00  0.00    -0.272 OA
BRANCH  11  14
HETATM   14  C   UNL     1     -44.484 -46.907   9.252  1.00  0.00     0.022 C 
HETATM   15  C   UNL     1     -43.674 -47.640   8.170  1.00  0.00     0.037 C 
HETATM   16  C   UNL     1     -44.545 -45.402   8.943  1.00  0.00     0.037 C 
HETATM   17  C   UNL     1     -45.923 -47.457   9.226  1.00  0.00     0.037 C 
ENDBRANCH  11  14
ENDBRANCH   9  10
ENDBRANCH   1   9
BRANCH   4  18
HETATM   18  C   UNL     1     -42.225 -52.150  12.306  1.00  0.00    -0.030 C 
BRANCH  18  19
HETATM   19  N   UNL     1     -42.820 -53.263  12.289  1.00  0.00    -0.365 N 
ATOM     20  HN2 UNL     1     -42.329 -52.369  12.257  1.00  0.00     0.165 HD
ATOM     21  HN1 UNL     1     -43.300 -54.162  12.277  1.00  0.00     0.165 HD
ENDBRANCH  18  19
ENDBRANCH   4  18
BRANCH   6  22
HETATM   22  C   UNL     1     -38.057 -49.592  12.338  1.00  0.00     0.094 A 
HETATM   23  C   UNL     1     -37.299 -49.940  11.076  1.00  0.00     0.028 A 
HETATM   24  C   UNL     1     -37.306 -50.896  12.227  1.00  0.00     0.028 A 
ENDBRANCH   6  22
TORSDOF 6
ENDMDL
MODEL 2
REMARK VINA RESULT:      -5.9      5.283      8.421
REMARK  6 active torsions:
REMARK  status: ('A' for Active; 'I' for Inactive)
REMARK    1  A    between atoms: C_2  and  N_5 
REMARK       I    between atoms: N_5  and  C_6 
REMARK    2  A    between atoms: C_6  and  C_8 
REMARK    3  A    between atoms: C_8  and  N_9 
REMARK    4  A    between atoms: C_12  and  C_13 
REMARK    5  A    between atoms: C_13  and  N_14 
REMARK    6  A    between atoms: N_18  and  C_19 
ROOT
HETATM    1  N   UNL     1     -44.904 -54.100  14.616  1.00  0.00    -0.256 N 
HETATM    2  C   UNL     1     -45.283 -53.583  13.386  1.00  0.00     0.273 A 
HETATM    3  O   UNL     1     -44.810 -53.959  12.316  1.00  0.00    -0.266 OA
HETATM    4  C   UNL     1     -46.295 -52.505  13.417  1.00  0.00     0.110 A 
HETATM    5  C   UNL     1     -46.749 -52.076  14.597  1.00  0.00     0.123 A 
HETATM    6  N   UNL     1     -46.325 -52.621  15.789  1.00  0.00    -0.303 N 
HETATM    7  C   UNL     1     -45.433 -53.703  15.846  1.00  0.00     0.332 A 
HETATM    8  O   UNL     1     -45.114 -54.251  16.902  1.00  0.00    -0.246 OA
ENDROOT
BRANCH   1   9
HETATM    9  C   UNL     1     -43.950 -55.203  14.617  1.00  0.00     0.239 C 
BRANCH   9  10
HETATM   10  C   UNL     1     -42.531 -54.684  14.875  1.00  0.00     0.236 C 
HETATM   11  N   UNL     1     -42.028 -53.910  13.842  1.00  0.00    -0.352 N 
HETATM   12  H   UNL     1     -42.605 -53.776  13.020  1.00  0.00     0.163 HD
HETATM   13  O   UNL     1     -41.912 -54.941  15.904  1.00  0.00    -0.272 OA
BRANCH  11  14
HETATM   14  C   UNL     1     -40.681 -53.313  13.824  1.00  0.00     0.022 C 
HETATM   15  C   UNL     1     -39.600 -54.406  13.834  1.00  0.00     0.037 C 
HETATM   16  C   UNL     1     -40.487 -52.361  15.015  1.00  0.00     0.037 C 
HETATM   17  C   UNL     1     -40.520 -52.494  12.528  1.00  0.00     0.037 C 
ENDBRANCH  11  14
ENDBRANCH   9  10
ENDBRANCH   1   9
BRANCH   4  18
HETATM   18  C   UNL     1     -46.765 -51.870  12.120  1.00  0.00    -0.030 C 
BRANCH  18  19
HETATM   19  N   UNL     1     -47.157 -51.343  11.043  1.00  0.00    -0.365 N 
ATOM     20  HN2 UNL     1     -46.848 -51.728  11.935  1.00  0.00     0.165 HD
ATOM     21  HN1 UNL     1     -47.473 -50.917  10.172  1.00  0.00     0.165 HD
ENDBRANCH  18  19
ENDBRANCH   4  18
BRANCH   6  22
HETATM   22  C   UNL     1     -46.911 -52.096  17.004  1.00  0.00     0.094 A 
HETATM   23  C   UNL     1     -48.052 -51.104  16.974  1.00  0.00     0.028 A 
HETATM   24  C   UNL     1     -46.699 -50.667  17.439  1.00  0.00     0.028 A 
ENDBRANCH   6  22
TORSDOF 6
ENDMDL
MODEL 3
REMARK VINA RESULT:      -5.8      1.136      3.336
REMARK  6 active torsions:
REMARK  status: ('A' for Active; 'I' for Inactive)
REMARK    1  A    between atoms: C_2  and  N_5 
REMARK       I    between atoms: N_5  and  C_6 
REMARK    2  A    between atoms: C_6  and  C_8 
REMARK    3  A    between atoms: C_8  and  N_9 
REMARK    4  A    between atoms: C_12  and  C_13 
REMARK    5  A    between atoms: C_13  and  N_14 
REMARK    6  A    between atoms: N_18  and  C_19 
ROOT
HETATM    1  N   UNL     1     -41.925 -48.728  12.179  1.00  0.00    -0.256 N 
HETATM    2  C   UNL     1     -40.577 -48.648  11.860  1.00  0.00     0.273 A 
HETATM    3  O   UNL     1     -40.000 -47.593  11.608  1.00  0.00    -0.266 OA
HETATM    4  C   UNL     1     -39.844 -49.932  11.807  1.00  0.00     0.110 A 
HETATM    5  C   UNL     1     -40.510 -51.068  12.028  1.00  0.00     0.123 A 
HETATM    6  N   UNL     1     -41.854 -51.084  12.328  1.00  0.00    -0.303 N 
HETATM    7  C   UNL     1     -42.604 -49.909  12.483  1.00  0.00     0.332 A 
HETATM    8  O   UNL     1     -43.785 -49.912  12.833  1.00  0.00    -0.246 OA
ENDROOT
BRANCH   1   9
HETATM    9  C   UNL     1     -42.664 -47.476  12.295  1.00  0.00     0.239 C 
BRANCH   9  10
HETATM   10  C   UNL     1     -43.103 -46.983  10.911  1.00  0.00     0.236 C 
HETATM   11  N   UNL     1     -44.190 -47.671  10.397  1.00  0.00    -0.352 N 
HETATM   12  H   UNL     1     -44.576 -48.432  10.943  1.00  0.00     0.163 HD
HETATM   13  O   UNL     1     -42.532 -46.066  10.327  1.00  0.00    -0.272 OA
BRANCH  11  14
HETATM   14  C   UNL     1     -44.792 -47.415   9.076  1.00  0.00     0.022 C 
HETATM   15  C   UNL     1     -43.846 -47.864   7.950  1.00  0.00     0.037 C 
HETATM   16  C   UNL     1     -45.148 -45.929   8.914  1.00  0.00     0.037 C 
HETATM   17  C   UNL     1     -46.094 -48.232   8.960  1.00  0.00     0.037 C 
ENDBRANCH  11  14
ENDBRANCH   9  10
ENDBRANCH   1   9
BRANCH   4  18
HETATM   18  C   UNL     1     -38.366 -49.945  11.457  1.00  0.00    -0.030 C 
BRANCH  18  19
HETATM   19  N   UNL     1     -37.139 -49.958  11.167  1.00  0.00    -0.365 N 
ATOM     20  HN2 UNL     1     -38.138 -49.920  11.365  1.00  0.00     0.165 HD
ATOM     21  HN1 UNL     1     -36.146 -49.969  10.933  1.00  0.00     0.165 HD
ENDBRANCH  18  19
ENDBRANCH   4  18
BRANCH   6  22
HETATM   22  C   UNL     1     -42.461 -52.374  12.579  1.00  0.00     0.094 A 
HETATM   23  C   UNL     1     -42.502 -52.981  13.964  1.00  0.00     0.028 A 
HETATM   24  C   UNL     1     -41.636 -53.594  12.910  1.00  0.00     0.028 A 
ENDBRANCH   6  22
TORSDOF 6
ENDMDL
MODEL 4
REMARK VINA RESULT:      -5.7      3.771      6.500
REMARK  6 active torsions:
REMARK  status: ('A' for Active; 'I' for Inactive)
REMARK    1  A    between atoms: C_2  and  N_5 
REMARK       I    between atoms: N_5  and  C_6 
REMARK    2  A    between atoms: C_6  and  C_8 
REMARK    3  A    between atoms: C_8  and  N_9 
REMARK    4  A    between atoms: C_12  and  C_13 
REMARK    5  A    between atoms: C_13  and  N_14 
REMARK    6  A    between atoms: N_18  and  C_19 
ROOT
HETATM    1  N   UNL     1     -41.733 -53.689  13.275  1.00  0.00    -0.256 N 
HETATM    2  C   UNL     1     -43.109 -53.833  13.170  1.00  0.00     0.273 A 
HETATM    3  O   UNL     1     -43.768 -53.389  12.233  1.00  0.00    -0.266 OA
HETATM    4  C   UNL     1     -43.775 -54.543  14.283  1.00  0.00     0.110 A 
HETATM    5  C   UNL     1     -43.040 -54.963  15.316  1.00  0.00     0.123 A 
HETATM    6  N   UNL     1     -41.676 -54.780  15.369  1.00  0.00    -0.303 N 
HETATM    7  C   UNL     1     -40.955 -54.194  14.318  1.00  0.00     0.332 A 
HETATM    8  O   UNL     1     -39.726 -54.103  14.321  1.00  0.00    -0.246 OA
ENDROOT
BRANCH   1   9
HETATM    9  C   UNL     1     -41.037 -53.044  12.167  1.00  0.00     0.239 C 
BRANCH   9  10
HETATM   10  C   UNL     1     -40.662 -51.605  12.536  1.00  0.00     0.236 C 
HETATM   11  N   UNL     1     -39.454 -51.192  11.997  1.00  0.00    -0.352 N 
HETATM   12  H   UNL     1     -38.924 -51.857  11.446  1.00  0.00     0.163 HD
HETATM   13  O   UNL     1     -41.373 -50.899  13.245  1.00  0.00    -0.272 OA
BRANCH  11  14
HETATM   14  C   UNL     1     -38.849 -49.866  12.220  1.00  0.00     0.022 C 
HETATM   15  C   UNL     1     -38.485 -49.675  13.701  1.00  0.00     0.037 C 
HETATM   16  C   UNL     1     -39.794 -48.747  11.754  1.00  0.00     0.037 C 
HETATM   17  C   UNL     1     -37.551 -49.770  11.393  1.00  0.00     0.037 C 
ENDBRANCH  11  14
ENDBRANCH   9  10
ENDBRANCH   1   9
BRANCH   4  18
HETATM   18  C   UNL     1     -45.281 -54.740  14.262  1.00  0.00    -0.030 C 
BRANCH  18  19
HETATM   19  N   UNL     1     -46.531 -54.903  14.245  1.00  0.00    -0.365 N 
ATOM     20  HN2 UNL     1     -45.524 -54.750  14.217  1.00  0.00     0.165 HD
ATOM     21  HN1 UNL     1     -47.543 -55.035  14.231  1.00  0.00     0.165 HD
ENDBRANCH  18  19
ENDBRANCH   4  18
BRANCH   6  22
HETATM   22  C   UNL     1     -40.982 -55.307  16.525  1.00  0.00     0.094 A 
HETATM   23  C   UNL     1     -40.724 -56.788  16.693  1.00  0.00     0.028 A 
HETATM   24  C   UNL     1     -41.696 -56.096  17.594  1.00  0.00     0.028 A 
ENDBRANCH   6  22
TORSDOF 6
ENDMDL
MODEL 5
REMARK VINA RESULT:      -5.3      4.115      5.372
REMARK  6 active torsions:
REMARK  status: ('A' for Active; 'I' for Inactive)
REMARK    1  A    between atoms: C_2  and  N_5 
REMARK       I    between atoms: N_5  and  C_6 
REMARK    2  A    between atoms: C_6  and  C_8 
REMARK    3  A    between atoms: C_8  and  N_9 
REMARK    4  A    between atoms: C_12  and  C_13 
REMARK    5  A    between atoms: C_13  and  N_14 
REMARK    6  A    between atoms: N_18  and  C_19 
ROOT
HETATM    1  N   UNL     1     -41.603 -52.565  12.972  1.00  0.00    -0.256 N 
HETATM    2  C   UNL     1     -41.243 -53.624  13.792  1.00  0.00     0.273 A 
HETATM    3  O   UNL     1     -42.010 -54.532  14.105  1.00  0.00    -0.266 OA
HETATM    4  C   UNL     1     -39.860 -53.601  14.315  1.00  0.00     0.110 A 
HETATM    5  C   UNL     1     -39.067 -52.572  14.006  1.00  0.00     0.123 A 
HETATM    6  N   UNL     1     -39.486 -51.541  13.195  1.00  0.00    -0.303 N 
HETATM    7  C   UNL     1     -40.751 -51.527  12.588  1.00  0.00     0.332 A 
HETATM    8  O   UNL     1     -41.103 -50.652  11.795  1.00  0.00    -0.246 OA
ENDROOT
BRANCH   1   9
HETATM    9  C   UNL     1     -42.942 -52.586  12.393  1.00  0.00     0.239 C 
BRANCH   9  10
HETATM   10  C   UNL     1     -43.917 -51.791  13.270  1.00  0.00     0.236 C 
HETATM   11  N   UNL     1     -44.581 -52.568  14.204  1.00  0.00    -0.352 N 
HETATM   12  H   UNL     1     -44.397 -53.563  14.216  1.00  0.00     0.163 HD
HETATM   13  O   UNL     1     -44.082 -50.581  13.140  1.00  0.00    -0.272 OA
BRANCH  11  14
HETATM   14  C   UNL     1     -45.591 -52.057  15.149  1.00  0.00     0.022 C 
HETATM   15  C   UNL     1     -46.785 -51.450  14.396  1.00  0.00     0.037 C 
HETATM   16  C   UNL     1     -44.976 -51.018  16.100  1.00  0.00     0.037 C 
HETATM   17  C   UNL     1     -46.111 -53.233  16.000  1.00  0.00     0.037 C 
ENDBRANCH  11  14
ENDBRANCH   9  10
ENDBRANCH   1   9
BRANCH   4  18
HETATM   18  C   UNL     1     -39.377 -54.714  15.229  1.00  0.00    -0.030 C 
BRANCH  18  19
HETATM   19  N   UNL     1     -38.978 -55.638  15.988  1.00  0.00    -0.365 N 
ATOM     20  HN2 UNL     1     -39.339 -54.917  15.364  1.00  0.00     0.165 HD
ATOM     21  HN1 UNL     1     -38.654 -56.385  16.602  1.00  0.00     0.165 HD
ENDBRANCH  18  19
ENDBRANCH   4  18
BRANCH   6  22
HETATM   22  C   UNL     1     -38.528 -50.495  12.904  1.00  0.00     0.094 A 
HETATM   23  C   UNL     1     -37.538 -50.615  11.766  1.00  0.00     0.028 A 
HETATM   24  C   UNL     1     -37.054 -50.664  13.180  1.00  0.00     0.028 A 
ENDBRANCH   6  22
TORSDOF 6
ENDMDL
MODEL 6
REMARK VINA RESULT:      -5.3      3.491      5.338
REMARK  6 active torsions:
REMARK  status: ('A' for Active; 'I' for Inactive)
REMARK    1  A    between atoms: C_2  and  N_5 
REMARK       I    between atoms: N_5  and  C_6 
REMARK    2  A    between atoms: C_6  and  C_8 
REMARK    3  A    between atoms: C_8  and  N_9 
REMARK    4  A    between atoms: C_12  and  C_13 
REMARK    5  A    between atoms: C_13  and  N_14 
REMARK    6  A    between atoms: N_18  and  C_19 
ROOT
HETATM    1  N   UNL     1     -41.595 -53.143  13.217  1.00  0.00    -0.256 N 
HETATM    2  C   UNL     1     -42.923 -53.515  13.062  1.00  0.00     0.273 A 
HETATM    3  O   UNL     1     -43.629 -53.138  12.129  1.00  0.00    -0.266 OA
HETATM    4  C   UNL     1     -43.480 -54.391  14.115  1.00  0.00     0.110 A 
HETATM    5  C   UNL     1     -42.707 -54.737  15.147  1.00  0.00     0.123 A 
HETATM    6  N   UNL     1     -41.397 -54.325  15.253  1.00  0.00    -0.303 N 
HETATM    7  C   UNL     1     -40.764 -53.565  14.257  1.00  0.00     0.332 A 
HETATM    8  O   UNL     1     -39.571 -53.264  14.304  1.00  0.00    -0.246 OA
ENDROOT
BRANCH   1   9
HETATM    9  C   UNL     1     -40.998 -52.326  12.167  1.00  0.00     0.239 C 
BRANCH   9  10
HETATM   10  C   UNL     1     -41.164 -50.836  12.488  1.00  0.00     0.236 C 
HETATM   11  N   UNL     1     -41.610 -50.085  11.413  1.00  0.00    -0.352 N 
HETATM   12  H   UNL     1     -41.760 -50.556  10.530  1.00  0.00     0.163 HD
HETATM   13  O   UNL     1     -40.917 -50.369  13.597  1.00  0.00    -0.272 OA
BRANCH  11  14
HETATM   14  C   UNL     1     -41.826 -48.627  11.445  1.00  0.00     0.022 C 
HETATM   15  C   UNL     1     -42.169 -48.095  10.044  1.00  0.00     0.037 C 
HETATM   16  C   UNL     1     -40.591 -47.902  12.003  1.00  0.00     0.037 C 
HETATM   17  C   UNL     1     -43.017 -48.323  12.376  1.00  0.00     0.037 C 
ENDBRANCH  11  14
ENDBRANCH   9  10
ENDBRANCH   1   9
BRANCH   4  18
HETATM   18  C   UNL     1     -44.928 -54.843  14.036  1.00  0.00    -0.030 C 
BRANCH  18  19
HETATM   19  N   UNL     1     -46.130 -55.219  13.969  1.00  0.00    -0.365 N 
ATOM     20  HN2 UNL     1     -45.173 -54.875  14.044  1.00  0.00     0.165 HD
ATOM     21  HN1 UNL     1     -47.102 -55.524  13.915  1.00  0.00     0.165 HD
ENDBRANCH  18  19
ENDBRANCH   4  18
BRANCH   6  22
HETATM   22  C   UNL     1     -40.647 -54.789  16.400  1.00  0.00     0.094 A 
HETATM   23  C   UNL     1     -39.834 -56.064  16.360  1.00  0.00     0.028 A 
HETATM   24  C   UNL     1     -41.072 -55.999  17.196  1.00  0.00     0.028 A 
ENDBRANCH   6  22
TORSDOF 6
ENDMDL
MODEL 7
REMARK VINA RESULT:      -5.2      2.915      5.282
REMARK  6 active torsions:
REMARK  status: ('A' for Active; 'I' for Inactive)
REMARK    1  A    between atoms: C_2  and  N_5 
REMARK       I    between atoms: N_5  and  C_6 
REMARK    2  A    between atoms: C_6  and  C_8 
REMARK    3  A    between atoms: C_8  and  N_9 
REMARK    4  A    between atoms: C_12  and  C_13 
REMARK    5  A    between atoms: C_13  and  N_14 
REMARK    6  A    between atoms: N_18  and  C_19 
ROOT
HETATM    1  N   UNL     1     -41.628 -46.323  10.712  1.00  0.00    -0.256 N 
HETATM    2  C   UNL     1     -42.719 -46.296   9.854  1.00  0.00     0.273 A 
HETATM    3  O   UNL     1     -42.840 -45.489   8.936  1.00  0.00    -0.266 OA
HETATM    4  C   UNL     1     -43.778 -47.294  10.117  1.00  0.00     0.110 A 
HETATM    5  C   UNL     1     -43.647 -48.119  11.158  1.00  0.00     0.123 A 
HETATM    6  N   UNL     1     -42.544 -48.091  11.983  1.00  0.00    -0.303 N 
HETATM    7  C   UNL     1     -41.456 -47.235  11.755  1.00  0.00     0.332 A 
HETATM    8  O   UNL     1     -40.431 -47.262  12.437  1.00  0.00    -0.246 OA
ENDROOT
BRANCH   1   9
HETATM    9  C   UNL     1     -40.540 -45.390  10.446  1.00  0.00     0.239 C 
BRANCH   9  10
HETATM   10  C   UNL     1     -40.802 -44.049  11.141  1.00  0.00     0.236 C 
HETATM   11  N   UNL     1     -40.615 -44.090  12.513  1.00  0.00    -0.352 N 
HETATM   12  H   UNL     1     -40.356 -44.974  12.934  1.00  0.00     0.163 HD
HETATM   13  O   UNL     1     -41.148 -43.044  10.525  1.00  0.00    -0.272 OA
BRANCH  11  14
HETATM   14  C   UNL     1     -40.828 -42.948  13.420  1.00  0.00     0.022 C 
HETATM   15  C   UNL     1     -42.283 -42.458  13.348  1.00  0.00     0.037 C 
HETATM   16  C   UNL     1     -39.862 -41.798  13.090  1.00  0.00     0.037 C 
HETATM   17  C   UNL     1     -40.548 -43.405  14.865  1.00  0.00     0.037 C 
ENDBRANCH  11  14
ENDBRANCH   9  10
ENDBRANCH   1   9
BRANCH   4  18
HETATM   18  C   UNL     1     -45.015 -47.334   9.237  1.00  0.00    -0.030 C 
BRANCH  18  19
HETATM   19  N   UNL     1     -46.042 -47.369   8.505  1.00  0.00    -0.365 N 
ATOM     20  HN2 UNL     1     -45.232 -47.374   9.124  1.00  0.00     0.165 HD
ATOM     21  HN1 UNL     1     -46.872 -47.396   7.913  1.00  0.00     0.165 HD
ENDBRANCH  18  19
ENDBRANCH   4  18
BRANCH   6  22
HETATM   22  C   UNL     1     -42.498 -49.056  13.061  1.00  0.00     0.094 A 
HETATM   23  C   UNL     1     -42.183 -50.514  12.813  1.00  0.00     0.028 A 
HETATM   24  C   UNL     1     -43.561 -50.113  13.232  1.00  0.00     0.028 A 
ENDBRANCH   6  22
TORSDOF 6
ENDMDL
MODEL 8
REMARK VINA RESULT:      -5.2      2.648      4.784
REMARK  6 active torsions:
REMARK  status: ('A' for Active; 'I' for Inactive)
REMARK    1  A    between atoms: C_2  and  N_5 
REMARK       I    between atoms: N_5  and  C_6 
REMARK    2  A    between atoms: C_6  and  C_8 
REMARK    3  A    between atoms: C_8  and  N_9 
REMARK    4  A    between atoms: C_12  and  C_13 
REMARK    5  A    between atoms: C_13  and  N_14 
REMARK    6  A    between atoms: N_18  and  C_19 
ROOT
HETATM    1  N   UNL     1     -42.011 -49.847  13.482  1.00  0.00    -0.256 N 
HETATM    2  C   UNL     1     -42.515 -49.077  12.443  1.00  0.00     0.273 A 
HETATM    3  O   UNL     1     -43.653 -48.613  12.431  1.00  0.00    -0.266 OA
HETATM    4  C   UNL     1     -41.605 -48.854  11.299  1.00  0.00     0.110 A 
HETATM    5  C   UNL     1     -40.395 -49.420  11.313  1.00  0.00     0.123 A 
HETATM    6  N   UNL     1     -39.955 -50.185  12.369  1.00  0.00    -0.303 N 
HETATM    7  C   UNL     1     -40.720 -50.376  13.530  1.00  0.00     0.332 A 
HETATM    8  O   UNL     1     -40.301 -50.989  14.513  1.00  0.00    -0.246 OA
ENDROOT
BRANCH   1   9
HETATM    9  C   UNL     1     -42.862 -50.039  14.651  1.00  0.00     0.239 C 
BRANCH   9  10
HETATM   10  C   UNL     1     -43.713 -51.305  14.491  1.00  0.00     0.236 C 
HETATM   11  N   UNL     1     -44.826 -51.126  13.686  1.00  0.00    -0.352 N 
HETATM   12  H   UNL     1     -44.997 -50.204  13.304  1.00  0.00     0.163 HD
HETATM   13  O   UNL     1     -43.422 -52.367  15.035  1.00  0.00    -0.272 OA
BRANCH  11  14
HETATM   14  C   UNL     1     -45.822 -52.172  13.394  1.00  0.00     0.022 C 
HETATM   15  C   UNL     1     -46.703 -52.447  14.623  1.00  0.00     0.037 C 
HETATM   16  C   UNL     1     -45.137 -53.468  12.929  1.00  0.00     0.037 C 
HETATM   17  C   UNL     1     -46.735 -51.681  12.252  1.00  0.00     0.037 C 
ENDBRANCH  11  14
ENDBRANCH   9  10
ENDBRANCH   1   9
BRANCH   4  18
HETATM   18  C   UNL     1     -42.071 -48.032  10.110  1.00  0.00    -0.030 C 
BRANCH  18  19
HETATM   19  N   UNL     1     -42.457 -47.349   9.122  1.00  0.00    -0.365 N 
ATOM     20  HN2 UNL     1     -42.166 -47.939   9.901  1.00  0.00     0.165 HD
ATOM     21  HN1 UNL     1     -42.769 -46.796   8.324  1.00  0.00     0.165 HD
ENDBRANCH  18  19
ENDBRANCH   4  18
BRANCH   6  22
HETATM   22  C   UNL     1     -38.613 -50.720  12.286  1.00  0.00     0.094 A 
HETATM   23  C   UNL     1     -37.431 -50.010  12.908  1.00  0.00     0.028 A 
HETATM   24  C   UNL     1     -37.553 -50.086  11.420  1.00  0.00     0.028 A 
ENDBRANCH   6  22
TORSDOF 6
ENDMDL
MODEL 9
REMARK VINA RESULT:      -5.1      4.092      5.956
REMARK  6 active torsions:
REMARK  status: ('A' for Active; 'I' for Inactive)
REMARK    1  A    between atoms: C_2  and  N_5 
REMARK       I    between atoms: N_5  and  C_6 
REMARK    2  A    between atoms: C_6  and  C_8 
REMARK    3  A    between atoms: C_8  and  N_9 
REMARK    4  A    between atoms: C_12  and  C_13 
REMARK    5  A    between atoms: C_13  and  N_14 
REMARK    6  A    between atoms: N_18  and  C_19 
ROOT
HETATM    1  N   UNL     1     -41.512 -53.223  13.925  1.00  0.00    -0.256 N 
HETATM    2  C   UNL     1     -41.511 -52.462  12.764  1.00  0.00     0.273 A 
HETATM    3  O   UNL     1     -42.300 -52.636  11.839  1.00  0.00    -0.266 OA
HETATM    4  C   UNL     1     -40.469 -51.418  12.672  1.00  0.00     0.110 A 
HETATM    5  C   UNL     1     -39.588 -51.291  13.668  1.00  0.00     0.123 A 
HETATM    6  N   UNL     1     -39.633 -52.085  14.792  1.00  0.00    -0.303 N 
HETATM    7  C   UNL     1     -40.639 -53.041  14.999  1.00  0.00     0.332 A 
HETATM    8  O   UNL     1     -40.734 -53.696  16.038  1.00  0.00    -0.246 OA
ENDROOT
BRANCH   1   9
HETATM    9  C   UNL     1     -42.563 -54.224  14.073  1.00  0.00     0.239 C 
BRANCH   9  10
HETATM   10  C   UNL     1     -43.819 -53.595  14.686  1.00  0.00     0.236 C 
HETATM   11  N   UNL     1     -44.650 -52.997  13.754  1.00  0.00    -0.352 N 
HETATM   12  H   UNL     1     -44.360 -52.999  12.783  1.00  0.00     0.163 HD
HETATM   13  O   UNL     1     -44.050 -53.625  15.892  1.00  0.00    -0.272 OA
BRANCH  11  14
HETATM   14  C   UNL     1     -45.906 -52.297  14.080  1.00  0.00     0.022 C 
HETATM   15  C   UNL     1     -46.914 -53.259  14.729  1.00  0.00     0.037 C 
HETATM   16  C   UNL     1     -46.516 -51.650  12.827  1.00  0.00     0.037 C 
HETATM   17  C   UNL     1     -45.598 -51.175  15.093  1.00  0.00     0.037 C 
ENDBRANCH  11  14
ENDBRANCH   9  10
ENDBRANCH   1   9
BRANCH   4  18
HETATM   18  C   UNL     1     -40.382 -50.542  11.434  1.00  0.00    -0.030 C 
BRANCH  18  19
HETATM   19  N   UNL     1     -40.311 -49.815  10.406  1.00  0.00    -0.365 N 
ATOM     20  HN2 UNL     1     -40.415 -50.395  11.238  1.00  0.00     0.165 HD
ATOM     21  HN1 UNL     1     -40.253 -49.228   9.574  1.00  0.00     0.165 HD
ENDBRANCH  18  19
ENDBRANCH   4  18
BRANCH   6  22
HETATM   22  C   UNL     1     -38.645 -51.833  15.820  1.00  0.00     0.094 A 
HETATM   23  C   UNL     1     -38.850 -50.777  16.883  1.00  0.00     0.028 A 
HETATM   24  C   UNL     1     -37.806 -50.579  15.831  1.00  0.00     0.028 A 
ENDBRANCH   6  22
TORSDOF 6
ENDMDL
