MODEL 1
REMARK VINA RESULT:      -7.6      0.000      0.000
REMARK  7 active torsions:
REMARK  status: ('A' for Active; 'I' for Inactive)
REMARK    1  A    between atoms: N_2  and  C_13 
REMARK    2  A    between atoms: N_4  and  C_7 
REMARK    3  A    between atoms: C_13  and  C_17 
REMARK    4  A    between atoms: C_17  and  C_22 
REMARK    5  A    between atoms: C_19  and  C_24 
REMARK    6  A    between atoms: C_22  and  O_23 
REMARK    7  A    between atoms: C_24  and  O_27 
ROOT
HETATM    1  C   UNL     1     -41.902 -49.481  12.248  1.00  0.00     0.122 A 
HETATM    2  N   UNL     1     -42.420 -51.144  13.602  1.00  0.00    -0.326 N 
HETATM    3  C   UNL     1     -41.387 -50.621  12.854  1.00  0.00     0.140 A 
HETATM    4  N   UNL     1     -43.212 -49.287  12.654  1.00  0.00    -0.346 N 
ATOM      5  HN  UNL     1     -43.842 -48.534  12.374  1.00  0.00     0.167 HD
HETATM    6  C   UNL     1     -41.047 -48.752  11.372  1.00  0.00     0.135 A 
HETATM    7  C   UNL     1     -43.474 -50.280  13.478  1.00  0.00     0.185 A 
HETATM    8  N   UNL     1     -40.153 -51.133  12.697  1.00  0.00    -0.336 N 
ATOM      9  HN  UNL     1     -39.820 -51.988  13.143  1.00  0.00     0.168 HD
HETATM   10  N   UNL     1     -39.778 -49.235  11.221  1.00  0.00    -0.337 N 
ATOM     11  HN  UNL     1     -39.112 -48.748  10.622  1.00  0.00     0.168 HD
HETATM   12  C   UNL     1     -39.412 -50.360  11.867  1.00  0.00     0.183 A 
ENDROOT
BRANCH   2  13
HETATM   13  C   UNL     1     -42.403 -52.390  14.383  1.00  0.00     0.143 C 
BRANCH  13  14
HETATM   14  C   UNL     1     -42.532 -53.696  13.533  1.00  0.00     0.001 C 
HETATM   15  C   UNL     1     -43.328 -53.415  12.235  1.00  0.00     0.039 C 
HETATM   16  C   UNL     1     -44.826 -53.269  12.518  1.00  0.00     0.168 C 
HETATM   17  O   UNL     1     -45.327 -54.497  13.028  1.00  0.00    -0.391 OA
HETATM   18  C   UNL     1     -44.787 -54.805  14.308  1.00  0.00     0.168 C 
HETATM   19  C   UNL     1     -43.264 -54.852  14.290  1.00  0.00     0.039 C 
BRANCH  14  20
HETATM   20  C   UNL     1     -41.115 -54.243  13.221  1.00  0.00     0.175 C 
BRANCH  20  21
HETATM   21  O   UNL     1     -40.744 -53.908  11.885  1.00  0.00    -0.400 OA
HETATM   22  H   UNL     1     -40.114 -54.591  11.571  1.00  0.00     0.209 HD
ENDBRANCH  20  21
ENDBRANCH  14  20
ENDBRANCH  13  14
ENDBRANCH   2  13
BRANCH   6  23
HETATM   23  N   UNL     1     -41.410 -47.560  10.731  1.00  0.00    -0.360 N 
HETATM   24  C   UNL     1     -42.802 -47.457  10.244  1.00  0.00     0.158 C 
HETATM   25  C   UNL     1     -42.923 -46.231   9.305  1.00  0.00     0.163 C 
HETATM   26  O   UNL     1     -42.506 -45.027   9.999  1.00  0.00    -0.376 OA
HETATM   27  C   UNL     1     -41.131 -45.141  10.412  1.00  0.00     0.136 C 
HETATM   28  C   UNL     1     -40.960 -46.321  11.393  1.00  0.00     0.156 C 
HETATM   29  C   UNL     1     -40.723 -43.823  11.055  1.00  0.00     0.041 C 
BRANCH  25  30
HETATM   30  C   UNL     1     -44.370 -46.052   8.824  1.00  0.00     0.200 C 
BRANCH  30  31
HETATM   31  O   UNL     1     -45.044 -47.318   8.841  1.00  0.00    -0.393 OA
HETATM   32  C   UNL     1     -46.435 -47.175   9.094  1.00  0.00     0.201 C 
ENDBRANCH  30  31
ENDBRANCH  25  30
ENDBRANCH   6  23
TORSDOF 7
ENDMDL
MODEL 2
REMARK VINA RESULT:      -7.2      1.709      3.140
REMARK  7 active torsions:
REMARK  status: ('A' for Active; 'I' for Inactive)
REMARK    1  A    between atoms: N_2  and  C_13 
REMARK    2  A    between atoms: N_4  and  C_7 
REMARK    3  A    between atoms: C_13  and  C_17 
REMARK    4  A    between atoms: C_17  and  C_22 
REMARK    5  A    between atoms: C_19  and  C_24 
REMARK    6  A    between atoms: C_22  and  O_23 
REMARK    7  A    between atoms: C_24  and  O_27 
ROOT
HETATM    1  C   UNL     1     -41.323 -50.085  11.921  1.00  0.00     0.122 A 
HETATM    2  N   UNL     1     -41.451 -52.164  12.649  1.00  0.00    -0.326 N 
HETATM    3  C   UNL     1     -40.553 -51.189  12.270  1.00  0.00     0.140 A 
HETATM    4  N   UNL     1     -42.663 -50.366  12.127  1.00  0.00    -0.346 N 
ATOM      5  HN  UNL     1     -43.458 -49.748  11.959  1.00  0.00     0.167 HD
HETATM    6  C   UNL     1     -40.642 -48.926  11.447  1.00  0.00     0.135 A 
HETATM    7  C   UNL     1     -42.696 -51.601  12.584  1.00  0.00     0.185 A 
HETATM    8  N   UNL     1     -39.214 -51.297  12.199  1.00  0.00    -0.336 N 
ATOM      9  HN  UNL     1     -38.687 -52.136  12.442  1.00  0.00     0.168 HD
HETATM   10  N   UNL     1     -39.280 -49.001  11.395  1.00  0.00    -0.337 N 
ATOM     11  HN  UNL     1     -38.734 -48.199  11.082  1.00  0.00     0.168 HD
HETATM   12  C   UNL     1     -38.659 -50.142  11.759  1.00  0.00     0.183 A 
ENDROOT
BRANCH   2  13
HETATM   13  C   UNL     1     -41.140 -53.546  13.045  1.00  0.00     0.143 C 
BRANCH  13  14
HETATM   14  C   UNL     1     -40.714 -53.719  14.540  1.00  0.00     0.001 C 
HETATM   15  C   UNL     1     -41.445 -54.931  15.168  1.00  0.00     0.039 C 
HETATM   16  C   UNL     1     -42.911 -54.607  15.465  1.00  0.00     0.168 C 
HETATM   17  O   UNL     1     -42.974 -53.566  16.430  1.00  0.00    -0.391 OA
HETATM   18  C   UNL     1     -42.471 -52.336  15.924  1.00  0.00     0.168 C 
HETATM   19  C   UNL     1     -41.039 -52.468  15.420  1.00  0.00     0.039 C 
BRANCH  14  20
HETATM   20  C   UNL     1     -39.174 -53.885  14.614  1.00  0.00     0.175 C 
BRANCH  20  21
HETATM   21  O   UNL     1     -38.660 -54.265  13.339  1.00  0.00    -0.400 OA
HETATM   22  H   UNL     1     -38.195 -55.122  13.449  1.00  0.00     0.209 HD
ENDBRANCH  20  21
ENDBRANCH  14  20
ENDBRANCH  13  14
ENDBRANCH   2  13
BRANCH   6  23
HETATM   23  N   UNL     1     -41.279 -47.726  11.106  1.00  0.00    -0.360 N 
HETATM   24  C   UNL     1     -40.452 -46.501  11.115  1.00  0.00     0.158 C 
HETATM   25  C   UNL     1     -41.378 -45.261  11.028  1.00  0.00     0.163 C 
HETATM   26  O   UNL     1     -42.209 -45.341   9.842  1.00  0.00    -0.376 OA
HETATM   27  C   UNL     1     -43.039 -46.517   9.893  1.00  0.00     0.136 C 
HETATM   28  C   UNL     1     -42.166 -47.790   9.930  1.00  0.00     0.156 C 
HETATM   29  C   UNL     1     -43.948 -46.503   8.673  1.00  0.00     0.041 C 
BRANCH  25  30
HETATM   30  C   UNL     1     -40.553 -43.967  10.973  1.00  0.00     0.200 C 
BRANCH  30  31
HETATM   31  O   UNL     1     -41.403 -42.868  10.617  1.00  0.00    -0.393 OA
HETATM   32  C   UNL     1     -41.296 -41.793  11.540  1.00  0.00     0.201 C 
ENDBRANCH  30  31
ENDBRANCH  25  30
ENDBRANCH   6  23
TORSDOF 7
ENDMDL
MODEL 3
REMARK VINA RESULT:      -7.2      0.989      2.667
REMARK  7 active torsions:
REMARK  status: ('A' for Active; 'I' for Inactive)
REMARK    1  A    between atoms: N_2  and  C_13 
REMARK    2  A    between atoms: N_4  and  C_7 
REMARK    3  A    between atoms: C_13  and  C_17 
REMARK    4  A    between atoms: C_17  and  C_22 
REMARK    5  A    between atoms: C_19  and  C_24 
REMARK    6  A    between atoms: C_22  and  O_23 
REMARK    7  A    between atoms: C_24  and  O_27 
ROOT
HETATM    1  C   UNL     1     -41.909 -49.489  12.685  1.00  0.00     0.122 A 
HETATM    2  N   UNL     1     -42.344 -51.253  13.937  1.00  0.00    -0.326 N 
HETATM    3  C   UNL     1     -41.377 -50.695  13.128  1.00  0.00     0.140 A 
HETATM    4  N   UNL     1     -43.159 -49.294  13.249  1.00  0.00    -0.346 N 
ATOM      5  HN  UNL     1     -43.784 -48.500  13.107  1.00  0.00     0.167 HD
HETATM    6  C   UNL     1     -41.123 -48.709  11.787  1.00  0.00     0.135 A 
HETATM    7  C   UNL     1     -43.370 -50.350  14.006  1.00  0.00     0.185 A 
HETATM    8  N   UNL     1     -40.189 -51.227  12.792  1.00  0.00    -0.336 N 
ATOM      9  HN  UNL     1     -39.845 -52.129  13.121  1.00  0.00     0.168 HD
HETATM   10  N   UNL     1     -39.899 -49.215  11.456  1.00  0.00    -0.337 N 
ATOM     11  HN  UNL     1     -39.281 -48.695  10.832  1.00  0.00     0.168 HD
HETATM   12  C   UNL     1     -39.510 -50.405  11.956  1.00  0.00     0.183 A 
ENDROOT
BRANCH   2  13
HETATM   13  C   UNL     1     -42.293 -52.566  14.598  1.00  0.00     0.143 C 
BRANCH  13  14
HETATM   14  C   UNL     1     -42.464 -53.789  13.639  1.00  0.00     0.001 C 
HETATM   15  C   UNL     1     -43.225 -53.364  12.358  1.00  0.00     0.039 C 
HETATM   16  C   UNL     1     -44.719 -53.176  12.632  1.00  0.00     0.168 C 
HETATM   17  O   UNL     1     -45.281 -54.419  13.029  1.00  0.00    -0.391 OA
HETATM   18  C   UNL     1     -44.778 -54.857  14.286  1.00  0.00     0.168 C 
HETATM   19  C   UNL     1     -43.259 -54.970  14.285  1.00  0.00     0.039 C 
BRANCH  14  20
HETATM   20  C   UNL     1     -41.067 -54.369  13.301  1.00  0.00     0.175 C 
BRANCH  20  21
HETATM   21  O   UNL     1     -40.692 -54.004  11.974  1.00  0.00    -0.400 OA
HETATM   22  H   UNL     1     -41.489 -54.084  11.407  1.00  0.00     0.209 HD
ENDBRANCH  20  21
ENDBRANCH  14  20
ENDBRANCH  13  14
ENDBRANCH   2  13
BRANCH   6  23
HETATM   23  N   UNL     1     -41.505 -47.453  11.298  1.00  0.00    -0.360 N 
HETATM   24  C   UNL     1     -40.439 -46.440  11.143  1.00  0.00     0.158 C 
HETATM   25  C   UNL     1     -41.087 -45.054  10.902  1.00  0.00     0.163 C 
HETATM   26  O   UNL     1     -41.954 -45.103   9.740  1.00  0.00    -0.376 OA
HETATM   27  C   UNL     1     -43.011 -46.060   9.947  1.00  0.00     0.136 C 
HETATM   28  C   UNL     1     -42.424 -47.475  10.144  1.00  0.00     0.156 C 
HETATM   29  C   UNL     1     -43.935 -46.008   8.740  1.00  0.00     0.041 C 
BRANCH  25  30
HETATM   30  C   UNL     1     -40.012 -43.981  10.675  1.00  0.00     0.200 C 
BRANCH  30  31
HETATM   31  O   UNL     1     -40.263 -42.857  11.529  1.00  0.00    -0.393 OA
HETATM   32  C   UNL     1     -39.771 -43.069  12.845  1.00  0.00     0.201 C 
ENDBRANCH  30  31
ENDBRANCH  25  30
ENDBRANCH   6  23
TORSDOF 7
ENDMDL
MODEL 4
REMARK VINA RESULT:      -7.0      1.614      2.084
REMARK  7 active torsions:
REMARK  status: ('A' for Active; 'I' for Inactive)
REMARK    1  A    between atoms: N_2  and  C_13 
REMARK    2  A    between atoms: N_4  and  C_7 
REMARK    3  A    between atoms: C_13  and  C_17 
REMARK    4  A    between atoms: C_17  and  C_22 
REMARK    5  A    between atoms: C_19  and  C_24 
REMARK    6  A    between atoms: C_22  and  O_23 
REMARK    7  A    between atoms: C_24  and  O_27 
ROOT
HETATM    1  C   UNL     1     -41.233 -50.056  11.867  1.00  0.00     0.122 A 
HETATM    2  N   UNL     1     -41.373 -52.120  12.633  1.00  0.00    -0.326 N 
HETATM    3  C   UNL     1     -40.470 -51.156  12.240  1.00  0.00     0.140 A 
HETATM    4  N   UNL     1     -42.576 -50.327  12.072  1.00  0.00    -0.346 N 
ATOM      5  HN  UNL     1     -43.367 -49.709  11.890  1.00  0.00     0.167 HD
HETATM    6  C   UNL     1     -40.546 -48.909  11.373  1.00  0.00     0.135 A 
HETATM    7  C   UNL     1     -42.615 -51.553  12.553  1.00  0.00     0.185 A 
HETATM    8  N   UNL     1     -39.131 -51.271  12.176  1.00  0.00    -0.336 N 
ATOM      9  HN  UNL     1     -38.608 -52.107  12.437  1.00  0.00     0.168 HD
HETATM   10  N   UNL     1     -39.184 -48.990  11.328  1.00  0.00    -0.337 N 
ATOM     11  HN  UNL     1     -38.633 -48.196  11.002  1.00  0.00     0.168 HD
HETATM   12  C   UNL     1     -38.570 -50.126  11.717  1.00  0.00     0.183 A 
ENDROOT
BRANCH   2  13
HETATM   13  C   UNL     1     -41.069 -53.495  13.057  1.00  0.00     0.143 C 
BRANCH  13  14
HETATM   14  C   UNL     1     -40.643 -53.640  14.554  1.00  0.00     0.001 C 
HETATM   15  C   UNL     1     -41.346 -54.863  15.195  1.00  0.00     0.039 C 
HETATM   16  C   UNL     1     -42.821 -54.571  15.485  1.00  0.00     0.168 C 
HETATM   17  O   UNL     1     -42.911 -53.521  16.438  1.00  0.00    -0.391 OA
HETATM   18  C   UNL     1     -42.436 -52.284  15.918  1.00  0.00     0.168 C 
HETATM   19  C   UNL     1     -41.000 -52.388  15.419  1.00  0.00     0.039 C 
BRANCH  14  20
HETATM   20  C   UNL     1     -39.100 -53.770  14.634  1.00  0.00     0.175 C 
BRANCH  20  21
HETATM   21  O   UNL     1     -38.579 -54.205  13.379  1.00  0.00    -0.400 OA
HETATM   22  H   UNL     1     -37.985 -54.966  13.552  1.00  0.00     0.209 HD
ENDBRANCH  20  21
ENDBRANCH  14  20
ENDBRANCH  13  14
ENDBRANCH   2  13
BRANCH   6  23
HETATM   23  N   UNL     1     -41.177 -47.712  11.008  1.00  0.00    -0.360 N 
HETATM   24  C   UNL     1     -42.332 -47.815  10.091  1.00  0.00     0.158 C 
HETATM   25  C   UNL     1     -42.688 -46.403   9.562  1.00  0.00     0.163 C 
HETATM   26  O   UNL     1     -42.959 -45.508  10.670  1.00  0.00    -0.376 OA
HETATM   27  C   UNL     1     -41.796 -45.390  11.512  1.00  0.00     0.136 C 
HETATM   28  C   UNL     1     -41.423 -46.764  12.110  1.00  0.00     0.156 C 
HETATM   29  C   UNL     1     -42.107 -44.376  12.603  1.00  0.00     0.041 C 
BRANCH  25  30
HETATM   30  C   UNL     1     -43.924 -46.457   8.652  1.00  0.00     0.200 C 
BRANCH  30  31
HETATM   31  O   UNL     1     -44.405 -47.806   8.570  1.00  0.00    -0.393 OA
HETATM   32  C   UNL     1     -45.817 -47.876   8.715  1.00  0.00     0.201 C 
ENDBRANCH  30  31
ENDBRANCH  25  30
ENDBRANCH   6  23
TORSDOF 7
ENDMDL
MODEL 5
REMARK VINA RESULT:      -6.5      1.842      3.694
REMARK  7 active torsions:
REMARK  status: ('A' for Active; 'I' for Inactive)
REMARK    1  A    between atoms: N_2  and  C_13 
REMARK    2  A    between atoms: N_4  and  C_7 
REMARK    3  A    between atoms: C_13  and  C_17 
REMARK    4  A    between atoms: C_17  and  C_22 
REMARK    5  A    between atoms: C_19  and  C_24 
REMARK    6  A    between atoms: C_22  and  O_23 
REMARK    7  A    between atoms: C_24  and  O_27 
ROOT
HETATM    1  C   UNL     1     -41.275 -49.871  11.982  1.00  0.00     0.122 A 
HETATM    2  N   UNL     1     -41.450 -51.921  12.779  1.00  0.00    -0.326 N 
HETATM    3  C   UNL     1     -40.536 -51.002  12.309  1.00  0.00     0.140 A 
HETATM    4  N   UNL     1     -42.609 -50.079  12.290  1.00  0.00    -0.346 N 
ATOM      5  HN  UNL     1     -43.383 -49.427  12.161  1.00  0.00     0.167 HD
HETATM    6  C   UNL     1     -40.576 -48.760  11.427  1.00  0.00     0.135 A 
HETATM    7  C   UNL     1     -42.668 -51.298  12.785  1.00  0.00     0.185 A 
HETATM    8  N   UNL     1     -39.213 -51.178  12.146  1.00  0.00    -0.336 N 
ATOM      9  HN  UNL     1     -38.710 -52.036  12.377  1.00  0.00     0.168 HD
HETATM   10  N   UNL     1     -39.226 -48.904  11.281  1.00  0.00    -0.337 N 
ATOM     11  HN  UNL     1     -38.666 -48.138  10.907  1.00  0.00     0.168 HD
HETATM   12  C   UNL     1     -38.636 -50.064  11.635  1.00  0.00     0.183 A 
ENDROOT
BRANCH   2  13
HETATM   13  C   UNL     1     -41.178 -53.305  13.193  1.00  0.00     0.143 C 
BRANCH  13  14
HETATM   14  C   UNL     1     -41.309 -53.567  14.729  1.00  0.00     0.001 C 
HETATM   15  C   UNL     1     -40.697 -52.389  15.528  1.00  0.00     0.039 C 
HETATM   16  C   UNL     1     -39.167 -52.428  15.498  1.00  0.00     0.168 C 
HETATM   17  O   UNL     1     -38.717 -53.614  16.138  1.00  0.00    -0.391 OA
HETATM   18  C   UNL     1     -39.081 -54.784  15.416  1.00  0.00     0.168 C 
HETATM   19  C   UNL     1     -40.586 -54.873  15.194  1.00  0.00     0.039 C 
BRANCH  14  20
HETATM   20  C   UNL     1     -42.804 -53.776  15.084  1.00  0.00     0.175 C 
BRANCH  20  21
HETATM   21  O   UNL     1     -43.214 -55.094  14.725  1.00  0.00    -0.400 OA
HETATM   22  H   UNL     1     -42.549 -55.452  14.098  1.00  0.00     0.209 HD
ENDBRANCH  20  21
ENDBRANCH  14  20
ENDBRANCH  13  14
ENDBRANCH   2  13
BRANCH   6  23
HETATM   23  N   UNL     1     -41.178 -47.538  11.097  1.00  0.00    -0.360 N 
HETATM   24  C   UNL     1     -40.293 -46.358  11.004  1.00  0.00     0.158 C 
HETATM   25  C   UNL     1     -41.161 -45.076  10.947  1.00  0.00     0.163 C 
HETATM   26  O   UNL     1     -42.083 -45.146   9.830  1.00  0.00    -0.376 OA
HETATM   27  C   UNL     1     -42.964 -46.276   9.981  1.00  0.00     0.136 C 
HETATM   28  C   UNL     1     -42.154 -47.591   9.993  1.00  0.00     0.156 C 
HETATM   29  C   UNL     1     -43.962 -46.250   8.833  1.00  0.00     0.041 C 
BRANCH  25  30
HETATM   30  C   UNL     1     -40.280 -43.828  10.788  1.00  0.00     0.200 C 
BRANCH  30  31
HETATM   31  O   UNL     1     -40.358 -43.027  11.976  1.00  0.00    -0.393 OA
HETATM   32  C   UNL     1     -41.072 -41.819  11.757  1.00  0.00     0.201 C 
ENDBRANCH  30  31
ENDBRANCH  25  30
ENDBRANCH   6  23
TORSDOF 7
ENDMDL
MODEL 6
REMARK VINA RESULT:      -6.4      2.292      2.984
REMARK  7 active torsions:
REMARK  status: ('A' for Active; 'I' for Inactive)
REMARK    1  A    between atoms: N_2  and  C_13 
REMARK    2  A    between atoms: N_4  and  C_7 
REMARK    3  A    between atoms: C_13  and  C_17 
REMARK    4  A    between atoms: C_17  and  C_22 
REMARK    5  A    between atoms: C_19  and  C_24 
REMARK    6  A    between atoms: C_22  and  O_23 
REMARK    7  A    between atoms: C_24  and  O_27 
ROOT
HETATM    1  C   UNL     1     -40.940 -48.961  12.587  1.00  0.00     0.122 A 
HETATM    2  N   UNL     1     -42.082 -50.846  12.495  1.00  0.00    -0.326 N 
HETATM    3  C   UNL     1     -40.822 -50.318  12.313  1.00  0.00     0.140 A 
HETATM    4  N   UNL     1     -42.239 -48.674  12.974  1.00  0.00    -0.346 N 
ATOM      5  HN  UNL     1     -42.619 -47.764  13.236  1.00  0.00     0.167 HD
HETATM    6  C   UNL     1     -39.777 -48.150  12.438  1.00  0.00     0.135 A 
HETATM    7  C   UNL     1     -42.879 -49.824  12.932  1.00  0.00     0.185 A 
HETATM    8  N   UNL     1     -39.718 -50.967  11.901  1.00  0.00    -0.336 N 
ATOM      9  HN  UNL     1     -39.678 -51.963  11.686  1.00  0.00     0.168 HD
HETATM   10  N   UNL     1     -38.636 -48.793  12.051  1.00  0.00    -0.337 N 
ATOM     11  HN  UNL     1     -37.766 -48.271  11.944  1.00  0.00     0.168 HD
HETATM   12  C   UNL     1     -38.665 -50.119  11.811  1.00  0.00     0.183 A 
ENDROOT
BRANCH   2  13
HETATM   13  C   UNL     1     -42.499 -52.238  12.264  1.00  0.00     0.143 C 
BRANCH  13  14
HETATM   14  C   UNL     1     -42.104 -53.237  13.400  1.00  0.00     0.001 C 
HETATM   15  C   UNL     1     -43.290 -54.179  13.721  1.00  0.00     0.039 C 
HETATM   16  C   UNL     1     -44.374 -53.458  14.526  1.00  0.00     0.168 C 
HETATM   17  O   UNL     1     -43.838 -53.058  15.779  1.00  0.00    -0.391 OA
HETATM   18  C   UNL     1     -42.830 -52.064  15.638  1.00  0.00     0.168 C 
HETATM   19  C   UNL     1     -41.696 -52.525  14.731  1.00  0.00     0.039 C 
BRANCH  14  20
HETATM   20  C   UNL     1     -40.849 -54.036  12.960  1.00  0.00     0.175 C 
BRANCH  20  21
HETATM   21  O   UNL     1     -40.553 -53.770  11.590  1.00  0.00    -0.400 OA
HETATM   22  H   UNL     1     -39.698 -53.291  11.558  1.00  0.00     0.209 HD
ENDBRANCH  20  21
ENDBRANCH  14  20
ENDBRANCH  13  14
ENDBRANCH   2  13
BRANCH   6  23
HETATM   23  N   UNL     1     -39.733 -46.780  12.726  1.00  0.00    -0.360 N 
HETATM   24  C   UNL     1     -40.341 -45.866  11.736  1.00  0.00     0.158 C 
HETATM   25  C   UNL     1     -39.922 -44.411  12.064  1.00  0.00     0.163 C 
HETATM   26  O   UNL     1     -40.311 -44.072  13.420  1.00  0.00    -0.376 OA
HETATM   27  C   UNL     1     -39.658 -44.948  14.359  1.00  0.00     0.136 C 
HETATM   28  C   UNL     1     -40.080 -46.412  14.111  1.00  0.00     0.156 C 
HETATM   29  C   UNL     1     -40.032 -44.493  15.762  1.00  0.00     0.041 C 
BRANCH  25  30
HETATM   30  C   UNL     1     -40.583 -43.421  11.094  1.00  0.00     0.200 C 
BRANCH  30  31
HETATM   31  O   UNL     1     -41.908 -43.868  10.776  1.00  0.00    -0.393 OA
HETATM   32  C   UNL     1     -42.890 -42.890  11.089  1.00  0.00     0.201 C 
ENDBRANCH  30  31
ENDBRANCH  25  30
ENDBRANCH   6  23
TORSDOF 7
ENDMDL
MODEL 7
REMARK VINA RESULT:      -6.4      1.812      2.710
REMARK  7 active torsions:
REMARK  status: ('A' for Active; 'I' for Inactive)
REMARK    1  A    between atoms: N_2  and  C_13 
REMARK    2  A    between atoms: N_4  and  C_7 
REMARK    3  A    between atoms: C_13  and  C_17 
REMARK    4  A    between atoms: C_17  and  C_22 
REMARK    5  A    between atoms: C_19  and  C_24 
REMARK    6  A    between atoms: C_22  and  O_23 
REMARK    7  A    between atoms: C_24  and  O_27 
ROOT
HETATM    1  C   UNL     1     -41.511 -50.270  13.165  1.00  0.00     0.122 A 
HETATM    2  N   UNL     1     -40.763 -51.822  14.544  1.00  0.00    -0.326 N 
HETATM    3  C   UNL     1     -41.919 -51.218  14.097  1.00  0.00     0.140 A 
HETATM    4  N   UNL     1     -40.135 -50.326  13.014  1.00  0.00    -0.346 N 
ATOM      5  HN  UNL     1     -39.557 -49.751  12.400  1.00  0.00     0.167 HD
HETATM    6  C   UNL     1     -42.516 -49.459  12.562  1.00  0.00     0.135 A 
HETATM    7  C   UNL     1     -39.732 -51.277  13.829  1.00  0.00     0.185 A 
HETATM    8  N   UNL     1     -43.176 -51.455  14.512  1.00  0.00    -0.336 N 
ATOM      9  HN  UNL     1     -43.432 -52.146  15.218  1.00  0.00     0.168 HD
HETATM   10  N   UNL     1     -43.804 -49.703  12.945  1.00  0.00    -0.337 N 
ATOM     11  HN  UNL     1     -44.570 -49.168  12.536  1.00  0.00     0.168 HD
HETATM   12  C   UNL     1     -44.057 -50.653  13.867  1.00  0.00     0.183 A 
ENDROOT
BRANCH   2  13
HETATM   13  C   UNL     1     -40.652 -52.851  15.589  1.00  0.00     0.143 C 
BRANCH  13  14
HETATM   14  C   UNL     1     -40.527 -54.315  15.054  1.00  0.00     0.001 C 
HETATM   15  C   UNL     1     -41.737 -54.661  14.151  1.00  0.00     0.039 C 
HETATM   16  C   UNL     1     -43.000 -54.909  14.979  1.00  0.00     0.168 C 
HETATM   17  O   UNL     1     -42.797 -56.040  15.815  1.00  0.00    -0.391 OA
HETATM   18  C   UNL     1     -41.805 -55.802  16.806  1.00  0.00     0.168 C 
HETATM   19  C   UNL     1     -40.474 -55.383  16.195  1.00  0.00     0.039 C 
BRANCH  14  20
HETATM   20  C   UNL     1     -39.188 -54.465  14.288  1.00  0.00     0.175 C 
BRANCH  20  21
HETATM   21  O   UNL     1     -38.492 -55.627  14.737  1.00  0.00    -0.400 OA
HETATM   22  H   UNL     1     -37.973 -55.375  15.529  1.00  0.00     0.209 HD
ENDBRANCH  20  21
ENDBRANCH  14  20
ENDBRANCH  13  14
ENDBRANCH   2  13
BRANCH   6  23
HETATM   23  N   UNL     1     -42.261 -48.500  11.573  1.00  0.00    -0.360 N 
HETATM   24  C   UNL     1     -43.417 -48.028  10.781  1.00  0.00     0.158 C 
HETATM   25  C   UNL     1     -42.903 -47.231   9.556  1.00  0.00     0.163 C 
HETATM   26  O   UNL     1     -42.066 -46.130   9.993  1.00  0.00    -0.376 OA
HETATM   27  C   UNL     1     -40.922 -46.628  10.714  1.00  0.00     0.136 C 
HETATM   28  C   UNL     1     -41.375 -47.392  11.978  1.00  0.00     0.156 C 
HETATM   29  C   UNL     1     -40.038 -45.443  11.070  1.00  0.00     0.041 C 
BRANCH  25  30
HETATM   30  C   UNL     1     -44.076 -46.670   8.739  1.00  0.00     0.200 C 
BRANCH  30  31
HETATM   31  O   UNL     1     -45.201 -47.555   8.839  1.00  0.00    -0.393 OA
HETATM   32  C   UNL     1     -46.424 -46.846   8.981  1.00  0.00     0.201 C 
ENDBRANCH  30  31
ENDBRANCH  25  30
ENDBRANCH   6  23
TORSDOF 7
ENDMDL
MODEL 8
REMARK VINA RESULT:      -6.4      1.725      7.549
REMARK  7 active torsions:
REMARK  status: ('A' for Active; 'I' for Inactive)
REMARK    1  A    between atoms: N_2  and  C_13 
REMARK    2  A    between atoms: N_4  and  C_7 
REMARK    3  A    between atoms: C_13  and  C_17 
REMARK    4  A    between atoms: C_17  and  C_22 
REMARK    5  A    between atoms: C_19  and  C_24 
REMARK    6  A    between atoms: C_22  and  O_23 
REMARK    7  A    between atoms: C_24  and  O_27 
ROOT
HETATM    1  C   UNL     1     -41.536 -49.244  11.962  1.00  0.00     0.122 A 
HETATM    2  N   UNL     1     -41.752 -47.277  10.986  1.00  0.00    -0.326 N 
HETATM    3  C   UNL     1     -40.816 -48.213  11.369  1.00  0.00     0.140 A 
HETATM    4  N   UNL     1     -42.891 -48.962  11.901  1.00  0.00    -0.346 N 
ATOM      5  HN  UNL     1     -43.658 -49.535  12.254  1.00  0.00     0.167 HD
HETATM    6  C   UNL     1     -40.804 -50.345  12.493  1.00  0.00     0.135 A 
HETATM    7  C   UNL     1     -42.980 -47.799  11.290  1.00  0.00     0.185 A 
HETATM    8  N   UNL     1     -39.479 -48.127  11.247  1.00  0.00    -0.336 N 
ATOM      9  HN  UNL     1     -38.986 -47.340  10.826  1.00  0.00     0.168 HD
HETATM   10  N   UNL     1     -39.446 -50.294  12.353  1.00  0.00    -0.337 N 
ATOM     11  HN  UNL     1     -38.867 -51.061  12.696  1.00  0.00     0.168 HD
HETATM   12  C   UNL     1     -38.876 -49.227  11.760  1.00  0.00     0.183 A 
ENDROOT
BRANCH   2  13
HETATM   13  C   UNL     1     -41.491 -45.967  10.370  1.00  0.00     0.143 C 
BRANCH  13  14
HETATM   14  C   UNL     1     -41.685 -44.745  11.326  1.00  0.00     0.001 C 
HETATM   15  C   UNL     1     -40.398 -43.884  11.363  1.00  0.00     0.039 C 
HETATM   16  C   UNL     1     -39.301 -44.553  12.195  1.00  0.00     0.168 C 
HETATM   17  O   UNL     1     -39.739 -44.665  13.542  1.00  0.00    -0.391 OA
HETATM   18  C   UNL     1     -40.836 -45.562  13.676  1.00  0.00     0.168 C 
HETATM   19  C   UNL     1     -42.014 -45.160  12.797  1.00  0.00     0.039 C 
BRANCH  14  20
HETATM   20  C   UNL     1     -42.907 -43.916  10.850  1.00  0.00     0.175 C 
BRANCH  20  21
HETATM   21  O   UNL     1     -43.581 -44.599   9.794  1.00  0.00    -0.400 OA
HETATM   22  H   UNL     1     -43.911 -45.450  10.154  1.00  0.00     0.209 HD
ENDBRANCH  20  21
ENDBRANCH  14  20
ENDBRANCH  13  14
ENDBRANCH   2  13
BRANCH   6  23
HETATM   23  N   UNL     1     -41.395 -51.476  13.073  1.00  0.00    -0.360 N 
HETATM   24  C   UNL     1     -42.436 -52.167  12.284  1.00  0.00     0.158 C 
HETATM   25  C   UNL     1     -43.179 -53.175  13.196  1.00  0.00     0.163 C 
HETATM   26  O   UNL     1     -42.236 -54.111  13.779  1.00  0.00    -0.376 OA
HETATM   27  C   UNL     1     -41.269 -53.407  14.584  1.00  0.00     0.136 C 
HETATM   28  C   UNL     1     -40.461 -52.421  13.713  1.00  0.00     0.156 C 
HETATM   29  C   UNL     1     -40.363 -54.439  15.238  1.00  0.00     0.041 C 
BRANCH  25  30
HETATM   30  C   UNL     1     -44.230 -53.961  12.399  1.00  0.00     0.200 C 
BRANCH  30  31
HETATM   31  O   UNL     1     -45.529 -53.743  12.967  1.00  0.00    -0.393 OA
HETATM   32  C   UNL     1     -46.067 -52.481  12.596  1.00  0.00     0.201 C 
ENDBRANCH  30  31
ENDBRANCH  25  30
ENDBRANCH   6  23
TORSDOF 7
ENDMDL
MODEL 9
REMARK VINA RESULT:      -6.3      2.392      3.373
REMARK  7 active torsions:
REMARK  status: ('A' for Active; 'I' for Inactive)
REMARK    1  A    between atoms: N_2  and  C_13 
REMARK    2  A    between atoms: N_4  and  C_7 
REMARK    3  A    between atoms: C_13  and  C_17 
REMARK    4  A    between atoms: C_17  and  C_22 
REMARK    5  A    between atoms: C_19  and  C_24 
REMARK    6  A    between atoms: C_22  and  O_23 
REMARK    7  A    between atoms: C_24  and  O_27 
ROOT
HETATM    1  C   UNL     1     -42.916 -49.390  13.433  1.00  0.00     0.122 A 
HETATM    2  N   UNL     1     -43.448 -51.166  14.628  1.00  0.00    -0.326 N 
HETATM    3  C   UNL     1     -43.215 -49.811  14.723  1.00  0.00     0.140 A 
HETATM    4  N   UNL     1     -43.009 -50.461  12.559  1.00  0.00    -0.346 N 
ATOM      5  HN  UNL     1     -42.846 -50.453  11.551  1.00  0.00     0.167 HD
HETATM    6  C   UNL     1     -42.591 -48.016  13.242  1.00  0.00     0.135 A 
HETATM    7  C   UNL     1     -43.353 -51.491  13.303  1.00  0.00     0.185 A 
HETATM    8  N   UNL     1     -43.221 -49.059  15.838  1.00  0.00    -0.336 N 
ATOM      9  HN  UNL     1     -43.423 -49.412  16.774  1.00  0.00     0.168 HD
HETATM   10  N   UNL     1     -42.620 -47.226  14.355  1.00  0.00    -0.337 N 
ATOM     11  HN  UNL     1     -42.415 -46.229  14.282  1.00  0.00     0.168 HD
HETATM   12  C   UNL     1     -42.922 -47.769  15.552  1.00  0.00     0.183 A 
ENDROOT
BRANCH   2  13
HETATM   13  C   UNL     1     -43.740 -52.092  15.733  1.00  0.00     0.143 C 
BRANCH  13  14
HETATM   14  C   UNL     1     -45.210 -52.039  16.261  1.00  0.00     0.001 C 
HETATM   15  C   UNL     1     -45.752 -53.473  16.484  1.00  0.00     0.039 C 
HETATM   16  C   UNL     1     -46.092 -54.155  15.156  1.00  0.00     0.168 C 
HETATM   17  O   UNL     1     -47.136 -53.435  14.515  1.00  0.00    -0.391 OA
HETATM   18  C   UNL     1     -46.721 -52.136  14.111  1.00  0.00     0.168 C 
HETATM   19  C   UNL     1     -46.190 -51.316  15.281  1.00  0.00     0.039 C 
BRANCH  14  20
HETATM   20  C   UNL     1     -45.252 -51.209  17.570  1.00  0.00     0.175 C 
BRANCH  20  21
HETATM   21  O   UNL     1     -45.702 -49.883  17.296  1.00  0.00    -0.400 OA
HETATM   22  H   UNL     1     -45.531 -49.701  16.348  1.00  0.00     0.209 HD
ENDBRANCH  20  21
ENDBRANCH  14  20
ENDBRANCH  13  14
ENDBRANCH   2  13
BRANCH   6  23
HETATM   23  N   UNL     1     -42.317 -47.439  11.995  1.00  0.00    -0.360 N 
HETATM   24  C   UNL     1     -43.460 -47.256  11.075  1.00  0.00     0.158 C 
HETATM   25  C   UNL     1     -42.926 -46.910   9.663  1.00  0.00     0.163 C 
HETATM   26  O   UNL     1     -42.088 -45.727   9.722  1.00  0.00    -0.376 OA
HETATM   27  C   UNL     1     -40.957 -45.960  10.583  1.00  0.00     0.136 C 
HETATM   28  C   UNL     1     -41.430 -46.261  12.022  1.00  0.00     0.156 C 
HETATM   29  C   UNL     1     -40.070 -44.725  10.539  1.00  0.00     0.041 C 
BRANCH  25  30
HETATM   30  C   UNL     1     -44.085 -46.651   8.689  1.00  0.00     0.200 C 
BRANCH  30  31
HETATM   31  O   UNL     1     -44.694 -47.896   8.322  1.00  0.00    -0.393 OA
HETATM   32  C   UNL     1     -46.070 -47.938   8.673  1.00  0.00     0.201 C 
ENDBRANCH  30  31
ENDBRANCH  25  30
ENDBRANCH   6  23
TORSDOF 7
ENDMDL
