MODEL 1
REMARK VINA RESULT:      -6.3      0.000      0.000
REMARK  7 active torsions:
REMARK  status: ('A' for Active; 'I' for Inactive)
REMARK    1  A    between atoms: O_2  and  C_3 
REMARK    2  A    between atoms: C_3  and  C_4 
REMARK    3  A    between atoms: C_4  and  N_5 
REMARK    4  A    between atoms: C_8  and  C_13 
REMARK       I    between atoms: C_13  and  N_15 
REMARK    5  A    between atoms: N_15  and  C_16 
REMARK    6  A    between atoms: C_16  and  C_18 
REMARK    7  A    between atoms: C_18  and  N_19 
ROOT
HETATM    1  C   UNL     1     -41.305 -49.323  11.219  1.00  0.00     0.270 C 
HETATM    2  O   UNL     1     -40.106 -49.454  11.016  1.00  0.00    -0.266 OA
HETATM    3  N   UNL     1     -42.106 -50.225  11.872  1.00  0.00    -0.350 N 
HETATM    4  H   UNL     1     -43.092 -49.992  11.958  1.00  0.00     0.163 HD
ENDROOT
BRANCH   1   5
HETATM    5  C   UNL     1     -42.017 -48.077  10.684  1.00  0.00     0.116 A 
HETATM    6  N   UNL     1     -43.035 -48.207   9.883  1.00  0.00    -0.290 N 
HETATM    7  N   UNL     1     -43.606 -47.029   9.403  1.00  0.00    -0.255 N 
ATOM      8  HN  UNL     1     -43.396 -49.124   9.619  1.00  0.00     0.187 HD
HETATM    9  C   UNL     1     -43.120 -45.751   9.682  1.00  0.00     0.262 A 
HETATM   10  C   UNL     1     -41.983 -45.683  10.619  1.00  0.00     0.078 A 
HETATM   11  O   UNL     1     -43.549 -44.704   9.209  1.00  0.00    -0.267 OA
HETATM   12  C   UNL     1     -41.443 -46.792  11.124  1.00  0.00     0.042 A 
BRANCH   7  13
HETATM   13  C   UNL     1     -44.768 -47.166   8.525  1.00  0.00     0.178 C 
BRANCH  13  14
HETATM   14  C   UNL     1     -46.093 -47.025   9.275  1.00  0.00     0.189 C 
BRANCH  14  15
HETATM   15  O   UNL     1     -47.102 -47.821   8.647  1.00  0.00    -0.394 OA
HETATM   16  C   UNL     1     -46.544 -48.930   7.960  1.00  0.00     0.201 C 
ENDBRANCH  14  15
ENDBRANCH  13  14
ENDBRANCH   7  13
ENDBRANCH   1   5
BRANCH   3  17
HETATM   17  C   UNL     1     -41.618 -51.503  12.399  1.00  0.00     0.109 C 
HETATM   18  C   UNL     1     -40.948 -51.305  13.763  1.00  0.00     0.034 C 
BRANCH  17  19
HETATM   19  C   UNL     1     -42.697 -52.638  12.453  1.00  0.00     0.297 C 
BRANCH  19  20
HETATM   20  N   UNL     1     -43.447 -52.750  13.719  1.00  0.00     0.094 N 
HETATM   21  C   UNL     1     -43.724 -54.155  14.100  1.00  0.00     0.298 C 
HETATM   22  C   UNL     1     -45.071 -54.754  13.636  1.00  0.00     0.198 C 
HETATM   23  O   UNL     1     -46.173 -53.866  13.846  1.00  0.00    -0.388 OA
HETATM   24  C   UNL     1     -45.919 -52.618  13.199  1.00  0.00     0.198 C 
HETATM   25  C   UNL     1     -44.680 -51.952  13.809  1.00  0.00     0.298 C 
ENDBRANCH  19  20
ENDBRANCH  17  19
ENDBRANCH   3  17
TORSDOF 7
ENDMDL
MODEL 2
REMARK VINA RESULT:      -6.2      3.138      3.920
REMARK  7 active torsions:
REMARK  status: ('A' for Active; 'I' for Inactive)
REMARK    1  A    between atoms: O_2  and  C_3 
REMARK    2  A    between atoms: C_3  and  C_4 
REMARK    3  A    between atoms: C_4  and  N_5 
REMARK    4  A    between atoms: C_8  and  C_13 
REMARK       I    between atoms: C_13  and  N_15 
REMARK    5  A    between atoms: N_15  and  C_16 
REMARK    6  A    between atoms: C_16  and  C_18 
REMARK    7  A    between atoms: C_18  and  N_19 
ROOT
HETATM    1  C   UNL     1     -40.734 -49.122  11.212  1.00  0.00     0.270 C 
HETATM    2  O   UNL     1     -41.282 -50.126  11.641  1.00  0.00    -0.266 OA
HETATM    3  N   UNL     1     -39.383 -48.882  11.227  1.00  0.00    -0.350 N 
HETATM    4  H   UNL     1     -39.065 -47.995  10.845  1.00  0.00     0.163 HD
ENDROOT
BRANCH   1   5
HETATM    5  C   UNL     1     -41.596 -47.996  10.631  1.00  0.00     0.116 A 
HETATM    6  N   UNL     1     -42.625 -48.287   9.889  1.00  0.00    -0.290 N 
HETATM    7  N   UNL     1     -43.337 -47.210   9.361  1.00  0.00    -0.255 N 
ATOM      8  HN  UNL     1     -42.897 -49.252   9.703  1.00  0.00     0.187 HD
HETATM    9  C   UNL     1     -42.980 -45.873   9.533  1.00  0.00     0.262 A 
HETATM   10  C   UNL     1     -41.820 -45.622  10.409  1.00  0.00     0.078 A 
HETATM   11  O   UNL     1     -43.536 -44.911   9.013  1.00  0.00    -0.267 OA
HETATM   12  C   UNL     1     -41.145 -46.632  10.959  1.00  0.00     0.042 A 
BRANCH   7  13
HETATM   13  C   UNL     1     -44.512 -47.528   8.549  1.00  0.00     0.178 C 
BRANCH  13  14
HETATM   14  C   UNL     1     -45.815 -47.457   9.345  1.00  0.00     0.189 C 
BRANCH  14  15
HETATM   15  O   UNL     1     -46.910 -47.901   8.540  1.00  0.00    -0.394 OA
HETATM   16  C   UNL     1     -46.575 -49.058   7.789  1.00  0.00     0.201 C 
ENDBRANCH  14  15
ENDBRANCH  13  14
ENDBRANCH   7  13
ENDBRANCH   1   5
BRANCH   3  17
HETATM   17  C   UNL     1     -38.405 -49.813  11.797  1.00  0.00     0.109 C 
HETATM   18  C   UNL     1     -37.202 -49.975  10.862  1.00  0.00     0.034 C 
BRANCH  17  19
HETATM   19  C   UNL     1     -37.951 -49.465  13.256  1.00  0.00     0.297 C 
BRANCH  19  20
HETATM   20  N   UNL     1     -37.817 -50.609  14.177  1.00  0.00     0.094 N 
HETATM   21  C   UNL     1     -38.827 -51.666  13.932  1.00  0.00     0.298 C 
HETATM   22  C   UNL     1     -40.136 -51.587  14.752  1.00  0.00     0.198 C 
HETATM   23  O   UNL     1     -39.905 -51.312  16.137  1.00  0.00    -0.388 OA
HETATM   24  C   UNL     1     -39.145 -50.109  16.271  1.00  0.00     0.198 C 
HETATM   25  C   UNL     1     -37.773 -50.279  15.610  1.00  0.00     0.298 C 
ENDBRANCH  19  20
ENDBRANCH  17  19
ENDBRANCH   3  17
TORSDOF 7
ENDMDL
MODEL 3
REMARK VINA RESULT:      -5.9      1.782      2.447
REMARK  7 active torsions:
REMARK  status: ('A' for Active; 'I' for Inactive)
REMARK    1  A    between atoms: O_2  and  C_3 
REMARK    2  A    between atoms: C_3  and  C_4 
REMARK    3  A    between atoms: C_4  and  N_5 
REMARK    4  A    between atoms: C_8  and  C_13 
REMARK       I    between atoms: C_13  and  N_15 
REMARK    5  A    between atoms: N_15  and  C_16 
REMARK    6  A    between atoms: C_16  and  C_18 
REMARK    7  A    between atoms: C_18  and  N_19 
ROOT
HETATM    1  C   UNL     1     -43.114 -49.938  12.930  1.00  0.00     0.270 C 
HETATM    2  O   UNL     1     -42.335 -50.403  13.749  1.00  0.00    -0.266 OA
HETATM    3  N   UNL     1     -44.363 -50.432  12.648  1.00  0.00    -0.350 N 
HETATM    4  H   UNL     1     -44.901 -49.951  11.932  1.00  0.00     0.163 HD
ENDROOT
BRANCH   1   5
HETATM    5  C   UNL     1     -42.685 -48.722  12.103  1.00  0.00     0.116 A 
HETATM    6  N   UNL     1     -43.154 -48.560  10.900  1.00  0.00    -0.290 N 
HETATM    7  N   UNL     1     -42.686 -47.453  10.192  1.00  0.00    -0.255 N 
ATOM      8  HN  UNL     1     -43.829 -49.209  10.495  1.00  0.00     0.187 HD
HETATM    9  C   UNL     1     -41.722 -46.566  10.671  1.00  0.00     0.262 A 
HETATM   10  C   UNL     1     -41.260 -46.798  12.052  1.00  0.00     0.078 A 
HETATM   11  O   UNL     1     -41.231 -45.635  10.040  1.00  0.00    -0.267 OA
HETATM   12  C   UNL     1     -41.720 -47.826  12.766  1.00  0.00     0.042 A 
BRANCH   7  13
HETATM   13  C   UNL     1     -43.230 -47.249   8.850  1.00  0.00     0.178 C 
BRANCH  13  14
HETATM   14  C   UNL     1     -44.599 -46.568   8.866  1.00  0.00     0.189 C 
BRANCH  14  15
HETATM   15  O   UNL     1     -45.539 -47.367   9.589  1.00  0.00    -0.394 OA
HETATM   16  C   UNL     1     -46.855 -47.222   9.077  1.00  0.00     0.201 C 
ENDBRANCH  14  15
ENDBRANCH  13  14
ENDBRANCH   7  13
ENDBRANCH   1   5
BRANCH   3  17
HETATM   17  C   UNL     1     -44.923 -51.624  13.291  1.00  0.00     0.109 C 
HETATM   18  C   UNL     1     -46.439 -51.485  13.464  1.00  0.00     0.034 C 
BRANCH  17  19
HETATM   19  C   UNL     1     -44.550 -52.975  12.591  1.00  0.00     0.297 C 
BRANCH  19  20
HETATM   20  N   UNL     1     -44.248 -54.103  13.493  1.00  0.00     0.094 N 
HETATM   21  C   UNL     1     -45.407 -55.005  13.695  1.00  0.00     0.298 C 
HETATM   22  C   UNL     1     -46.318 -54.713  14.909  1.00  0.00     0.198 C 
HETATM   23  O   UNL     1     -45.578 -54.440  16.103  1.00  0.00    -0.388 OA
HETATM   24  C   UNL     1     -44.671 -53.359  15.873  1.00  0.00     0.198 C 
HETATM   25  C   UNL     1     -43.656 -53.747  14.792  1.00  0.00     0.298 C 
ENDBRANCH  19  20
ENDBRANCH  17  19
ENDBRANCH   3  17
TORSDOF 7
ENDMDL
MODEL 4
REMARK VINA RESULT:      -5.9      2.129      7.439
REMARK  7 active torsions:
REMARK  status: ('A' for Active; 'I' for Inactive)
REMARK    1  A    between atoms: O_2  and  C_3 
REMARK    2  A    between atoms: C_3  and  C_4 
REMARK    3  A    between atoms: C_4  and  N_5 
REMARK    4  A    between atoms: C_8  and  C_13 
REMARK       I    between atoms: C_13  and  N_15 
REMARK    5  A    between atoms: N_15  and  C_16 
REMARK    6  A    between atoms: C_16  and  C_18 
REMARK    7  A    between atoms: C_18  and  N_19 
ROOT
HETATM    1  C   UNL     1     -43.109 -50.409  13.045  1.00  0.00     0.270 C 
HETATM    2  O   UNL     1     -43.324 -49.444  13.765  1.00  0.00    -0.266 OA
HETATM    3  N   UNL     1     -42.181 -50.459  12.035  1.00  0.00    -0.350 N 
HETATM    4  H   UNL     1     -42.117 -51.325  11.507  1.00  0.00     0.163 HD
ENDROOT
BRANCH   1   5
HETATM    5  C   UNL     1     -43.948 -51.676  13.230  1.00  0.00     0.116 A 
HETATM    6  N   UNL     1     -45.008 -51.646  13.987  1.00  0.00    -0.290 N 
HETATM    7  N   UNL     1     -45.699 -52.847  14.142  1.00  0.00    -0.255 N 
ATOM      8  HN  UNL     1     -45.317 -50.787  14.442  1.00  0.00     0.187 HD
HETATM    9  C   UNL     1     -45.291 -54.063  13.592  1.00  0.00     0.262 A 
HETATM   10  C   UNL     1     -44.099 -54.012  12.725  1.00  0.00     0.078 A 
HETATM   11  O   UNL     1     -45.830 -55.149  13.780  1.00  0.00    -0.267 OA
HETATM   12  C   UNL     1     -43.443 -52.869  12.527  1.00  0.00     0.042 A 
BRANCH   7  13
HETATM   13  C   UNL     1     -46.905 -52.815  14.967  1.00  0.00     0.178 C 
BRANCH  13  14
HETATM   14  C   UNL     1     -47.035 -51.520  15.770  1.00  0.00     0.189 C 
BRANCH  14  15
HETATM   15  O   UNL     1     -48.219 -51.553  16.571  1.00  0.00    -0.394 OA
HETATM   16  C   UNL     1     -47.932 -51.319  17.942  1.00  0.00     0.201 C 
ENDBRANCH  14  15
ENDBRANCH  13  14
ENDBRANCH   7  13
ENDBRANCH   1   5
BRANCH   3  17
HETATM   17  C   UNL     1     -41.328 -49.325  11.668  1.00  0.00     0.109 C 
HETATM   18  C   UNL     1     -39.886 -49.786  11.433  1.00  0.00     0.034 C 
BRANCH  17  19
HETATM   19  C   UNL     1     -41.858 -48.477  10.461  1.00  0.00     0.297 C 
BRANCH  19  20
HETATM   20  N   UNL     1     -43.047 -47.648  10.734  1.00  0.00     0.094 N 
HETATM   21  C   UNL     1     -43.872 -47.410   9.526  1.00  0.00     0.298 C 
HETATM   22  C   UNL     1     -43.575 -46.127   8.716  1.00  0.00     0.198 C 
HETATM   23  O   UNL     1     -43.413 -44.973   9.547  1.00  0.00    -0.388 OA
HETATM   24  C   UNL     1     -42.391 -45.214  10.516  1.00  0.00     0.198 C 
HETATM   25  C   UNL     1     -42.797 -46.375  11.430  1.00  0.00     0.298 C 
ENDBRANCH  19  20
ENDBRANCH  17  19
ENDBRANCH   3  17
TORSDOF 7
ENDMDL
MODEL 5
REMARK VINA RESULT:      -5.8      2.660      7.691
REMARK  7 active torsions:
REMARK  status: ('A' for Active; 'I' for Inactive)
REMARK    1  A    between atoms: O_2  and  C_3 
REMARK    2  A    between atoms: C_3  and  C_4 
REMARK    3  A    between atoms: C_4  and  N_5 
REMARK    4  A    between atoms: C_8  and  C_13 
REMARK       I    between atoms: C_13  and  N_15 
REMARK    5  A    between atoms: N_15  and  C_16 
REMARK    6  A    between atoms: C_16  and  C_18 
REMARK    7  A    between atoms: C_18  and  N_19 
ROOT
HETATM    1  C   UNL     1     -40.849 -50.117  11.456  1.00  0.00     0.270 C 
HETATM    2  O   UNL     1     -39.663 -49.850  11.324  1.00  0.00    -0.266 OA
HETATM    3  N   UNL     1     -41.894 -49.319  11.064  1.00  0.00    -0.350 N 
HETATM    4  H   UNL     1     -42.833 -49.662  11.247  1.00  0.00     0.163 HD
ENDROOT
BRANCH   1   5
HETATM    5  C   UNL     1     -41.243 -51.427  12.144  1.00  0.00     0.116 A 
HETATM    6  N   UNL     1     -42.439 -51.912  11.975  1.00  0.00    -0.290 N 
HETATM    7  N   UNL     1     -42.740 -53.086  12.665  1.00  0.00    -0.255 N 
ATOM      8  HN  UNL     1     -43.122 -51.456  11.369  1.00  0.00     0.187 HD
HETATM    9  C   UNL     1     -41.869 -53.720  13.551  1.00  0.00     0.262 A 
HETATM   10  C   UNL     1     -40.522 -53.128  13.668  1.00  0.00     0.078 A 
HETATM   11  O   UNL     1     -42.135 -54.703  14.235  1.00  0.00    -0.267 OA
HETATM   12  C   UNL     1     -40.195 -52.029  12.988  1.00  0.00     0.042 A 
BRANCH   7  13
HETATM   13  C   UNL     1     -44.073 -53.652  12.459  1.00  0.00     0.178 C 
BRANCH  13  14
HETATM   14  C   UNL     1     -45.144 -52.956  13.300  1.00  0.00     0.189 C 
BRANCH  14  15
HETATM   15  O   UNL     1     -45.656 -53.854  14.288  1.00  0.00    -0.394 OA
HETATM   16  C   UNL     1     -45.582 -55.205  13.860  1.00  0.00     0.201 C 
ENDBRANCH  14  15
ENDBRANCH  13  14
ENDBRANCH   7  13
ENDBRANCH   1   5
BRANCH   3  17
HETATM   17  C   UNL     1     -41.715 -48.002  10.445  1.00  0.00     0.109 C 
HETATM   18  C   UNL     1     -42.877 -47.688   9.497  1.00  0.00     0.034 C 
BRANCH  17  19
HETATM   19  C   UNL     1     -41.476 -46.834  11.461  1.00  0.00     0.297 C 
BRANCH  19  20
HETATM   20  N   UNL     1     -40.129 -46.231  11.440  1.00  0.00     0.094 N 
HETATM   21  C   UNL     1     -39.643 -45.861  12.790  1.00  0.00     0.298 C 
HETATM   22  C   UNL     1     -39.920 -44.415  13.262  1.00  0.00     0.198 C 
HETATM   23  O   UNL     1     -39.636 -43.440  12.254  1.00  0.00    -0.388 OA
HETATM   24  C   UNL     1     -40.376 -43.740  11.069  1.00  0.00     0.198 C 
HETATM   25  C   UNL     1     -39.946 -45.103  10.513  1.00  0.00     0.298 C 
ENDBRANCH  19  20
ENDBRANCH  17  19
ENDBRANCH   3  17
TORSDOF 7
ENDMDL
MODEL 6
REMARK VINA RESULT:      -5.8      1.971      3.551
REMARK  7 active torsions:
REMARK  status: ('A' for Active; 'I' for Inactive)
REMARK    1  A    between atoms: O_2  and  C_3 
REMARK    2  A    between atoms: C_3  and  C_4 
REMARK    3  A    between atoms: C_4  and  N_5 
REMARK    4  A    between atoms: C_8  and  C_13 
REMARK       I    between atoms: C_13  and  N_15 
REMARK    5  A    between atoms: N_15  and  C_16 
REMARK    6  A    between atoms: C_16  and  C_18 
REMARK    7  A    between atoms: C_18  and  N_19 
ROOT
HETATM    1  C   UNL     1     -40.859 -49.598  11.284  1.00  0.00     0.270 C 
HETATM    2  O   UNL     1     -39.687 -49.896  11.101  1.00  0.00    -0.266 OA
HETATM    3  N   UNL     1     -41.819 -50.426  11.808  1.00  0.00    -0.350 N 
HETATM    4  H   UNL     1     -42.759 -50.049  11.894  1.00  0.00     0.163 HD
ENDROOT
BRANCH   1   5
HETATM    5  C   UNL     1     -41.343 -48.204  10.874  1.00  0.00     0.116 A 
HETATM    6  N   UNL     1     -40.491 -47.225  10.779  1.00  0.00    -0.290 N 
HETATM    7  N   UNL     1     -41.010 -45.976  10.442  1.00  0.00    -0.255 N 
ATOM      8  HN  UNL     1     -39.493 -47.364  10.943  1.00  0.00     0.187 HD
HETATM    9  C   UNL     1     -42.369 -45.713  10.264  1.00  0.00     0.262 A 
HETATM   10  C   UNL     1     -43.270 -46.878  10.359  1.00  0.00     0.078 A 
HETATM   11  O   UNL     1     -42.862 -44.611  10.050  1.00  0.00    -0.267 OA
HETATM   12  C   UNL     1     -42.795 -48.091  10.641  1.00  0.00     0.042 A 
BRANCH   7  13
HETATM   13  C   UNL     1     -40.056 -44.876  10.306  1.00  0.00     0.178 C 
BRANCH  13  14
HETATM   14  C   UNL     1     -39.917 -44.054  11.588  1.00  0.00     0.189 C 
BRANCH  14  15
HETATM   15  O   UNL     1     -40.077 -44.895  12.733  1.00  0.00    -0.394 OA
HETATM   16  C   UNL     1     -38.863 -45.034  13.456  1.00  0.00     0.201 C 
ENDBRANCH  14  15
ENDBRANCH  13  14
ENDBRANCH   7  13
ENDBRANCH   1   5
BRANCH   3  17
HETATM   17  C   UNL     1     -41.560 -51.814  12.201  1.00  0.00     0.109 C 
HETATM   18  C   UNL     1     -40.764 -51.866  13.509  1.00  0.00     0.034 C 
BRANCH  17  19
HETATM   19  C   UNL     1     -42.839 -52.717  12.276  1.00  0.00     0.297 C 
BRANCH  19  20
HETATM   20  N   UNL     1     -43.521 -52.756  13.583  1.00  0.00     0.094 N 
HETATM   21  C   UNL     1     -43.745 -54.136  14.074  1.00  0.00     0.298 C 
HETATM   22  C   UNL     1     -45.100 -54.794  13.722  1.00  0.00     0.198 C 
HETATM   23  O   UNL     1     -46.211 -53.915  13.927  1.00  0.00    -0.388 OA
HETATM   24  C   UNL     1     -46.019 -52.710  13.183  1.00  0.00     0.198 C 
HETATM   25  C   UNL     1     -44.767 -51.979  13.681  1.00  0.00     0.298 C 
ENDBRANCH  19  20
ENDBRANCH  17  19
ENDBRANCH   3  17
TORSDOF 7
ENDMDL
MODEL 7
REMARK VINA RESULT:      -5.7      3.205      7.090
REMARK  7 active torsions:
REMARK  status: ('A' for Active; 'I' for Inactive)
REMARK    1  A    between atoms: O_2  and  C_3 
REMARK    2  A    between atoms: C_3  and  C_4 
REMARK    3  A    between atoms: C_4  and  N_5 
REMARK    4  A    between atoms: C_8  and  C_13 
REMARK       I    between atoms: C_13  and  N_15 
REMARK    5  A    between atoms: N_15  and  C_16 
REMARK    6  A    between atoms: C_16  and  C_18 
REMARK    7  A    between atoms: C_18  and  N_19 
ROOT
HETATM    1  C   UNL     1     -41.508 -51.376  12.174  1.00  0.00     0.270 C 
HETATM    2  O   UNL     1     -40.321 -51.664  12.131  1.00  0.00    -0.266 OA
HETATM    3  N   UNL     1     -42.046 -50.160  11.835  1.00  0.00    -0.350 N 
HETATM    4  H   UNL     1     -43.053 -50.055  11.931  1.00  0.00     0.163 HD
ENDROOT
BRANCH   1   5
HETATM    5  C   UNL     1     -42.509 -52.421  12.675  1.00  0.00     0.116 A 
HETATM    6  N   UNL     1     -43.786 -52.227  12.510  1.00  0.00    -0.290 N 
HETATM    7  N   UNL     1     -44.638 -53.201  13.029  1.00  0.00    -0.255 N 
ATOM      8  HN  UNL     1     -44.144 -51.404  12.026  1.00  0.00     0.187 HD
HETATM    9  C   UNL     1     -44.208 -54.316  13.750  1.00  0.00     0.262 A 
HETATM   10  C   UNL     1     -42.747 -54.483  13.871  1.00  0.00     0.078 A 
HETATM   11  O   UNL     1     -44.936 -55.143  14.289  1.00  0.00    -0.267 OA
HETATM   12  C   UNL     1     -41.909 -53.587  13.350  1.00  0.00     0.042 A 
BRANCH   7  13
HETATM   13  C   UNL     1     -46.072 -53.004  12.823  1.00  0.00     0.178 C 
BRANCH  13  14
HETATM   14  C   UNL     1     -46.512 -51.562  13.083  1.00  0.00     0.189 C 
BRANCH  14  15
HETATM   15  O   UNL     1     -46.103 -51.150  14.390  1.00  0.00    -0.394 OA
HETATM   16  C   UNL     1     -46.971 -51.655  15.395  1.00  0.00     0.201 C 
ENDBRANCH  14  15
ENDBRANCH  13  14
ENDBRANCH   7  13
ENDBRANCH   1   5
BRANCH   3  17
HETATM   17  C   UNL     1     -41.241 -49.017  11.393  1.00  0.00     0.109 C 
HETATM   18  C   UNL     1     -41.951 -48.259  10.267  1.00  0.00     0.034 C 
BRANCH  17  19
HETATM   19  C   UNL     1     -40.801 -48.049  12.543  1.00  0.00     0.297 C 
BRANCH  19  20
HETATM   20  N   UNL     1     -39.377 -47.666  12.549  1.00  0.00     0.094 N 
HETATM   21  C   UNL     1     -38.468 -48.824  12.379  1.00  0.00     0.298 C 
HETATM   22  C   UNL     1     -37.947 -49.501  13.667  1.00  0.00     0.198 C 
HETATM   23  O   UNL     1     -37.509 -48.557  14.650  1.00  0.00    -0.388 OA
HETATM   24  C   UNL     1     -38.565 -47.641  14.946  1.00  0.00     0.198 C 
HETATM   25  C   UNL     1     -38.937 -46.845  13.689  1.00  0.00     0.298 C 
ENDBRANCH  19  20
ENDBRANCH  17  19
ENDBRANCH   3  17
TORSDOF 7
ENDMDL
MODEL 8
REMARK VINA RESULT:      -5.6      2.089      7.981
REMARK  7 active torsions:
REMARK  status: ('A' for Active; 'I' for Inactive)
REMARK    1  A    between atoms: O_2  and  C_3 
REMARK    2  A    between atoms: C_3  and  C_4 
REMARK    3  A    between atoms: C_4  and  N_5 
REMARK    4  A    between atoms: C_8  and  C_13 
REMARK       I    between atoms: C_13  and  N_15 
REMARK    5  A    between atoms: N_15  and  C_16 
REMARK    6  A    between atoms: C_16  and  C_18 
REMARK    7  A    between atoms: C_18  and  N_19 
ROOT
HETATM    1  C   UNL     1     -43.515 -50.170  13.712  1.00  0.00     0.270 C 
HETATM    2  O   UNL     1     -43.486 -49.284  14.554  1.00  0.00    -0.266 OA
HETATM    3  N   UNL     1     -42.976 -50.091  12.453  1.00  0.00    -0.350 N 
HETATM    4  H   UNL     1     -43.084 -50.902  11.850  1.00  0.00     0.163 HD
ENDROOT
BRANCH   1   5
HETATM    5  C   UNL     1     -44.236 -51.481  14.038  1.00  0.00     0.116 A 
HETATM    6  N   UNL     1     -43.545 -52.559  14.272  1.00  0.00    -0.290 N 
HETATM    7  N   UNL     1     -44.270 -53.724  14.520  1.00  0.00    -0.255 N 
ATOM      8  HN  UNL     1     -42.525 -52.552  14.273  1.00  0.00     0.187 HD
HETATM    9  C   UNL     1     -45.662 -53.807  14.474  1.00  0.00     0.262 A 
HETATM   10  C   UNL     1     -46.376 -52.539  14.232  1.00  0.00     0.078 A 
HETATM   11  O   UNL     1     -46.322 -54.832  14.605  1.00  0.00    -0.267 OA
HETATM   12  C   UNL     1     -45.709 -51.403  14.031  1.00  0.00     0.042 A 
BRANCH   7  13
HETATM   13  C   UNL     1     -43.500 -54.933  14.811  1.00  0.00     0.178 C 
BRANCH  13  14
HETATM   14  C   UNL     1     -42.005 -54.656  14.969  1.00  0.00     0.189 C 
BRANCH  14  15
HETATM   15  O   UNL     1     -41.379 -54.574  13.686  1.00  0.00    -0.394 OA
HETATM   16  C   UNL     1     -40.292 -53.661  13.688  1.00  0.00     0.201 C 
ENDBRANCH  14  15
ENDBRANCH  13  14
ENDBRANCH   7  13
ENDBRANCH   1   5
BRANCH   3  17
HETATM   17  C   UNL     1     -42.301 -48.895  11.939  1.00  0.00     0.109 C 
HETATM   18  C   UNL     1     -41.101 -49.283  11.069  1.00  0.00     0.034 C 
BRANCH  17  19
HETATM   19  C   UNL     1     -43.243 -47.888  11.195  1.00  0.00     0.297 C 
BRANCH  19  20
HETATM   20  N   UNL     1     -42.641 -47.168  10.057  1.00  0.00     0.094 N 
HETATM   21  C   UNL     1     -42.095 -45.844  10.438  1.00  0.00     0.298 C 
HETATM   22  C   UNL     1     -43.035 -44.627  10.280  1.00  0.00     0.198 C 
HETATM   23  O   UNL     1     -43.739 -44.629   9.035  1.00  0.00    -0.388 OA
HETATM   24  C   UNL     1     -44.461 -45.854   8.889  1.00  0.00     0.198 C 
HETATM   25  C   UNL     1     -43.486 -47.037   8.859  1.00  0.00     0.298 C 
ENDBRANCH  19  20
ENDBRANCH  17  19
ENDBRANCH   3  17
TORSDOF 7
ENDMDL
MODEL 9
REMARK VINA RESULT:      -5.6      2.141      3.418
REMARK  7 active torsions:
REMARK  status: ('A' for Active; 'I' for Inactive)
REMARK    1  A    between atoms: O_2  and  C_3 
REMARK    2  A    between atoms: C_3  and  C_4 
REMARK    3  A    between atoms: C_4  and  N_5 
REMARK    4  A    between atoms: C_8  and  C_13 
REMARK       I    between atoms: C_13  and  N_15 
REMARK    5  A    between atoms: N_15  and  C_16 
REMARK    6  A    between atoms: C_16  and  C_18 
REMARK    7  A    between atoms: C_18  and  N_19 
ROOT
HETATM    1  C   UNL     1     -42.936 -49.975  12.871  1.00  0.00     0.270 C 
HETATM    2  O   UNL     1     -43.398 -49.835  13.994  1.00  0.00    -0.266 OA
HETATM    3  N   UNL     1     -42.637 -51.174  12.275  1.00  0.00    -0.350 N 
HETATM    4  H   UNL     1     -42.245 -51.141  11.338  1.00  0.00     0.163 HD
ENDROOT
BRANCH   1   5
HETATM    5  C   UNL     1     -42.617 -48.729  12.038  1.00  0.00     0.116 A 
HETATM    6  N   UNL     1     -43.127 -48.598  10.848  1.00  0.00    -0.290 N 
HETATM    7  N   UNL     1     -42.759 -47.458  10.133  1.00  0.00    -0.255 N 
ATOM      8  HN  UNL     1     -43.764 -49.293  10.458  1.00  0.00     0.187 HD
HETATM    9  C   UNL     1     -41.850 -46.505  10.591  1.00  0.00     0.262 A 
HETATM   10  C   UNL     1     -41.336 -46.707  11.959  1.00  0.00     0.078 A 
HETATM   11  O   UNL     1     -41.444 -45.539   9.952  1.00  0.00    -0.267 OA
HETATM   12  C   UNL     1     -41.703 -47.766  12.680  1.00  0.00     0.042 A 
BRANCH   7  13
HETATM   13  C   UNL     1     -43.350 -47.290   8.806  1.00  0.00     0.178 C 
BRANCH  13  14
HETATM   14  C   UNL     1     -44.781 -46.752   8.862  1.00  0.00     0.189 C 
BRANCH  14  15
HETATM   15  O   UNL     1     -45.602 -47.615   9.654  1.00  0.00    -0.394 OA
HETATM   16  C   UNL     1     -46.614 -48.236   8.876  1.00  0.00     0.201 C 
ENDBRANCH  14  15
ENDBRANCH  13  14
ENDBRANCH   7  13
ENDBRANCH   1   5
BRANCH   3  17
HETATM   17  C   UNL     1     -42.815 -52.469  12.937  1.00  0.00     0.109 C 
HETATM   18  C   UNL     1     -44.069 -53.177  12.414  1.00  0.00     0.034 C 
BRANCH  17  19
HETATM   19  C   UNL     1     -41.562 -53.408  12.874  1.00  0.00     0.297 C 
BRANCH  19  20
HETATM   20  N   UNL     1     -40.868 -53.639  14.155  1.00  0.00     0.094 N 
HETATM   21  C   UNL     1     -41.320 -52.722  15.228  1.00  0.00     0.298 C 
HETATM   22  C   UNL     1     -40.520 -51.412  15.413  1.00  0.00     0.198 C 
HETATM   23  O   UNL     1     -39.105 -51.619  15.382  1.00  0.00    -0.388 OA
HETATM   24  C   UNL     1     -38.737 -52.275  14.167  1.00  0.00     0.198 C 
HETATM   25  C   UNL     1     -39.398 -53.656  14.095  1.00  0.00     0.298 C 
ENDBRANCH  19  20
ENDBRANCH  17  19
ENDBRANCH   3  17
TORSDOF 7
ENDMDL
