MODEL 1
REMARK VINA RESULT:      -5.3      0.000      0.000
REMARK  4 active torsions:
REMARK  status: ('A' for Active; 'I' for Inactive)
REMARK    1  A    between atoms: C_2  and  C_4 
REMARK    2  A    between atoms: N_7  and  C_8 
REMARK    3  A    between atoms: C_8  and  C_9 
REMARK       I    between atoms: C_9  and  N_11 
REMARK    4  A    between atoms: N_11  and  C_12 
ROOT
HETATM    1  C   UNL     1     -41.097 -43.982  11.356  1.00  0.00     0.030 A 
HETATM    2  C   UNL     1     -39.800 -44.487  11.086  1.00  0.00     0.045 A 
HETATM    3  C   UNL     1     -40.001 -45.760  10.613  1.00  0.00     0.112 A 
HETATM    4  N   UNL     1     -41.351 -45.954  10.617  1.00  0.00    -0.294 N 
HETATM    5  N   UNL     1     -42.042 -44.874  11.030  1.00  0.00    -0.302 N 
ATOM      6  HN  UNL     1     -43.054 -44.760  11.081  1.00  0.00     0.186 HD
ENDROOT
BRANCH   4   7
HETATM    7  C   UNL     1     -42.064 -47.164  10.262  1.00  0.00     0.250 C 
BRANCH   7   8
HETATM    8  C   UNL     1     -43.221 -46.900   9.333  1.00  0.00     0.237 C 
HETATM    9  O   UNL     1     -43.154 -46.043   8.451  1.00  0.00    -0.272 OA
HETATM   10  N   UNL     1     -44.314 -47.734   9.495  1.00  0.00    -0.355 N 
HETATM   11  H   UNL     1     -44.317 -48.401  10.262  1.00  0.00     0.162 HD
BRANCH  10  12
HETATM   12  C   UNL     1     -45.459 -47.648   8.648  1.00  0.00     0.084 A 
HETATM   13  C   UNL     1     -46.752 -47.080   9.162  1.00  0.00     0.027 A 
HETATM   14  C   UNL     1     -46.647 -48.546   8.858  1.00  0.00     0.027 A 
ENDBRANCH  10  12
ENDBRANCH   7   8
ENDBRANCH   4   7
BRANCH   1  15
HETATM   15  C   UNL     1     -41.484 -42.645  11.922  1.00  0.00     0.029 C 
HETATM   16  C   UNL     1     -40.261 -41.780  12.237  1.00  0.00     0.016 C 
HETATM   17  C   UNL     1     -42.440 -41.900  10.988  1.00  0.00     0.016 C 
ENDBRANCH   1  15
TORSDOF 4
ENDMDL
MODEL 2
REMARK VINA RESULT:      -5.2      4.323      6.893
REMARK  4 active torsions:
REMARK  status: ('A' for Active; 'I' for Inactive)
REMARK    1  A    between atoms: C_2  and  C_4 
REMARK    2  A    between atoms: N_7  and  C_8 
REMARK    3  A    between atoms: C_8  and  C_9 
REMARK       I    between atoms: C_9  and  N_11 
REMARK    4  A    between atoms: N_11  and  C_12 
ROOT
HETATM    1  C   UNL     1     -44.508 -51.914  12.970  1.00  0.00     0.030 A 
HETATM    2  C   UNL     1     -43.496 -52.895  12.827  1.00  0.00     0.045 A 
HETATM    3  C   UNL     1     -42.345 -52.189  12.575  1.00  0.00     0.112 A 
HETATM    4  N   UNL     1     -42.702 -50.873  12.580  1.00  0.00    -0.294 N 
HETATM    5  N   UNL     1     -44.006 -50.677  12.855  1.00  0.00    -0.302 N 
ATOM      6  HN  UNL     1     -44.498 -49.790  12.954  1.00  0.00     0.186 HD
ENDROOT
BRANCH   4   7
HETATM    7  C   UNL     1     -41.852 -49.733  12.303  1.00  0.00     0.250 C 
BRANCH   7   8
HETATM    8  C   UNL     1     -42.615 -48.573  11.716  1.00  0.00     0.237 C 
HETATM    9  O   UNL     1     -43.172 -47.742  12.434  1.00  0.00    -0.272 OA
HETATM   10  N   UNL     1     -42.576 -48.476  10.336  1.00  0.00    -0.355 N 
HETATM   11  H   UNL     1     -42.123 -49.212   9.801  1.00  0.00     0.162 HD
BRANCH  10  12
HETATM   12  C   UNL     1     -43.197 -47.395   9.639  1.00  0.00     0.084 A 
HETATM   13  C   UNL     1     -44.660 -47.443   9.299  1.00  0.00     0.027 A 
HETATM   14  C   UNL     1     -43.634 -47.546   8.209  1.00  0.00     0.027 A 
ENDBRANCH  10  12
ENDBRANCH   7   8
ENDBRANCH   4   7
BRANCH   1  15
HETATM   15  C   UNL     1     -45.976 -52.111  13.227  1.00  0.00     0.029 C 
HETATM   16  C   UNL     1     -46.445 -51.365  14.478  1.00  0.00     0.016 C 
HETATM   17  C   UNL     1     -46.814 -51.703  12.014  1.00  0.00     0.016 C 
ENDBRANCH   1  15
TORSDOF 4
ENDMDL
MODEL 3
REMARK VINA RESULT:      -5.2      6.420      8.897
REMARK  4 active torsions:
REMARK  status: ('A' for Active; 'I' for Inactive)
REMARK    1  A    between atoms: C_2  and  C_4 
REMARK    2  A    between atoms: N_7  and  C_8 
REMARK    3  A    between atoms: C_8  and  C_9 
REMARK       I    between atoms: C_9  and  N_11 
REMARK    4  A    between atoms: N_11  and  C_12 
ROOT
HETATM    1  C   UNL     1     -44.792 -52.275  13.056  1.00  0.00     0.030 A 
HETATM    2  C   UNL     1     -44.631 -53.590  13.557  1.00  0.00     0.045 A 
HETATM    3  C   UNL     1     -43.342 -53.941  13.238  1.00  0.00     0.112 A 
HETATM    4  N   UNL     1     -42.809 -52.866  12.590  1.00  0.00    -0.294 N 
HETATM    5  N   UNL     1     -43.659 -51.825  12.500  1.00  0.00    -0.302 N 
ATOM      6  HN  UNL     1     -43.481 -50.904  12.100  1.00  0.00     0.186 HD
ENDROOT
BRANCH   4   7
HETATM    7  C   UNL     1     -41.490 -52.763  12.000  1.00  0.00     0.250 C 
BRANCH   7   8
HETATM    8  C   UNL     1     -40.705 -51.595  12.540  1.00  0.00     0.237 C 
HETATM    9  O   UNL     1     -40.957 -51.108  13.643  1.00  0.00    -0.272 OA
HETATM   10  N   UNL     1     -39.652 -51.173  11.749  1.00  0.00    -0.355 N 
HETATM   11  H   UNL     1     -39.517 -51.598  10.835  1.00  0.00     0.162 HD
BRANCH  10  12
HETATM   12  C   UNL     1     -38.778 -50.120  12.157  1.00  0.00     0.084 A 
HETATM   13  C   UNL     1     -37.549 -49.791  11.357  1.00  0.00     0.027 A 
HETATM   14  C   UNL     1     -37.414 -50.417  12.714  1.00  0.00     0.027 A 
ENDBRANCH  10  12
ENDBRANCH   7   8
ENDBRANCH   4   7
BRANCH   1  15
HETATM   15  C   UNL     1     -46.014 -51.400  13.094  1.00  0.00     0.029 C 
HETATM   16  C   UNL     1     -46.983 -51.719  11.954  1.00  0.00     0.016 C 
HETATM   17  C   UNL     1     -46.725 -51.493  14.444  1.00  0.00     0.016 C 
ENDBRANCH   1  15
TORSDOF 4
ENDMDL
MODEL 4
REMARK VINA RESULT:      -5.1      4.268      6.640
REMARK  4 active torsions:
REMARK  status: ('A' for Active; 'I' for Inactive)
REMARK    1  A    between atoms: C_2  and  C_4 
REMARK    2  A    between atoms: N_7  and  C_8 
REMARK    3  A    between atoms: C_8  and  C_9 
REMARK       I    between atoms: C_9  and  N_11 
REMARK    4  A    between atoms: N_11  and  C_12 
ROOT
HETATM    1  C   UNL     1     -44.720 -50.890  13.916  1.00  0.00     0.030 A 
HETATM    2  C   UNL     1     -44.100 -50.355  15.072  1.00  0.00     0.045 A 
HETATM    3  C   UNL     1     -43.023 -49.642  14.606  1.00  0.00     0.112 A 
HETATM    4  N   UNL     1     -43.045 -49.773  13.249  1.00  0.00    -0.294 N 
HETATM    5  N   UNL     1     -44.089 -50.497  12.801  1.00  0.00    -0.302 N 
ATOM      6  HN  UNL     1     -44.342 -50.699  11.834  1.00  0.00     0.186 HD
ENDROOT
BRANCH   4   7
HETATM    7  C   UNL     1     -42.079 -49.253  12.302  1.00  0.00     0.250 C 
BRANCH   7   8
HETATM    8  C   UNL     1     -42.639 -48.133  11.464  1.00  0.00     0.237 C 
HETATM    9  O   UNL     1     -42.923 -47.041  11.959  1.00  0.00    -0.272 OA
HETATM   10  N   UNL     1     -42.732 -48.396  10.108  1.00  0.00    -0.355 N 
HETATM   11  H   UNL     1     -42.508 -49.328   9.769  1.00  0.00     0.162 HD
BRANCH  10  12
HETATM   12  C   UNL     1     -43.182 -47.410   9.179  1.00  0.00     0.084 A 
HETATM   13  C   UNL     1     -44.608 -47.398   8.706  1.00  0.00     0.027 A 
HETATM   14  C   UNL     1     -43.509 -47.778   7.758  1.00  0.00     0.027 A 
ENDBRANCH  10  12
ENDBRANCH   7   8
ENDBRANCH   4   7
BRANCH   1  15
HETATM   15  C   UNL     1     -45.928 -51.779  13.826  1.00  0.00     0.029 C 
HETATM   16  C   UNL     1     -46.907 -51.536  14.977  1.00  0.00     0.016 C 
HETATM   17  C   UNL     1     -46.636 -51.624  12.479  1.00  0.00     0.016 C 
ENDBRANCH   1  15
TORSDOF 4
ENDMDL
MODEL 5
REMARK VINA RESULT:      -4.7      3.383      5.113
REMARK  4 active torsions:
REMARK  status: ('A' for Active; 'I' for Inactive)
REMARK    1  A    between atoms: C_2  and  C_4 
REMARK    2  A    between atoms: N_7  and  C_8 
REMARK    3  A    between atoms: C_8  and  C_9 
REMARK       I    between atoms: C_9  and  N_11 
REMARK    4  A    between atoms: N_11  and  C_12 
ROOT
HETATM    1  C   UNL     1     -39.593 -49.988  11.789  1.00  0.00     0.030 A 
HETATM    2  C   UNL     1     -40.815 -50.568  12.209  1.00  0.00     0.045 A 
HETATM    3  C   UNL     1     -41.794 -49.743  11.713  1.00  0.00     0.112 A 
HETATM    4  N   UNL     1     -41.144 -48.748  11.044  1.00  0.00    -0.294 N 
HETATM    5  N   UNL     1     -39.805 -48.895  11.044  1.00  0.00    -0.302 N 
ATOM      6  HN  UNL     1     -39.110 -48.308  10.582  1.00  0.00     0.186 HD
ENDROOT
BRANCH   4   7
HETATM    7  C   UNL     1     -41.735 -47.596  10.394  1.00  0.00     0.250 C 
BRANCH   7   8
HETATM    8  C   UNL     1     -43.207 -47.461  10.686  1.00  0.00     0.237 C 
HETATM    9  O   UNL     1     -43.610 -46.995  11.753  1.00  0.00    -0.272 OA
HETATM   10  N   UNL     1     -44.052 -47.822   9.651  1.00  0.00    -0.355 N 
HETATM   11  H   UNL     1     -43.656 -48.228   8.807  1.00  0.00     0.162 HD
BRANCH  10  12
HETATM   12  C   UNL     1     -45.470 -47.689   9.754  1.00  0.00     0.084 A 
HETATM   13  C   UNL     1     -46.369 -48.195   8.662  1.00  0.00     0.027 A 
HETATM   14  C   UNL     1     -46.221 -46.719   8.885  1.00  0.00     0.027 A 
ENDBRANCH  10  12
ENDBRANCH   7   8
ENDBRANCH   4   7
BRANCH   1  15
HETATM   15  C   UNL     1     -38.190 -50.450  12.070  1.00  0.00     0.029 C 
HETATM   16  C   UNL     1     -37.207 -49.983  10.994  1.00  0.00     0.016 C 
HETATM   17  C   UNL     1     -37.722 -50.000  13.455  1.00  0.00     0.016 C 
ENDBRANCH   1  15
TORSDOF 4
ENDMDL
MODEL 6
REMARK VINA RESULT:      -4.6      8.953     10.212
REMARK  4 active torsions:
REMARK  status: ('A' for Active; 'I' for Inactive)
REMARK    1  A    between atoms: C_2  and  C_4 
REMARK    2  A    between atoms: N_7  and  C_8 
REMARK    3  A    between atoms: C_8  and  C_9 
REMARK       I    between atoms: C_9  and  N_11 
REMARK    4  A    between atoms: N_11  and  C_12 
ROOT
HETATM    1  C   UNL     1     -46.528 -51.961  15.697  1.00  0.00     0.030 A 
HETATM    2  C   UNL     1     -46.808 -51.405  14.424  1.00  0.00     0.045 A 
HETATM    3  C   UNL     1     -46.393 -52.351  13.519  1.00  0.00     0.112 A 
HETATM    4  N   UNL     1     -45.906 -53.389  14.258  1.00  0.00    -0.294 N 
HETATM    5  N   UNL     1     -46.011 -53.192  15.586  1.00  0.00    -0.302 N 
ATOM      6  HN  UNL     1     -45.756 -53.834  16.337  1.00  0.00     0.186 HD
ENDROOT
BRANCH   4   7
HETATM    7  C   UNL     1     -45.294 -54.606  13.764  1.00  0.00     0.250 C 
BRANCH   7   8
HETATM    8  C   UNL     1     -43.926 -54.843  14.351  1.00  0.00     0.237 C 
HETATM    9  O   UNL     1     -43.739 -55.698  15.218  1.00  0.00    -0.272 OA
HETATM   10  N   UNL     1     -42.904 -54.094  13.795  1.00  0.00    -0.355 N 
HETATM   11  H   UNL     1     -43.131 -53.384  13.103  1.00  0.00     0.162 HD
BRANCH  10  12
HETATM   12  C   UNL     1     -41.545 -54.254  14.201  1.00  0.00     0.084 A 
HETATM   13  C   UNL     1     -40.621 -53.071  14.270  1.00  0.00     0.027 A 
HETATM   14  C   UNL     1     -40.420 -54.116  13.214  1.00  0.00     0.027 A 
ENDBRANCH  10  12
ENDBRANCH   7   8
ENDBRANCH   4   7
BRANCH   1  15
HETATM   15  C   UNL     1     -46.747 -51.353  17.054  1.00  0.00     0.029 C 
HETATM   16  C   UNL     1     -45.817 -50.164  17.307  1.00  0.00     0.016 C 
HETATM   17  C   UNL     1     -48.207 -50.943  17.253  1.00  0.00     0.016 C 
ENDBRANCH   1  15
TORSDOF 4
ENDMDL
MODEL 7
REMARK VINA RESULT:      -4.5      4.112      7.062
REMARK  4 active torsions:
REMARK  status: ('A' for Active; 'I' for Inactive)
REMARK    1  A    between atoms: C_2  and  C_4 
REMARK    2  A    between atoms: N_7  and  C_8 
REMARK    3  A    between atoms: C_8  and  C_9 
REMARK       I    between atoms: C_9  and  N_11 
REMARK    4  A    between atoms: N_11  and  C_12 
ROOT
HETATM    1  C   UNL     1     -44.433 -50.857  13.755  1.00  0.00     0.030 A 
HETATM    2  C   UNL     1     -43.767 -50.182  14.807  1.00  0.00     0.045 A 
HETATM    3  C   UNL     1     -42.666 -49.605  14.224  1.00  0.00     0.112 A 
HETATM    4  N   UNL     1     -42.719 -49.943  12.904  1.00  0.00    -0.294 N 
HETATM    5  N   UNL     1     -43.805 -50.674  12.586  1.00  0.00    -0.302 N 
ATOM      6  HN  UNL     1     -44.086 -51.010  11.665  1.00  0.00     0.186 HD
ENDROOT
BRANCH   4   7
HETATM    7  C   UNL     1     -41.748 -49.625  11.877  1.00  0.00     0.250 C 
BRANCH   7   8
HETATM    8  C   UNL     1     -42.009 -48.290  11.229  1.00  0.00     0.237 C 
HETATM    9  O   UNL     1     -43.154 -47.907  10.986  1.00  0.00    -0.272 OA
HETATM   10  N   UNL     1     -40.888 -47.511  11.003  1.00  0.00    -0.355 N 
HETATM   11  H   UNL     1     -39.968 -47.899  11.199  1.00  0.00     0.162 HD
BRANCH  10  12
HETATM   12  C   UNL     1     -40.981 -46.196  10.455  1.00  0.00     0.084 A 
HETATM   13  C   UNL     1     -39.764 -45.322  10.349  1.00  0.00     0.027 A 
HETATM   14  C   UNL     1     -40.846 -44.981  11.330  1.00  0.00     0.027 A 
ENDBRANCH  10  12
ENDBRANCH   7   8
ENDBRANCH   4   7
BRANCH   1  15
HETATM   15  C   UNL     1     -45.684 -51.688  13.817  1.00  0.00     0.029 C 
HETATM   16  C   UNL     1     -46.552 -51.328  15.025  1.00  0.00     0.016 C 
HETATM   17  C   UNL     1     -46.493 -51.576  12.524  1.00  0.00     0.016 C 
ENDBRANCH   1  15
TORSDOF 4
ENDMDL
MODEL 8
REMARK VINA RESULT:      -4.4      4.951      7.642
REMARK  4 active torsions:
REMARK  status: ('A' for Active; 'I' for Inactive)
REMARK    1  A    between atoms: C_2  and  C_4 
REMARK    2  A    between atoms: N_7  and  C_8 
REMARK    3  A    between atoms: C_8  and  C_9 
REMARK       I    between atoms: C_9  and  N_11 
REMARK    4  A    between atoms: N_11  and  C_12 
ROOT
HETATM    1  C   UNL     1     -41.999 -52.714  12.764  1.00  0.00     0.030 A 
HETATM    2  C   UNL     1     -40.899 -52.551  13.641  1.00  0.00     0.045 A 
HETATM    3  C   UNL     1     -40.154 -51.532  13.098  1.00  0.00     0.112 A 
HETATM    4  N   UNL     1     -40.815 -51.144  11.971  1.00  0.00    -0.294 N 
HETATM    5  N   UNL     1     -41.960 -51.822  11.765  1.00  0.00    -0.302 N 
ATOM      6  HN  UNL     1     -42.642 -51.687  11.019  1.00  0.00     0.186 HD
ENDROOT
BRANCH   4   7
HETATM    7  C   UNL     1     -40.399 -50.139  11.013  1.00  0.00     0.250 C 
BRANCH   7   8
HETATM    8  C   UNL     1     -41.208 -48.872  11.117  1.00  0.00     0.237 C 
HETATM    9  O   UNL     1     -42.316 -48.861  11.656  1.00  0.00    -0.272 OA
HETATM   10  N   UNL     1     -40.588 -47.732  10.638  1.00  0.00    -0.355 N 
HETATM   11  H   UNL     1     -39.686 -47.815  10.178  1.00  0.00     0.162 HD
BRANCH  10  12
HETATM   12  C   UNL     1     -41.203 -46.446  10.727  1.00  0.00     0.084 A 
HETATM   13  C   UNL     1     -40.425 -45.201  10.406  1.00  0.00     0.027 A 
HETATM   14  C   UNL     1     -40.833 -45.485  11.821  1.00  0.00     0.027 A 
ENDBRANCH  10  12
ENDBRANCH   7   8
ENDBRANCH   4   7
BRANCH   1  15
HETATM   15  C   UNL     1     -43.125 -53.707  12.845  1.00  0.00     0.029 C 
HETATM   16  C   UNL     1     -43.185 -54.395  14.211  1.00  0.00     0.016 C 
HETATM   17  C   UNL     1     -44.468 -53.056  12.513  1.00  0.00     0.016 C 
ENDBRANCH   1  15
TORSDOF 4
ENDMDL
MODEL 9
REMARK VINA RESULT:      -4.2     12.954     15.554
REMARK  4 active torsions:
REMARK  status: ('A' for Active; 'I' for Inactive)
REMARK    1  A    between atoms: C_2  and  C_4 
REMARK    2  A    between atoms: N_7  and  C_8 
REMARK    3  A    between atoms: C_8  and  C_9 
REMARK       I    between atoms: C_9  and  N_11 
REMARK    4  A    between atoms: N_11  and  C_12 
ROOT
HETATM    1  C   UNL     1     -51.466 -52.344  -0.707  1.00  0.00     0.030 A 
HETATM    2  C   UNL     1     -52.374 -51.274  -0.900  1.00  0.00     0.045 A 
HETATM    3  C   UNL     1     -51.683 -50.145  -0.533  1.00  0.00     0.112 A 
HETATM    4  N   UNL     1     -50.444 -50.570  -0.156  1.00  0.00    -0.294 N 
HETATM    5  N   UNL     1     -50.274 -51.900  -0.288  1.00  0.00    -0.302 N 
ATOM      6  HN  UNL     1     -49.430 -52.444  -0.110  1.00  0.00     0.186 HD
ENDROOT
BRANCH   4   7
HETATM    7  C   UNL     1     -49.363 -49.762   0.372  1.00  0.00     0.250 C 
BRANCH   7   8
HETATM    8  C   UNL     1     -48.120 -49.833  -0.478  1.00  0.00     0.237 C 
HETATM    9  O   UNL     1     -47.405 -50.836  -0.487  1.00  0.00    -0.272 OA
HETATM   10  N   UNL     1     -47.894 -48.736  -1.290  1.00  0.00    -0.355 N 
HETATM   11  H   UNL     1     -48.507 -47.928  -1.213  1.00  0.00     0.162 HD
BRANCH  10  12
HETATM   12  C   UNL     1     -46.794 -48.685  -2.198  1.00  0.00     0.084 A 
HETATM   13  C   UNL     1     -45.602 -47.816  -1.910  1.00  0.00     0.027 A 
HETATM   14  C   UNL     1     -46.533 -47.460  -3.031  1.00  0.00     0.027 A 
ENDBRANCH  10  12
ENDBRANCH   7   8
ENDBRANCH   4   7
BRANCH   1  15
HETATM   15  C   UNL     1     -51.691 -53.815  -0.920  1.00  0.00     0.029 C 
HETATM   16  C   UNL     1     -53.113 -54.238  -0.543  1.00  0.00     0.016 C 
HETATM   17  C   UNL     1     -51.374 -54.226  -2.359  1.00  0.00     0.016 C 
ENDBRANCH   1  15
TORSDOF 4
ENDMDL
