MODEL 1
REMARK VINA RESULT:      -6.4      0.000      0.000
REMARK  5 active torsions:
REMARK  status: ('A' for Active; 'I' for Inactive)
REMARK    1  A    between atoms: N_2  and  C_4 
REMARK    2  A    between atoms: N_9  and  C_10 
REMARK    3  A    between atoms: C_10  and  C_11 
REMARK       I    between atoms: C_11  and  N_13 
REMARK    4  A    between atoms: N_13  and  C_14 
REMARK    5  A    between atoms: C_14  and  C_15 
ROOT
HETATM    1  C   UNL     1     -41.137 -49.705  11.388  1.00  0.00     0.234 C 
ENDROOT
BRANCH   1   2
HETATM    2  N   UNL     1     -41.200 -48.283  11.047  1.00  0.00    -0.314 N 
HETATM    3  C   UNL     1     -40.221 -47.433  11.559  1.00  0.00     0.247 A 
HETATM    4  C   UNL     1     -40.375 -45.989  11.228  1.00  0.00     0.077 A 
HETATM    5  O   UNL     1     -39.262 -47.808  12.226  1.00  0.00    -0.268 OA
HETATM    6  C   UNL     1     -41.370 -45.574  10.427  1.00  0.00     0.043 A 
HETATM    7  C   UNL     1     -42.322 -46.526   9.899  1.00  0.00     0.118 A 
HETATM    8  C   UNL     1     -42.223 -47.828  10.220  1.00  0.00     0.130 A 
BRANCH   7   9
HETATM    9  N   UNL     1     -43.413 -46.106   9.022  1.00  0.00    -0.114 N 
HETATM   10  O   UNL     1     -43.715 -44.906   8.989  1.00  0.00    -0.532 OA
HETATM   11  O   UNL     1     -43.973 -46.990   8.355  1.00  0.00    -0.532 OA
ENDBRANCH   7   9
ENDBRANCH   1   2
BRANCH   1  12
HETATM   12  C   UNL     1     -42.214 -50.151  12.380  1.00  0.00     0.235 C 
HETATM   13  O   UNL     1     -42.512 -49.444  13.344  1.00  0.00    -0.272 OA
HETATM   14  N   UNL     1     -42.741 -51.418  12.201  1.00  0.00    -0.359 N 
HETATM   15  H   UNL     1     -42.332 -52.020  11.491  1.00  0.00     0.162 HD
BRANCH  14  16
HETATM   16  C   UNL     1     -43.600 -51.972  13.234  1.00  0.00     0.127 C 
BRANCH  16  17
HETATM   17  C   UNL     1     -44.919 -52.592  12.737  1.00  0.00     0.003 C 
HETATM   18  C   UNL     1     -46.073 -51.576  12.888  1.00  0.00     0.006 C 
HETATM   19  C   UNL     1     -46.565 -51.423  14.328  1.00  0.00     0.000 C 
HETATM   20  C   UNL     1     -46.978 -52.768  14.910  1.00  0.00     0.000 C 
HETATM   21  C   UNL     1     -45.833 -53.772  14.840  1.00  0.00     0.000 C 
HETATM   22  C   UNL     1     -45.284 -53.923  13.421  1.00  0.00     0.006 C 
ENDBRANCH  16  17
ENDBRANCH  14  16
ENDBRANCH   1  12
TORSDOF 5
ENDMDL
MODEL 2
REMARK VINA RESULT:      -6.2      2.230      2.974
REMARK  5 active torsions:
REMARK  status: ('A' for Active; 'I' for Inactive)
REMARK    1  A    between atoms: N_2  and  C_4 
REMARK    2  A    between atoms: N_9  and  C_10 
REMARK    3  A    between atoms: C_10  and  C_11 
REMARK       I    between atoms: C_11  and  N_13 
REMARK    4  A    between atoms: N_13  and  C_14 
REMARK    5  A    between atoms: C_14  and  C_15 
ROOT
HETATM    1  C   UNL     1     -40.848 -52.562  12.103  1.00  0.00     0.234 C 
ENDROOT
BRANCH   1   2
HETATM    2  N   UNL     1     -40.246 -51.227  12.109  1.00  0.00    -0.314 N 
HETATM    3  C   UNL     1     -39.011 -51.058  12.732  1.00  0.00     0.247 A 
HETATM    4  C   UNL     1     -38.481 -49.667  12.759  1.00  0.00     0.077 A 
HETATM    5  O   UNL     1     -38.354 -51.971  13.221  1.00  0.00    -0.268 OA
HETATM    6  C   UNL     1     -39.146 -48.670  12.153  1.00  0.00     0.043 A 
HETATM    7  C   UNL     1     -40.403 -48.935  11.488  1.00  0.00     0.118 A 
HETATM    8  C   UNL     1     -40.918 -50.177  11.488  1.00  0.00     0.130 A 
BRANCH   7   9
HETATM    9  N   UNL     1     -41.149 -47.874  10.816  1.00  0.00    -0.114 N 
HETATM   10  O   UNL     1     -40.674 -46.730  10.812  1.00  0.00    -0.532 OA
HETATM   11  O   UNL     1     -42.224 -48.189  10.282  1.00  0.00    -0.532 OA
ENDBRANCH   7   9
ENDBRANCH   1   2
BRANCH   1  12
HETATM   12  C   UNL     1     -41.962 -52.742  13.136  1.00  0.00     0.235 C 
HETATM   13  O   UNL     1     -41.888 -52.203  14.241  1.00  0.00    -0.272 OA
HETATM   14  N   UNL     1     -42.982 -53.618  12.806  1.00  0.00    -0.359 N 
HETATM   15  H   UNL     1     -42.899 -54.163  11.951  1.00  0.00     0.162 HD
BRANCH  14  16
HETATM   16  C   UNL     1     -43.943 -53.991  13.830  1.00  0.00     0.127 C 
BRANCH  16  17
HETATM   17  C   UNL     1     -45.423 -53.908  13.411  1.00  0.00     0.003 C 
HETATM   18  C   UNL     1     -45.669 -52.631  12.578  1.00  0.00     0.006 C 
HETATM   19  C   UNL     1     -45.728 -51.357  13.422  1.00  0.00     0.000 C 
HETATM   20  C   UNL     1     -46.781 -51.474  14.516  1.00  0.00     0.000 C 
HETATM   21  C   UNL     1     -46.522 -52.689  15.400  1.00  0.00     0.000 C 
HETATM   22  C   UNL     1     -46.413 -53.980  14.588  1.00  0.00     0.006 C 
ENDBRANCH  16  17
ENDBRANCH  14  16
ENDBRANCH   1  12
TORSDOF 5
ENDMDL
MODEL 3
REMARK VINA RESULT:      -6.1      1.515      2.108
REMARK  5 active torsions:
REMARK  status: ('A' for Active; 'I' for Inactive)
REMARK    1  A    between atoms: N_2  and  C_4 
REMARK    2  A    between atoms: N_9  and  C_10 
REMARK    3  A    between atoms: C_10  and  C_11 
REMARK       I    between atoms: C_11  and  N_13 
REMARK    4  A    between atoms: N_13  and  C_14 
REMARK    5  A    between atoms: C_14  and  C_15 
ROOT
HETATM    1  C   UNL     1     -40.547 -49.462  11.214  1.00  0.00     0.234 C 
ENDROOT
BRANCH   1   2
HETATM    2  N   UNL     1     -41.117 -48.141  10.944  1.00  0.00    -0.314 N 
HETATM    3  C   UNL     1     -40.577 -47.038  11.601  1.00  0.00     0.247 A 
HETATM    4  C   UNL     1     -41.239 -45.731  11.333  1.00  0.00     0.077 A 
HETATM    5  O   UNL     1     -39.604 -47.087  12.346  1.00  0.00    -0.268 OA
HETATM    6  C   UNL     1     -42.251 -45.646  10.453  1.00  0.00     0.043 A 
HETATM    7  C   UNL     1     -42.726 -46.833   9.777  1.00  0.00     0.118 A 
HETATM    8  C   UNL     1     -42.168 -48.028  10.037  1.00  0.00     0.130 A 
BRANCH   7   9
HETATM    9  N   UNL     1     -43.822 -46.772   8.812  1.00  0.00    -0.114 N 
HETATM   10  O   UNL     1     -43.970 -47.717   8.026  1.00  0.00    -0.532 OA
HETATM   11  O   UNL     1     -44.547 -45.766   8.843  1.00  0.00    -0.532 OA
ENDBRANCH   7   9
ENDBRANCH   1   2
BRANCH   1  12
HETATM   12  C   UNL     1     -41.261 -50.226  12.332  1.00  0.00     0.235 C 
HETATM   13  O   UNL     1     -40.774 -50.285  13.462  1.00  0.00    -0.272 OA
HETATM   14  N   UNL     1     -42.402 -50.925  11.980  1.00  0.00    -0.359 N 
HETATM   15  H   UNL     1     -42.657 -50.978  10.997  1.00  0.00     0.162 HD
BRANCH  14  16
HETATM   16  C   UNL     1     -42.990 -51.838  12.946  1.00  0.00     0.127 C 
BRANCH  16  17
HETATM   17  C   UNL     1     -42.939 -53.329  12.566  1.00  0.00     0.003 C 
HETATM   18  C   UNL     1     -44.286 -54.009  12.900  1.00  0.00     0.006 C 
HETATM   19  C   UNL     1     -44.472 -54.287  14.392  1.00  0.00     0.000 C 
HETATM   20  C   UNL     1     -43.321 -55.119  14.941  1.00  0.00     0.000 C 
HETATM   21  C   UNL     1     -41.981 -54.437  14.689  1.00  0.00     0.000 C 
HETATM   22  C   UNL     1     -41.774 -54.102  13.211  1.00  0.00     0.006 C 
ENDBRANCH  16  17
ENDBRANCH  14  16
ENDBRANCH   1  12
TORSDOF 5
ENDMDL
MODEL 4
REMARK VINA RESULT:      -6.1      3.184      6.906
REMARK  5 active torsions:
REMARK  status: ('A' for Active; 'I' for Inactive)
REMARK    1  A    between atoms: N_2  and  C_4 
REMARK    2  A    between atoms: N_9  and  C_10 
REMARK    3  A    between atoms: C_10  and  C_11 
REMARK       I    between atoms: C_11  and  N_13 
REMARK    4  A    between atoms: N_13  and  C_14 
REMARK    5  A    between atoms: C_14  and  C_15 
ROOT
HETATM    1  C   UNL     1     -41.110 -52.746  11.842  1.00  0.00     0.234 C 
ENDROOT
BRANCH   1   2
HETATM    2  N   UNL     1     -42.126 -53.314  12.729  1.00  0.00    -0.314 N 
HETATM    3  C   UNL     1     -41.713 -54.161  13.755  1.00  0.00     0.247 A 
HETATM    4  C   UNL     1     -42.797 -54.757  14.584  1.00  0.00     0.077 A 
HETATM    5  O   UNL     1     -40.540 -54.413  14.013  1.00  0.00    -0.268 OA
HETATM    6  C   UNL     1     -44.082 -54.425  14.371  1.00  0.00     0.043 A 
HETATM    7  C   UNL     1     -44.426 -53.502  13.311  1.00  0.00     0.118 A 
HETATM    8  C   UNL     1     -43.464 -52.986  12.526  1.00  0.00     0.130 A 
BRANCH   7   9
HETATM    9  N   UNL     1     -45.812 -53.118  13.057  1.00  0.00    -0.114 N 
HETATM   10  O   UNL     1     -46.128 -52.771  11.911  1.00  0.00    -0.532 OA
HETATM   11  O   UNL     1     -46.597 -53.167  14.016  1.00  0.00    -0.532 OA
ENDBRANCH   7   9
ENDBRANCH   1   2
BRANCH   1  12
HETATM   12  C   UNL     1     -40.807 -51.271  12.113  1.00  0.00     0.235 C 
HETATM   13  O   UNL     1     -40.800 -50.832  13.265  1.00  0.00    -0.272 OA
HETATM   14  N   UNL     1     -40.656 -50.452  11.008  1.00  0.00    -0.359 N 
HETATM   15  H   UNL     1     -40.843 -50.838  10.086  1.00  0.00     0.162 HD
BRANCH  14  16
HETATM   16  C   UNL     1     -40.586 -49.014  11.207  1.00  0.00     0.127 C 
BRANCH  16  17
HETATM   17  C   UNL     1     -41.827 -48.221  10.755  1.00  0.00     0.003 C 
HETATM   18  C   UNL     1     -41.456 -46.739  10.528  1.00  0.00     0.006 C 
HETATM   19  C   UNL     1     -41.292 -45.947  11.826  1.00  0.00     0.000 C 
HETATM   20  C   UNL     1     -42.546 -46.043  12.686  1.00  0.00     0.000 C 
HETATM   21  C   UNL     1     -42.896 -47.496  12.987  1.00  0.00     0.000 C 
HETATM   22  C   UNL     1     -43.026 -48.333  11.714  1.00  0.00     0.006 C 
ENDBRANCH  16  17
ENDBRANCH  14  16
ENDBRANCH   1  12
TORSDOF 5
ENDMDL
MODEL 5
REMARK VINA RESULT:      -6.0      3.051      4.033
REMARK  5 active torsions:
REMARK  status: ('A' for Active; 'I' for Inactive)
REMARK    1  A    between atoms: N_2  and  C_4 
REMARK    2  A    between atoms: N_9  and  C_10 
REMARK    3  A    between atoms: C_10  and  C_11 
REMARK       I    between atoms: C_11  and  N_13 
REMARK    4  A    between atoms: N_13  and  C_14 
REMARK    5  A    between atoms: C_14  and  C_15 
ROOT
HETATM    1  C   UNL     1     -42.080 -49.766  12.305  1.00  0.00     0.234 C 
ENDROOT
BRANCH   1   2
HETATM    2  N   UNL     1     -40.694 -49.412  12.617  1.00  0.00    -0.314 N 
HETATM    3  C   UNL     1     -40.460 -48.394  13.538  1.00  0.00     0.247 A 
HETATM    4  C   UNL     1     -39.032 -48.037  13.766  1.00  0.00     0.077 A 
HETATM    5  O   UNL     1     -41.341 -47.814  14.165  1.00  0.00    -0.268 OA
HETATM    6  C   UNL     1     -38.051 -48.721  13.154  1.00  0.00     0.043 A 
HETATM    7  C   UNL     1     -38.376 -49.796  12.243  1.00  0.00     0.118 A 
HETATM    8  C   UNL     1     -39.660 -50.105  11.993  1.00  0.00     0.130 A 
BRANCH   7   9
HETATM    9  N   UNL     1     -37.332 -50.561  11.565  1.00  0.00    -0.114 N 
HETATM   10  O   UNL     1     -36.910 -50.148  10.476  1.00  0.00    -0.532 OA
HETATM   11  O   UNL     1     -36.926 -51.588  12.130  1.00  0.00    -0.532 OA
ENDBRANCH   7   9
ENDBRANCH   1   2
BRANCH   1  12
HETATM   12  C   UNL     1     -42.614 -50.949  13.116  1.00  0.00     0.235 C 
HETATM   13  O   UNL     1     -42.103 -51.252  14.195  1.00  0.00    -0.272 OA
HETATM   14  N   UNL     1     -43.606 -51.712  12.526  1.00  0.00    -0.359 N 
HETATM   15  H   UNL     1     -43.865 -51.514  11.562  1.00  0.00     0.162 HD
BRANCH  14  16
HETATM   16  C   UNL     1     -43.992 -52.965  13.152  1.00  0.00     0.127 C 
BRANCH  16  17
HETATM   17  C   UNL     1     -45.480 -53.341  13.023  1.00  0.00     0.003 C 
HETATM   18  C   UNL     1     -46.346 -52.064  12.949  1.00  0.00     0.006 C 
HETATM   19  C   UNL     1     -46.529 -51.374  14.302  1.00  0.00     0.000 C 
HETATM   20  C   UNL     1     -47.108 -52.335  15.332  1.00  0.00     0.000 C 
HETATM   21  C   UNL     1     -46.234 -53.576  15.478  1.00  0.00     0.000 C 
HETATM   22  C   UNL     1     -45.991 -54.272  14.138  1.00  0.00     0.006 C 
ENDBRANCH  16  17
ENDBRANCH  14  16
ENDBRANCH   1  12
TORSDOF 5
ENDMDL
MODEL 6
REMARK VINA RESULT:      -5.9      3.798      7.430
REMARK  5 active torsions:
REMARK  status: ('A' for Active; 'I' for Inactive)
REMARK    1  A    between atoms: N_2  and  C_4 
REMARK    2  A    between atoms: N_9  and  C_10 
REMARK    3  A    between atoms: C_10  and  C_11 
REMARK       I    between atoms: C_11  and  N_13 
REMARK    4  A    between atoms: N_13  and  C_14 
REMARK    5  A    between atoms: C_14  and  C_15 
ROOT
HETATM    1  C   UNL     1     -41.666 -52.296  14.183  1.00  0.00     0.234 C 
ENDROOT
BRANCH   1   2
HETATM    2  N   UNL     1     -42.930 -53.012  14.007  1.00  0.00    -0.314 N 
HETATM    3  C   UNL     1     -43.003 -54.342  14.417  1.00  0.00     0.247 A 
HETATM    4  C   UNL     1     -44.295 -55.034  14.154  1.00  0.00     0.077 A 
HETATM    5  O   UNL     1     -42.094 -54.940  14.983  1.00  0.00    -0.268 OA
HETATM    6  C   UNL     1     -45.330 -54.369  13.614  1.00  0.00     0.043 A 
HETATM    7  C   UNL     1     -45.188 -52.975  13.255  1.00  0.00     0.118 A 
HETATM    8  C   UNL     1     -44.016 -52.344  13.447  1.00  0.00     0.130 A 
BRANCH   7   9
HETATM    9  N   UNL     1     -46.295 -52.223  12.670  1.00  0.00    -0.114 N 
HETATM   10  O   UNL     1     -46.651 -52.497  11.516  1.00  0.00    -0.532 OA
HETATM   11  O   UNL     1     -46.819 -51.346  13.376  1.00  0.00    -0.532 OA
ENDBRANCH   7   9
ENDBRANCH   1   2
BRANCH   1  12
HETATM   12  C   UNL     1     -40.988 -51.906  12.867  1.00  0.00     0.235 C 
HETATM   13  O   UNL     1     -40.411 -52.751  12.182  1.00  0.00    -0.272 OA
HETATM   14  N   UNL     1     -40.963 -50.557  12.555  1.00  0.00    -0.359 N 
HETATM   15  H   UNL     1     -41.304 -49.891  13.243  1.00  0.00     0.162 HD
BRANCH  14  16
HETATM   16  C   UNL     1     -40.148 -50.112  11.437  1.00  0.00     0.127 C 
BRANCH  16  17
HETATM   17  C   UNL     1     -38.958 -49.207  11.804  1.00  0.00     0.003 C 
HETATM   18  C   UNL     1     -37.628 -49.958  11.573  1.00  0.00     0.006 C 
HETATM   19  C   UNL     1     -37.315 -50.987  12.660  1.00  0.00     0.000 C 
HETATM   20  C   UNL     1     -37.314 -50.343  14.040  1.00  0.00     0.000 C 
HETATM   21  C   UNL     1     -38.644 -49.653  14.324  1.00  0.00     0.000 C 
HETATM   22  C   UNL     1     -39.015 -48.645  13.236  1.00  0.00     0.006 C 
ENDBRANCH  16  17
ENDBRANCH  14  16
ENDBRANCH   1  12
TORSDOF 5
ENDMDL
MODEL 7
REMARK VINA RESULT:      -5.9      2.943      7.243
REMARK  5 active torsions:
REMARK  status: ('A' for Active; 'I' for Inactive)
REMARK    1  A    between atoms: N_2  and  C_4 
REMARK    2  A    between atoms: N_9  and  C_10 
REMARK    3  A    between atoms: C_10  and  C_11 
REMARK       I    between atoms: C_11  and  N_13 
REMARK    4  A    between atoms: N_13  and  C_14 
REMARK    5  A    between atoms: C_14  and  C_15 
ROOT
HETATM    1  C   UNL     1     -40.798 -51.505  11.814  1.00  0.00     0.234 C 
ENDROOT
BRANCH   1   2
HETATM    2  N   UNL     1     -41.492 -52.505  12.628  1.00  0.00    -0.314 N 
HETATM    3  C   UNL     1     -40.775 -53.164  13.624  1.00  0.00     0.247 A 
HETATM    4  C   UNL     1     -41.518 -54.214  14.375  1.00  0.00     0.077 A 
HETATM    5  O   UNL     1     -39.610 -52.914  13.916  1.00  0.00    -0.268 OA
HETATM    6  C   UNL     1     -42.819 -54.440  14.127  1.00  0.00     0.043 A 
HETATM    7  C   UNL     1     -43.505 -53.681  13.104  1.00  0.00     0.118 A 
HETATM    8  C   UNL     1     -42.840 -52.758  12.387  1.00  0.00     0.130 A 
BRANCH   7   9
HETATM    9  N   UNL     1     -44.920 -53.901  12.813  1.00  0.00    -0.114 N 
HETATM   10  O   UNL     1     -45.530 -53.041  12.165  1.00  0.00    -0.532 OA
HETATM   11  O   UNL     1     -45.427 -54.951  13.236  1.00  0.00    -0.532 OA
ENDBRANCH   7   9
ENDBRANCH   1   2
BRANCH   1  12
HETATM   12  C   UNL     1     -41.256 -50.069  12.076  1.00  0.00     0.235 C 
HETATM   13  O   UNL     1     -41.273 -49.613  13.220  1.00  0.00    -0.272 OA
HETATM   14  N   UNL     1     -41.749 -49.364  10.991  1.00  0.00    -0.359 N 
HETATM   15  H   UNL     1     -41.869 -49.852  10.107  1.00  0.00     0.162 HD
BRANCH  14  16
HETATM   16  C   UNL     1     -42.396 -48.084  11.222  1.00  0.00     0.127 C 
BRANCH  16  17
HETATM   17  C   UNL     1     -41.723 -46.870  10.554  1.00  0.00     0.003 C 
HETATM   18  C   UNL     1     -40.271 -46.723  11.060  1.00  0.00     0.006 C 
HETATM   19  C   UNL     1     -40.174 -46.134  12.469  1.00  0.00     0.000 C 
HETATM   20  C   UNL     1     -40.891 -44.793  12.551  1.00  0.00     0.000 C 
HETATM   21  C   UNL     1     -42.349 -44.923  12.125  1.00  0.00     0.000 C 
HETATM   22  C   UNL     1     -42.491 -45.548  10.736  1.00  0.00     0.006 C 
ENDBRANCH  16  17
ENDBRANCH  14  16
ENDBRANCH   1  12
TORSDOF 5
ENDMDL
MODEL 8
REMARK VINA RESULT:      -5.8      2.887      4.452
REMARK  5 active torsions:
REMARK  status: ('A' for Active; 'I' for Inactive)
REMARK    1  A    between atoms: N_2  and  C_4 
REMARK    2  A    between atoms: N_9  and  C_10 
REMARK    3  A    between atoms: C_10  and  C_11 
REMARK       I    between atoms: C_11  and  N_13 
REMARK    4  A    between atoms: N_13  and  C_14 
REMARK    5  A    between atoms: C_14  and  C_15 
ROOT
HETATM    1  C   UNL     1     -41.226 -49.755  11.790  1.00  0.00     0.234 C 
ENDROOT
BRANCH   1   2
HETATM    2  N   UNL     1     -39.997 -49.885  12.576  1.00  0.00    -0.314 N 
HETATM    3  C   UNL     1     -39.498 -51.163  12.820  1.00  0.00     0.247 A 
HETATM    4  C   UNL     1     -38.282 -51.233  13.678  1.00  0.00     0.077 A 
HETATM    5  O   UNL     1     -39.982 -52.193  12.362  1.00  0.00    -0.268 OA
HETATM    6  C   UNL     1     -37.689 -50.111  14.117  1.00  0.00     0.043 A 
HETATM    7  C   UNL     1     -38.246 -48.818  13.782  1.00  0.00     0.118 A 
HETATM    8  C   UNL     1     -39.366 -48.736  13.044  1.00  0.00     0.130 A 
BRANCH   7   9
HETATM    9  N   UNL     1     -37.623 -47.579  14.241  1.00  0.00    -0.114 N 
HETATM   10  O   UNL     1     -38.255 -46.521  14.125  1.00  0.00    -0.532 OA
HETATM   11  O   UNL     1     -36.484 -47.666  14.728  1.00  0.00    -0.532 OA
ENDBRANCH   7   9
ENDBRANCH   1   2
BRANCH   1  12
HETATM   12  C   UNL     1     -42.497 -49.681  12.639  1.00  0.00     0.235 C 
HETATM   13  O   UNL     1     -42.756 -48.673  13.297  1.00  0.00    -0.272 OA
HETATM   14  N   UNL     1     -43.265 -50.831  12.712  1.00  0.00    -0.359 N 
HETATM   15  H   UNL     1     -42.909 -51.683  12.286  1.00  0.00     0.162 HD
BRANCH  14  16
HETATM   16  C   UNL     1     -44.356 -50.884  13.671  1.00  0.00     0.127 C 
BRANCH  16  17
HETATM   17  C   UNL     1     -45.681 -51.458  13.136  1.00  0.00     0.003 C 
HETATM   18  C   UNL     1     -46.760 -51.423  14.241  1.00  0.00     0.006 C 
HETATM   19  C   UNL     1     -46.588 -52.519  15.294  1.00  0.00     0.000 C 
HETATM   20  C   UNL     1     -46.552 -53.897  14.647  1.00  0.00     0.000 C 
HETATM   21  C   UNL     1     -45.448 -53.984  13.600  1.00  0.00     0.000 C 
HETATM   22  C   UNL     1     -45.559 -52.877  12.550  1.00  0.00     0.006 C 
ENDBRANCH  16  17
ENDBRANCH  14  16
ENDBRANCH   1  12
TORSDOF 5
ENDMDL
MODEL 9
REMARK VINA RESULT:      -5.8      5.161      6.906
REMARK  5 active torsions:
REMARK  status: ('A' for Active; 'I' for Inactive)
REMARK    1  A    between atoms: N_2  and  C_4 
REMARK    2  A    between atoms: N_9  and  C_10 
REMARK    3  A    between atoms: C_10  and  C_11 
REMARK       I    between atoms: C_11  and  N_13 
REMARK    4  A    between atoms: N_13  and  C_14 
REMARK    5  A    between atoms: C_14  and  C_15 
ROOT
HETATM    1  C   UNL     1     -44.747 -53.432  12.636  1.00  0.00     0.234 C 
ENDROOT
BRANCH   1   2
HETATM    2  N   UNL     1     -43.596 -53.883  13.421  1.00  0.00    -0.314 N 
HETATM    3  C   UNL     1     -43.820 -54.750  14.489  1.00  0.00     0.247 A 
HETATM    4  C   UNL     1     -42.620 -55.122  15.288  1.00  0.00     0.077 A 
HETATM    5  O   UNL     1     -44.915 -55.220  14.779  1.00  0.00    -0.268 OA
HETATM    6  C   UNL     1     -41.400 -54.685  14.933  1.00  0.00     0.043 A 
HETATM    7  C   UNL     1     -41.245 -53.823  13.782  1.00  0.00     0.118 A 
HETATM    8  C   UNL     1     -42.322 -53.442  13.073  1.00  0.00     0.130 A 
BRANCH   7   9
HETATM    9  N   UNL     1     -39.932 -53.334  13.368  1.00  0.00    -0.114 N 
HETATM   10  O   UNL     1     -39.875 -52.319  12.661  1.00  0.00    -0.532 OA
HETATM   11  O   UNL     1     -38.942 -53.973  13.758  1.00  0.00    -0.532 OA
ENDBRANCH   7   9
ENDBRANCH   1   2
BRANCH   1  12
HETATM   12  C   UNL     1     -45.507 -52.264  13.267  1.00  0.00     0.235 C 
HETATM   13  O   UNL     1     -45.252 -51.102  12.948  1.00  0.00    -0.272 OA
HETATM   14  N   UNL     1     -46.398 -52.575  14.280  1.00  0.00    -0.359 N 
HETATM   15  H   UNL     1     -46.437 -53.534  14.617  1.00  0.00     0.162 HD
BRANCH  14  16
HETATM   16  C   UNL     1     -46.979 -51.494  15.058  1.00  0.00     0.127 C 
BRANCH  16  17
HETATM   17  C   UNL     1     -46.180 -51.071  16.305  1.00  0.00     0.003 C 
HETATM   18  C   UNL     1     -45.362 -52.266  16.843  1.00  0.00     0.006 C 
HETATM   19  C   UNL     1     -46.208 -53.288  17.602  1.00  0.00     0.000 C 
HETATM   20  C   UNL     1     -46.972 -52.628  18.742  1.00  0.00     0.000 C 
HETATM   21  C   UNL     1     -47.845 -51.488  18.229  1.00  0.00     0.000 C 
HETATM   22  C   UNL     1     -47.043 -50.463  17.426  1.00  0.00     0.006 C 
ENDBRANCH  16  17
ENDBRANCH  14  16
ENDBRANCH   1  12
TORSDOF 5
ENDMDL
