MODEL 1
REMARK VINA RESULT:      -6.3      0.000      0.000
REMARK  5 active torsions:
REMARK  status: ('A' for Active; 'I' for Inactive)
REMARK    1  A    between atoms: C_2  and  O_3 
REMARK    2  A    between atoms: O_3  and  C_4 
REMARK    3  A    between atoms: C_10  and  N_11 
REMARK       I    between atoms: N_11  and  C_12 
REMARK       I    between atoms: C_12  and  N_14 
REMARK    4  A    between atoms: N_14  and  C_15 
REMARK    5  A    between atoms: C_18  and  O_19 
ROOT
HETATM    1  N   UNL     1     -42.357 -49.296  11.399  1.00  0.00    -0.305 N 
HETATM    2  C   UNL     1     -42.997 -49.519  12.599  1.00  0.00     0.321 C 
HETATM    3  O   UNL     1     -43.164 -48.674  13.469  1.00  0.00    -0.247 OA
HETATM    4  N   UNL     1     -43.478 -50.806  12.715  1.00  0.00    -0.338 N 
HETATM    5  H   UNL     1     -42.772 -49.752  10.598  1.00  0.00     0.171 HD
HETATM    6  H   UNL     1     -43.115 -51.512  12.090  1.00  0.00     0.164 HD
ENDROOT
BRANCH   1   7
HETATM    7  C   UNL     1     -41.692 -48.077  11.109  1.00  0.00     0.087 A 
HETATM    8  C   UNL     1     -42.286 -47.121  10.276  1.00  0.00     0.169 A 
HETATM    9  N   UNL     1     -41.700 -45.948   9.934  1.00  0.00    -0.345 N 
HETATM   10  C   UNL     1     -40.473 -45.708  10.444  1.00  0.00     0.090 A 
ATOM     11  HN  UNL     1     -42.163 -45.279   9.320  1.00  0.00     0.167 HD
HETATM   12  C   UNL     1     -39.799 -46.589  11.271  1.00  0.00     0.019 A 
HETATM   13  C   UNL     1     -40.420 -47.790  11.605  1.00  0.00     0.035 A 
BRANCH   8  14
HETATM   14  O   UNL     1     -43.582 -47.377   9.852  1.00  0.00    -0.334 OA
BRANCH  14  15
HETATM   15  C   UNL     1     -43.837 -46.900   8.529  1.00  0.00     0.173 C 
HETATM   16  C   UNL     1     -43.474 -47.997   7.544  1.00  0.00     0.034 C 
ENDBRANCH  14  15
ENDBRANCH   8  14
ENDBRANCH   1   7
BRANCH   4  17
HETATM   17  C   UNL     1     -44.350 -51.176  13.827  1.00  0.00     0.086 C 
HETATM   18  C   UNL     1     -43.874 -52.422  14.580  1.00  0.00     0.028 C 
HETATM   19  C   UNL     1     -44.081 -53.728  13.815  1.00  0.00     0.034 C 
HETATM   20  C   UNL     1     -45.483 -53.881  13.223  1.00  0.00     0.118 C 
HETATM   21  C   UNL     1     -45.991 -52.621  12.522  1.00  0.00     0.034 C 
HETATM   22  C   UNL     1     -45.797 -51.350  13.352  1.00  0.00     0.028 C 
BRANCH  20  23
HETATM   23  O   UNL     1     -46.395 -54.279  14.242  1.00  0.00    -0.396 OA
HETATM   24  H   UNL     1     -46.034 -54.031  15.107  1.00  0.00     0.210 HD
ENDBRANCH  20  23
ENDBRANCH   4  17
TORSDOF 5
ENDMDL
MODEL 2
REMARK VINA RESULT:      -6.3      2.993      6.735
REMARK  5 active torsions:
REMARK  status: ('A' for Active; 'I' for Inactive)
REMARK    1  A    between atoms: C_2  and  O_3 
REMARK    2  A    between atoms: O_3  and  C_4 
REMARK    3  A    between atoms: C_10  and  N_11 
REMARK       I    between atoms: N_11  and  C_12 
REMARK       I    between atoms: C_12  and  N_14 
REMARK    4  A    between atoms: N_14  and  C_15 
REMARK    5  A    between atoms: C_18  and  O_19 
ROOT
HETATM    1  N   UNL     1     -41.112 -50.597  11.537  1.00  0.00    -0.305 N 
HETATM    2  C   UNL     1     -42.141 -49.764  11.918  1.00  0.00     0.321 C 
HETATM    3  O   UNL     1     -42.704 -49.800  13.005  1.00  0.00    -0.247 OA
HETATM    4  N   UNL     1     -42.461 -48.836  10.949  1.00  0.00    -0.338 N 
HETATM    5  H   UNL     1     -40.376 -50.156  11.000  1.00  0.00     0.171 HD
HETATM    6  H   UNL     1     -42.141 -48.999  10.005  1.00  0.00     0.164 HD
ENDROOT
BRANCH   1   7
HETATM    7  C   UNL     1     -40.688 -51.693  12.333  1.00  0.00     0.087 A 
HETATM    8  C   UNL     1     -39.538 -51.597  13.126  1.00  0.00     0.169 A 
HETATM    9  N   UNL     1     -39.060 -52.610  13.888  1.00  0.00    -0.345 N 
HETATM   10  C   UNL     1     -39.755 -53.767  13.871  1.00  0.00     0.090 A 
ATOM     11  HN  UNL     1     -38.215 -52.502  14.449  1.00  0.00     0.167 HD
HETATM   12  C   UNL     1     -40.900 -53.964  13.120  1.00  0.00     0.019 A 
HETATM   13  C   UNL     1     -41.369 -52.910  12.340  1.00  0.00     0.035 A 
BRANCH   8  14
HETATM   14  O   UNL     1     -38.913 -50.360  13.176  1.00  0.00    -0.334 OA
BRANCH  14  15
HETATM   15  C   UNL     1     -37.552 -50.408  12.741  1.00  0.00     0.173 C 
HETATM   16  C   UNL     1     -37.487 -49.911  11.308  1.00  0.00     0.034 C 
ENDBRANCH  14  15
ENDBRANCH   8  14
ENDBRANCH   1   7
BRANCH   4  17
HETATM   17  C   UNL     1     -43.391 -47.748  11.241  1.00  0.00     0.086 C 
HETATM   18  C   UNL     1     -44.530 -47.637  10.222  1.00  0.00     0.028 C 
HETATM   19  C   UNL     1     -44.099 -47.077   8.867  1.00  0.00     0.034 C 
HETATM   20  C   UNL     1     -43.251 -45.808   8.964  1.00  0.00     0.118 C 
HETATM   21  C   UNL     1     -42.150 -45.889  10.022  1.00  0.00     0.034 C 
HETATM   22  C   UNL     1     -42.647 -46.414  11.370  1.00  0.00     0.028 C 
BRANCH  20  23
HETATM   23  O   UNL     1     -44.091 -44.685   9.213  1.00  0.00    -0.396 OA
HETATM   24  H   UNL     1     -44.632 -44.511   8.427  1.00  0.00     0.210 HD
ENDBRANCH  20  23
ENDBRANCH   4  17
TORSDOF 5
ENDMDL
MODEL 3
REMARK VINA RESULT:      -6.0      2.851      3.815
REMARK  5 active torsions:
REMARK  status: ('A' for Active; 'I' for Inactive)
REMARK    1  A    between atoms: C_2  and  O_3 
REMARK    2  A    between atoms: O_3  and  C_4 
REMARK    3  A    between atoms: C_10  and  N_11 
REMARK       I    between atoms: N_11  and  C_12 
REMARK       I    between atoms: C_12  and  N_14 
REMARK    4  A    between atoms: N_14  and  C_15 
REMARK    5  A    between atoms: C_18  and  O_19 
ROOT
HETATM    1  N   UNL     1     -40.773 -51.535  13.506  1.00  0.00    -0.305 N 
HETATM    2  C   UNL     1     -41.383 -52.713  13.135  1.00  0.00     0.321 C 
HETATM    3  O   UNL     1     -40.956 -53.483  12.284  1.00  0.00    -0.247 OA
HETATM    4  N   UNL     1     -42.530 -52.969  13.856  1.00  0.00    -0.338 N 
HETATM    5  H   UNL     1     -40.801 -51.328  14.496  1.00  0.00     0.171 HD
HETATM    6  H   UNL     1     -42.958 -52.207  14.363  1.00  0.00     0.164 HD
ENDROOT
BRANCH   1   7
HETATM    7  C   UNL     1     -39.639 -51.019  12.826  1.00  0.00     0.087 A 
HETATM    8  C   UNL     1     -39.793 -50.198  11.702  1.00  0.00     0.169 A 
HETATM    9  N   UNL     1     -38.759 -49.693  10.988  1.00  0.00    -0.345 N 
HETATM   10  C   UNL     1     -37.516 -50.009  11.409  1.00  0.00     0.090 A 
ATOM     11  HN  UNL     1     -38.912 -49.102  10.171  1.00  0.00     0.167 HD
HETATM   12  C   UNL     1     -37.256 -50.814  12.504  1.00  0.00     0.019 A 
HETATM   13  C   UNL     1     -38.336 -51.326  13.219  1.00  0.00     0.035 A 
BRANCH   8  14
HETATM   14  O   UNL     1     -41.089 -49.833  11.366  1.00  0.00    -0.334 OA
BRANCH  14  15
HETATM   15  C   UNL     1     -41.199 -48.457  10.995  1.00  0.00     0.173 C 
HETATM   16  C   UNL     1     -42.667 -48.073  11.001  1.00  0.00     0.034 C 
ENDBRANCH  14  15
ENDBRANCH   8  14
ENDBRANCH   1   7
BRANCH   4  17
HETATM   17  C   UNL     1     -43.207 -54.258  13.741  1.00  0.00     0.086 C 
HETATM   18  C   UNL     1     -44.385 -54.237  12.762  1.00  0.00     0.028 C 
HETATM   19  C   UNL     1     -45.613 -53.493  13.282  1.00  0.00     0.034 C 
HETATM   20  C   UNL     1     -46.019 -53.887  14.704  1.00  0.00     0.118 C 
HETATM   21  C   UNL     1     -44.840 -53.970  15.673  1.00  0.00     0.034 C 
HETATM   22  C   UNL     1     -43.656 -54.763  15.118  1.00  0.00     0.028 C 
BRANCH  20  23
HETATM   23  O   UNL     1     -46.722 -55.126  14.678  1.00  0.00    -0.396 OA
HETATM   24  H   UNL     1     -47.670 -54.951  14.574  1.00  0.00     0.210 HD
ENDBRANCH  20  23
ENDBRANCH   4  17
TORSDOF 5
ENDMDL
MODEL 4
REMARK VINA RESULT:      -5.9      1.478      2.684
REMARK  5 active torsions:
REMARK  status: ('A' for Active; 'I' for Inactive)
REMARK    1  A    between atoms: C_2  and  O_3 
REMARK    2  A    between atoms: O_3  and  C_4 
REMARK    3  A    between atoms: C_10  and  N_11 
REMARK       I    between atoms: N_11  and  C_12 
REMARK       I    between atoms: C_12  and  N_14 
REMARK    4  A    between atoms: N_14  and  C_15 
REMARK    5  A    between atoms: C_18  and  O_19 
ROOT
HETATM    1  N   UNL     1     -42.531 -49.345  11.449  1.00  0.00    -0.305 N 
HETATM    2  C   UNL     1     -43.107 -49.573  12.679  1.00  0.00     0.321 C 
HETATM    3  O   UNL     1     -43.175 -48.749  13.582  1.00  0.00    -0.247 OA
HETATM    4  N   UNL     1     -43.648 -50.837  12.788  1.00  0.00    -0.338 N 
HETATM    5  H   UNL     1     -43.018 -49.753  10.662  1.00  0.00     0.171 HD
HETATM    6  H   UNL     1     -43.361 -51.540  12.122  1.00  0.00     0.164 HD
ENDROOT
BRANCH   1   7
HETATM    7  C   UNL     1     -41.821 -48.153  11.152  1.00  0.00     0.087 A 
HETATM    8  C   UNL     1     -40.428 -48.100  11.286  1.00  0.00     0.169 A 
HETATM    9  N   UNL     1     -39.688 -46.990  11.047  1.00  0.00    -0.345 N 
HETATM   10  C   UNL     1     -40.356 -45.885  10.651  1.00  0.00     0.090 A 
ATOM     11  HN  UNL     1     -38.675 -46.989  11.160  1.00  0.00     0.167 HD
HETATM   12  C   UNL     1     -41.730 -45.833  10.493  1.00  0.00     0.019 A 
HETATM   13  C   UNL     1     -42.469 -46.985  10.750  1.00  0.00     0.035 A 
BRANCH   8  14
HETATM   14  O   UNL     1     -39.783 -49.285  11.609  1.00  0.00    -0.334 OA
BRANCH  14  15
HETATM   15  C   UNL     1     -38.464 -49.078  12.118  1.00  0.00     0.173 C 
HETATM   16  C   UNL     1     -37.498 -49.925  11.309  1.00  0.00     0.034 C 
ENDBRANCH  14  15
ENDBRANCH   8  14
ENDBRANCH   1   7
BRANCH   4  17
HETATM   17  C   UNL     1     -44.468 -51.197  13.942  1.00  0.00     0.086 C 
HETATM   18  C   UNL     1     -43.977 -52.456  14.663  1.00  0.00     0.028 C 
HETATM   19  C   UNL     1     -44.248 -53.753  13.903  1.00  0.00     0.034 C 
HETATM   20  C   UNL     1     -45.682 -53.877  13.383  1.00  0.00     0.118 C 
HETATM   21  C   UNL     1     -46.201 -52.604  12.716  1.00  0.00     0.034 C 
HETATM   22  C   UNL     1     -45.941 -51.342  13.541  1.00  0.00     0.028 C 
BRANCH  20  23
HETATM   23  O   UNL     1     -46.548 -54.264  14.445  1.00  0.00    -0.396 OA
HETATM   24  H   UNL     1     -46.019 -54.632  15.170  1.00  0.00     0.210 HD
ENDBRANCH  20  23
ENDBRANCH   4  17
TORSDOF 5
ENDMDL
MODEL 5
REMARK VINA RESULT:      -5.6      3.579      5.140
REMARK  5 active torsions:
REMARK  status: ('A' for Active; 'I' for Inactive)
REMARK    1  A    between atoms: C_2  and  O_3 
REMARK    2  A    between atoms: O_3  and  C_4 
REMARK    3  A    between atoms: C_10  and  N_11 
REMARK       I    between atoms: N_11  and  C_12 
REMARK       I    between atoms: C_12  and  N_14 
REMARK    4  A    between atoms: N_14  and  C_15 
REMARK    5  A    between atoms: C_18  and  O_19 
ROOT
HETATM    1  N   UNL     1     -41.515 -51.079  13.223  1.00  0.00    -0.305 N 
HETATM    2  C   UNL     1     -42.338 -51.931  12.519  1.00  0.00     0.321 C 
HETATM    3  O   UNL     1     -41.969 -52.670  11.616  1.00  0.00    -0.247 OA
HETATM    4  N   UNL     1     -43.643 -51.900  12.964  1.00  0.00    -0.338 N 
HETATM    5  H   UNL     1     -41.707 -51.015  14.214  1.00  0.00     0.171 HD
HETATM    6  H   UNL     1     -43.937 -51.119  13.534  1.00  0.00     0.164 HD
ENDROOT
BRANCH   1   7
HETATM    7  C   UNL     1     -40.158 -50.869  12.869  1.00  0.00     0.087 A 
HETATM    8  C   UNL     1     -39.132 -51.547  13.539  1.00  0.00     0.169 A 
HETATM    9  N   UNL     1     -37.814 -51.377  13.273  1.00  0.00    -0.345 N 
HETATM   10  C   UNL     1     -37.498 -50.501  12.295  1.00  0.00     0.090 A 
ATOM     11  HN  UNL     1     -37.096 -51.886  13.787  1.00  0.00     0.167 HD
HETATM   12  C   UNL     1     -38.435 -49.779  11.578  1.00  0.00     0.019 A 
HETATM   13  C   UNL     1     -39.783 -49.968  11.873  1.00  0.00     0.035 A 
BRANCH   8  14
HETATM   14  O   UNL     1     -39.516 -52.499  14.472  1.00  0.00    -0.334 OA
BRANCH  14  15
HETATM   15  C   UNL     1     -39.305 -53.838  14.018  1.00  0.00     0.173 C 
HETATM   16  C   UNL     1     -38.927 -54.697  15.210  1.00  0.00     0.034 C 
ENDBRANCH  14  15
ENDBRANCH   8  14
ENDBRANCH   1   7
BRANCH   4  17
HETATM   17  C   UNL     1     -44.619 -52.870  12.472  1.00  0.00     0.086 C 
HETATM   18  C   UNL     1     -46.070 -52.435  12.698  1.00  0.00     0.028 C 
HETATM   19  C   UNL     1     -46.525 -52.521  14.154  1.00  0.00     0.034 C 
HETATM   20  C   UNL     1     -46.181 -53.849  14.832  1.00  0.00     0.118 C 
HETATM   21  C   UNL     1     -44.753 -54.320  14.560  1.00  0.00     0.034 C 
HETATM   22  C   UNL     1     -44.366 -54.254  13.082  1.00  0.00     0.028 C 
BRANCH  20  23
HETATM   23  O   UNL     1     -47.113 -54.849  14.432  1.00  0.00    -0.396 OA
HETATM   24  H   UNL     1     -47.762 -54.456  13.827  1.00  0.00     0.210 HD
ENDBRANCH  20  23
ENDBRANCH   4  17
TORSDOF 5
ENDMDL
MODEL 6
REMARK VINA RESULT:      -5.6      1.573      2.078
REMARK  5 active torsions:
REMARK  status: ('A' for Active; 'I' for Inactive)
REMARK    1  A    between atoms: C_2  and  O_3 
REMARK    2  A    between atoms: O_3  and  C_4 
REMARK    3  A    between atoms: C_10  and  N_11 
REMARK       I    between atoms: N_11  and  C_12 
REMARK       I    between atoms: C_12  and  N_14 
REMARK    4  A    between atoms: N_14  and  C_15 
REMARK    5  A    between atoms: C_18  and  O_19 
ROOT
HETATM    1  N   UNL     1     -42.418 -49.096  12.376  1.00  0.00    -0.305 N 
HETATM    2  C   UNL     1     -42.022 -50.410  12.251  1.00  0.00     0.321 C 
HETATM    3  O   UNL     1     -40.896 -50.774  11.938  1.00  0.00    -0.247 OA
HETATM    4  N   UNL     1     -43.030 -51.301  12.554  1.00  0.00    -0.338 N 
HETATM    5  H   UNL     1     -43.041 -48.905  13.149  1.00  0.00     0.171 HD
HETATM    6  H   UNL     1     -43.982 -50.961  12.572  1.00  0.00     0.164 HD
ENDROOT
BRANCH   1   7
HETATM    7  C   UNL     1     -41.577 -48.013  12.011  1.00  0.00     0.087 A 
HETATM    8  C   UNL     1     -41.492 -47.592  10.678  1.00  0.00     0.169 A 
HETATM    9  N   UNL     1     -40.693 -46.585  10.253  1.00  0.00    -0.345 N 
HETATM   10  C   UNL     1     -39.949 -45.960  11.191  1.00  0.00     0.090 A 
ATOM     11  HN  UNL     1     -40.655 -46.311   9.272  1.00  0.00     0.167 HD
HETATM   12  C   UNL     1     -39.957 -46.302  12.532  1.00  0.00     0.019 A 
HETATM   13  C   UNL     1     -40.784 -47.344  12.943  1.00  0.00     0.035 A 
BRANCH   8  14
HETATM   14  O   UNL     1     -42.343 -48.208   9.772  1.00  0.00    -0.334 OA
BRANCH  14  15
HETATM   15  C   UNL     1     -43.256 -47.295   9.159  1.00  0.00     0.173 C 
HETATM   16  C   UNL     1     -44.590 -47.395   9.875  1.00  0.00     0.034 C 
ENDBRANCH  14  15
ENDBRANCH   8  14
ENDBRANCH   1   7
BRANCH   4  17
HETATM   17  C   UNL     1     -42.750 -52.730  12.666  1.00  0.00     0.086 C 
HETATM   18  C   UNL     1     -43.940 -53.612  12.275  1.00  0.00     0.028 C 
HETATM   19  C   UNL     1     -45.070 -53.622  13.303  1.00  0.00     0.034 C 
HETATM   20  C   UNL     1     -44.598 -53.851  14.739  1.00  0.00     0.118 C 
HETATM   21  C   UNL     1     -43.372 -53.020  15.118  1.00  0.00     0.034 C 
HETATM   22  C   UNL     1     -42.255 -53.081  14.074  1.00  0.00     0.028 C 
BRANCH  20  23
HETATM   23  O   UNL     1     -44.335 -55.236  14.945  1.00  0.00    -0.396 OA
HETATM   24  H   UNL     1     -44.764 -55.524  15.766  1.00  0.00     0.210 HD
ENDBRANCH  20  23
ENDBRANCH   4  17
TORSDOF 5
ENDMDL
MODEL 7
REMARK VINA RESULT:      -5.5      2.163      7.424
REMARK  5 active torsions:
REMARK  status: ('A' for Active; 'I' for Inactive)
REMARK    1  A    between atoms: C_2  and  O_3 
REMARK    2  A    between atoms: O_3  and  C_4 
REMARK    3  A    between atoms: C_10  and  N_11 
REMARK       I    between atoms: N_11  and  C_12 
REMARK       I    between atoms: C_12  and  N_14 
REMARK    4  A    between atoms: N_14  and  C_15 
REMARK    5  A    between atoms: C_18  and  O_19 
ROOT
HETATM    1  N   UNL     1     -44.669 -51.472  12.683  1.00  0.00    -0.305 N 
HETATM    2  C   UNL     1     -43.890 -50.522  13.307  1.00  0.00     0.321 C 
HETATM    3  O   UNL     1     -43.563 -50.552  14.487  1.00  0.00    -0.247 OA
HETATM    4  N   UNL     1     -43.472 -49.528  12.448  1.00  0.00    -0.338 N 
HETATM    5  H   UNL     1     -44.389 -51.708  11.741  1.00  0.00     0.171 HD
HETATM    6  H   UNL     1     -43.954 -49.422  11.567  1.00  0.00     0.164 HD
ENDROOT
BRANCH   1   7
HETATM    7  C   UNL     1     -45.297 -52.527  13.395  1.00  0.00     0.087 A 
HETATM    8  C   UNL     1     -44.741 -53.812  13.403  1.00  0.00     0.169 A 
HETATM    9  N   UNL     1     -45.298 -54.872  14.037  1.00  0.00    -0.345 N 
HETATM   10  C   UNL     1     -46.453 -54.648  14.700  1.00  0.00     0.090 A 
ATOM     11  HN  UNL     1     -44.865 -55.795  14.015  1.00  0.00     0.167 HD
HETATM   12  C   UNL     1     -47.084 -53.417  14.750  1.00  0.00     0.019 A 
HETATM   13  C   UNL     1     -46.495 -52.345  14.086  1.00  0.00     0.035 A 
BRANCH   8  14
HETATM   14  O   UNL     1     -43.510 -53.967  12.782  1.00  0.00    -0.334 OA
BRANCH  14  15
HETATM   15  C   UNL     1     -42.441 -54.157  13.711  1.00  0.00     0.173 C 
HETATM   16  C   UNL     1     -41.129 -54.120  12.947  1.00  0.00     0.034 C 
ENDBRANCH  14  15
ENDBRANCH   8  14
ENDBRANCH   1   7
BRANCH   4  17
HETATM   17  C   UNL     1     -42.484 -48.541  12.878  1.00  0.00     0.086 C 
HETATM   18  C   UNL     1     -42.934 -47.096  12.649  1.00  0.00     0.028 C 
HETATM   19  C   UNL     1     -42.916 -46.664  11.183  1.00  0.00     0.034 C 
HETATM   20  C   UNL     1     -41.620 -47.015  10.451  1.00  0.00     0.118 C 
HETATM   21  C   UNL     1     -41.131 -48.438  10.723  1.00  0.00     0.034 C 
HETATM   22  C   UNL     1     -41.128 -48.800  12.209  1.00  0.00     0.028 C 
BRANCH  20  23
HETATM   23  O   UNL     1     -40.606 -46.074  10.789  1.00  0.00    -0.396 OA
HETATM   24  H   UNL     1     -40.812 -45.221  10.376  1.00  0.00     0.210 HD
ENDBRANCH  20  23
ENDBRANCH   4  17
TORSDOF 5
ENDMDL
MODEL 8
REMARK VINA RESULT:      -5.4      2.041      7.170
REMARK  5 active torsions:
REMARK  status: ('A' for Active; 'I' for Inactive)
REMARK    1  A    between atoms: C_2  and  O_3 
REMARK    2  A    between atoms: O_3  and  C_4 
REMARK    3  A    between atoms: C_10  and  N_11 
REMARK       I    between atoms: N_11  and  C_12 
REMARK       I    between atoms: C_12  and  N_14 
REMARK    4  A    between atoms: N_14  and  C_15 
REMARK    5  A    between atoms: C_18  and  O_19 
ROOT
HETATM    1  N   UNL     1     -42.684 -51.053  13.482  1.00  0.00    -0.305 N 
HETATM    2  C   UNL     1     -41.825 -50.716  12.458  1.00  0.00     0.321 C 
HETATM    3  O   UNL     1     -41.210 -51.520  11.769  1.00  0.00    -0.247 OA
HETATM    4  N   UNL     1     -41.750 -49.355  12.252  1.00  0.00    -0.338 N 
HETATM    5  H   UNL     1     -43.520 -50.488  13.547  1.00  0.00     0.171 HD
HETATM    6  H   UNL     1     -42.081 -48.740  12.983  1.00  0.00     0.164 HD
ENDROOT
BRANCH   1   7
HETATM    7  C   UNL     1     -42.835 -52.388  13.937  1.00  0.00     0.087 A 
HETATM    8  C   UNL     1     -43.945 -53.151  13.556  1.00  0.00     0.169 A 
HETATM    9  N   UNL     1     -44.168 -54.421  13.973  1.00  0.00    -0.345 N 
HETATM   10  C   UNL     1     -43.248 -54.962  14.799  1.00  0.00     0.090 A 
ATOM     11  HN  UNL     1     -44.993 -54.943  13.677  1.00  0.00     0.167 HD
HETATM   12  C   UNL     1     -42.120 -54.291  15.237  1.00  0.00     0.019 A 
HETATM   13  C   UNL     1     -41.915 -52.986  14.799  1.00  0.00     0.035 A 
BRANCH   8  14
HETATM   14  O   UNL     1     -44.813 -52.580  12.637  1.00  0.00    -0.334 OA
BRANCH  14  15
HETATM   15  C   UNL     1     -46.181 -52.656  13.044  1.00  0.00     0.173 C 
HETATM   16  C   UNL     1     -46.487 -51.461  13.928  1.00  0.00     0.034 C 
ENDBRANCH  14  15
ENDBRANCH   8  14
ENDBRANCH   1   7
BRANCH   4  17
HETATM   17  C   UNL     1     -41.044 -48.816  11.092  1.00  0.00     0.086 C 
HETATM   18  C   UNL     1     -39.954 -47.807  11.462  1.00  0.00     0.028 C 
HETATM   19  C   UNL     1     -40.491 -46.453  11.925  1.00  0.00     0.034 C 
HETATM   20  C   UNL     1     -41.567 -45.869  11.008  1.00  0.00     0.118 C 
HETATM   21  C   UNL     1     -42.626 -46.887  10.584  1.00  0.00     0.034 C 
HETATM   22  C   UNL     1     -42.031 -48.206  10.089  1.00  0.00     0.028 C 
BRANCH  20  23
HETATM   23  O   UNL     1     -40.957 -45.287   9.859  1.00  0.00    -0.396 OA
HETATM   24  H   UNL     1     -40.982 -45.924   9.128  1.00  0.00     0.210 HD
ENDBRANCH  20  23
ENDBRANCH   4  17
TORSDOF 5
ENDMDL
MODEL 9
REMARK VINA RESULT:      -5.1      3.107      7.481
REMARK  5 active torsions:
REMARK  status: ('A' for Active; 'I' for Inactive)
REMARK    1  A    between atoms: C_2  and  O_3 
REMARK    2  A    between atoms: O_3  and  C_4 
REMARK    3  A    between atoms: C_10  and  N_11 
REMARK       I    between atoms: N_11  and  C_12 
REMARK       I    between atoms: C_12  and  N_14 
REMARK    4  A    between atoms: N_14  and  C_15 
REMARK    5  A    between atoms: C_18  and  O_19 
ROOT
HETATM    1  N   UNL     1     -41.558 -49.484  12.845  1.00  0.00    -0.305 N 
HETATM    2  C   UNL     1     -41.187 -48.811  11.702  1.00  0.00     0.321 C 
HETATM    3  O   UNL     1     -40.817 -49.346  10.664  1.00  0.00    -0.247 OA
HETATM    4  N   UNL     1     -41.309 -47.443  11.827  1.00  0.00    -0.338 N 
HETATM    5  H   UNL     1     -42.350 -49.093  13.338  1.00  0.00     0.171 HD
HETATM    6  H   UNL     1     -41.385 -47.051  12.755  1.00  0.00     0.164 HD
ENDROOT
BRANCH   1   7
HETATM    7  C   UNL     1     -41.413 -50.890  12.979  1.00  0.00     0.087 A 
HETATM    8  C   UNL     1     -40.186 -51.447  13.361  1.00  0.00     0.169 A 
HETATM    9  N   UNL     1     -39.967 -52.778  13.483  1.00  0.00    -0.345 N 
HETATM   10  C   UNL     1     -41.010 -53.595  13.222  1.00  0.00     0.090 A 
ATOM     11  HN  UNL     1     -39.057 -53.146  13.760  1.00  0.00     0.167 HD
HETATM   12  C   UNL     1     -42.259 -53.145  12.834  1.00  0.00     0.019 A 
HETATM   13  C   UNL     1     -42.459 -51.772  12.710  1.00  0.00     0.035 A 
BRANCH   8  14
HETATM   14  O   UNL     1     -39.175 -50.561  13.704  1.00  0.00    -0.334 OA
BRANCH  14  15
HETATM   15  C   UNL     1     -37.902 -50.941  13.175  1.00  0.00     0.173 C 
HETATM   16  C   UNL     1     -37.642 -50.129  11.919  1.00  0.00     0.034 C 
ENDBRANCH  14  15
ENDBRANCH   8  14
ENDBRANCH   1   7
BRANCH   4  17
HETATM   17  C   UNL     1     -41.147 -46.573  10.664  1.00  0.00     0.086 C 
HETATM   18  C   UNL     1     -39.809 -45.828  10.647  1.00  0.00     0.028 C 
HETATM   19  C   UNL     1     -39.715 -44.696  11.668  1.00  0.00     0.034 C 
HETATM   20  C   UNL     1     -40.926 -43.760  11.667  1.00  0.00     0.118 C 
HETATM   21  C   UNL     1     -42.265 -44.496  11.621  1.00  0.00     0.034 C 
HETATM   22  C   UNL     1     -42.317 -45.588  10.552  1.00  0.00     0.028 C 
BRANCH  20  23
HETATM   23  O   UNL     1     -40.828 -42.849  10.577  1.00  0.00    -0.396 OA
HETATM   24  H   UNL     1     -41.441 -42.111  10.722  1.00  0.00     0.210 HD
ENDBRANCH  20  23
ENDBRANCH   4  17
TORSDOF 5
ENDMDL
