MODEL 1
REMARK VINA RESULT:      -6.3      0.000      0.000
REMARK  4 active torsions:
REMARK  status: ('A' for Active; 'I' for Inactive)
REMARK    1  A    between atoms: N_1  and  C_2 
REMARK    2  A    between atoms: C_4  and  C_11 
REMARK    3  A    between atoms: C_11  and  O_20 
REMARK    4  A    between atoms: C_18  and  O_21 
ROOT
HETATM    1  C   UNL     1     -43.088 -52.359  13.367  1.00  0.00     0.136 A 
HETATM    2  C   UNL     1     -42.287 -51.542  12.557  1.00  0.00     0.122 A 
HETATM    3  C   UNL     1     -41.174 -52.050  11.969  1.00  0.00     0.138 A 
HETATM    4  N   UNL     1     -40.531 -51.099  11.271  1.00  0.00    -0.337 N 
ATOM      5  HN  UNL     1     -39.676 -51.186  10.722  1.00  0.00     0.168 HD
HETATM    6  N   UNL     1     -42.668 -53.648  13.551  1.00  0.00    -0.337 N 
ATOM      7  HN  UNL     1     -43.207 -54.262  14.163  1.00  0.00     0.168 HD
HETATM    8  N   UNL     1     -42.370 -50.237  12.258  1.00  0.00    -0.346 N 
HETATM    9  N   UNL     1     -40.786 -53.336  12.134  1.00  0.00    -0.337 N 
ATOM     10  HN  UNL     1     -39.950 -53.695  11.672  1.00  0.00     0.168 HD
HETATM   11  C   UNL     1     -41.294 -49.995  11.473  1.00  0.00     0.182 A 
HETATM   12  C   UNL     1     -41.545 -54.139  12.937  1.00  0.00     0.183 A 
HETATM   13  H   UNL     1     -43.070 -49.528  12.565  1.00  0.00     0.167 HD
ENDROOT
BRANCH   1  14
HETATM   14  N   UNL     1     -44.246 -51.870  14.039  1.00  0.00    -0.348 N 
HETATM   15  C   UNL     1     -45.510 -51.586  13.395  1.00  0.00     0.186 C 
HETATM   16  C   UNL     1     -46.478 -51.326  14.579  1.00  0.00     0.069 C 
HETATM   17  C   UNL     1     -45.586 -51.376  15.839  1.00  0.00     0.138 C 
HETATM   18  C   UNL     1     -44.204 -51.121  15.273  1.00  0.00     0.157 C 
BRANCH  15  19
HETATM   19  C   UNL     1     -45.973 -52.693  12.473  1.00  0.00     0.163 C 
HETATM   20  O   UNL     1     -45.669 -53.847  12.728  1.00  0.00    -0.648 OA
BRANCH  19  21
HETATM   21  O   UNL     1     -46.729 -52.440  11.386  1.00  0.00    -0.775 OA
HETATM   22  H   UNL     1     -47.234 -51.624  11.288  1.00  0.00     0.167 HD
ENDBRANCH  19  21
ENDBRANCH  15  19
BRANCH  17  23
HETATM   23  O   UNL     1     -45.629 -52.649  16.443  1.00  0.00    -0.394 OA
HETATM   24  H   UNL     1     -46.193 -53.254  15.898  1.00  0.00     0.210 HD
ENDBRANCH  17  23
ENDBRANCH   1  14
TORSDOF 4
ENDMDL
MODEL 2
REMARK VINA RESULT:      -6.1      0.506      2.120
REMARK  4 active torsions:
REMARK  status: ('A' for Active; 'I' for Inactive)
REMARK    1  A    between atoms: N_1  and  C_2 
REMARK    2  A    between atoms: C_4  and  C_11 
REMARK    3  A    between atoms: C_11  and  O_20 
REMARK    4  A    between atoms: C_18  and  O_21 
ROOT
HETATM    1  C   UNL     1     -43.272 -51.248  13.224  1.00  0.00     0.136 A 
HETATM    2  C   UNL     1     -42.464 -52.376  13.033  1.00  0.00     0.122 A 
HETATM    3  C   UNL     1     -41.390 -52.310  12.206  1.00  0.00     0.138 A 
HETATM    4  N   UNL     1     -40.775 -53.502  12.132  1.00  0.00    -0.337 N 
ATOM      5  HN  UNL     1     -39.942 -53.753  11.599  1.00  0.00     0.168 HD
HETATM    6  N   UNL     1     -42.942 -50.123  12.519  1.00  0.00    -0.337 N 
ATOM      7  HN  UNL     1     -43.529 -49.293  12.607  1.00  0.00     0.168 HD
HETATM    8  N   UNL     1     -42.571 -53.632  13.495  1.00  0.00    -0.346 N 
HETATM    9  N   UNL     1     -41.054 -51.182  11.537  1.00  0.00    -0.337 N 
ATOM     10  HN  UNL     1     -40.234 -51.157  10.930  1.00  0.00     0.168 HD
HETATM   11  C   UNL     1     -41.530 -54.293  12.935  1.00  0.00     0.182 A 
HETATM   12  C   UNL     1     -41.845 -50.080  11.699  1.00  0.00     0.183 A 
HETATM   13  H   UNL     1     -43.293 -54.051  14.119  1.00  0.00     0.167 HD
ENDROOT
BRANCH   1  14
HETATM   14  N   UNL     1     -44.435 -51.270  14.051  1.00  0.00    -0.348 N 
HETATM   15  C   UNL     1     -45.787 -51.429  13.561  1.00  0.00     0.186 C 
HETATM   16  C   UNL     1     -46.625 -51.628  14.850  1.00  0.00     0.069 C 
HETATM   17  C   UNL     1     -45.623 -51.435  16.010  1.00  0.00     0.138 C 
HETATM   18  C   UNL     1     -44.508 -50.648  15.352  1.00  0.00     0.157 C 
BRANCH  15  19
HETATM   19  C   UNL     1     -45.934 -52.559  12.567  1.00  0.00     0.163 C 
HETATM   20  O   UNL     1     -45.524 -53.670  12.863  1.00  0.00    -0.648 OA
BRANCH  19  21
HETATM   21  O   UNL     1     -46.524 -52.376  11.369  1.00  0.00    -0.775 OA
HETATM   22  H   UNL     1     -47.448 -52.114  11.284  1.00  0.00     0.167 HD
ENDBRANCH  19  21
ENDBRANCH  15  19
BRANCH  17  23
HETATM   23  O   UNL     1     -45.130 -52.674  16.468  1.00  0.00    -0.394 OA
HETATM   24  H   UNL     1     -45.763 -53.393  16.218  1.00  0.00     0.210 HD
ENDBRANCH  17  23
ENDBRANCH   1  14
TORSDOF 4
ENDMDL
MODEL 3
REMARK VINA RESULT:      -6.0      6.439      8.531
REMARK  4 active torsions:
REMARK  status: ('A' for Active; 'I' for Inactive)
REMARK    1  A    between atoms: N_1  and  C_2 
REMARK    2  A    between atoms: C_4  and  C_11 
REMARK    3  A    between atoms: C_11  and  O_20 
REMARK    4  A    between atoms: C_18  and  O_21 
ROOT
HETATM    1  C   UNL     1     -42.804 -45.548  10.641  1.00  0.00     0.136 A 
HETATM    2  C   UNL     1     -42.832 -46.766  11.332  1.00  0.00     0.122 A 
HETATM    3  C   UNL     1     -43.585 -47.795  10.867  1.00  0.00     0.138 A 
HETATM    4  N   UNL     1     -43.503 -48.854  11.691  1.00  0.00    -0.337 N 
ATOM      5  HN  UNL     1     -43.951 -49.765  11.598  1.00  0.00     0.168 HD
HETATM    6  N   UNL     1     -43.589 -45.453   9.525  1.00  0.00    -0.337 N 
ATOM      7  HN  UNL     1     -43.622 -44.569   9.016  1.00  0.00     0.168 HD
HETATM    8  N   UNL     1     -42.260 -47.144  12.487  1.00  0.00    -0.346 N 
HETATM    9  N   UNL     1     -44.334 -47.700   9.744  1.00  0.00    -0.337 N 
ATOM     10  HN  UNL     1     -44.883 -48.492   9.410  1.00  0.00     0.168 HD
HETATM   11  C   UNL     1     -42.682 -48.416  12.679  1.00  0.00     0.182 A 
HETATM   12  C   UNL     1     -44.333 -46.511   9.070  1.00  0.00     0.183 A 
HETATM   13  H   UNL     1     -41.650 -46.601  13.134  1.00  0.00     0.167 HD
ENDROOT
BRANCH   1  14
HETATM   14  N   UNL     1     -42.061 -44.422  11.104  1.00  0.00    -0.348 N 
HETATM   15  C   UNL     1     -40.640 -44.431  11.372  1.00  0.00     0.186 C 
HETATM   16  C   UNL     1     -40.298 -42.936  11.604  1.00  0.00     0.069 C 
HETATM   17  C   UNL     1     -41.659 -42.207  11.557  1.00  0.00     0.138 C 
HETATM   18  C   UNL     1     -42.641 -43.324  11.841  1.00  0.00     0.157 C 
BRANCH  15  19
HETATM   19  C   UNL     1     -39.827 -45.069  10.267  1.00  0.00     0.163 C 
HETATM   20  O   UNL     1     -39.456 -44.383   9.328  1.00  0.00    -0.648 OA
BRANCH  19  21
HETATM   21  O   UNL     1     -39.485 -46.372  10.301  1.00  0.00    -0.775 OA
HETATM   22  H   UNL     1     -38.639 -46.692   9.964  1.00  0.00     0.167 HD
ENDBRANCH  19  21
ENDBRANCH  15  19
BRANCH  17  23
HETATM   23  O   UNL     1     -41.903 -41.667  10.278  1.00  0.00    -0.394 OA
HETATM   24  H   UNL     1     -41.193 -41.015  10.054  1.00  0.00     0.210 HD
ENDBRANCH  17  23
ENDBRANCH   1  14
TORSDOF 4
ENDMDL
MODEL 4
REMARK VINA RESULT:      -5.7      6.359      7.864
REMARK  4 active torsions:
REMARK  status: ('A' for Active; 'I' for Inactive)
REMARK    1  A    between atoms: N_1  and  C_2 
REMARK    2  A    between atoms: C_4  and  C_11 
REMARK    3  A    between atoms: C_11  and  O_20 
REMARK    4  A    between atoms: C_18  and  O_21 
ROOT
HETATM    1  C   UNL     1     -42.091 -46.099  11.423  1.00  0.00     0.136 A 
HETATM    2  C   UNL     1     -41.343 -47.279  11.317  1.00  0.00     0.122 A 
HETATM    3  C   UNL     1     -41.712 -48.241  10.433  1.00  0.00     0.138 A 
HETATM    4  N   UNL     1     -40.890 -49.301  10.516  1.00  0.00    -0.337 N 
ATOM      5  HN  UNL     1     -40.915 -50.165   9.974  1.00  0.00     0.168 HD
HETATM    6  N   UNL     1     -43.202 -45.999  10.632  1.00  0.00    -0.337 N 
ATOM      7  HN  UNL     1     -43.792 -45.169  10.707  1.00  0.00     0.168 HD
HETATM    8  N   UNL     1     -40.276 -47.716  12.003  1.00  0.00    -0.346 N 
HETATM    9  N   UNL     1     -42.796 -48.118   9.633  1.00  0.00    -0.337 N 
ATOM     10  HN  UNL     1     -43.046 -48.852   8.970  1.00  0.00     0.168 HD
HETATM   11  C   UNL     1     -40.020 -48.944  11.494  1.00  0.00     0.182 A 
HETATM   12  C   UNL     1     -43.547 -46.981   9.740  1.00  0.00     0.183 A 
HETATM   13  H   UNL     1     -39.753 -47.259  12.780  1.00  0.00     0.167 HD
ENDROOT
BRANCH   1  14
HETATM   14  N   UNL     1     -41.772 -45.072  12.359  1.00  0.00    -0.348 N 
HETATM   15  C   UNL     1     -40.634 -44.186  12.249  1.00  0.00     0.186 C 
HETATM   16  C   UNL     1     -40.881 -43.128  13.356  1.00  0.00     0.069 C 
HETATM   17  C   UNL     1     -42.144 -43.618  14.098  1.00  0.00     0.138 C 
HETATM   18  C   UNL     1     -42.183 -45.090  13.743  1.00  0.00     0.157 C 
BRANCH  15  19
HETATM   19  C   UNL     1     -40.475 -43.586  10.869  1.00  0.00     0.163 C 
HETATM   20  O   UNL     1     -39.788 -44.165  10.043  1.00  0.00    -0.648 OA
BRANCH  19  21
HETATM   21  O   UNL     1     -41.089 -42.437  10.521  1.00  0.00    -0.775 OA
HETATM   22  H   UNL     1     -40.976 -42.036   9.651  1.00  0.00     0.167 HD
ENDBRANCH  19  21
ENDBRANCH  15  19
BRANCH  17  23
HETATM   23  O   UNL     1     -43.301 -42.976  13.611  1.00  0.00    -0.394 OA
HETATM   24  H   UNL     1     -43.715 -43.534  12.905  1.00  0.00     0.210 HD
ENDBRANCH  17  23
ENDBRANCH   1  14
TORSDOF 4
ENDMDL
MODEL 5
REMARK VINA RESULT:      -5.7      6.623      8.015
REMARK  4 active torsions:
REMARK  status: ('A' for Active; 'I' for Inactive)
REMARK    1  A    between atoms: N_1  and  C_2 
REMARK    2  A    between atoms: C_4  and  C_11 
REMARK    3  A    between atoms: C_11  and  O_20 
REMARK    4  A    between atoms: C_18  and  O_21 
ROOT
HETATM    1  C   UNL     1     -42.020 -46.280  11.379  1.00  0.00     0.136 A 
HETATM    2  C   UNL     1     -42.939 -46.312  10.323  1.00  0.00     0.122 A 
HETATM    3  C   UNL     1     -42.998 -47.394   9.505  1.00  0.00     0.138 A 
HETATM    4  N   UNL     1     -43.913 -47.209   8.539  1.00  0.00    -0.337 N 
ATOM      5  HN  UNL     1     -44.182 -47.848   7.790  1.00  0.00     0.168 HD
HETATM    6  N   UNL     1     -41.187 -47.358  11.507  1.00  0.00    -0.337 N 
ATOM      7  HN  UNL     1     -40.481 -47.354  12.244  1.00  0.00     0.168 HD
HETATM    8  N   UNL     1     -43.813 -45.394   9.879  1.00  0.00    -0.346 N 
HETATM    9  N   UNL     1     -42.190 -48.469   9.660  1.00  0.00    -0.337 N 
ATOM     10  HN  UNL     1     -42.263 -49.274   9.038  1.00  0.00     0.168 HD
HETATM   11  C   UNL     1     -44.393 -45.967   8.798  1.00  0.00     0.182 A 
HETATM   12  C   UNL     1     -41.275 -48.443  10.674  1.00  0.00     0.183 A 
HETATM   13  H   UNL     1     -44.008 -44.436  10.238  1.00  0.00     0.167 HD
ENDROOT
BRANCH   1  14
HETATM   14  N   UNL     1     -41.888 -45.155  12.245  1.00  0.00    -0.348 N 
HETATM   15  C   UNL     1     -40.700 -44.337  12.352  1.00  0.00     0.186 C 
HETATM   16  C   UNL     1     -41.155 -43.137  13.223  1.00  0.00     0.069 C 
HETATM   17  C   UNL     1     -42.603 -43.476  13.640  1.00  0.00     0.138 C 
HETATM   18  C   UNL     1     -42.654 -44.979  13.457  1.00  0.00     0.157 C 
BRANCH  15  19
HETATM   19  C   UNL     1     -40.135 -43.926  11.011  1.00  0.00     0.163 C 
HETATM   20  O   UNL     1     -39.345 -44.665  10.445  1.00  0.00    -0.648 OA
BRANCH  19  21
HETATM   21  O   UNL     1     -40.496 -42.772  10.413  1.00  0.00    -0.775 OA
HETATM   22  H   UNL     1     -39.881 -42.255   9.879  1.00  0.00     0.167 HD
ENDBRANCH  19  21
ENDBRANCH  15  19
BRANCH  17  23
HETATM   23  O   UNL     1     -43.538 -42.857  12.787  1.00  0.00    -0.394 OA
HETATM   24  H   UNL     1     -43.485 -43.267  11.887  1.00  0.00     0.210 HD
ENDBRANCH  17  23
ENDBRANCH   1  14
TORSDOF 4
ENDMDL
MODEL 6
REMARK VINA RESULT:      -5.6      2.789      4.764
REMARK  4 active torsions:
REMARK  status: ('A' for Active; 'I' for Inactive)
REMARK    1  A    between atoms: N_1  and  C_2 
REMARK    2  A    between atoms: C_4  and  C_11 
REMARK    3  A    between atoms: C_11  and  O_20 
REMARK    4  A    between atoms: C_18  and  O_21 
ROOT
HETATM    1  C   UNL     1     -43.206 -52.374  14.154  1.00  0.00     0.136 A 
HETATM    2  C   UNL     1     -44.486 -52.446  13.589  1.00  0.00     0.122 A 
HETATM    3  C   UNL     1     -45.419 -53.275  14.123  1.00  0.00     0.138 A 
HETATM    4  N   UNL     1     -46.559 -53.224  13.414  1.00  0.00    -0.337 N 
ATOM      5  HN  UNL     1     -47.431 -53.727  13.580  1.00  0.00     0.168 HD
HETATM    6  N   UNL     1     -42.954 -53.193  15.220  1.00  0.00    -0.337 N 
ATOM      7  HN  UNL     1     -42.022 -53.193  15.636  1.00  0.00     0.168 HD
HETATM    8  N   UNL     1     -45.010 -51.855  12.504  1.00  0.00    -0.346 N 
HETATM    9  N   UNL     1     -45.168 -54.058  15.197  1.00  0.00    -0.337 N 
ATOM     10  HN  UNL     1     -45.891 -54.664  15.586  1.00  0.00     0.168 HD
HETATM   11  C   UNL     1     -46.271 -52.342  12.424  1.00  0.00     0.182 A 
HETATM   12  C   UNL     1     -43.917 -54.013  15.747  1.00  0.00     0.183 A 
HETATM   13  H   UNL     1     -44.571 -51.191  11.832  1.00  0.00     0.167 HD
ENDROOT
BRANCH   1  14
HETATM   14  N   UNL     1     -42.175 -51.550  13.613  1.00  0.00    -0.348 N 
HETATM   15  C   UNL     1     -40.832 -52.000  13.324  1.00  0.00     0.186 C 
HETATM   16  C   UNL     1     -40.205 -50.816  12.543  1.00  0.00     0.069 C 
HETATM   17  C   UNL     1     -41.280 -49.708  12.573  1.00  0.00     0.138 C 
HETATM   18  C   UNL     1     -42.137 -50.113  13.754  1.00  0.00     0.157 C 
BRANCH  15  19
HETATM   19  C   UNL     1     -40.790 -53.309  12.566  1.00  0.00     0.163 C 
HETATM   20  O   UNL     1     -40.870 -54.358  13.185  1.00  0.00    -0.648 OA
BRANCH  19  21
HETATM   21  O   UNL     1     -40.687 -53.347  11.223  1.00  0.00    -0.775 OA
HETATM   22  H   UNL     1     -41.008 -52.632  10.661  1.00  0.00     0.167 HD
ENDBRANCH  19  21
ENDBRANCH  15  19
BRANCH  17  23
HETATM   23  O   UNL     1     -42.053 -49.716  11.394  1.00  0.00    -0.394 OA
HETATM   24  H   UNL     1     -41.803 -50.499  10.841  1.00  0.00     0.210 HD
ENDBRANCH  17  23
ENDBRANCH   1  14
TORSDOF 4
ENDMDL
MODEL 7
REMARK VINA RESULT:      -5.6      4.274      6.598
REMARK  4 active torsions:
REMARK  status: ('A' for Active; 'I' for Inactive)
REMARK    1  A    between atoms: N_1  and  C_2 
REMARK    2  A    between atoms: C_4  and  C_11 
REMARK    3  A    between atoms: C_11  and  O_20 
REMARK    4  A    between atoms: C_18  and  O_21 
ROOT
HETATM    1  C   UNL     1     -41.468 -46.902  11.438  1.00  0.00     0.136 A 
HETATM    2  C   UNL     1     -42.250 -47.051  10.286  1.00  0.00     0.122 A 
HETATM    3  C   UNL     1     -43.030 -46.026   9.856  1.00  0.00     0.138 A 
HETATM    4  N   UNL     1     -43.725 -46.384   8.764  1.00  0.00    -0.337 N 
ATOM      5  HN  UNL     1     -44.382 -45.825   8.219  1.00  0.00     0.168 HD
HETATM    6  N   UNL     1     -41.565 -45.710  12.102  1.00  0.00    -0.337 N 
ATOM      7  HN  UNL     1     -41.036 -45.579  12.965  1.00  0.00     0.168 HD
HETATM    8  N   UNL     1     -42.447 -48.104   9.478  1.00  0.00    -0.346 N 
HETATM    9  N   UNL     1     -43.095 -44.840  10.504  1.00  0.00    -0.337 N 
ATOM     10  HN  UNL     1     -43.681 -44.081  10.154  1.00  0.00     0.168 HD
HETATM   11  C   UNL     1     -43.344 -47.671   8.561  1.00  0.00     0.182 A 
HETATM   12  C   UNL     1     -42.352 -44.687  11.641  1.00  0.00     0.183 A 
HETATM   13  H   UNL     1     -42.045 -49.064   9.528  1.00  0.00     0.167 HD
ENDROOT
BRANCH   1  14
HETATM   14  N   UNL     1     -40.659 -47.957  11.956  1.00  0.00    -0.348 N 
HETATM   15  C   UNL     1     -41.044 -48.824  13.048  1.00  0.00     0.186 C 
HETATM   16  C   UNL     1     -39.949 -49.923  13.050  1.00  0.00     0.069 C 
HETATM   17  C   UNL     1     -38.935 -49.474  11.973  1.00  0.00     0.138 C 
HETATM   18  C   UNL     1     -39.219 -47.991  11.852  1.00  0.00     0.157 C 
BRANCH  15  19
HETATM   19  C   UNL     1     -42.446 -49.374  12.909  1.00  0.00     0.163 C 
HETATM   20  O   UNL     1     -43.287 -49.077  13.742  1.00  0.00    -0.648 OA
BRANCH  19  21
HETATM   21  O   UNL     1     -42.797 -50.168  11.878  1.00  0.00    -0.775 OA
HETATM   22  H   UNL     1     -43.706 -50.460  11.738  1.00  0.00     0.167 HD
ENDBRANCH  19  21
ENDBRANCH  15  19
BRANCH  17  23
HETATM   23  O   UNL     1     -39.185 -50.113  10.742  1.00  0.00    -0.394 OA
HETATM   24  H   UNL     1     -38.944 -49.504  10.000  1.00  0.00     0.210 HD
ENDBRANCH  17  23
ENDBRANCH   1  14
TORSDOF 4
ENDMDL
MODEL 8
REMARK VINA RESULT:      -5.6      3.670      5.814
REMARK  4 active torsions:
REMARK  status: ('A' for Active; 'I' for Inactive)
REMARK    1  A    between atoms: N_1  and  C_2 
REMARK    2  A    between atoms: C_4  and  C_11 
REMARK    3  A    between atoms: C_11  and  O_20 
REMARK    4  A    between atoms: C_18  and  O_21 
ROOT
HETATM    1  C   UNL     1     -41.222 -48.856  11.720  1.00  0.00     0.136 A 
HETATM    2  C   UNL     1     -41.960 -47.954  12.497  1.00  0.00     0.122 A 
HETATM    3  C   UNL     1     -42.822 -47.090  11.902  1.00  0.00     0.138 A 
HETATM    4  N   UNL     1     -43.397 -46.290  12.815  1.00  0.00    -0.337 N 
ATOM      5  HN  UNL     1     -44.088 -45.554  12.666  1.00  0.00     0.168 HD
HETATM    6  N   UNL     1     -41.392 -48.788  10.365  1.00  0.00    -0.337 N 
ATOM      7  HN  UNL     1     -40.844 -49.406   9.765  1.00  0.00     0.168 HD
HETATM    8  N   UNL     1     -41.953 -47.708  13.817  1.00  0.00    -0.346 N 
HETATM    9  N   UNL     1     -43.005 -47.053  10.561  1.00  0.00    -0.337 N 
ATOM     10  HN  UNL     1     -43.667 -46.401  10.140  1.00  0.00     0.168 HD
HETATM   11  C   UNL     1     -42.838 -46.696  13.982  1.00  0.00     0.182 A 
HETATM   12  C   UNL     1     -42.277 -47.914   9.789  1.00  0.00     0.183 A 
HETATM   13  H   UNL     1     -41.388 -48.151  14.572  1.00  0.00     0.167 HD
ENDROOT
BRANCH   1  14
HETATM   14  N   UNL     1     -40.275 -49.759  12.288  1.00  0.00    -0.348 N 
HETATM   15  C   UNL     1     -40.619 -50.992  12.961  1.00  0.00     0.186 C 
HETATM   16  C   UNL     1     -39.253 -51.697  13.162  1.00  0.00     0.069 C 
HETATM   17  C   UNL     1     -38.204 -50.681  12.659  1.00  0.00     0.138 C 
HETATM   18  C   UNL     1     -38.958 -49.369  12.731  1.00  0.00     0.157 C 
BRANCH  15  19
HETATM   19  C   UNL     1     -41.621 -51.830  12.199  1.00  0.00     0.163 C 
HETATM   20  O   UNL     1     -42.774 -51.890  12.596  1.00  0.00    -0.648 OA
BRANCH  19  21
HETATM   21  O   UNL     1     -41.280 -52.498  11.078  1.00  0.00    -0.775 OA
HETATM   22  H   UNL     1     -41.450 -53.441  10.968  1.00  0.00     0.167 HD
ENDBRANCH  19  21
ENDBRANCH  15  19
BRANCH  17  23
HETATM   23  O   UNL     1     -37.835 -50.949  11.325  1.00  0.00    -0.394 OA
HETATM   24  H   UNL     1     -37.205 -51.712  11.304  1.00  0.00     0.210 HD
ENDBRANCH  17  23
ENDBRANCH   1  14
TORSDOF 4
ENDMDL
MODEL 9
REMARK VINA RESULT:      -5.6      3.089      5.173
REMARK  4 active torsions:
REMARK  status: ('A' for Active; 'I' for Inactive)
REMARK    1  A    between atoms: N_1  and  C_2 
REMARK    2  A    between atoms: C_4  and  C_11 
REMARK    3  A    between atoms: C_11  and  O_20 
REMARK    4  A    between atoms: C_18  and  O_21 
ROOT
HETATM    1  C   UNL     1     -40.617 -48.824  12.312  1.00  0.00     0.136 A 
HETATM    2  C   UNL     1     -41.286 -48.204  11.249  1.00  0.00     0.122 A 
HETATM    3  C   UNL     1     -41.084 -46.886  10.995  1.00  0.00     0.138 A 
HETATM    4  N   UNL     1     -41.845 -46.479   9.965  1.00  0.00    -0.337 N 
ATOM      5  HN  UNL     1     -41.900 -45.551   9.545  1.00  0.00     0.168 HD
HETATM    6  N   UNL     1     -39.802 -48.034  13.076  1.00  0.00    -0.337 N 
ATOM      7  HN  UNL     1     -39.326 -48.443  13.880  1.00  0.00     0.168 HD
HETATM    8  N   UNL     1     -42.205 -48.669  10.388  1.00  0.00    -0.346 N 
HETATM    9  N   UNL     1     -40.252 -46.120  11.739  1.00  0.00    -0.337 N 
ATOM     10  HN  UNL     1     -40.111 -45.134  11.520  1.00  0.00     0.168 HD
HETATM   11  C   UNL     1     -42.523 -47.602   9.617  1.00  0.00     0.182 A 
HETATM   12  C   UNL     1     -39.608 -46.707  12.791  1.00  0.00     0.183 A 
HETATM   13  H   UNL     1     -42.626 -49.619  10.315  1.00  0.00     0.167 HD
ENDROOT
BRANCH   1  14
HETATM   14  N   UNL     1     -40.819 -50.195  12.648  1.00  0.00    -0.348 N 
HETATM   15  C   UNL     1     -41.711 -50.663  13.686  1.00  0.00     0.186 C 
HETATM   16  C   UNL     1     -41.746 -52.199  13.479  1.00  0.00     0.069 C 
HETATM   17  C   UNL     1     -40.721 -52.471  12.356  1.00  0.00     0.138 C 
HETATM   18  C   UNL     1     -39.847 -51.235  12.401  1.00  0.00     0.157 C 
BRANCH  15  19
HETATM   19  C   UNL     1     -43.078 -50.018  13.634  1.00  0.00     0.163 C 
HETATM   20  O   UNL     1     -43.453 -49.339  14.576  1.00  0.00    -0.648 OA
BRANCH  19  21
HETATM   21  O   UNL     1     -43.887 -50.157  12.564  1.00  0.00    -0.775 OA
HETATM   22  H   UNL     1     -44.610 -49.546  12.382  1.00  0.00     0.167 HD
ENDBRANCH  19  21
ENDBRANCH  15  19
BRANCH  17  23
HETATM   23  O   UNL     1     -41.355 -52.565  11.100  1.00  0.00    -0.394 OA
HETATM   24  H   UNL     1     -42.337 -52.556  11.225  1.00  0.00     0.210 HD
ENDBRANCH  17  23
ENDBRANCH   1  14
TORSDOF 4
ENDMDL
