MODEL 1
REMARK VINA RESULT:      -6.6      0.000      0.000
REMARK  6 active torsions:
REMARK  status: ('A' for Active; 'I' for Inactive)
REMARK    1  A    between atoms: C_5  and  C_6 
REMARK    2  A    between atoms: C_6  and  C_7 
REMARK    3  A    between atoms: C_7  and  N_8 
REMARK       I    between atoms: N_8  and  C_9 
REMARK    4  A    between atoms: C_9  and  C_11 
REMARK    5  A    between atoms: C_11  and  C_12 
REMARK    6  A    between atoms: C_12  and  C_13 
ROOT
HETATM    1  N   UNL     1     -41.358 -49.685  11.369  1.00  0.00    -0.361 N 
HETATM    2  C   UNL     1     -41.289 -48.348  11.672  1.00  0.00     0.217 C 
HETATM    3  O   UNL     1     -41.129 -47.914  12.808  1.00  0.00    -0.274 OA
HETATM    4  H   UNL     1     -41.666 -49.987  10.445  1.00  0.00     0.162 HD
ENDROOT
BRANCH   2   5
HETATM    5  C   UNL     1     -41.483 -47.426  10.487  1.00  0.00     0.105 C 
BRANCH   5   6
HETATM    6  C   UNL     1     -42.695 -47.870   9.670  1.00  0.00     0.044 C 
BRANCH   6   7
HETATM    7  C   UNL     1     -43.964 -47.115  10.036  1.00  0.00     0.179 C 
HETATM    8  N   UNL     1     -45.154 -47.909   9.829  1.00  0.00    -0.330 N 
HETATM    9  C   UNL     1     -46.116 -47.225   9.124  1.00  0.00     0.323 C 
HETATM   10  H   UNL     1     -45.373 -48.789  10.279  1.00  0.00     0.165 HD
HETATM   11  O   UNL     1     -47.239 -47.633   8.889  1.00  0.00    -0.247 OA
HETATM   12  N   UNL     1     -45.598 -46.041   8.732  1.00  0.00    -0.278 N 
HETATM   13  C   UNL     1     -44.305 -45.922   9.135  1.00  0.00     0.248 C 
HETATM   14  H   UNL     1     -46.089 -45.375   8.160  1.00  0.00     0.173 HD
HETATM   15  O   UNL     1     -43.568 -44.990   8.854  1.00  0.00    -0.271 OA
ENDBRANCH   6   7
ENDBRANCH   5   6
ENDBRANCH   2   5
BRANCH   1  16
HETATM   16  C   UNL     1     -41.334 -50.707  12.401  1.00  0.00     0.128 C 
BRANCH  16  17
HETATM   17  C   UNL     1     -41.774 -52.078  11.889  1.00  0.00     0.077 C 
BRANCH  17  18
HETATM   18  C   UNL     1     -43.064 -52.547  12.483  1.00  0.00     0.018 A 
HETATM   19  N   UNL     1     -44.109 -51.641  12.620  1.00  0.00    -0.357 N 
HETATM   20  C   UNL     1     -45.168 -52.245  13.119  1.00  0.00     0.046 A 
ATOM     21  HN  UNL     1     -44.062 -50.654  12.370  1.00  0.00     0.166 HD
HETATM   22  C   UNL     1     -46.477 -51.585  13.373  1.00  0.00     0.076 C 
HETATM   23  S   UNL     1     -44.965 -53.913  13.484  1.00  0.00    -0.087 SA
HETATM   24  C   UNL     1     -43.354 -53.828  12.915  1.00  0.00     0.076 A 
ENDBRANCH  17  18
ENDBRANCH  16  17
ENDBRANCH   1  16
TORSDOF 6
ENDMDL
MODEL 2
REMARK VINA RESULT:      -6.5      3.562      6.639
REMARK  6 active torsions:
REMARK  status: ('A' for Active; 'I' for Inactive)
REMARK    1  A    between atoms: C_5  and  C_6 
REMARK    2  A    between atoms: C_6  and  C_7 
REMARK    3  A    between atoms: C_7  and  N_8 
REMARK       I    between atoms: N_8  and  C_9 
REMARK    4  A    between atoms: C_9  and  C_11 
REMARK    5  A    between atoms: C_11  and  C_12 
REMARK    6  A    between atoms: C_12  and  C_13 
ROOT
HETATM    1  N   UNL     1     -41.120 -51.497  11.585  1.00  0.00    -0.361 N 
HETATM    2  C   UNL     1     -40.583 -52.425  12.443  1.00  0.00     0.217 C 
HETATM    3  O   UNL     1     -39.543 -52.253  13.070  1.00  0.00    -0.274 OA
HETATM    4  H   UNL     1     -41.882 -51.756  10.960  1.00  0.00     0.162 HD
ENDROOT
BRANCH   2   5
HETATM    5  C   UNL     1     -41.353 -53.726  12.520  1.00  0.00     0.105 C 
BRANCH   5   6
HETATM    6  C   UNL     1     -42.576 -53.560  13.420  1.00  0.00     0.044 C 
BRANCH   6   7
HETATM    7  C   UNL     1     -43.884 -53.851  12.701  1.00  0.00     0.179 C 
HETATM    8  N   UNL     1     -44.547 -52.645  12.257  1.00  0.00    -0.330 N 
HETATM    9  C   UNL     1     -45.876 -52.627  12.611  1.00  0.00     0.323 C 
HETATM   10  H   UNL     1     -44.176 -51.960  11.612  1.00  0.00     0.165 HD
HETATM   11  O   UNL     1     -46.677 -51.768  12.287  1.00  0.00    -0.247 OA
HETATM   12  N   UNL     1     -46.130 -53.706  13.381  1.00  0.00    -0.278 N 
HETATM   13  C   UNL     1     -45.001 -54.438  13.574  1.00  0.00     0.248 C 
HETATM   14  H   UNL     1     -47.021 -53.896  13.806  1.00  0.00     0.173 HD
HETATM   15  O   UNL     1     -44.920 -55.423  14.291  1.00  0.00    -0.271 OA
ENDBRANCH   6   7
ENDBRANCH   5   6
ENDBRANCH   2   5
BRANCH   1  16
HETATM   16  C   UNL     1     -40.438 -50.250  11.281  1.00  0.00     0.128 C 
BRANCH  16  17
HETATM   17  C   UNL     1     -41.016 -49.058  12.045  1.00  0.00     0.077 C 
BRANCH  17  18
HETATM   18  C   UNL     1     -41.705 -48.066  11.162  1.00  0.00     0.018 A 
HETATM   19  N   UNL     1     -42.280 -48.509   9.976  1.00  0.00    -0.357 N 
HETATM   20  C   UNL     1     -42.873 -47.506   9.361  1.00  0.00     0.046 A 
ATOM     21  HN  UNL     1     -42.248 -49.468   9.634  1.00  0.00     0.166 HD
HETATM   22  C   UNL     1     -43.615 -47.623   8.075  1.00  0.00     0.076 C 
HETATM   23  S   UNL     1     -42.747 -45.980  10.141  1.00  0.00    -0.087 SA
HETATM   24  C   UNL     1     -41.856 -46.714  11.403  1.00  0.00     0.076 A 
ENDBRANCH  17  18
ENDBRANCH  16  17
ENDBRANCH   1  16
TORSDOF 6
ENDMDL
MODEL 3
REMARK VINA RESULT:      -6.1      2.365      2.656
REMARK  6 active torsions:
REMARK  status: ('A' for Active; 'I' for Inactive)
REMARK    1  A    between atoms: C_5  and  C_6 
REMARK    2  A    between atoms: C_6  and  C_7 
REMARK    3  A    between atoms: C_7  and  N_8 
REMARK       I    between atoms: N_8  and  C_9 
REMARK    4  A    between atoms: C_9  and  C_11 
REMARK    5  A    between atoms: C_11  and  C_12 
REMARK    6  A    between atoms: C_12  and  C_13 
ROOT
HETATM    1  N   UNL     1     -41.730 -49.814  11.414  1.00  0.00    -0.361 N 
HETATM    2  C   UNL     1     -42.331 -48.839  12.172  1.00  0.00     0.217 C 
HETATM    3  O   UNL     1     -42.133 -48.691  13.374  1.00  0.00    -0.274 OA
HETATM    4  H   UNL     1     -42.059 -50.004  10.469  1.00  0.00     0.162 HD
ENDROOT
BRANCH   2   5
HETATM    5  C   UNL     1     -43.318 -47.976  11.416  1.00  0.00     0.105 C 
BRANCH   5   6
HETATM    6  C   UNL     1     -42.699 -47.498  10.103  1.00  0.00     0.044 C 
BRANCH   6   7
HETATM    7  C   UNL     1     -43.735 -46.997   9.109  1.00  0.00     0.179 C 
HETATM    8  N   UNL     1     -45.066 -46.964   9.673  1.00  0.00    -0.330 N 
HETATM    9  C   UNL     1     -45.991 -47.561   8.849  1.00  0.00     0.323 C 
HETATM   10  H   UNL     1     -45.363 -46.425  10.477  1.00  0.00     0.165 HD
HETATM   11  O   UNL     1     -47.192 -47.593   9.049  1.00  0.00    -0.247 OA
HETATM   12  N   UNL     1     -45.341 -48.110   7.801  1.00  0.00    -0.278 N 
HETATM   13  C   UNL     1     -44.000 -47.918   7.911  1.00  0.00     0.248 C 
HETATM   14  H   UNL     1     -45.791 -48.646   7.079  1.00  0.00     0.173 HD
HETATM   15  O   UNL     1     -43.163 -48.373   7.146  1.00  0.00    -0.271 OA
ENDBRANCH   6   7
ENDBRANCH   5   6
ENDBRANCH   2   5
BRANCH   1  16
HETATM   16  C   UNL     1     -40.863 -50.819  12.005  1.00  0.00     0.128 C 
BRANCH  16  17
HETATM   17  C   UNL     1     -41.424 -52.235  11.876  1.00  0.00     0.077 C 
BRANCH  17  18
HETATM   18  C   UNL     1     -41.163 -53.088  13.077  1.00  0.00     0.018 A 
HETATM   19  N   UNL     1     -42.222 -53.777  13.655  1.00  0.00    -0.357 N 
HETATM   20  C   UNL     1     -41.791 -54.502  14.666  1.00  0.00     0.046 A 
ATOM     21  HN  UNL     1     -43.191 -53.728  13.341  1.00  0.00     0.166 HD
HETATM   22  C   UNL     1     -42.649 -55.389  15.498  1.00  0.00     0.076 C 
HETATM   23  S   UNL     1     -40.110 -54.375  15.005  1.00  0.00    -0.087 SA
HETATM   24  C   UNL     1     -39.942 -53.290  13.693  1.00  0.00     0.076 A 
ENDBRANCH  17  18
ENDBRANCH  16  17
ENDBRANCH   1  16
TORSDOF 6
ENDMDL
MODEL 4
REMARK VINA RESULT:      -6.0      3.944      7.025
REMARK  6 active torsions:
REMARK  status: ('A' for Active; 'I' for Inactive)
REMARK    1  A    between atoms: C_5  and  C_6 
REMARK    2  A    between atoms: C_6  and  C_7 
REMARK    3  A    between atoms: C_7  and  N_8 
REMARK       I    between atoms: N_8  and  C_9 
REMARK    4  A    between atoms: C_9  and  C_11 
REMARK    5  A    between atoms: C_11  and  C_12 
REMARK    6  A    between atoms: C_12  and  C_13 
ROOT
HETATM    1  N   UNL     1     -41.528 -51.262  12.507  1.00  0.00    -0.361 N 
HETATM    2  C   UNL     1     -40.748 -52.373  12.716  1.00  0.00     0.217 C 
HETATM    3  O   UNL     1     -39.547 -52.325  12.967  1.00  0.00    -0.274 OA
HETATM    4  H   UNL     1     -42.470 -51.360  12.132  1.00  0.00     0.162 HD
ENDROOT
BRANCH   2   5
HETATM    5  C   UNL     1     -41.477 -53.689  12.557  1.00  0.00     0.105 C 
BRANCH   5   6
HETATM    6  C   UNL     1     -42.689 -53.734  13.487  1.00  0.00     0.044 C 
BRANCH   6   7
HETATM    7  C   UNL     1     -43.997 -53.952  12.743  1.00  0.00     0.179 C 
HETATM    8  N   UNL     1     -44.587 -52.710  12.294  1.00  0.00    -0.330 N 
HETATM    9  C   UNL     1     -45.919 -52.622  12.625  1.00  0.00     0.323 C 
HETATM   10  H   UNL     1     -44.168 -52.043  11.660  1.00  0.00     0.165 HD
HETATM   11  O   UNL     1     -46.666 -51.720  12.291  1.00  0.00    -0.247 OA
HETATM   12  N   UNL     1     -46.244 -53.690  13.384  1.00  0.00    -0.278 N 
HETATM   13  C   UNL     1     -45.159 -54.482  13.593  1.00  0.00     0.248 C 
HETATM   14  H   UNL     1     -47.152 -53.834  13.792  1.00  0.00     0.173 HD
HETATM   15  O   UNL     1     -45.144 -55.474  14.306  1.00  0.00    -0.271 OA
ENDBRANCH   6   7
ENDBRANCH   5   6
ENDBRANCH   2   5
BRANCH   1  16
HETATM   16  C   UNL     1     -40.964 -49.923  12.481  1.00  0.00     0.128 C 
BRANCH  16  17
HETATM   17  C   UNL     1     -40.759 -49.395  11.062  1.00  0.00     0.077 C 
BRANCH  17  18
HETATM   18  C   UNL     1     -41.084 -47.942  10.917  1.00  0.00     0.018 A 
HETATM   19  N   UNL     1     -40.048 -47.038  10.718  1.00  0.00    -0.357 N 
HETATM   20  C   UNL     1     -40.531 -45.822  10.571  1.00  0.00     0.046 A 
ATOM     21  HN  UNL     1     -39.058 -47.281  10.690  1.00  0.00     0.166 HD
HETATM   22  C   UNL     1     -39.708 -44.609  10.313  1.00  0.00     0.076 C 
HETATM   23  S   UNL     1     -42.240 -45.684  10.698  1.00  0.00    -0.087 SA
HETATM   24  C   UNL     1     -42.344 -47.374  10.944  1.00  0.00     0.076 A 
ENDBRANCH  17  18
ENDBRANCH  16  17
ENDBRANCH   1  16
TORSDOF 6
ENDMDL
MODEL 5
REMARK VINA RESULT:      -5.9      2.844      4.368
REMARK  6 active torsions:
REMARK  status: ('A' for Active; 'I' for Inactive)
REMARK    1  A    between atoms: C_5  and  C_6 
REMARK    2  A    between atoms: C_6  and  C_7 
REMARK    3  A    between atoms: C_7  and  N_8 
REMARK       I    between atoms: N_8  and  C_9 
REMARK    4  A    between atoms: C_9  and  C_11 
REMARK    5  A    between atoms: C_11  and  C_12 
REMARK    6  A    between atoms: C_12  and  C_13 
ROOT
HETATM    1  N   UNL     1     -38.821 -51.341  13.774  1.00  0.00    -0.361 N 
HETATM    2  C   UNL     1     -37.834 -51.053  12.863  1.00  0.00     0.217 C 
HETATM    3  O   UNL     1     -36.999 -51.869  12.483  1.00  0.00    -0.274 OA
HETATM    4  H   UNL     1     -39.373 -50.590  14.186  1.00  0.00     0.162 HD
ENDROOT
BRANCH   2   5
HETATM    5  C   UNL     1     -37.814 -49.615  12.395  1.00  0.00     0.105 C 
BRANCH   5   6
HETATM    6  C   UNL     1     -39.192 -48.983  12.579  1.00  0.00     0.044 C 
BRANCH   6   7
HETATM    7  C   UNL     1     -40.141 -49.288  11.431  1.00  0.00     0.179 C 
HETATM    8  N   UNL     1     -40.583 -48.091  10.750  1.00  0.00    -0.330 N 
HETATM    9  C   UNL     1     -41.948 -48.065  10.585  1.00  0.00     0.323 C 
HETATM   10  H   UNL     1     -39.993 -47.419  10.277  1.00  0.00     0.165 HD
HETATM   11  O   UNL     1     -42.565 -47.213   9.970  1.00  0.00    -0.247 OA
HETATM   12  N   UNL     1     -42.478 -49.130  11.224  1.00  0.00    -0.278 N 
HETATM   13  C   UNL     1     -41.507 -49.857  11.837  1.00  0.00     0.248 C 
HETATM   14  H   UNL     1     -43.465 -49.311  11.291  1.00  0.00     0.173 HD
HETATM   15  O   UNL     1     -41.706 -50.828  12.550  1.00  0.00    -0.271 OA
ENDBRANCH   6   7
ENDBRANCH   5   6
ENDBRANCH   2   5
BRANCH   1  16
HETATM   16  C   UNL     1     -38.902 -52.633  14.434  1.00  0.00     0.128 C 
BRANCH  16  17
HETATM   17  C   UNL     1     -39.536 -53.709  13.554  1.00  0.00     0.077 C 
BRANCH  17  18
HETATM   18  C   UNL     1     -40.963 -53.994  13.902  1.00  0.00     0.018 A 
HETATM   19  N   UNL     1     -41.948 -53.746  12.954  1.00  0.00    -0.357 N 
HETATM   20  C   UNL     1     -43.127 -54.097  13.425  1.00  0.00     0.046 A 
ATOM     21  HN  UNL     1     -41.782 -53.350  12.030  1.00  0.00     0.166 HD
HETATM   22  C   UNL     1     -44.405 -53.996  12.668  1.00  0.00     0.076 C 
HETATM   23  S   UNL     1     -43.130 -54.708  15.032  1.00  0.00    -0.087 SA
HETATM   24  C   UNL     1     -41.432 -54.510  15.096  1.00  0.00     0.076 A 
ENDBRANCH  17  18
ENDBRANCH  16  17
ENDBRANCH   1  16
TORSDOF 6
ENDMDL
MODEL 6
REMARK VINA RESULT:      -5.7      3.655      6.498
REMARK  6 active torsions:
REMARK  status: ('A' for Active; 'I' for Inactive)
REMARK    1  A    between atoms: C_5  and  C_6 
REMARK    2  A    between atoms: C_6  and  C_7 
REMARK    3  A    between atoms: C_7  and  N_8 
REMARK       I    between atoms: N_8  and  C_9 
REMARK    4  A    between atoms: C_9  and  C_11 
REMARK    5  A    between atoms: C_11  and  C_12 
REMARK    6  A    between atoms: C_12  and  C_13 
ROOT
HETATM    1  N   UNL     1     -39.699 -50.414  12.498  1.00  0.00    -0.361 N 
HETATM    2  C   UNL     1     -38.901 -51.399  13.026  1.00  0.00     0.217 C 
HETATM    3  O   UNL     1     -37.706 -51.518  12.771  1.00  0.00    -0.274 OA
HETATM    4  H   UNL     1     -40.711 -50.464  12.601  1.00  0.00     0.162 HD
ENDROOT
BRANCH   2   5
HETATM    5  C   UNL     1     -39.626 -52.380  13.921  1.00  0.00     0.105 C 
BRANCH   5   6
HETATM    6  C   UNL     1     -40.656 -53.166  13.112  1.00  0.00     0.044 C 
BRANCH   6   7
HETATM    7  C   UNL     1     -42.082 -52.934  13.586  1.00  0.00     0.179 C 
HETATM    8  N   UNL     1     -42.918 -54.101  13.406  1.00  0.00    -0.330 N 
HETATM    9  C   UNL     1     -44.109 -53.793  12.791  1.00  0.00     0.323 C 
HETATM   10  H   UNL     1     -42.773 -55.012  13.821  1.00  0.00     0.165 HD
HETATM   11  O   UNL     1     -45.022 -54.575  12.598  1.00  0.00    -0.247 OA
HETATM   12  N   UNL     1     -44.082 -52.492  12.431  1.00  0.00    -0.278 N 
HETATM   13  C   UNL     1     -42.894 -51.923  12.767  1.00  0.00     0.248 C 
HETATM   14  H   UNL     1     -44.818 -52.034  11.922  1.00  0.00     0.173 HD
HETATM   15  O   UNL     1     -42.564 -50.779  12.493  1.00  0.00    -0.271 OA
ENDBRANCH   6   7
ENDBRANCH   5   6
ENDBRANCH   2   5
BRANCH   1  16
HETATM   16  C   UNL     1     -39.201 -49.472  11.510  1.00  0.00     0.128 C 
BRANCH  16  17
HETATM   17  C   UNL     1     -39.355 -48.016  11.950  1.00  0.00     0.077 C 
BRANCH  17  18
HETATM   18  C   UNL     1     -40.556 -47.344  11.364  1.00  0.00     0.018 A 
HETATM   19  N   UNL     1     -41.244 -47.976  10.335  1.00  0.00    -0.357 N 
HETATM   20  C   UNL     1     -42.289 -47.256   9.982  1.00  0.00     0.046 A 
ATOM     21  HN  UNL     1     -40.979 -48.866   9.915  1.00  0.00     0.166 HD
HETATM   22  C   UNL     1     -43.267 -47.644   8.928  1.00  0.00     0.076 C 
HETATM   23  S   UNL     1     -42.488 -45.774  10.830  1.00  0.00    -0.087 SA
HETATM   24  C   UNL     1     -41.090 -46.129  11.750  1.00  0.00     0.076 A 
ENDBRANCH  17  18
ENDBRANCH  16  17
ENDBRANCH   1  16
TORSDOF 6
ENDMDL
MODEL 7
REMARK VINA RESULT:      -5.7      3.327      5.450
REMARK  6 active torsions:
REMARK  status: ('A' for Active; 'I' for Inactive)
REMARK    1  A    between atoms: C_5  and  C_6 
REMARK    2  A    between atoms: C_6  and  C_7 
REMARK    3  A    between atoms: C_7  and  N_8 
REMARK       I    between atoms: N_8  and  C_9 
REMARK    4  A    between atoms: C_9  and  C_11 
REMARK    5  A    between atoms: C_11  and  C_12 
REMARK    6  A    between atoms: C_12  and  C_13 
ROOT
HETATM    1  N   UNL     1     -43.399 -53.852  12.622  1.00  0.00    -0.361 N 
HETATM    2  C   UNL     1     -42.287 -54.063  13.399  1.00  0.00     0.217 C 
HETATM    3  O   UNL     1     -42.297 -54.706  14.444  1.00  0.00    -0.274 OA
HETATM    4  H   UNL     1     -43.374 -53.169  11.866  1.00  0.00     0.162 HD
ENDROOT
BRANCH   2   5
HETATM    5  C   UNL     1     -41.032 -53.385  12.894  1.00  0.00     0.105 C 
BRANCH   5   6
HETATM    6  C   UNL     1     -41.386 -52.356  11.821  1.00  0.00     0.044 C 
BRANCH   6   7
HETATM    7  C   UNL     1     -41.048 -50.931  12.234  1.00  0.00     0.179 C 
HETATM    8  N   UNL     1     -41.830 -49.951  11.514  1.00  0.00    -0.330 N 
HETATM    9  C   UNL     1     -41.046 -48.948  10.992  1.00  0.00     0.323 C 
HETATM   10  H   UNL     1     -42.838 -49.868  11.518  1.00  0.00     0.165 HD
HETATM   11  O   UNL     1     -41.464 -47.959  10.416  1.00  0.00    -0.247 OA
HETATM   12  N   UNL     1     -39.751 -49.255  11.216  1.00  0.00    -0.278 N 
HETATM   13  C   UNL     1     -39.642 -50.451  11.854  1.00  0.00     0.248 C 
HETATM   14  H   UNL     1     -38.977 -48.701  10.890  1.00  0.00     0.173 HD
HETATM   15  O   UNL     1     -38.588 -51.011  12.114  1.00  0.00    -0.271 OA
ENDBRANCH   6   7
ENDBRANCH   5   6
ENDBRANCH   2   5
BRANCH   1  16
HETATM   16  C   UNL     1     -44.717 -54.309  13.030  1.00  0.00     0.128 C 
BRANCH  16  17
HETATM   17  C   UNL     1     -45.700 -53.161  13.251  1.00  0.00     0.077 C 
BRANCH  17  18
HETATM   18  C   UNL     1     -46.002 -52.909  14.694  1.00  0.00     0.018 A 
HETATM   19  N   UNL     1     -46.958 -51.956  15.024  1.00  0.00    -0.357 N 
HETATM   20  C   UNL     1     -47.115 -51.907  16.331  1.00  0.00     0.046 A 
ATOM     21  HN  UNL     1     -47.464 -51.379  14.352  1.00  0.00     0.166 HD
HETATM   22  C   UNL     1     -48.079 -51.017  17.034  1.00  0.00     0.076 C 
HETATM   23  S   UNL     1     -46.110 -52.966  17.237  1.00  0.00    -0.087 SA
HETATM   24  C   UNL     1     -45.431 -53.548  15.778  1.00  0.00     0.076 A 
ENDBRANCH  17  18
ENDBRANCH  16  17
ENDBRANCH   1  16
TORSDOF 6
ENDMDL
MODEL 8
REMARK VINA RESULT:      -5.6      5.362      7.289
REMARK  6 active torsions:
REMARK  status: ('A' for Active; 'I' for Inactive)
REMARK    1  A    between atoms: C_5  and  C_6 
REMARK    2  A    between atoms: C_6  and  C_7 
REMARK    3  A    between atoms: C_7  and  N_8 
REMARK       I    between atoms: N_8  and  C_9 
REMARK    4  A    between atoms: C_9  and  C_11 
REMARK    5  A    between atoms: C_11  and  C_12 
REMARK    6  A    between atoms: C_12  and  C_13 
ROOT
HETATM    1  N   UNL     1     -42.607 -52.546  11.943  1.00  0.00    -0.361 N 
HETATM    2  C   UNL     1     -43.193 -53.490  12.750  1.00  0.00     0.217 C 
HETATM    3  O   UNL     1     -42.561 -54.291  13.432  1.00  0.00    -0.274 OA
HETATM    4  H   UNL     1     -43.168 -52.028  11.268  1.00  0.00     0.162 HD
ENDROOT
BRANCH   2   5
HETATM    5  C   UNL     1     -44.705 -53.509  12.694  1.00  0.00     0.105 C 
BRANCH   5   6
HETATM    6  C   UNL     1     -45.240 -54.759  13.392  1.00  0.00     0.044 C 
BRANCH   6   7
HETATM    7  C   UNL     1     -46.134 -54.437  14.579  1.00  0.00     0.179 C 
HETATM    8  N   UNL     1     -46.917 -53.240  14.368  1.00  0.00    -0.330 N 
HETATM    9  C   UNL     1     -46.840 -52.378  15.436  1.00  0.00     0.323 C 
HETATM   10  H   UNL     1     -47.594 -53.089  13.631  1.00  0.00     0.165 HD
HETATM   11  O   UNL     1     -47.470 -51.341  15.549  1.00  0.00    -0.247 OA
HETATM   12  N   UNL     1     -45.947 -52.869  16.321  1.00  0.00    -0.278 N 
HETATM   13  C   UNL     1     -45.403 -54.028  15.864  1.00  0.00     0.248 C 
HETATM   14  H   UNL     1     -45.677 -52.398  17.168  1.00  0.00     0.173 HD
HETATM   15  O   UNL     1     -44.511 -54.650  16.422  1.00  0.00    -0.271 OA
ENDBRANCH   6   7
ENDBRANCH   5   6
ENDBRANCH   2   5
BRANCH   1  16
HETATM   16  C   UNL     1     -41.166 -52.478  11.765  1.00  0.00     0.128 C 
BRANCH  16  17
HETATM   17  C   UNL     1     -40.504 -51.449  12.681  1.00  0.00     0.077 C 
BRANCH  17  18
HETATM   18  C   UNL     1     -39.925 -52.049  13.924  1.00  0.00     0.018 A 
HETATM   19  N   UNL     1     -39.684 -53.417  13.960  1.00  0.00    -0.357 N 
HETATM   20  C   UNL     1     -39.137 -53.748  15.111  1.00  0.00     0.046 A 
ATOM     21  HN  UNL     1     -39.898 -54.068  13.206  1.00  0.00     0.166 HD
HETATM   22  C   UNL     1     -38.720 -55.128  15.484  1.00  0.00     0.076 C 
HETATM   23  S   UNL     1     -38.914 -52.457  16.224  1.00  0.00    -0.087 SA
HETATM   24  C   UNL     1     -39.575 -51.373  15.077  1.00  0.00     0.076 A 
ENDBRANCH  17  18
ENDBRANCH  16  17
ENDBRANCH   1  16
TORSDOF 6
ENDMDL
MODEL 9
REMARK VINA RESULT:      -5.6      3.846      6.972
REMARK  6 active torsions:
REMARK  status: ('A' for Active; 'I' for Inactive)
REMARK    1  A    between atoms: C_5  and  C_6 
REMARK    2  A    between atoms: C_6  and  C_7 
REMARK    3  A    between atoms: C_7  and  N_8 
REMARK       I    between atoms: N_8  and  C_9 
REMARK    4  A    between atoms: C_9  and  C_11 
REMARK    5  A    between atoms: C_11  and  C_12 
REMARK    6  A    between atoms: C_12  and  C_13 
ROOT
HETATM    1  N   UNL     1     -43.288 -49.953  12.606  1.00  0.00    -0.361 N 
HETATM    2  C   UNL     1     -43.549 -50.661  13.753  1.00  0.00     0.217 C 
HETATM    3  O   UNL     1     -42.677 -51.154  14.462  1.00  0.00    -0.274 OA
HETATM    4  H   UNL     1     -44.045 -49.719  11.965  1.00  0.00     0.162 HD
ENDROOT
BRANCH   2   5
HETATM    5  C   UNL     1     -45.020 -50.843  14.057  1.00  0.00     0.105 C 
BRANCH   5   6
HETATM    6  C   UNL     1     -45.735 -51.447  12.849  1.00  0.00     0.044 C 
BRANCH   6   7
HETATM    7  C   UNL     1     -46.041 -52.927  13.022  1.00  0.00     0.179 C 
HETATM    8  N   UNL     1     -46.621 -53.220  14.314  1.00  0.00    -0.330 N 
HETATM    9  C   UNL     1     -45.995 -54.276  14.933  1.00  0.00     0.323 C 
HETATM   10  H   UNL     1     -47.488 -52.848  14.680  1.00  0.00     0.165 HD
HETATM   11  O   UNL     1     -46.342 -54.777  15.988  1.00  0.00    -0.247 OA
HETATM   12  N   UNL     1     -44.935 -54.646  14.184  1.00  0.00    -0.278 N 
HETATM   13  C   UNL     1     -44.818 -53.850  13.088  1.00  0.00     0.248 C 
HETATM   14  H   UNL     1     -44.286 -55.368  14.445  1.00  0.00     0.173 HD
HETATM   15  O   UNL     1     -43.907 -53.908  12.276  1.00  0.00    -0.271 OA
ENDBRANCH   6   7
ENDBRANCH   5   6
ENDBRANCH   2   5
BRANCH   1  16
HETATM   16  C   UNL     1     -41.939 -49.803  12.087  1.00  0.00     0.128 C 
BRANCH  16  17
HETATM   17  C   UNL     1     -41.536 -48.341  11.901  1.00  0.00     0.077 C 
BRANCH  17  18
HETATM   18  C   UNL     1     -42.253 -47.667  10.774  1.00  0.00     0.018 A 
HETATM   19  N   UNL     1     -42.393 -48.342   9.568  1.00  0.00    -0.357 N 
HETATM   20  C   UNL     1     -43.085 -47.611   8.718  1.00  0.00     0.046 A 
ATOM     21  HN  UNL     1     -42.015 -49.268   9.369  1.00  0.00     0.166 HD
HETATM   22  C   UNL     1     -43.450 -48.034   7.338  1.00  0.00     0.076 C 
HETATM   23  S   UNL     1     -43.575 -46.069   9.298  1.00  0.00    -0.087 SA
HETATM   24  C   UNL     1     -42.828 -46.410  10.799  1.00  0.00     0.076 A 
ENDBRANCH  17  18
ENDBRANCH  16  17
ENDBRANCH   1  16
TORSDOF 6
ENDMDL
