MODEL 1
REMARK VINA RESULT:      -6.0      0.000      0.000
REMARK  6 active torsions:
REMARK  status: ('A' for Active; 'I' for Inactive)
REMARK    1  A    between atoms: O_2  and  C_3 
REMARK    2  A    between atoms: C_3  and  C_4 
REMARK    3  A    between atoms: C_4  and  C_5 
REMARK    4  A    between atoms: C_5  and  C_6 
REMARK       I    between atoms: C_6  and  N_8 
REMARK    5  A    between atoms: N_8  and  C_9 
REMARK    6  A    between atoms: C_12  and  N_16 
ROOT
HETATM    1  C   UNL     1     -42.556 -51.451  12.938  1.00  0.00     0.050 A 
HETATM    2  C   UNL     1     -41.323 -51.338  12.317  1.00  0.00     0.035 A 
HETATM    3  C   UNL     1     -41.002 -50.182  11.604  1.00  0.00     0.051 A 
HETATM    4  C   UNL     1     -41.907 -49.124  11.508  1.00  0.00     0.103 A 
HETATM    5  N   UNL     1     -43.097 -49.208  12.143  1.00  0.00    -0.350 N 
ATOM      6  HN  UNL     1     -43.764 -48.437  12.100  1.00  0.00     0.166 HD
HETATM    7  C   UNL     1     -43.390 -50.342  12.840  1.00  0.00     0.119 A 
ENDROOT
BRANCH   1   8
HETATM    8  N   UNL     1     -42.976 -52.602  13.640  1.00  0.00    -0.326 N 
HETATM    9  C   UNL     1     -43.841 -53.573  13.159  1.00  0.00     0.222 C 
HETATM   10  O   UNL     1     -44.416 -53.562  12.075  1.00  0.00    -0.273 OA
HETATM   11  H   UNL     1     -42.669 -52.697  14.603  1.00  0.00     0.169 HD
BRANCH   9  12
HETATM   12  C   UNL     1     -44.008 -54.755  14.088  1.00  0.00     0.105 C 
BRANCH  12  13
HETATM   13  C   UNL     1     -45.437 -55.295  14.018  1.00  0.00     0.035 C 
BRANCH  13  14
HETATM   14  C   UNL     1     -46.432 -54.493  14.849  1.00  0.00     0.167 C 
BRANCH  14  15
HETATM   15  O   UNL     1     -45.962 -54.436  16.195  1.00  0.00    -0.396 OA
HETATM   16  C   UNL     1     -46.103 -53.132  16.745  1.00  0.00     0.201 C 
ENDBRANCH  14  15
ENDBRANCH  13  14
ENDBRANCH  12  13
ENDBRANCH   9  12
ENDBRANCH   1   8
BRANCH   4  17
HETATM   17  N   UNL     1     -41.628 -48.025  10.726  1.00  0.00    -0.362 N 
HETATM   18  C   UNL     1     -40.603 -47.032  11.074  1.00  0.00     0.156 C 
HETATM   19  C   UNL     1     -41.266 -45.672  11.376  1.00  0.00     0.136 C 
HETATM   20  C   UNL     1     -40.209 -44.600  11.610  1.00  0.00     0.041 C 
HETATM   21  O   UNL     1     -42.088 -45.242  10.275  1.00  0.00    -0.378 OA
HETATM   22  C   UNL     1     -43.143 -46.194  10.026  1.00  0.00     0.136 C 
HETATM   23  C   UNL     1     -43.962 -45.654   8.861  1.00  0.00     0.041 C 
HETATM   24  C   UNL     1     -42.572 -47.588   9.691  1.00  0.00     0.156 C 
ENDBRANCH   4  17
TORSDOF 6
ENDMDL
MODEL 2
REMARK VINA RESULT:      -5.8      1.799      8.361
REMARK  6 active torsions:
REMARK  status: ('A' for Active; 'I' for Inactive)
REMARK    1  A    between atoms: O_2  and  C_3 
REMARK    2  A    between atoms: C_3  and  C_4 
REMARK    3  A    between atoms: C_4  and  C_5 
REMARK    4  A    between atoms: C_5  and  C_6 
REMARK       I    between atoms: C_6  and  N_8 
REMARK    5  A    between atoms: N_8  and  C_9 
REMARK    6  A    between atoms: C_12  and  N_16 
ROOT
HETATM    1  C   UNL     1     -41.231 -49.024  11.380  1.00  0.00     0.050 A 
HETATM    2  C   UNL     1     -42.312 -49.259  12.212  1.00  0.00     0.035 A 
HETATM    3  C   UNL     1     -42.587 -50.555  12.652  1.00  0.00     0.051 A 
HETATM    4  C   UNL     1     -41.782 -51.628  12.270  1.00  0.00     0.103 A 
HETATM    5  N   UNL     1     -40.702 -51.404  11.489  1.00  0.00    -0.350 N 
ATOM      6  HN  UNL     1     -40.090 -52.173  11.215  1.00  0.00     0.166 HD
HETATM    7  C   UNL     1     -40.446 -50.131  11.076  1.00  0.00     0.119 A 
ENDROOT
BRANCH   1   8
HETATM    8  N   UNL     1     -40.910 -47.753  10.856  1.00  0.00    -0.326 N 
HETATM    9  C   UNL     1     -40.177 -46.771  11.504  1.00  0.00     0.222 C 
HETATM   10  O   UNL     1     -39.738 -46.828  12.649  1.00  0.00    -0.273 OA
HETATM   11  H   UNL     1     -41.301 -47.510   9.951  1.00  0.00     0.169 HD
BRANCH   9  12
HETATM   12  C   UNL     1     -39.885 -45.560  10.645  1.00  0.00     0.105 C 
BRANCH  12  13
HETATM   13  C   UNL     1     -40.853 -44.422  10.973  1.00  0.00     0.035 C 
BRANCH  13  14
HETATM   14  C   UNL     1     -42.317 -44.786  10.748  1.00  0.00     0.167 C 
BRANCH  14  15
HETATM   15  O   UNL     1     -42.460 -45.311   9.429  1.00  0.00    -0.396 OA
HETATM   16  C   UNL     1     -43.750 -45.874   9.226  1.00  0.00     0.201 C 
ENDBRANCH  14  15
ENDBRANCH  13  14
ENDBRANCH  12  13
ENDBRANCH   9  12
ENDBRANCH   1   8
BRANCH   4  17
HETATM   17  N   UNL     1     -42.109 -52.919  12.626  1.00  0.00    -0.362 N 
HETATM   18  C   UNL     1     -43.459 -53.476  12.475  1.00  0.00     0.156 C 
HETATM   19  C   UNL     1     -44.066 -53.772  13.862  1.00  0.00     0.136 C 
HETATM   20  C   UNL     1     -45.412 -54.471  13.719  1.00  0.00     0.041 C 
HETATM   21  O   UNL     1     -43.206 -54.634  14.628  1.00  0.00    -0.378 OA
HETATM   22  C   UNL     1     -41.921 -54.012  14.841  1.00  0.00     0.136 C 
HETATM   23  C   UNL     1     -41.088 -54.985  15.665  1.00  0.00     0.041 C 
HETATM   24  C   UNL     1     -41.223 -53.696  13.501  1.00  0.00     0.156 C 
ENDBRANCH   4  17
TORSDOF 6
ENDMDL
MODEL 3
REMARK VINA RESULT:      -5.7      1.922      2.800
REMARK  6 active torsions:
REMARK  status: ('A' for Active; 'I' for Inactive)
REMARK    1  A    between atoms: O_2  and  C_3 
REMARK    2  A    between atoms: C_3  and  C_4 
REMARK    3  A    between atoms: C_4  and  C_5 
REMARK    4  A    between atoms: C_5  and  C_6 
REMARK       I    between atoms: C_6  and  N_8 
REMARK    5  A    between atoms: N_8  and  C_9 
REMARK    6  A    between atoms: C_12  and  N_16 
ROOT
HETATM    1  C   UNL     1     -42.205 -51.367  13.042  1.00  0.00     0.050 A 
HETATM    2  C   UNL     1     -43.015 -50.254  13.186  1.00  0.00     0.035 A 
HETATM    3  C   UNL     1     -42.832 -49.145  12.357  1.00  0.00     0.051 A 
HETATM    4  C   UNL     1     -41.844 -49.140  11.373  1.00  0.00     0.103 A 
HETATM    5  N   UNL     1     -41.074 -50.237  11.198  1.00  0.00    -0.350 N 
ATOM      6  HN  UNL     1     -40.359 -50.260  10.471  1.00  0.00     0.166 HD
HETATM    7  C   UNL     1     -41.272 -51.312  12.013  1.00  0.00     0.119 A 
ENDROOT
BRANCH   1   8
HETATM    8  N   UNL     1     -42.294 -52.510  13.867  1.00  0.00    -0.326 N 
HETATM    9  C   UNL     1     -43.053 -53.641  13.606  1.00  0.00     0.222 C 
HETATM   10  O   UNL     1     -43.804 -53.807  12.649  1.00  0.00    -0.273 OA
HETATM   11  H   UNL     1     -41.811 -52.479  14.760  1.00  0.00     0.169 HD
BRANCH   9  12
HETATM   12  C   UNL     1     -42.851 -54.757  14.608  1.00  0.00     0.105 C 
BRANCH  12  13
HETATM   13  C   UNL     1     -42.075 -54.251  15.825  1.00  0.00     0.035 C 
BRANCH  13  14
HETATM   14  C   UNL     1     -40.639 -54.761  15.885  1.00  0.00     0.167 C 
BRANCH  14  15
HETATM   15  O   UNL     1     -39.805 -53.866  15.152  1.00  0.00    -0.396 OA
HETATM   16  C   UNL     1     -39.194 -54.510  14.040  1.00  0.00     0.201 C 
ENDBRANCH  14  15
ENDBRANCH  13  14
ENDBRANCH  12  13
ENDBRANCH   9  12
ENDBRANCH   1   8
BRANCH   4  17
HETATM   17  N   UNL     1     -41.602 -48.012  10.620  1.00  0.00    -0.362 N 
HETATM   18  C   UNL     1     -40.584 -47.015  10.972  1.00  0.00     0.156 C 
HETATM   19  C   UNL     1     -41.258 -45.676  11.335  1.00  0.00     0.136 C 
HETATM   20  C   UNL     1     -40.210 -44.596  11.576  1.00  0.00     0.041 C 
HETATM   21  O   UNL     1     -42.114 -45.224  10.271  1.00  0.00    -0.378 OA
HETATM   22  C   UNL     1     -43.163 -46.184  10.019  1.00  0.00     0.136 C 
HETATM   23  C   UNL     1     -44.020 -45.619   8.894  1.00  0.00     0.041 C 
HETATM   24  C   UNL     1     -42.581 -47.557   9.624  1.00  0.00     0.156 C 
ENDBRANCH   4  17
TORSDOF 6
ENDMDL
MODEL 4
REMARK VINA RESULT:      -5.7      1.729      2.158
REMARK  6 active torsions:
REMARK  status: ('A' for Active; 'I' for Inactive)
REMARK    1  A    between atoms: O_2  and  C_3 
REMARK    2  A    between atoms: C_3  and  C_4 
REMARK    3  A    between atoms: C_4  and  C_5 
REMARK    4  A    between atoms: C_5  and  C_6 
REMARK       I    between atoms: C_6  and  N_8 
REMARK    5  A    between atoms: N_8  and  C_9 
REMARK    6  A    between atoms: C_12  and  N_16 
ROOT
HETATM    1  C   UNL     1     -41.284 -50.785  13.386  1.00  0.00     0.050 A 
HETATM    2  C   UNL     1     -40.281 -49.832  13.436  1.00  0.00     0.035 A 
HETATM    3  C   UNL     1     -40.304 -48.745  12.559  1.00  0.00     0.051 A 
HETATM    4  C   UNL     1     -41.332 -48.597  11.628  1.00  0.00     0.103 A 
HETATM    5  N   UNL     1     -42.337 -49.502  11.596  1.00  0.00    -0.350 N 
ATOM      6  HN  UNL     1     -43.107 -49.400  10.935  1.00  0.00     0.166 HD
HETATM    7  C   UNL     1     -42.300 -50.551  12.465  1.00  0.00     0.119 A 
ENDROOT
BRANCH   1   8
HETATM    8  N   UNL     1     -41.311 -51.935  14.205  1.00  0.00    -0.326 N 
HETATM    9  C   UNL     1     -40.722 -53.154  13.909  1.00  0.00     0.222 C 
HETATM   10  O   UNL     1     -40.130 -53.444  12.873  1.00  0.00    -0.273 OA
HETATM   11  H   UNL     1     -41.863 -51.887  15.056  1.00  0.00     0.169 HD
BRANCH   9  12
HETATM   12  C   UNL     1     -40.809 -54.163  15.033  1.00  0.00     0.105 C 
BRANCH  12  13
HETATM   13  C   UNL     1     -42.269 -54.443  15.391  1.00  0.00     0.035 C 
BRANCH  13  14
HETATM   14  C   UNL     1     -43.133 -54.801  14.187  1.00  0.00     0.167 C 
BRANCH  14  15
HETATM   15  O   UNL     1     -44.339 -55.406  14.652  1.00  0.00    -0.396 OA
HETATM   16  C   UNL     1     -45.457 -55.022  13.862  1.00  0.00     0.201 C 
ENDBRANCH  14  15
ENDBRANCH  13  14
ENDBRANCH  12  13
ENDBRANCH   9  12
ENDBRANCH   1   8
BRANCH   4  17
HETATM   17  N   UNL     1     -41.304 -47.579  10.700  1.00  0.00    -0.362 N 
HETATM   18  C   UNL     1     -40.388 -46.435  10.792  1.00  0.00     0.156 C 
HETATM   19  C   UNL     1     -41.185 -45.137  11.035  1.00  0.00     0.136 C 
HETATM   20  C   UNL     1     -40.261 -43.926  11.002  1.00  0.00     0.041 C 
HETATM   21  O   UNL     1     -42.188 -44.950  10.021  1.00  0.00    -0.378 OA
HETATM   22  C   UNL     1     -43.129 -46.045  10.026  1.00  0.00     0.136 C 
HETATM   23  C   UNL     1     -44.152 -45.755   8.936  1.00  0.00     0.041 C 
HETATM   24  C   UNL     1     -42.421 -47.391   9.766  1.00  0.00     0.156 C 
ENDBRANCH   4  17
TORSDOF 6
ENDMDL
MODEL 5
REMARK VINA RESULT:      -5.4      1.809      8.516
REMARK  6 active torsions:
REMARK  status: ('A' for Active; 'I' for Inactive)
REMARK    1  A    between atoms: O_2  and  C_3 
REMARK    2  A    between atoms: C_3  and  C_4 
REMARK    3  A    between atoms: C_4  and  C_5 
REMARK    4  A    between atoms: C_5  and  C_6 
REMARK       I    between atoms: C_6  and  N_8 
REMARK    5  A    between atoms: N_8  and  C_9 
REMARK    6  A    between atoms: C_12  and  N_16 
ROOT
HETATM    1  C   UNL     1     -41.703 -49.246  11.778  1.00  0.00     0.050 A 
HETATM    2  C   UNL     1     -42.699 -49.577  12.680  1.00  0.00     0.035 A 
HETATM    3  C   UNL     1     -42.883 -50.908  13.060  1.00  0.00     0.051 A 
HETATM    4  C   UNL     1     -42.071 -51.920  12.548  1.00  0.00     0.103 A 
HETATM    5  N   UNL     1     -41.070 -51.602  11.696  1.00  0.00    -0.350 N 
ATOM      6  HN  UNL     1     -40.454 -52.325  11.326  1.00  0.00     0.166 HD
HETATM    7  C   UNL     1     -40.902 -50.297  11.342  1.00  0.00     0.119 A 
ENDROOT
BRANCH   1   8
HETATM    8  N   UNL     1     -41.479 -47.933  11.308  1.00  0.00    -0.326 N 
HETATM    9  C   UNL     1     -42.153 -47.321  10.262  1.00  0.00     0.222 C 
HETATM   10  O   UNL     1     -43.011 -47.836   9.550  1.00  0.00    -0.273 OA
HETATM   11  H   UNL     1     -40.716 -47.412  11.728  1.00  0.00     0.169 HD
BRANCH   9  12
HETATM   12  C   UNL     1     -41.786 -45.867  10.067  1.00  0.00     0.105 C 
BRANCH  12  13
HETATM   13  C   UNL     1     -40.423 -45.568  10.693  1.00  0.00     0.035 C 
BRANCH  13  14
HETATM   14  C   UNL     1     -40.164 -44.081  10.906  1.00  0.00     0.167 C 
BRANCH  14  15
HETATM   15  O   UNL     1     -39.622 -43.894  12.213  1.00  0.00    -0.396 OA
HETATM   16  C   UNL     1     -39.429 -45.133  12.883  1.00  0.00     0.201 C 
ENDBRANCH  14  15
ENDBRANCH  13  14
ENDBRANCH  12  13
ENDBRANCH   9  12
ENDBRANCH   1   8
BRANCH   4  17
HETATM   17  N   UNL     1     -42.314 -53.242  12.849  1.00  0.00    -0.362 N 
HETATM   18  C   UNL     1     -43.620 -53.883  12.653  1.00  0.00     0.156 C 
HETATM   19  C   UNL     1     -44.228 -54.273  14.016  1.00  0.00     0.136 C 
HETATM   20  C   UNL     1     -45.521 -55.056  13.822  1.00  0.00     0.041 C 
HETATM   21  O   UNL     1     -43.323 -55.103  14.766  1.00  0.00    -0.378 OA
HETATM   22  C   UNL     1     -42.087 -54.404  15.026  1.00  0.00     0.136 C 
HETATM   23  C   UNL     1     -41.204 -55.349  15.829  1.00  0.00     0.041 C 
HETATM   24  C   UNL     1     -41.392 -53.991  13.712  1.00  0.00     0.156 C 
ENDBRANCH   4  17
TORSDOF 6
ENDMDL
MODEL 6
REMARK VINA RESULT:      -5.4      2.768      8.562
REMARK  6 active torsions:
REMARK  status: ('A' for Active; 'I' for Inactive)
REMARK    1  A    between atoms: O_2  and  C_3 
REMARK    2  A    between atoms: C_3  and  C_4 
REMARK    3  A    between atoms: C_4  and  C_5 
REMARK    4  A    between atoms: C_5  and  C_6 
REMARK       I    between atoms: C_6  and  N_8 
REMARK    5  A    between atoms: N_8  and  C_9 
REMARK    6  A    between atoms: C_12  and  N_16 
ROOT
HETATM    1  C   UNL     1     -39.714 -49.267  11.754  1.00  0.00     0.050 A 
HETATM    2  C   UNL     1     -39.067 -49.794  12.859  1.00  0.00     0.035 A 
HETATM    3  C   UNL     1     -39.320 -51.109  13.256  1.00  0.00     0.051 A 
HETATM    4  C   UNL     1     -40.216 -51.911  12.550  1.00  0.00     0.103 A 
HETATM    5  N   UNL     1     -40.824 -51.419  11.447  1.00  0.00    -0.350 N 
ATOM      6  HN  UNL     1     -41.468 -51.997  10.907  1.00  0.00     0.166 HD
HETATM    7  C   UNL     1     -40.559 -50.136  11.072  1.00  0.00     0.119 A 
ENDROOT
BRANCH   1   8
HETATM    8  N   UNL     1     -39.549 -47.936  11.313  1.00  0.00    -0.326 N 
HETATM    9  C   UNL     1     -40.468 -46.910  11.474  1.00  0.00     0.222 C 
HETATM   10  O   UNL     1     -41.585 -47.005  11.976  1.00  0.00    -0.273 OA
HETATM   11  H   UNL     1     -38.714 -47.723  10.776  1.00  0.00     0.169 HD
BRANCH   9  12
HETATM   12  C   UNL     1     -39.963 -45.560  11.012  1.00  0.00     0.105 C 
BRANCH  12  13
HETATM   13  C   UNL     1     -40.118 -44.520  12.123  1.00  0.00     0.035 C 
BRANCH  13  14
HETATM   14  C   UNL     1     -38.909 -44.434  13.048  1.00  0.00     0.167 C 
BRANCH  14  15
HETATM   15  O   UNL     1     -39.363 -44.125  14.365  1.00  0.00    -0.396 OA
HETATM   16  C   UNL     1     -40.348 -45.048  14.811  1.00  0.00     0.201 C 
ENDBRANCH  14  15
ENDBRANCH  13  14
ENDBRANCH  12  13
ENDBRANCH   9  12
ENDBRANCH   1   8
BRANCH   4  17
HETATM   17  N   UNL     1     -40.537 -53.175  12.997  1.00  0.00    -0.362 N 
HETATM   18  C   UNL     1     -41.914 -53.681  13.052  1.00  0.00     0.156 C 
HETATM   19  C   UNL     1     -42.337 -53.905  14.518  1.00  0.00     0.136 C 
HETATM   20  C   UNL     1     -43.713 -54.554  14.586  1.00  0.00     0.041 C 
HETATM   21  O   UNL     1     -41.411 -54.775  15.195  1.00  0.00    -0.378 OA
HETATM   22  C   UNL     1     -40.088 -54.199  15.208  1.00  0.00     0.136 C 
HETATM   23  C   UNL     1     -39.186 -55.176  15.950  1.00  0.00     0.041 C 
HETATM   24  C   UNL     1     -39.568 -53.957  13.775  1.00  0.00     0.156 C 
ENDBRANCH   4  17
TORSDOF 6
ENDMDL
MODEL 7
REMARK VINA RESULT:      -5.3      1.919      8.295
REMARK  6 active torsions:
REMARK  status: ('A' for Active; 'I' for Inactive)
REMARK    1  A    between atoms: O_2  and  C_3 
REMARK    2  A    between atoms: C_3  and  C_4 
REMARK    3  A    between atoms: C_4  and  C_5 
REMARK    4  A    between atoms: C_5  and  C_6 
REMARK       I    between atoms: C_6  and  N_8 
REMARK    5  A    between atoms: N_8  and  C_9 
REMARK    6  A    between atoms: C_12  and  N_16 
ROOT
HETATM    1  C   UNL     1     -41.277 -48.173  12.180  1.00  0.00     0.050 A 
HETATM    2  C   UNL     1     -42.194 -48.090  13.215  1.00  0.00     0.035 A 
HETATM    3  C   UNL     1     -43.006 -49.185  13.518  1.00  0.00     0.051 A 
HETATM    4  C   UNL     1     -42.908 -50.373  12.795  1.00  0.00     0.103 A 
HETATM    5  N   UNL     1     -41.990 -50.477  11.808  1.00  0.00    -0.350 N 
ATOM      6  HN  UNL     1     -41.890 -51.345  11.281  1.00  0.00     0.166 HD
HETATM    7  C   UNL     1     -41.201 -49.401  11.531  1.00  0.00     0.119 A 
ENDROOT
BRANCH   1   8
HETATM    8  N   UNL     1     -40.451 -47.100  11.781  1.00  0.00    -0.326 N 
HETATM    9  C   UNL     1     -40.758 -46.158  10.811  1.00  0.00     0.222 C 
HETATM   10  O   UNL     1     -41.768 -46.135  10.114  1.00  0.00    -0.273 OA
HETATM   11  H   UNL     1     -39.524 -47.048  12.192  1.00  0.00     0.169 HD
BRANCH   9  12
HETATM   12  C   UNL     1     -39.733 -45.052  10.687  1.00  0.00     0.105 C 
BRANCH  12  13
HETATM   13  C   UNL     1     -40.147 -43.840  11.522  1.00  0.00     0.035 C 
BRANCH  13  14
HETATM   14  C   UNL     1     -39.275 -43.623  12.754  1.00  0.00     0.167 C 
BRANCH  14  15
HETATM   15  O   UNL     1     -38.845 -44.894  13.239  1.00  0.00    -0.396 OA
HETATM   16  C   UNL     1     -39.353 -45.158  14.541  1.00  0.00     0.201 C 
ENDBRANCH  14  15
ENDBRANCH  13  14
ENDBRANCH  12  13
ENDBRANCH   9  12
ENDBRANCH   1   8
BRANCH   4  17
HETATM   17  N   UNL     1     -43.774 -51.418  13.031  1.00  0.00    -0.362 N 
HETATM   18  C   UNL     1     -45.187 -51.226  13.382  1.00  0.00     0.156 C 
HETATM   19  C   UNL     1     -45.445 -51.713  14.822  1.00  0.00     0.136 C 
HETATM   20  C   UNL     1     -46.930 -51.642  15.154  1.00  0.00     0.041 C 
HETATM   21  O   UNL     1     -45.026 -53.080  14.987  1.00  0.00    -0.378 OA
HETATM   22  C   UNL     1     -43.612 -53.214  14.731  1.00  0.00     0.136 C 
HETATM   23  C   UNL     1     -43.260 -54.680  14.940  1.00  0.00     0.041 C 
HETATM   24  C   UNL     1     -43.259 -52.767  13.296  1.00  0.00     0.156 C 
ENDBRANCH   4  17
TORSDOF 6
ENDMDL
MODEL 8
REMARK VINA RESULT:      -5.3      2.019      8.658
REMARK  6 active torsions:
REMARK  status: ('A' for Active; 'I' for Inactive)
REMARK    1  A    between atoms: O_2  and  C_3 
REMARK    2  A    between atoms: C_3  and  C_4 
REMARK    3  A    between atoms: C_4  and  C_5 
REMARK    4  A    between atoms: C_5  and  C_6 
REMARK       I    between atoms: C_6  and  N_8 
REMARK    5  A    between atoms: N_8  and  C_9 
REMARK    6  A    between atoms: C_12  and  N_16 
ROOT
HETATM    1  C   UNL     1     -41.425 -49.739  12.169  1.00  0.00     0.050 A 
HETATM    2  C   UNL     1     -40.605 -50.828  11.925  1.00  0.00     0.035 A 
HETATM    3  C   UNL     1     -41.062 -52.120  12.191  1.00  0.00     0.051 A 
HETATM    4  C   UNL     1     -42.344 -52.338  12.698  1.00  0.00     0.103 A 
HETATM    5  N   UNL     1     -43.165 -51.284  12.903  1.00  0.00    -0.350 N 
ATOM      6  HN  UNL     1     -44.112 -51.425  13.255  1.00  0.00     0.166 HD
HETATM    7  C   UNL     1     -42.704 -50.031  12.631  1.00  0.00     0.119 A 
ENDROOT
BRANCH   1   8
HETATM    8  N   UNL     1     -41.025 -48.399  11.970  1.00  0.00    -0.326 N 
HETATM    9  C   UNL     1     -40.476 -47.566  12.934  1.00  0.00     0.222 C 
HETATM   10  O   UNL     1     -40.300 -47.841  14.117  1.00  0.00    -0.273 OA
HETATM   11  H   UNL     1     -41.211 -47.988  11.062  1.00  0.00     0.169 HD
BRANCH   9  12
HETATM   12  C   UNL     1     -40.028 -46.224  12.397  1.00  0.00     0.105 C 
BRANCH  12  13
HETATM   13  C   UNL     1     -40.001 -46.240  10.868  1.00  0.00     0.035 C 
BRANCH  13  14
HETATM   14  C   UNL     1     -39.842 -44.855  10.249  1.00  0.00     0.167 C 
BRANCH  14  15
HETATM   15  O   UNL     1     -41.024 -44.100  10.509  1.00  0.00    -0.396 OA
HETATM   16  C   UNL     1     -40.731 -42.883  11.184  1.00  0.00     0.201 C 
ENDBRANCH  14  15
ENDBRANCH  13  14
ENDBRANCH  12  13
ENDBRANCH   9  12
ENDBRANCH   1   8
BRANCH   4  17
HETATM   17  N   UNL     1     -42.759 -53.604  13.049  1.00  0.00    -0.362 N 
HETATM   18  C   UNL     1     -44.145 -54.065  12.897  1.00  0.00     0.156 C 
HETATM   19  C   UNL     1     -44.771 -54.323  14.283  1.00  0.00     0.136 C 
HETATM   20  C   UNL     1     -46.162 -54.926  14.139  1.00  0.00     0.041 C 
HETATM   21  O   UNL     1     -43.972 -55.245  15.046  1.00  0.00    -0.378 OA
HETATM   22  C   UNL     1     -42.647 -54.715  15.261  1.00  0.00     0.136 C 
HETATM   23  C   UNL     1     -41.884 -55.747  16.081  1.00  0.00     0.041 C 
HETATM   24  C   UNL     1     -41.930 -54.444  13.921  1.00  0.00     0.156 C 
ENDBRANCH   4  17
TORSDOF 6
ENDMDL
MODEL 9
REMARK VINA RESULT:      -5.2      3.851      7.753
REMARK  6 active torsions:
REMARK  status: ('A' for Active; 'I' for Inactive)
REMARK    1  A    between atoms: O_2  and  C_3 
REMARK    2  A    between atoms: C_3  and  C_4 
REMARK    3  A    between atoms: C_4  and  C_5 
REMARK    4  A    between atoms: C_5  and  C_6 
REMARK       I    between atoms: C_6  and  N_8 
REMARK    5  A    between atoms: N_8  and  C_9 
REMARK    6  A    between atoms: C_12  and  N_16 
ROOT
HETATM    1  C   UNL     1     -40.655 -49.494  11.204  1.00  0.00     0.050 A 
HETATM    2  C   UNL     1     -39.415 -49.109  11.683  1.00  0.00     0.035 A 
HETATM    3  C   UNL     1     -38.755 -49.899  12.627  1.00  0.00     0.051 A 
HETATM    4  C   UNL     1     -39.323 -51.083  13.095  1.00  0.00     0.103 A 
HETATM    5  N   UNL     1     -40.516 -51.488  12.604  1.00  0.00    -0.350 N 
ATOM      6  HN  UNL     1     -40.939 -52.361  12.920  1.00  0.00     0.166 HD
HETATM    7  C   UNL     1     -41.142 -50.708  11.679  1.00  0.00     0.119 A 
ENDROOT
BRANCH   1   8
HETATM    8  N   UNL     1     -41.409 -48.732  10.284  1.00  0.00    -0.326 N 
HETATM    9  C   UNL     1     -42.530 -47.975  10.587  1.00  0.00     0.222 C 
HETATM   10  O   UNL     1     -43.074 -47.887  11.685  1.00  0.00    -0.273 OA
HETATM   11  H   UNL     1     -41.148 -48.792   9.305  1.00  0.00     0.169 HD
BRANCH   9  12
HETATM   12  C   UNL     1     -43.054 -47.165   9.421  1.00  0.00     0.105 C 
BRANCH  12  13
HETATM   13  C   UNL     1     -44.445 -47.651   9.011  1.00  0.00     0.035 C 
BRANCH  13  14
HETATM   14  C   UNL     1     -45.495 -46.546   8.995  1.00  0.00     0.167 C 
BRANCH  14  15
HETATM   15  O   UNL     1     -46.776 -47.136   8.777  1.00  0.00    -0.396 OA
HETATM   16  C   UNL     1     -46.677 -48.536   8.554  1.00  0.00     0.201 C 
ENDBRANCH  14  15
ENDBRANCH  13  14
ENDBRANCH  12  13
ENDBRANCH   9  12
ENDBRANCH   1   8
BRANCH   4  17
HETATM   17  N   UNL     1     -38.716 -51.812  14.094  1.00  0.00    -0.362 N 
HETATM   18  C   UNL     1     -38.841 -53.270  14.214  1.00  0.00     0.156 C 
HETATM   19  C   UNL     1     -39.616 -53.630  15.498  1.00  0.00     0.136 C 
HETATM   20  C   UNL     1     -39.641 -55.139  15.704  1.00  0.00     0.041 C 
HETATM   21  O   UNL     1     -38.999 -53.041  16.656  1.00  0.00    -0.378 OA
HETATM   22  C   UNL     1     -38.982 -51.602  16.548  1.00  0.00     0.136 C 
HETATM   23  C   UNL     1     -38.326 -51.070  17.816  1.00  0.00     0.041 C 
HETATM   24  C   UNL     1     -38.204 -51.144  15.297  1.00  0.00     0.156 C 
ENDBRANCH   4  17
TORSDOF 6
ENDMDL
