MODEL 1
REMARK VINA RESULT:      -5.5      0.000      0.000
REMARK  6 active torsions:
REMARK  status: ('A' for Active; 'I' for Inactive)
REMARK    1  A    between atoms: C_2  and  C_3 
REMARK       I    between atoms: C_2  and  N_9 
REMARK    2  A    between atoms: C_3  and  C_4 
REMARK    3  A    between atoms: C_4  and  C_5 
REMARK    4  A    between atoms: C_5  and  C_6 
REMARK    5  A    between atoms: N_9  and  C_10 
REMARK    6  A    between atoms: C_16  and  N_17 
ROOT
HETATM    1  C   UNL     1     -47.624 -51.512  16.534  1.00  0.00     0.093 C 
HETATM    2  C   UNL     1     -46.603 -50.587  17.176  1.00  0.00    -0.117 C 
HETATM    3  C   UNL     1     -45.727 -49.794  17.727  1.00  0.00     0.012 C 
ENDROOT
BRANCH   1   4
HETATM    4  C   UNL     1     -47.035 -52.263  15.352  1.00  0.00     0.012 C 
BRANCH   4   5
HETATM    5  C   UNL     1     -46.556 -51.266  14.298  1.00  0.00     0.010 C 
BRANCH   5   6
HETATM    6  C   UNL     1     -46.564 -51.877  12.906  1.00  0.00     0.103 C 
BRANCH   6   7
HETATM    7  C   UNL     1     -45.319 -52.709  12.685  1.00  0.00     0.222 C 
HETATM    8  O   UNL     1     -45.384 -53.910  12.446  1.00  0.00    -0.273 OA
HETATM    9  N   UNL     1     -44.153 -51.988  12.854  1.00  0.00    -0.324 N 
HETATM   10  H   UNL     1     -44.210 -51.140  13.408  1.00  0.00     0.169 HD
BRANCH   9  11
HETATM   11  C   UNL     1     -42.895 -52.625  12.935  1.00  0.00     0.077 A 
HETATM   12  C   UNL     1     -42.060 -52.739  11.825  1.00  0.00     0.119 A 
HETATM   13  N   UNL     1     -40.813 -53.256  11.876  1.00  0.00    -0.373 N 
HETATM   14  C   UNL     1     -40.402 -53.695  13.083  1.00  0.00     0.090 A 
ATOM     15  HN  UNL     1     -40.218 -53.313  11.050  1.00  0.00     0.164 HD
HETATM   16  C   UNL     1     -41.169 -53.634  14.243  1.00  0.00     0.048 A 
HETATM   17  C   UNL     1     -42.456 -53.090  14.195  1.00  0.00     0.060 A 
BRANCH  17  18
HETATM   18  N   UNL     1     -43.292 -53.016  15.315  1.00  0.00    -0.375 N 
HETATM   19  C   UNL     1     -43.116 -51.959  16.331  1.00  0.00     0.149 C 
HETATM   20  C   UNL     1     -42.482 -52.502  17.621  1.00  0.00     0.187 C 
HETATM   21  O   UNL     1     -43.214 -53.625  18.133  1.00  0.00    -0.388 OA
HETATM   22  C   UNL     1     -43.189 -54.690  17.179  1.00  0.00     0.187 C 
HETATM   23  C   UNL     1     -43.849 -54.282  15.858  1.00  0.00     0.149 C 
ENDBRANCH  17  18
ENDBRANCH   9  11
ENDBRANCH   6   7
ENDBRANCH   5   6
ENDBRANCH   4   5
ENDBRANCH   1   4
TORSDOF 6
ENDMDL
MODEL 2
REMARK VINA RESULT:      -5.4      3.645      5.139
REMARK  6 active torsions:
REMARK  status: ('A' for Active; 'I' for Inactive)
REMARK    1  A    between atoms: C_2  and  C_3 
REMARK       I    between atoms: C_2  and  N_9 
REMARK    2  A    between atoms: C_3  and  C_4 
REMARK    3  A    between atoms: C_4  and  C_5 
REMARK    4  A    between atoms: C_5  and  C_6 
REMARK    5  A    between atoms: N_9  and  C_10 
REMARK    6  A    between atoms: C_16  and  N_17 
ROOT
HETATM    1  C   UNL     1     -43.553 -47.443   8.588  1.00  0.00     0.093 C 
HETATM    2  C   UNL     1     -45.056 -47.435   8.810  1.00  0.00    -0.117 C 
HETATM    3  C   UNL     1     -46.346 -47.429   9.000  1.00  0.00     0.012 C 
ENDROOT
BRANCH   1   4
HETATM    4  C   UNL     1     -42.802 -46.961   9.819  1.00  0.00     0.012 C 
BRANCH   4   5
HETATM    5  C   UNL     1     -42.190 -48.155  10.547  1.00  0.00     0.010 C 
BRANCH   5   6
HETATM    6  C   UNL     1     -42.404 -48.063  12.049  1.00  0.00     0.103 C 
BRANCH   6   7
HETATM    7  C   UNL     1     -42.088 -49.386  12.713  1.00  0.00     0.222 C 
HETATM    8  O   UNL     1     -41.333 -49.457  13.676  1.00  0.00    -0.273 OA
HETATM    9  N   UNL     1     -42.673 -50.463  12.074  1.00  0.00    -0.324 N 
HETATM   10  H   UNL     1     -42.943 -50.334  11.104  1.00  0.00     0.169 HD
BRANCH   9  11
HETATM   11  C   UNL     1     -42.309 -51.792  12.380  1.00  0.00     0.077 A 
HETATM   12  C   UNL     1     -41.177 -52.387  11.825  1.00  0.00     0.119 A 
HETATM   13  N   UNL     1     -40.739 -53.620  12.159  1.00  0.00    -0.373 N 
HETATM   14  C   UNL     1     -41.479 -54.286  13.067  1.00  0.00     0.090 A 
ATOM     15  HN  UNL     1     -39.898 -54.024  11.747  1.00  0.00     0.164 HD
HETATM   16  C   UNL     1     -42.629 -53.780  13.667  1.00  0.00     0.048 A 
HETATM   17  C   UNL     1     -43.079 -52.500  13.330  1.00  0.00     0.060 A 
BRANCH  17  18
HETATM   18  N   UNL     1     -44.238 -51.934  13.875  1.00  0.00    -0.375 N 
HETATM   19  C   UNL     1     -44.317 -51.588  15.308  1.00  0.00     0.149 C 
HETATM   20  C   UNL     1     -45.190 -52.582  16.091  1.00  0.00     0.187 C 
HETATM   21  O   UNL     1     -46.489 -52.721  15.497  1.00  0.00    -0.388 OA
HETATM   22  C   UNL     1     -46.357 -53.240  14.170  1.00  0.00     0.187 C 
HETATM   23  C   UNL     1     -45.545 -52.301  13.273  1.00  0.00     0.149 C 
ENDBRANCH  17  18
ENDBRANCH   9  11
ENDBRANCH   6   7
ENDBRANCH   5   6
ENDBRANCH   4   5
ENDBRANCH   1   4
TORSDOF 6
ENDMDL
MODEL 3
REMARK VINA RESULT:      -5.3      3.038      4.173
REMARK  6 active torsions:
REMARK  status: ('A' for Active; 'I' for Inactive)
REMARK    1  A    between atoms: C_2  and  C_3 
REMARK       I    between atoms: C_2  and  N_9 
REMARK    2  A    between atoms: C_3  and  C_4 
REMARK    3  A    between atoms: C_4  and  C_5 
REMARK    4  A    between atoms: C_5  and  C_6 
REMARK    5  A    between atoms: N_9  and  C_10 
REMARK    6  A    between atoms: C_16  and  N_17 
ROOT
HETATM    1  C   UNL     1     -45.889 -52.328  12.923  1.00  0.00     0.093 C 
HETATM    2  C   UNL     1     -46.826 -51.826  11.838  1.00  0.00    -0.117 C 
HETATM    3  C   UNL     1     -47.631 -51.397  10.905  1.00  0.00     0.012 C 
ENDROOT
BRANCH   1   4
HETATM    4  C   UNL     1     -45.972 -51.470  14.175  1.00  0.00     0.012 C 
BRANCH   4   5
HETATM    5  C   UNL     1     -44.601 -50.865  14.474  1.00  0.00     0.010 C 
BRANCH   5   6
HETATM    6  C   UNL     1     -44.011 -50.186  13.250  1.00  0.00     0.103 C 
BRANCH   6   7
HETATM    7  C   UNL     1     -42.505 -50.088  13.371  1.00  0.00     0.222 C 
HETATM    8  O   UNL     1     -41.975 -49.300  14.147  1.00  0.00    -0.273 OA
HETATM    9  N   UNL     1     -41.838 -50.907  12.481  1.00  0.00    -0.324 N 
HETATM   10  H   UNL     1     -42.349 -51.208  11.658  1.00  0.00     0.169 HD
BRANCH   9  11
HETATM   11  C   UNL     1     -40.449 -50.784  12.262  1.00  0.00     0.077 A 
HETATM   12  C   UNL     1     -39.935 -49.945  11.275  1.00  0.00     0.119 A 
HETATM   13  N   UNL     1     -38.615 -49.726  11.092  1.00  0.00    -0.373 N 
HETATM   14  C   UNL     1     -37.783 -50.393  11.916  1.00  0.00     0.090 A 
ATOM     15  HN  UNL     1     -38.267 -49.093  10.370  1.00  0.00     0.164 HD
HETATM   16  C   UNL     1     -38.202 -51.260  12.921  1.00  0.00     0.048 A 
HETATM   17  C   UNL     1     -39.567 -51.481  13.120  1.00  0.00     0.060 A 
BRANCH  17  18
HETATM   18  N   UNL     1     -40.062 -52.355  14.095  1.00  0.00    -0.375 N 
HETATM   19  C   UNL     1     -39.925 -52.050  15.533  1.00  0.00     0.149 C 
HETATM   20  C   UNL     1     -38.845 -52.914  16.203  1.00  0.00     0.187 C 
HETATM   21  O   UNL     1     -39.071 -54.312  15.967  1.00  0.00    -0.388 OA
HETATM   22  C   UNL     1     -39.004 -54.579  14.564  1.00  0.00     0.187 C 
HETATM   23  C   UNL     1     -40.078 -53.809  13.789  1.00  0.00     0.149 C 
ENDBRANCH  17  18
ENDBRANCH   9  11
ENDBRANCH   6   7
ENDBRANCH   5   6
ENDBRANCH   4   5
ENDBRANCH   1   4
TORSDOF 6
ENDMDL
MODEL 4
REMARK VINA RESULT:      -5.3      3.890      5.430
REMARK  6 active torsions:
REMARK  status: ('A' for Active; 'I' for Inactive)
REMARK    1  A    between atoms: C_2  and  C_3 
REMARK       I    between atoms: C_2  and  N_9 
REMARK    2  A    between atoms: C_3  and  C_4 
REMARK    3  A    between atoms: C_4  and  C_5 
REMARK    4  A    between atoms: C_5  and  C_6 
REMARK    5  A    between atoms: N_9  and  C_10 
REMARK    6  A    between atoms: C_16  and  N_17 
ROOT
HETATM    1  C   UNL     1     -46.371 -51.589  13.167  1.00  0.00     0.093 C 
HETATM    2  C   UNL     1     -46.755 -51.435  14.629  1.00  0.00    -0.117 C 
HETATM    3  C   UNL     1     -47.086 -51.303  15.884  1.00  0.00     0.012 C 
ENDROOT
BRANCH   1   4
HETATM    4  C   UNL     1     -45.859 -52.988  12.867  1.00  0.00     0.012 C 
BRANCH   4   5
HETATM    5  C   UNL     1     -44.415 -53.121  13.346  1.00  0.00     0.010 C 
BRANCH   5   6
HETATM    6  C   UNL     1     -43.427 -52.820  12.232  1.00  0.00     0.103 C 
BRANCH   6   7
HETATM    7  C   UNL     1     -42.190 -52.148  12.787  1.00  0.00     0.222 C 
HETATM    8  O   UNL     1     -41.998 -52.052  13.994  1.00  0.00    -0.273 OA
HETATM    9  N   UNL     1     -41.380 -51.612  11.804  1.00  0.00    -0.324 N 
HETATM   10  H   UNL     1     -41.811 -51.416  10.906  1.00  0.00     0.169 HD
BRANCH   9  11
HETATM   11  C   UNL     1     -40.317 -50.737  12.116  1.00  0.00     0.077 A 
HETATM   12  C   UNL     1     -39.089 -51.213  12.573  1.00  0.00     0.119 A 
HETATM   13  N   UNL     1     -38.016 -50.422  12.796  1.00  0.00    -0.373 N 
HETATM   14  C   UNL     1     -38.194 -49.105  12.572  1.00  0.00     0.090 A 
ATOM     15  HN  UNL     1     -37.124 -50.800  13.115  1.00  0.00     0.164 HD
HETATM   16  C   UNL     1     -39.385 -48.537  12.128  1.00  0.00     0.048 A 
HETATM   17  C   UNL     1     -40.493 -49.354  11.887  1.00  0.00     0.060 A 
BRANCH  17  18
HETATM   18  N   UNL     1     -41.729 -48.852  11.462  1.00  0.00    -0.375 N 
HETATM   19  C   UNL     1     -41.857 -48.124  10.184  1.00  0.00     0.149 C 
HETATM   20  C   UNL     1     -42.025 -46.611  10.400  1.00  0.00     0.187 C 
HETATM   21  O   UNL     1     -43.111 -46.327  11.295  1.00  0.00    -0.388 OA
HETATM   22  C   UNL     1     -42.840 -46.901  12.576  1.00  0.00     0.187 C 
HETATM   23  C   UNL     1     -42.705 -48.425  12.496  1.00  0.00     0.149 C 
ENDBRANCH  17  18
ENDBRANCH   9  11
ENDBRANCH   6   7
ENDBRANCH   5   6
ENDBRANCH   4   5
ENDBRANCH   1   4
TORSDOF 6
ENDMDL
MODEL 5
REMARK VINA RESULT:      -5.2      4.137      5.630
REMARK  6 active torsions:
REMARK  status: ('A' for Active; 'I' for Inactive)
REMARK    1  A    between atoms: C_2  and  C_3 
REMARK       I    between atoms: C_2  and  N_9 
REMARK    2  A    between atoms: C_3  and  C_4 
REMARK    3  A    between atoms: C_4  and  C_5 
REMARK    4  A    between atoms: C_5  and  C_6 
REMARK    5  A    between atoms: N_9  and  C_10 
REMARK    6  A    between atoms: C_16  and  N_17 
ROOT
HETATM    1  C   UNL     1     -46.471 -53.343  15.512  1.00  0.00     0.093 C 
HETATM    2  C   UNL     1     -45.968 -54.431  14.579  1.00  0.00    -0.117 C 
HETATM    3  C   UNL     1     -45.536 -55.366  13.778  1.00  0.00     0.012 C 
ENDROOT
BRANCH   1   4
HETATM    4  C   UNL     1     -46.862 -52.087  14.751  1.00  0.00     0.012 C 
BRANCH   4   5
HETATM    5  C   UNL     1     -45.665 -51.141  14.673  1.00  0.00     0.010 C 
BRANCH   5   6
HETATM    6  C   UNL     1     -44.997 -51.196  13.309  1.00  0.00     0.103 C 
BRANCH   6   7
HETATM    7  C   UNL     1     -43.505 -50.983  13.439  1.00  0.00     0.222 C 
HETATM    8  O   UNL     1     -42.978 -50.783  14.528  1.00  0.00    -0.273 OA
HETATM    9  N   UNL     1     -42.854 -50.967  12.220  1.00  0.00    -0.324 N 
HETATM   10  H   UNL     1     -43.414 -50.760  11.400  1.00  0.00     0.169 HD
BRANCH   9  11
HETATM   11  C   UNL     1     -41.513 -50.541  12.103  1.00  0.00     0.077 A 
HETATM   12  C   UNL     1     -40.447 -51.418  12.298  1.00  0.00     0.119 A 
HETATM   13  N   UNL     1     -39.154 -51.079  12.107  1.00  0.00    -0.373 N 
HETATM   14  C   UNL     1     -38.925 -49.806  11.728  1.00  0.00     0.090 A 
ATOM     15  HN  UNL     1     -38.395 -51.747  12.242  1.00  0.00     0.164 HD
HETATM   16  C   UNL     1     -39.922 -48.856  11.521  1.00  0.00     0.048 A 
HETATM   17  C   UNL     1     -41.262 -49.207  11.709  1.00  0.00     0.060 A 
BRANCH  17  18
HETATM   18  N   UNL     1     -42.316 -48.302  11.541  1.00  0.00    -0.375 N 
HETATM   19  C   UNL     1     -42.651 -47.758  10.210  1.00  0.00     0.149 C 
HETATM   20  C   UNL     1     -42.200 -46.297  10.057  1.00  0.00     0.187 C 
HETATM   21  O   UNL     1     -42.711 -45.476  11.119  1.00  0.00    -0.388 OA
HETATM   22  C   UNL     1     -42.199 -45.939  12.371  1.00  0.00     0.187 C 
HETATM   23  C   UNL     1     -42.632 -47.380  12.662  1.00  0.00     0.149 C 
ENDBRANCH  17  18
ENDBRANCH   9  11
ENDBRANCH   6   7
ENDBRANCH   5   6
ENDBRANCH   4   5
ENDBRANCH   1   4
TORSDOF 6
ENDMDL
MODEL 6
REMARK VINA RESULT:      -5.2      4.514      5.559
REMARK  6 active torsions:
REMARK  status: ('A' for Active; 'I' for Inactive)
REMARK    1  A    between atoms: C_2  and  C_3 
REMARK       I    between atoms: C_2  and  N_9 
REMARK    2  A    between atoms: C_3  and  C_4 
REMARK    3  A    between atoms: C_4  and  C_5 
REMARK    4  A    between atoms: C_5  and  C_6 
REMARK    5  A    between atoms: N_9  and  C_10 
REMARK    6  A    between atoms: C_16  and  N_17 
ROOT
HETATM    1  C   UNL     1     -46.185 -51.262  15.513  1.00  0.00     0.093 C 
HETATM    2  C   UNL     1     -47.334 -51.188  16.504  1.00  0.00    -0.117 C 
HETATM    3  C   UNL     1     -48.319 -51.123  17.357  1.00  0.00     0.012 C 
ENDROOT
BRANCH   1   4
HETATM    4  C   UNL     1     -46.682 -51.496  14.096  1.00  0.00     0.012 C 
BRANCH   4   5
HETATM    5  C   UNL     1     -45.550 -51.234  13.105  1.00  0.00     0.010 C 
BRANCH   5   6
HETATM    6  C   UNL     1     -44.196 -51.220  13.794  1.00  0.00     0.103 C 
BRANCH   6   7
HETATM    7  C   UNL     1     -43.471 -49.921  13.513  1.00  0.00     0.222 C 
HETATM    8  O   UNL     1     -43.334 -49.063  14.378  1.00  0.00    -0.273 OA
HETATM    9  N   UNL     1     -43.071 -49.802  12.196  1.00  0.00    -0.324 N 
HETATM   10  H   UNL     1     -43.558 -50.370  11.511  1.00  0.00     0.169 HD
BRANCH   9  11
HETATM   11  C   UNL     1     -42.603 -48.576  11.674  1.00  0.00     0.077 A 
HETATM   12  C   UNL     1     -43.465 -47.663  11.068  1.00  0.00     0.119 A 
HETATM   13  N   UNL     1     -43.079 -46.442  10.638  1.00  0.00    -0.373 N 
HETATM   14  C   UNL     1     -41.777 -46.139  10.804  1.00  0.00     0.090 A 
ATOM     15  HN  UNL     1     -43.736 -45.788  10.211  1.00  0.00     0.164 HD
HETATM   16  C   UNL     1     -40.841 -46.989  11.386  1.00  0.00     0.048 A 
HETATM   17  C   UNL     1     -41.238 -48.249  11.841  1.00  0.00     0.060 A 
BRANCH  17  18
HETATM   18  N   UNL     1     -40.350 -49.165  12.416  1.00  0.00    -0.375 N 
HETATM   19  C   UNL     1     -39.754 -48.919  13.744  1.00  0.00     0.149 C 
HETATM   20  C   UNL     1     -38.277 -48.505  13.642  1.00  0.00     0.187 C 
HETATM   21  O   UNL     1     -37.518 -49.453  12.878  1.00  0.00    -0.388 OA
HETATM   22  C   UNL     1     -38.025 -49.509  11.542  1.00  0.00     0.187 C 
HETATM   23  C   UNL     1     -39.487 -49.967  11.511  1.00  0.00     0.149 C 
ENDBRANCH  17  18
ENDBRANCH   9  11
ENDBRANCH   6   7
ENDBRANCH   5   6
ENDBRANCH   4   5
ENDBRANCH   1   4
TORSDOF 6
ENDMDL
MODEL 7
REMARK VINA RESULT:      -5.2      4.304      5.704
REMARK  6 active torsions:
REMARK  status: ('A' for Active; 'I' for Inactive)
REMARK    1  A    between atoms: C_2  and  C_3 
REMARK       I    between atoms: C_2  and  N_9 
REMARK    2  A    between atoms: C_3  and  C_4 
REMARK    3  A    between atoms: C_4  and  C_5 
REMARK    4  A    between atoms: C_5  and  C_6 
REMARK    5  A    between atoms: N_9  and  C_10 
REMARK    6  A    between atoms: C_16  and  N_17 
ROOT
HETATM    1  C   UNL     1     -44.884 -47.051   9.144  1.00  0.00     0.093 C 
HETATM    2  C   UNL     1     -45.930 -48.077   8.745  1.00  0.00    -0.117 C 
HETATM    3  C   UNL     1     -46.829 -48.958   8.402  1.00  0.00     0.012 C 
ENDROOT
BRANCH   1   4
HETATM    4  C   UNL     1     -43.500 -47.441   8.653  1.00  0.00     0.012 C 
BRANCH   4   5
HETATM    5  C   UNL     1     -42.506 -47.372   9.810  1.00  0.00     0.010 C 
BRANCH   5   6
HETATM    6  C   UNL     1     -43.005 -48.142  11.022  1.00  0.00     0.103 C 
BRANCH   6   7
HETATM    7  C   UNL     1     -41.842 -48.631  11.857  1.00  0.00     0.222 C 
HETATM    8  O   UNL     1     -41.544 -48.094  12.919  1.00  0.00    -0.273 OA
HETATM    9  N   UNL     1     -41.144 -49.662  11.258  1.00  0.00    -0.324 N 
HETATM   10  H   UNL     1     -41.235 -49.759  10.253  1.00  0.00     0.169 HD
BRANCH   9  11
HETATM   11  C   UNL     1     -39.892 -50.091  11.750  1.00  0.00     0.077 A 
HETATM   12  C   UNL     1     -38.707 -49.452  11.388  1.00  0.00     0.119 A 
HETATM   13  N   UNL     1     -37.499 -49.769  11.903  1.00  0.00    -0.373 N 
HETATM   14  C   UNL     1     -37.481 -50.776  12.798  1.00  0.00     0.090 A 
ATOM     15  HN  UNL     1     -36.649 -49.273  11.631  1.00  0.00     0.164 HD
HETATM   16  C   UNL     1     -38.609 -51.480  13.211  1.00  0.00     0.048 A 
HETATM   17  C   UNL     1     -39.862 -51.149  12.687  1.00  0.00     0.060 A 
BRANCH  17  18
HETATM   18  N   UNL     1     -41.036 -51.825  13.038  1.00  0.00    -0.375 N 
HETATM   19  C   UNL     1     -41.740 -51.526  14.300  1.00  0.00     0.149 C 
HETATM   20  C   UNL     1     -41.535 -52.630  15.348  1.00  0.00     0.187 C 
HETATM   21  O   UNL     1     -41.888 -53.920  14.827  1.00  0.00    -0.388 OA
HETATM   22  C   UNL     1     -41.042 -54.238  13.719  1.00  0.00     0.187 C 
HETATM   23  C   UNL     1     -41.200 -53.228  12.578  1.00  0.00     0.149 C 
ENDBRANCH  17  18
ENDBRANCH   9  11
ENDBRANCH   6   7
ENDBRANCH   5   6
ENDBRANCH   4   5
ENDBRANCH   1   4
TORSDOF 6
ENDMDL
MODEL 8
REMARK VINA RESULT:      -5.1      2.078      3.086
REMARK  6 active torsions:
REMARK  status: ('A' for Active; 'I' for Inactive)
REMARK    1  A    between atoms: C_2  and  C_3 
REMARK       I    between atoms: C_2  and  N_9 
REMARK    2  A    between atoms: C_3  and  C_4 
REMARK    3  A    between atoms: C_4  and  C_5 
REMARK    4  A    between atoms: C_5  and  C_6 
REMARK    5  A    between atoms: N_9  and  C_10 
REMARK    6  A    between atoms: C_16  and  N_17 
ROOT
HETATM    1  C   UNL     1     -47.380 -51.552  15.945  1.00  0.00     0.093 C 
HETATM    2  C   UNL     1     -46.836 -51.559  14.527  1.00  0.00    -0.117 C 
HETATM    3  C   UNL     1     -46.369 -51.564  13.308  1.00  0.00     0.012 C 
ENDROOT
BRANCH   1   4
HETATM    4  C   UNL     1     -46.398 -52.171  16.925  1.00  0.00     0.012 C 
BRANCH   4   5
HETATM    5  C   UNL     1     -46.236 -53.658  16.619  1.00  0.00     0.010 C 
BRANCH   5   6
HETATM    6  C   UNL     1     -44.797 -54.113  16.801  1.00  0.00     0.103 C 
BRANCH   6   7
HETATM    7  C   UNL     1     -44.096 -54.201  15.463  1.00  0.00     0.222 C 
HETATM    8  O   UNL     1     -44.029 -55.256  14.842  1.00  0.00    -0.273 OA
HETATM    9  N   UNL     1     -43.501 -53.012  15.087  1.00  0.00    -0.324 N 
HETATM   10  H   UNL     1     -43.294 -52.346  15.823  1.00  0.00     0.169 HD
BRANCH   9  11
HETATM   11  C   UNL     1     -42.596 -52.948  14.005  1.00  0.00     0.077 A 
HETATM   12  C   UNL     1     -43.025 -52.662  12.709  1.00  0.00     0.119 A 
HETATM   13  N   UNL     1     -42.187 -52.500  11.663  1.00  0.00    -0.373 N 
HETATM   14  C   UNL     1     -40.874 -52.652  11.925  1.00  0.00     0.090 A 
ATOM     15  HN  UNL     1     -42.528 -52.276  10.727  1.00  0.00     0.164 HD
HETATM   16  C   UNL     1     -40.353 -52.949  13.182  1.00  0.00     0.048 A 
HETATM   17  C   UNL     1     -41.217 -53.108  14.269  1.00  0.00     0.060 A 
BRANCH  17  18
HETATM   18  N   UNL     1     -40.769 -53.428  15.555  1.00  0.00    -0.375 N 
HETATM   19  C   UNL     1     -40.141 -52.410  16.420  1.00  0.00     0.149 C 
HETATM   20  C   UNL     1     -38.619 -52.602  16.522  1.00  0.00     0.187 C 
HETATM   21  O   UNL     1     -38.286 -53.937  16.931  1.00  0.00    -0.388 OA
HETATM   22  C   UNL     1     -38.757 -54.870  15.955  1.00  0.00     0.187 C 
HETATM   23  C   UNL     1     -40.281 -54.809  15.803  1.00  0.00     0.149 C 
ENDBRANCH  17  18
ENDBRANCH   9  11
ENDBRANCH   6   7
ENDBRANCH   5   6
ENDBRANCH   4   5
ENDBRANCH   1   4
TORSDOF 6
ENDMDL
MODEL 9
REMARK VINA RESULT:      -5.1      2.348      3.128
REMARK  6 active torsions:
REMARK  status: ('A' for Active; 'I' for Inactive)
REMARK    1  A    between atoms: C_2  and  C_3 
REMARK       I    between atoms: C_2  and  N_9 
REMARK    2  A    between atoms: C_3  and  C_4 
REMARK    3  A    between atoms: C_4  and  C_5 
REMARK    4  A    between atoms: C_5  and  C_6 
REMARK    5  A    between atoms: N_9  and  C_10 
REMARK    6  A    between atoms: C_16  and  N_17 
ROOT
HETATM    1  C   UNL     1     -46.115 -54.001  15.655  1.00  0.00     0.093 C 
HETATM    2  C   UNL     1     -46.583 -52.576  15.413  1.00  0.00    -0.117 C 
HETATM    3  C   UNL     1     -46.984 -51.353  15.205  1.00  0.00     0.012 C 
ENDROOT
BRANCH   1   4
HETATM    4  C   UNL     1     -46.185 -54.838  14.389  1.00  0.00     0.012 C 
BRANCH   4   5
HETATM    5  C   UNL     1     -44.780 -55.033  13.823  1.00  0.00     0.010 C 
BRANCH   5   6
HETATM    6  C   UNL     1     -44.479 -54.036  12.716  1.00  0.00     0.103 C 
BRANCH   6   7
HETATM    7  C   UNL     1     -43.342 -53.122  13.119  1.00  0.00     0.222 C 
HETATM    8  O   UNL     1     -43.547 -52.058  13.692  1.00  0.00    -0.273 OA
HETATM    9  N   UNL     1     -42.107 -53.585  12.708  1.00  0.00    -0.324 N 
HETATM   10  H   UNL     1     -42.094 -54.246  11.938  1.00  0.00     0.169 HD
BRANCH   9  11
HETATM   11  C   UNL     1     -40.955 -52.770  12.764  1.00  0.00     0.077 A 
HETATM   12  C   UNL     1     -40.711 -51.783  11.811  1.00  0.00     0.119 A 
HETATM   13  N   UNL     1     -39.673 -50.921  11.876  1.00  0.00    -0.373 N 
HETATM   14  C   UNL     1     -38.841 -51.072  12.925  1.00  0.00     0.090 A 
ATOM     15  HN  UNL     1     -39.527 -50.197  11.171  1.00  0.00     0.164 HD
HETATM   16  C   UNL     1     -38.997 -52.035  13.918  1.00  0.00     0.048 A 
HETATM   17  C   UNL     1     -40.075 -52.922  13.859  1.00  0.00     0.060 A 
BRANCH  17  18
HETATM   18  N   UNL     1     -40.284 -53.929  14.809  1.00  0.00    -0.375 N 
HETATM   19  C   UNL     1     -41.000 -53.652  16.070  1.00  0.00     0.149 C 
HETATM   20  C   UNL     1     -40.044 -53.586  17.271  1.00  0.00     0.187 C 
HETATM   21  O   UNL     1     -39.232 -54.766  17.360  1.00  0.00    -0.388 OA
HETATM   22  C   UNL     1     -38.419 -54.879  16.189  1.00  0.00     0.187 C 
HETATM   23  C   UNL     1     -39.269 -55.008  14.921  1.00  0.00     0.149 C 
ENDBRANCH  17  18
ENDBRANCH   9  11
ENDBRANCH   6   7
ENDBRANCH   5   6
ENDBRANCH   4   5
ENDBRANCH   1   4
TORSDOF 6
ENDMDL
