MODEL 1
REMARK VINA RESULT:      -6.8      0.000      0.000
REMARK  5 active torsions:
REMARK  status: ('A' for Active; 'I' for Inactive)
REMARK    1  A    between atoms: C_2  and  C_4 
REMARK    2  A    between atoms: C_4  and  N_5 
REMARK    3  A    between atoms: C_10  and  C_11 
REMARK    4  A    between atoms: C_11  and  N_12 
REMARK       I    between atoms: N_12  and  C_13 
REMARK       I    between atoms: C_13  and  N_15 
REMARK    5  A    between atoms: N_15  and  C_16 
ROOT
HETATM    1  N   UNL     1     -41.612 -49.736  11.007  1.00  0.00    -0.341 N 
HETATM    2  C   UNL     1     -41.801 -50.501  12.132  1.00  0.00     0.320 C 
HETATM    3  O   UNL     1     -41.953 -50.024  13.250  1.00  0.00    -0.247 OA
HETATM    4  N   UNL     1     -41.797 -51.847  11.836  1.00  0.00    -0.304 N 
HETATM    5  H   UNL     1     -41.603 -50.192  10.110  1.00  0.00     0.164 HD
HETATM    6  H   UNL     1     -41.079 -52.105  11.164  1.00  0.00     0.171 HD
ENDROOT
BRANCH   1   7
HETATM    7  C   UNL     1     -41.602 -48.279  11.064  1.00  0.00     0.160 C 
BRANCH   7   8
HETATM    8  C   UNL     1     -42.590 -47.630  10.060  1.00  0.00     0.240 C 
HETATM    9  N   UNL     1     -42.313 -46.193   9.786  1.00  0.00     0.095 N 
HETATM   10  C   UNL     1     -43.202 -45.726   8.711  1.00  0.00     0.273 C 
HETATM   11  C   UNL     1     -44.696 -45.912   8.995  1.00  0.00     0.030 C 
HETATM   12  C   UNL     1     -45.045 -47.317   9.480  1.00  0.00     0.004 C 
HETATM   13  C   UNL     1     -44.048 -47.859  10.501  1.00  0.00     0.037 C 
BRANCH   9  14
HETATM   14  C   UNL     1     -42.311 -45.328  10.978  1.00  0.00     0.277 C 
BRANCH  14  15
HETATM   15  C   UNL     1     -40.973 -44.599  11.273  1.00  0.00     0.006 C 
HETATM   16  C   UNL     1     -39.904 -45.070  10.278  1.00  0.00     0.011 C 
HETATM   17  C   UNL     1     -41.098 -43.074  11.188  1.00  0.00     0.011 C 
ENDBRANCH  14  15
ENDBRANCH   9  14
ENDBRANCH   7   8
ENDBRANCH   1   7
BRANCH   4  18
HETATM   18  C   UNL     1     -42.022 -52.843  12.776  1.00  0.00     0.111 A 
HETATM   19  C   UNL     1     -43.212 -53.375  13.117  1.00  0.00    -0.028 A 
HETATM   20  C   UNL     1     -44.534 -53.072  12.464  1.00  0.00     0.050 C 
HETATM   21  C   UNL     1     -43.281 -54.365  14.180  1.00  0.00     0.026 A 
HETATM   22  C   UNL     1     -42.175 -54.785  14.806  1.00  0.00     0.094 A 
HETATM   23  N   UNL     1     -40.930 -54.312  14.450  1.00  0.00    -0.327 N 
HETATM   24  C   UNL     1     -39.758 -54.749  15.183  1.00  0.00     0.159 C 
HETATM   25  C   UNL     1     -40.761 -53.362  13.445  1.00  0.00     0.274 A 
HETATM   26  O   UNL     1     -39.669 -52.915  13.088  1.00  0.00    -0.265 OA
ENDBRANCH   4  18
TORSDOF 5
ENDMDL
MODEL 2
REMARK VINA RESULT:      -6.7      1.287      2.165
REMARK  5 active torsions:
REMARK  status: ('A' for Active; 'I' for Inactive)
REMARK    1  A    between atoms: C_2  and  C_4 
REMARK    2  A    between atoms: C_4  and  N_5 
REMARK    3  A    between atoms: C_10  and  C_11 
REMARK    4  A    between atoms: C_11  and  N_12 
REMARK       I    between atoms: N_12  and  C_13 
REMARK       I    between atoms: C_13  and  N_15 
REMARK    5  A    between atoms: N_15  and  C_16 
ROOT
HETATM    1  N   UNL     1     -41.940 -49.890  11.257  1.00  0.00    -0.341 N 
HETATM    2  C   UNL     1     -42.176 -50.643  12.383  1.00  0.00     0.320 C 
HETATM    3  O   UNL     1     -42.339 -50.155  13.494  1.00  0.00    -0.247 OA
HETATM    4  N   UNL     1     -42.201 -51.990  12.094  1.00  0.00    -0.304 N 
HETATM    5  H   UNL     1     -41.924 -50.352  10.363  1.00  0.00     0.164 HD
HETATM    6  H   UNL     1     -41.476 -52.272  11.441  1.00  0.00     0.171 HD
ENDROOT
BRANCH   1   7
HETATM    7  C   UNL     1     -41.892 -48.434  11.307  1.00  0.00     0.160 C 
BRANCH   7   8
HETATM    8  C   UNL     1     -42.760 -47.765  10.209  1.00  0.00     0.240 C 
HETATM    9  N   UNL     1     -42.346 -46.373   9.879  1.00  0.00     0.095 N 
HETATM   10  C   UNL     1     -43.127 -45.898   8.727  1.00  0.00     0.273 C 
HETATM   11  C   UNL     1     -44.645 -45.944   8.925  1.00  0.00     0.030 C 
HETATM   12  C   UNL     1     -45.141 -47.285   9.460  1.00  0.00     0.004 C 
HETATM   13  C   UNL     1     -44.256 -47.847  10.568  1.00  0.00     0.037 C 
BRANCH   9  14
HETATM   14  C   UNL     1     -42.340 -45.445  11.022  1.00  0.00     0.277 C 
BRANCH  14  15
HETATM   15  C   UNL     1     -40.973 -44.783  11.339  1.00  0.00     0.006 C 
HETATM   16  C   UNL     1     -39.907 -45.325  10.377  1.00  0.00     0.011 C 
HETATM   17  C   UNL     1     -41.013 -43.255  11.229  1.00  0.00     0.011 C 
ENDBRANCH  14  15
ENDBRANCH   9  14
ENDBRANCH   7   8
ENDBRANCH   1   7
BRANCH   4  18
HETATM   18  C   UNL     1     -42.474 -52.974  13.035  1.00  0.00     0.111 A 
HETATM   19  C   UNL     1     -41.625 -53.461  13.961  1.00  0.00    -0.028 A 
HETATM   20  C   UNL     1     -40.234 -52.954  14.236  1.00  0.00     0.050 C 
HETATM   21  C   UNL     1     -42.050 -54.548  14.828  1.00  0.00     0.026 A 
HETATM   22  C   UNL     1     -43.285 -55.055  14.746  1.00  0.00     0.094 A 
HETATM   23  N   UNL     1     -44.206 -54.549  13.853  1.00  0.00    -0.327 N 
HETATM   24  C   UNL     1     -45.520 -55.155  13.754  1.00  0.00     0.159 C 
HETATM   25  C   UNL     1     -43.894 -53.509  12.981  1.00  0.00     0.274 A 
HETATM   26  O   UNL     1     -44.686 -53.019  12.171  1.00  0.00    -0.265 OA
ENDBRANCH   4  18
TORSDOF 5
ENDMDL
MODEL 3
REMARK VINA RESULT:      -6.3      2.345      3.845
REMARK  5 active torsions:
REMARK  status: ('A' for Active; 'I' for Inactive)
REMARK    1  A    between atoms: C_2  and  C_4 
REMARK    2  A    between atoms: C_4  and  N_5 
REMARK    3  A    between atoms: C_10  and  C_11 
REMARK    4  A    between atoms: C_11  and  N_12 
REMARK       I    between atoms: N_12  and  C_13 
REMARK       I    between atoms: C_13  and  N_15 
REMARK    5  A    between atoms: N_15  and  C_16 
ROOT
HETATM    1  N   UNL     1     -43.024 -49.275  11.798  1.00  0.00    -0.341 N 
HETATM    2  C   UNL     1     -43.038 -50.305  12.708  1.00  0.00     0.320 C 
HETATM    3  O   UNL     1     -42.022 -50.846  13.125  1.00  0.00    -0.247 OA
HETATM    4  N   UNL     1     -44.324 -50.637  13.076  1.00  0.00    -0.304 N 
HETATM    5  H   UNL     1     -43.890 -48.809  11.585  1.00  0.00     0.164 HD
HETATM    6  H   UNL     1     -44.973 -50.644  12.294  1.00  0.00     0.171 HD
ENDROOT
BRANCH   1   7
HETATM    7  C   UNL     1     -41.775 -48.731  11.278  1.00  0.00     0.160 C 
BRANCH   7   8
HETATM    8  C   UNL     1     -41.612 -47.216  11.566  1.00  0.00     0.240 C 
HETATM    9  N   UNL     1     -42.545 -46.351  10.790  1.00  0.00     0.095 N 
HETATM   10  C   UNL     1     -42.413 -44.962  11.254  1.00  0.00     0.273 C 
HETATM   11  C   UNL     1     -40.995 -44.391  11.162  1.00  0.00     0.030 C 
HETATM   12  C   UNL     1     -39.935 -45.314  11.759  1.00  0.00     0.004 C 
HETATM   13  C   UNL     1     -40.145 -46.779  11.387  1.00  0.00     0.037 C 
BRANCH   9  14
HETATM   14  C   UNL     1     -42.455 -46.505   9.328  1.00  0.00     0.277 C 
BRANCH  14  15
HETATM   15  C   UNL     1     -43.786 -46.853   8.609  1.00  0.00     0.006 C 
HETATM   16  C   UNL     1     -43.534 -47.960   7.577  1.00  0.00     0.011 C 
HETATM   17  C   UNL     1     -44.881 -47.311   9.577  1.00  0.00     0.011 C 
ENDBRANCH  14  15
ENDBRANCH   9  14
ENDBRANCH   7   8
ENDBRANCH   1   7
BRANCH   4  18
HETATM   18  C   UNL     1     -44.628 -51.606  14.023  1.00  0.00     0.111 A 
HETATM   19  C   UNL     1     -44.612 -51.457  15.362  1.00  0.00    -0.028 A 
HETATM   20  C   UNL     1     -44.366 -50.170  16.104  1.00  0.00     0.050 C 
HETATM   21  C   UNL     1     -44.887 -52.600  16.218  1.00  0.00     0.026 A 
HETATM   22  C   UNL     1     -45.191 -53.794  15.698  1.00  0.00     0.094 A 
HETATM   23  N   UNL     1     -45.277 -53.979  14.334  1.00  0.00    -0.327 N 
HETATM   24  C   UNL     1     -45.558 -55.299  13.803  1.00  0.00     0.159 C 
HETATM   25  C   UNL     1     -45.030 -52.946  13.433  1.00  0.00     0.274 A 
HETATM   26  O   UNL     1     -45.101 -53.061  12.207  1.00  0.00    -0.265 OA
ENDBRANCH   4  18
TORSDOF 5
ENDMDL
MODEL 4
REMARK VINA RESULT:      -6.2      1.698      2.799
REMARK  5 active torsions:
REMARK  status: ('A' for Active; 'I' for Inactive)
REMARK    1  A    between atoms: C_2  and  C_4 
REMARK    2  A    between atoms: C_4  and  N_5 
REMARK    3  A    between atoms: C_10  and  C_11 
REMARK    4  A    between atoms: C_11  and  N_12 
REMARK       I    between atoms: N_12  and  C_13 
REMARK       I    between atoms: C_13  and  N_15 
REMARK    5  A    between atoms: N_15  and  C_16 
ROOT
HETATM    1  N   UNL     1     -42.515 -49.074  11.413  1.00  0.00    -0.341 N 
HETATM    2  C   UNL     1     -42.452 -50.045  12.383  1.00  0.00     0.320 C 
HETATM    3  O   UNL     1     -42.732 -49.840  13.558  1.00  0.00    -0.247 OA
HETATM    4  N   UNL     1     -42.040 -51.254  11.863  1.00  0.00    -0.304 N 
HETATM    5  H   UNL     1     -42.376 -49.342  10.453  1.00  0.00     0.164 HD
HETATM    6  H   UNL     1     -41.283 -51.161  11.191  1.00  0.00     0.171 HD
ENDROOT
BRANCH   1   7
HETATM    7  C   UNL     1     -42.950 -47.716  11.717  1.00  0.00     0.160 C 
BRANCH   7   8
HETATM    8  C   UNL     1     -41.996 -46.636  11.146  1.00  0.00     0.240 C 
HETATM    9  N   UNL     1     -40.556 -46.895  11.426  1.00  0.00     0.095 N 
HETATM   10  C   UNL     1     -39.739 -45.903  10.710  1.00  0.00     0.273 C 
HETATM   11  C   UNL     1     -40.068 -44.445  11.047  1.00  0.00     0.030 C 
HETATM   12  C   UNL     1     -41.562 -44.136  10.981  1.00  0.00     0.004 C 
HETATM   13  C   UNL     1     -42.424 -45.229  11.607  1.00  0.00     0.037 C 
BRANCH   9  14
HETATM   14  C   UNL     1     -40.220 -47.030  12.853  1.00  0.00     0.277 C 
BRANCH  14  15
HETATM   15  C   UNL     1     -39.302 -48.227  13.215  1.00  0.00     0.006 C 
HETATM   16  C   UNL     1     -38.841 -48.923  11.927  1.00  0.00     0.011 C 
HETATM   17  C   UNL     1     -38.071 -47.808  14.024  1.00  0.00     0.011 C 
ENDBRANCH  14  15
ENDBRANCH   9  14
ENDBRANCH   7   8
ENDBRANCH   1   7
BRANCH   4  18
HETATM   18  C   UNL     1     -41.941 -52.420  12.610  1.00  0.00     0.111 A 
HETATM   19  C   UNL     1     -42.950 -53.247  12.949  1.00  0.00    -0.028 A 
HETATM   20  C   UNL     1     -44.378 -53.131  12.489  1.00  0.00     0.050 C 
HETATM   21  C   UNL     1     -42.685 -54.394  13.802  1.00  0.00     0.026 A 
HETATM   22  C   UNL     1     -41.447 -54.664  14.233  1.00  0.00     0.094 A 
HETATM   23  N   UNL     1     -40.376 -53.879  13.863  1.00  0.00    -0.327 N 
HETATM   24  C   UNL     1     -39.056 -54.170  14.389  1.00  0.00     0.159 C 
HETATM   25  C   UNL     1     -40.528 -52.759  13.049  1.00  0.00     0.274 A 
HETATM   26  O   UNL     1     -39.600 -52.031  12.687  1.00  0.00    -0.265 OA
ENDBRANCH   4  18
TORSDOF 5
ENDMDL
MODEL 5
REMARK VINA RESULT:      -6.1      2.180      3.220
REMARK  5 active torsions:
REMARK  status: ('A' for Active; 'I' for Inactive)
REMARK    1  A    between atoms: C_2  and  C_4 
REMARK    2  A    between atoms: C_4  and  N_5 
REMARK    3  A    between atoms: C_10  and  C_11 
REMARK    4  A    between atoms: C_11  and  N_12 
REMARK       I    between atoms: N_12  and  C_13 
REMARK       I    between atoms: C_13  and  N_15 
REMARK    5  A    between atoms: N_15  and  C_16 
ROOT
HETATM    1  N   UNL     1     -41.565 -50.379  11.392  1.00  0.00    -0.341 N 
HETATM    2  C   UNL     1     -41.965 -51.066  12.513  1.00  0.00     0.320 C 
HETATM    3  O   UNL     1     -41.592 -50.781  13.643  1.00  0.00    -0.247 OA
HETATM    4  N   UNL     1     -42.824 -52.097  12.195  1.00  0.00    -0.304 N 
HETATM    5  H   UNL     1     -41.997 -50.602  10.510  1.00  0.00     0.164 HD
HETATM    6  H   UNL     1     -42.542 -52.607  11.362  1.00  0.00     0.171 HD
ENDROOT
BRANCH   1   7
HETATM    7  C   UNL     1     -40.673 -49.229  11.477  1.00  0.00     0.160 C 
BRANCH   7   8
HETATM    8  C   UNL     1     -41.250 -47.967  10.784  1.00  0.00     0.240 C 
HETATM    9  N   UNL     1     -40.602 -46.696  11.211  1.00  0.00     0.095 N 
HETATM   10  C   UNL     1     -41.111 -45.592  10.383  1.00  0.00     0.273 C 
HETATM   11  C   UNL     1     -42.634 -45.424  10.414  1.00  0.00     0.030 C 
HETATM   12  C   UNL     1     -43.388 -46.730  10.183  1.00  0.00     0.004 C 
HETATM   13  C   UNL     1     -42.782 -47.909  10.939  1.00  0.00     0.037 C 
BRANCH   9  14
HETATM   14  C   UNL     1     -40.657 -46.432  12.659  1.00  0.00     0.277 C 
BRANCH  14  15
HETATM   15  C   UNL     1     -39.285 -46.258  13.361  1.00  0.00     0.006 C 
HETATM   16  C   UNL     1     -39.275 -44.939  14.145  1.00  0.00     0.011 C 
HETATM   17  C   UNL     1     -38.956 -47.410  14.316  1.00  0.00     0.011 C 
ENDBRANCH  14  15
ENDBRANCH   9  14
ENDBRANCH   7   8
ENDBRANCH   1   7
BRANCH   4  18
HETATM   18  C   UNL     1     -43.423 -52.918  13.140  1.00  0.00     0.111 A 
HETATM   19  C   UNL     1     -42.869 -53.985  13.748  1.00  0.00    -0.028 A 
HETATM   20  C   UNL     1     -41.440 -54.437  13.606  1.00  0.00     0.050 C 
HETATM   21  C   UNL     1     -43.664 -54.785  14.666  1.00  0.00     0.026 A 
HETATM   22  C   UNL     1     -44.932 -54.462  14.944  1.00  0.00     0.094 A 
HETATM   23  N   UNL     1     -45.522 -53.346  14.390  1.00  0.00    -0.327 N 
HETATM   24  C   UNL     1     -46.914 -53.053  14.673  1.00  0.00     0.159 C 
HETATM   25  C   UNL     1     -44.843 -52.517  13.500  1.00  0.00     0.274 A 
HETATM   26  O   UNL     1     -45.326 -51.505  12.985  1.00  0.00    -0.265 OA
ENDBRANCH   4  18
TORSDOF 5
ENDMDL
MODEL 6
REMARK VINA RESULT:      -6.1      2.018      8.053
REMARK  5 active torsions:
REMARK  status: ('A' for Active; 'I' for Inactive)
REMARK    1  A    between atoms: C_2  and  C_4 
REMARK    2  A    between atoms: C_4  and  N_5 
REMARK    3  A    between atoms: C_10  and  C_11 
REMARK    4  A    between atoms: C_11  and  N_12 
REMARK       I    between atoms: N_12  and  C_13 
REMARK       I    between atoms: C_13  and  N_15 
REMARK    5  A    between atoms: N_15  and  C_16 
ROOT
HETATM    1  N   UNL     1     -42.240 -52.218  11.759  1.00  0.00    -0.341 N 
HETATM    2  C   UNL     1     -42.049 -50.925  12.183  1.00  0.00     0.320 C 
HETATM    3  O   UNL     1     -42.714 -50.403  13.069  1.00  0.00    -0.247 OA
HETATM    4  N   UNL     1     -41.029 -50.311  11.488  1.00  0.00    -0.304 N 
HETATM    5  H   UNL     1     -41.586 -52.612  11.104  1.00  0.00     0.164 HD
HETATM    6  H   UNL     1     -41.041 -50.520  10.494  1.00  0.00     0.171 HD
ENDROOT
BRANCH   1   7
HETATM    7  C   UNL     1     -43.249 -53.080  12.363  1.00  0.00     0.160 C 
BRANCH   7   8
HETATM    8  C   UNL     1     -42.660 -54.045  13.424  1.00  0.00     0.240 C 
HETATM    9  N   UNL     1     -43.571 -54.307  14.572  1.00  0.00     0.095 N 
HETATM   10  C   UNL     1     -42.982 -55.349  15.428  1.00  0.00     0.273 C 
HETATM   11  C   UNL     1     -41.581 -55.023  15.954  1.00  0.00     0.030 C 
HETATM   12  C   UNL     1     -40.625 -54.547  14.863  1.00  0.00     0.004 C 
HETATM   13  C   UNL     1     -41.273 -53.564  13.892  1.00  0.00     0.037 C 
BRANCH   9  14
HETATM   14  C   UNL     1     -44.002 -53.104  15.305  1.00  0.00     0.277 C 
BRANCH  14  15
HETATM   15  C   UNL     1     -45.531 -52.845  15.325  1.00  0.00     0.006 C 
HETATM   16  C   UNL     1     -45.837 -51.533  14.589  1.00  0.00     0.011 C 
HETATM   17  C   UNL     1     -46.334 -53.978  14.679  1.00  0.00     0.011 C 
ENDBRANCH  14  15
ENDBRANCH   9  14
ENDBRANCH   7   8
ENDBRANCH   1   7
BRANCH   4  18
HETATM   18  C   UNL     1     -40.587 -49.021  11.750  1.00  0.00     0.111 A 
HETATM   19  C   UNL     1     -39.675 -48.653  12.672  1.00  0.00    -0.028 A 
HETATM   20  C   UNL     1     -38.865 -49.585  13.533  1.00  0.00     0.050 C 
HETATM   21  C   UNL     1     -39.378 -47.243  12.868  1.00  0.00     0.026 A 
HETATM   22  C   UNL     1     -39.971 -46.302  12.126  1.00  0.00     0.094 A 
HETATM   23  N   UNL     1     -40.866 -46.635  11.132  1.00  0.00    -0.327 N 
HETATM   24  C   UNL     1     -41.529 -45.588  10.379  1.00  0.00     0.159 C 
HETATM   25  C   UNL     1     -41.216 -47.957  10.867  1.00  0.00     0.274 A 
HETATM   26  O   UNL     1     -42.006 -48.305   9.986  1.00  0.00    -0.265 OA
ENDBRANCH   4  18
TORSDOF 5
ENDMDL
MODEL 7
REMARK VINA RESULT:      -6.0      2.122      3.418
REMARK  5 active torsions:
REMARK  status: ('A' for Active; 'I' for Inactive)
REMARK    1  A    between atoms: C_2  and  C_4 
REMARK    2  A    between atoms: C_4  and  N_5 
REMARK    3  A    between atoms: C_10  and  C_11 
REMARK    4  A    between atoms: C_11  and  N_12 
REMARK       I    between atoms: N_12  and  C_13 
REMARK       I    between atoms: C_13  and  N_15 
REMARK    5  A    between atoms: N_15  and  C_16 
ROOT
HETATM    1  N   UNL     1     -40.694 -51.169  11.271  1.00  0.00    -0.341 N 
HETATM    2  C   UNL     1     -41.285 -51.677  12.403  1.00  0.00     0.320 C 
HETATM    3  O   UNL     1     -41.691 -50.977  13.321  1.00  0.00    -0.247 OA
HETATM    4  N   UNL     1     -41.354 -53.054  12.363  1.00  0.00    -0.304 N 
HETATM    5  H   UNL     1     -40.484 -51.797  10.514  1.00  0.00     0.164 HD
HETATM    6  H   UNL     1     -40.510 -53.484  11.996  1.00  0.00     0.171 HD
ENDROOT
BRANCH   1   7
HETATM    7  C   UNL     1     -40.531 -49.734  11.073  1.00  0.00     0.160 C 
BRANCH   7   8
HETATM    8  C   UNL     1     -39.937 -49.017  12.313  1.00  0.00     0.240 C 
HETATM    9  N   UNL     1     -40.301 -47.577  12.408  1.00  0.00     0.095 N 
HETATM   10  C   UNL     1     -39.821 -47.042  13.692  1.00  0.00     0.273 C 
HETATM   11  C   UNL     1     -38.315 -47.203  13.925  1.00  0.00     0.030 C 
HETATM   12  C   UNL     1     -37.812 -48.618  13.652  1.00  0.00     0.004 C 
HETATM   13  C   UNL     1     -38.412 -49.228  12.388  1.00  0.00     0.037 C 
BRANCH   9  14
HETATM   14  C   UNL     1     -39.918 -46.765  11.241  1.00  0.00     0.277 C 
BRANCH  14  15
HETATM   15  C   UNL     1     -40.511 -45.332  11.198  1.00  0.00     0.006 C 
HETATM   16  C   UNL     1     -39.694 -44.470  10.226  1.00  0.00     0.011 C 
HETATM   17  C   UNL     1     -41.982 -45.311  10.769  1.00  0.00     0.011 C 
ENDBRANCH  14  15
ENDBRANCH   9  14
ENDBRANCH   7   8
ENDBRANCH   1   7
BRANCH   4  18
HETATM   18  C   UNL     1     -41.952 -53.824  13.351  1.00  0.00     0.111 A 
HETATM   19  C   UNL     1     -43.264 -54.110  13.465  1.00  0.00    -0.028 A 
HETATM   20  C   UNL     1     -44.337 -53.742  12.475  1.00  0.00     0.050 C 
HETATM   21  C   UNL     1     -43.738 -54.875  14.607  1.00  0.00     0.026 A 
HETATM   22  C   UNL     1     -42.888 -55.330  15.535  1.00  0.00     0.094 A 
HETATM   23  N   UNL     1     -41.531 -55.112  15.427  1.00  0.00    -0.327 N 
HETATM   24  C   UNL     1     -40.643 -55.576  16.476  1.00  0.00     0.159 C 
HETATM   25  C   UNL     1     -40.981 -54.390  14.371  1.00  0.00     0.274 A 
HETATM   26  O   UNL     1     -39.774 -54.175  14.229  1.00  0.00    -0.265 OA
ENDBRANCH   4  18
TORSDOF 5
ENDMDL
MODEL 8
REMARK VINA RESULT:      -6.0      1.812      3.605
REMARK  5 active torsions:
REMARK  status: ('A' for Active; 'I' for Inactive)
REMARK    1  A    between atoms: C_2  and  C_4 
REMARK    2  A    between atoms: C_4  and  N_5 
REMARK    3  A    between atoms: C_10  and  C_11 
REMARK    4  A    between atoms: C_11  and  N_12 
REMARK       I    between atoms: N_12  and  C_13 
REMARK       I    between atoms: C_13  and  N_15 
REMARK    5  A    between atoms: N_15  and  C_16 
ROOT
HETATM    1  N   UNL     1     -41.845 -49.916  11.417  1.00  0.00    -0.341 N 
HETATM    2  C   UNL     1     -41.847 -50.778  12.488  1.00  0.00     0.320 C 
HETATM    3  O   UNL     1     -40.962 -50.801  13.333  1.00  0.00    -0.247 OA
HETATM    4  N   UNL     1     -42.958 -51.595  12.476  1.00  0.00    -0.304 N 
HETATM    5  H   UNL     1     -42.658 -49.881  10.825  1.00  0.00     0.164 HD
HETATM    6  H   UNL     1     -43.189 -51.940  11.549  1.00  0.00     0.171 HD
ENDROOT
BRANCH   1   7
HETATM    7  C   UNL     1     -40.783 -48.936  11.227  1.00  0.00     0.160 C 
BRANCH   7   8
HETATM    8  C   UNL     1     -41.110 -47.561  11.865  1.00  0.00     0.240 C 
HETATM    9  N   UNL     1     -42.336 -46.918  11.314  1.00  0.00     0.095 N 
HETATM   10  C   UNL     1     -42.638 -45.708  12.094  1.00  0.00     0.273 C 
HETATM   11  C   UNL     1     -41.501 -44.681  12.141  1.00  0.00     0.030 C 
HETATM   12  C   UNL     1     -40.151 -45.295  12.504  1.00  0.00     0.004 C 
HETATM   13  C   UNL     1     -39.891 -46.621  11.796  1.00  0.00     0.037 C 
BRANCH   9  14
HETATM   14  C   UNL     1     -42.317 -46.703   9.858  1.00  0.00     0.277 C 
BRANCH  14  15
HETATM   15  C   UNL     1     -43.676 -46.898   9.135  1.00  0.00     0.006 C 
HETATM   16  C   UNL     1     -43.457 -47.688   7.838  1.00  0.00     0.011 C 
HETATM   17  C   UNL     1     -44.707 -47.631   9.999  1.00  0.00     0.011 C 
ENDBRANCH  14  15
ENDBRANCH   9  14
ENDBRANCH   7   8
ENDBRANCH   1   7
BRANCH   4  18
HETATM   18  C   UNL     1     -43.241 -52.523  13.470  1.00  0.00     0.111 A 
HETATM   19  C   UNL     1     -42.616 -53.699  13.675  1.00  0.00    -0.028 A 
HETATM   20  C   UNL     1     -41.405 -54.197  12.932  1.00  0.00     0.050 C 
HETATM   21  C   UNL     1     -43.087 -54.592  14.722  1.00  0.00     0.026 A 
HETATM   22  C   UNL     1     -44.113 -54.252  15.511  1.00  0.00     0.094 A 
HETATM   23  N   UNL     1     -44.744 -53.033  15.375  1.00  0.00    -0.327 N 
HETATM   24  C   UNL     1     -45.885 -52.717  16.212  1.00  0.00     0.159 C 
HETATM   25  C   UNL     1     -44.366 -52.111  14.402  1.00  0.00     0.274 A 
HETATM   26  O   UNL     1     -44.896 -51.007  14.247  1.00  0.00    -0.265 OA
ENDBRANCH   4  18
TORSDOF 5
ENDMDL
MODEL 9
REMARK VINA RESULT:      -5.9      1.727      3.729
REMARK  5 active torsions:
REMARK  status: ('A' for Active; 'I' for Inactive)
REMARK    1  A    between atoms: C_2  and  C_4 
REMARK    2  A    between atoms: C_4  and  N_5 
REMARK    3  A    between atoms: C_10  and  C_11 
REMARK    4  A    between atoms: C_11  and  N_12 
REMARK       I    between atoms: N_12  and  C_13 
REMARK       I    between atoms: C_13  and  N_15 
REMARK    5  A    between atoms: N_15  and  C_16 
ROOT
HETATM    1  N   UNL     1     -40.423 -48.013  12.500  1.00  0.00    -0.341 N 
HETATM    2  C   UNL     1     -40.567 -49.347  12.205  1.00  0.00     0.320 C 
HETATM    3  O   UNL     1     -40.392 -49.810  11.084  1.00  0.00    -0.247 OA
HETATM    4  N   UNL     1     -40.929 -50.076  13.318  1.00  0.00    -0.304 N 
HETATM    5  H   UNL     1     -40.477 -47.724  13.463  1.00  0.00     0.164 HD
HETATM    6  H   UNL     1     -41.624 -49.607  13.892  1.00  0.00     0.171 HD
ENDROOT
BRANCH   1   7
HETATM    7  C   UNL     1     -40.020 -47.044  11.488  1.00  0.00     0.160 C 
BRANCH   7   8
HETATM    8  C   UNL     1     -40.604 -45.630  11.741  1.00  0.00     0.240 C 
HETATM    9  N   UNL     1     -42.050 -45.507  11.407  1.00  0.00     0.095 N 
HETATM   10  C   UNL     1     -42.532 -44.184  11.831  1.00  0.00     0.273 C 
HETATM   11  C   UNL     1     -41.767 -43.003  11.225  1.00  0.00     0.030 C 
HETATM   12  C   UNL     1     -40.252 -43.144  11.344  1.00  0.00     0.004 C 
HETATM   13  C   UNL     1     -39.759 -44.554  11.033  1.00  0.00     0.037 C 
BRANCH   9  14
HETATM   14  C   UNL     1     -42.393 -45.851  10.017  1.00  0.00     0.277 C 
BRANCH  14  15
HETATM   15  C   UNL     1     -43.612 -46.795   9.842  1.00  0.00     0.006 C 
HETATM   16  C   UNL     1     -43.506 -47.522   8.495  1.00  0.00     0.011 C 
HETATM   17  C   UNL     1     -43.724 -47.833  10.963  1.00  0.00     0.011 C 
ENDBRANCH  14  15
ENDBRANCH   9  14
ENDBRANCH   7   8
ENDBRANCH   1   7
BRANCH   4  18
HETATM   18  C   UNL     1     -41.088 -51.455  13.317  1.00  0.00     0.111 A 
HETATM   19  C   UNL     1     -40.127 -52.377  13.521  1.00  0.00    -0.028 A 
HETATM   20  C   UNL     1     -38.699 -52.094  13.904  1.00  0.00     0.050 C 
HETATM   21  C   UNL     1     -40.450 -53.791  13.414  1.00  0.00     0.026 A 
HETATM   22  C   UNL     1     -41.697 -54.196  13.147  1.00  0.00     0.094 A 
HETATM   23  N   UNL     1     -42.724 -53.290  12.989  1.00  0.00    -0.327 N 
HETATM   24  C   UNL     1     -44.053 -53.761  12.650  1.00  0.00     0.159 C 
HETATM   25  C   UNL     1     -42.514 -51.915  13.073  1.00  0.00     0.274 A 
HETATM   26  O   UNL     1     -43.401 -51.068  12.945  1.00  0.00    -0.265 OA
ENDBRANCH   4  18
TORSDOF 5
ENDMDL
