MODEL 1
REMARK VINA RESULT:      -6.2      0.000      0.000
REMARK  4 active torsions:
REMARK  status: ('A' for Active; 'I' for Inactive)
REMARK       I    between atoms: C_2  and  N_4 
REMARK    1  A    between atoms: C_7  and  N_10 
REMARK       I    between atoms: N_10  and  C_11 
REMARK       I    between atoms: C_11  and  N_13 
REMARK    2  A    between atoms: N_13  and  C_14 
REMARK    3  A    between atoms: C_14  and  C_15 
REMARK    4  A    between atoms: C_15  and  N_16 
ROOT
HETATM    1  N   UNL     1     -42.537 -50.987  12.301  1.00  0.00    -0.338 N 
HETATM    2  C   UNL     1     -41.880 -49.800  12.113  1.00  0.00     0.316 C 
HETATM    3  O   UNL     1     -40.962 -49.397  12.813  1.00  0.00    -0.247 OA
HETATM    4  N   UNL     1     -42.362 -49.129  11.013  1.00  0.00    -0.342 N 
HETATM    5  H   UNL     1     -43.490 -51.007  11.971  1.00  0.00     0.164 HD
HETATM    6  H   UNL     1     -42.713 -49.747  10.295  1.00  0.00     0.164 HD
ENDROOT
BRANCH   1   7
HETATM    7  C   UNL     1     -42.173 -51.868  13.410  1.00  0.00     0.089 C 
HETATM    8  C   UNL     1     -42.258 -53.339  13.003  1.00  0.00     0.045 C 
HETATM    9  C   UNL     1     -43.697 -53.827  12.895  1.00  0.00     0.127 C 
HETATM   10  N   UNL     1     -44.446 -53.536  14.114  1.00  0.00    -0.352 N 
HETATM   11  C   UNL     1     -45.422 -54.446  14.510  1.00  0.00     0.215 C 
HETATM   12  C   UNL     1     -44.427 -52.138  14.551  1.00  0.00     0.127 C 
HETATM   13  C   UNL     1     -46.078 -54.208  15.846  1.00  0.00     0.117 C 
HETATM   14  O   UNL     1     -45.705 -55.445  13.849  1.00  0.00    -0.274 OA
HETATM   15  C   UNL     1     -43.006 -51.599  14.668  1.00  0.00     0.045 C 
ENDBRANCH   1   7
BRANCH   4  16
HETATM   16  C   UNL     1     -41.646 -47.939  10.576  1.00  0.00     0.144 C 
BRANCH  16  17
HETATM   17  C   UNL     1     -42.570 -46.829  10.092  1.00  0.00     0.149 C 
BRANCH  17  18
HETATM   18  N   UNL     1     -43.615 -47.336   9.230  1.00  0.00    -0.350 N 
HETATM   19  C   UNL     1     -44.944 -47.424   9.531  1.00  0.00     0.108 A 
HETATM   20  C   UNL     1     -45.523 -47.973   8.410  1.00  0.00     0.106 A 
HETATM   21  N   UNL     1     -44.581 -48.208   7.442  1.00  0.00    -0.361 N 
HETATM   22  C   UNL     1     -43.440 -47.816   7.964  1.00  0.00     0.182 A 
ATOM     23  HN  UNL     1     -44.732 -48.604   6.513  1.00  0.00     0.166 HD
ENDBRANCH  17  18
ENDBRANCH  16  17
ENDBRANCH   4  16
TORSDOF 4
ENDMDL
MODEL 2
REMARK VINA RESULT:      -5.8      3.364      4.349
REMARK  4 active torsions:
REMARK  status: ('A' for Active; 'I' for Inactive)
REMARK       I    between atoms: C_2  and  N_4 
REMARK    1  A    between atoms: C_7  and  N_10 
REMARK       I    between atoms: N_10  and  C_11 
REMARK       I    between atoms: C_11  and  N_13 
REMARK    2  A    between atoms: N_13  and  C_14 
REMARK    3  A    between atoms: C_14  and  C_15 
REMARK    4  A    between atoms: C_15  and  N_16 
ROOT
HETATM    1  N   UNL     1     -40.288 -52.682  14.768  1.00  0.00    -0.338 N 
HETATM    2  C   UNL     1     -39.083 -52.143  14.400  1.00  0.00     0.316 C 
HETATM    3  O   UNL     1     -38.299 -52.665  13.621  1.00  0.00    -0.247 OA
HETATM    4  N   UNL     1     -38.880 -50.918  14.994  1.00  0.00    -0.342 N 
HETATM    5  H   UNL     1     -40.619 -52.408  15.681  1.00  0.00     0.164 HD
HETATM    6  H   UNL     1     -39.739 -50.418  15.171  1.00  0.00     0.164 HD
ENDROOT
BRANCH   1   7
HETATM    7  C   UNL     1     -40.711 -53.978  14.240  1.00  0.00     0.089 C 
HETATM    8  C   UNL     1     -41.262 -53.847  12.819  1.00  0.00     0.045 C 
HETATM    9  C   UNL     1     -42.649 -53.218  12.793  1.00  0.00     0.127 C 
HETATM   10  N   UNL     1     -43.564 -53.920  13.689  1.00  0.00    -0.352 N 
HETATM   11  C   UNL     1     -44.900 -54.013  13.312  1.00  0.00     0.215 C 
HETATM   12  C   UNL     1     -43.109 -54.063  15.074  1.00  0.00     0.127 C 
HETATM   13  C   UNL     1     -45.797 -54.867  14.171  1.00  0.00     0.117 C 
HETATM   14  O   UNL     1     -45.339 -53.486  12.289  1.00  0.00    -0.274 OA
HETATM   15  C   UNL     1     -41.719 -54.682  15.155  1.00  0.00     0.045 C 
ENDBRANCH   1   7
BRANCH   4  16
HETATM   16  C   UNL     1     -37.729 -50.137  14.562  1.00  0.00     0.144 C 
BRANCH  16  17
HETATM   17  C   UNL     1     -38.115 -48.861  13.826  1.00  0.00     0.149 C 
BRANCH  17  18
HETATM   18  N   UNL     1     -38.959 -49.132  12.683  1.00  0.00    -0.350 N 
HETATM   19  C   UNL     1     -40.289 -48.847  12.569  1.00  0.00     0.108 A 
HETATM   20  C   UNL     1     -40.640 -49.300  11.318  1.00  0.00     0.106 A 
HETATM   21  N   UNL     1     -39.556 -49.839  10.674  1.00  0.00    -0.361 N 
HETATM   22  C   UNL     1     -38.557 -49.725  11.521  1.00  0.00     0.182 A 
ATOM     23  HN  UNL     1     -39.530 -50.243   9.737  1.00  0.00     0.166 HD
ENDBRANCH  17  18
ENDBRANCH  16  17
ENDBRANCH   4  16
TORSDOF 4
ENDMDL
MODEL 3
REMARK VINA RESULT:      -5.7      1.758      1.935
REMARK  4 active torsions:
REMARK  status: ('A' for Active; 'I' for Inactive)
REMARK       I    between atoms: C_2  and  N_4 
REMARK    1  A    between atoms: C_7  and  N_10 
REMARK       I    between atoms: N_10  and  C_11 
REMARK       I    between atoms: C_11  and  N_13 
REMARK    2  A    between atoms: N_13  and  C_14 
REMARK    3  A    between atoms: C_14  and  C_15 
REMARK    4  A    between atoms: C_15  and  N_16 
ROOT
HETATM    1  N   UNL     1     -41.926 -51.184  12.143  1.00  0.00    -0.338 N 
HETATM    2  C   UNL     1     -41.667 -49.855  11.932  1.00  0.00     0.316 C 
HETATM    3  O   UNL     1     -40.620 -49.298  12.224  1.00  0.00    -0.247 OA
HETATM    4  N   UNL     1     -42.727 -49.230  11.315  1.00  0.00    -0.342 N 
HETATM    5  H   UNL     1     -42.900 -51.416  12.268  1.00  0.00     0.164 HD
HETATM    6  H   UNL     1     -43.255 -49.848  10.715  1.00  0.00     0.164 HD
ENDROOT
BRANCH   1   7
HETATM    7  C   UNL     1     -40.926 -52.041  12.777  1.00  0.00     0.089 C 
HETATM    8  C   UNL     1     -41.184 -53.517  12.470  1.00  0.00     0.045 C 
HETATM    9  C   UNL     1     -42.368 -54.071  13.252  1.00  0.00     0.127 C 
HETATM   10  N   UNL     1     -42.227 -53.810  14.681  1.00  0.00    -0.352 N 
HETATM   11  C   UNL     1     -42.719 -54.762  15.568  1.00  0.00     0.215 C 
HETATM   12  C   UNL     1     -41.999 -52.411  15.050  1.00  0.00     0.127 C 
HETATM   13  C   UNL     1     -42.431 -54.548  17.032  1.00  0.00     0.117 C 
HETATM   14  O   UNL     1     -43.308 -55.776  15.193  1.00  0.00    -0.274 OA
HETATM   15  C   UNL     1     -40.826 -51.806  14.288  1.00  0.00     0.045 C 
ENDBRANCH   1   7
BRANCH   4  16
HETATM   16  C   UNL     1     -42.536 -47.860  10.860  1.00  0.00     0.144 C 
BRANCH  16  17
HETATM   17  C   UNL     1     -42.870 -47.667   9.386  1.00  0.00     0.149 C 
BRANCH  17  18
HETATM   18  N   UNL     1     -44.204 -47.140   9.202  1.00  0.00    -0.350 N 
HETATM   19  C   UNL     1     -45.374 -47.838   9.298  1.00  0.00     0.108 A 
HETATM   20  C   UNL     1     -46.358 -46.914   9.032  1.00  0.00     0.106 A 
HETATM   21  N   UNL     1     -45.813 -45.679   8.789  1.00  0.00    -0.361 N 
HETATM   22  C   UNL     1     -44.514 -45.846   8.897  1.00  0.00     0.182 A 
ATOM     23  HN  UNL     1     -46.310 -44.816   8.571  1.00  0.00     0.166 HD
ENDBRANCH  17  18
ENDBRANCH  16  17
ENDBRANCH   4  16
TORSDOF 4
ENDMDL
MODEL 4
REMARK VINA RESULT:      -5.5      2.125      3.137
REMARK  4 active torsions:
REMARK  status: ('A' for Active; 'I' for Inactive)
REMARK       I    between atoms: C_2  and  N_4 
REMARK    1  A    between atoms: C_7  and  N_10 
REMARK       I    between atoms: N_10  and  C_11 
REMARK       I    between atoms: C_11  and  N_13 
REMARK    2  A    between atoms: N_13  and  C_14 
REMARK    3  A    between atoms: C_14  and  C_15 
REMARK    4  A    between atoms: C_15  and  N_16 
ROOT
HETATM    1  N   UNL     1     -43.569 -49.715  12.402  1.00  0.00    -0.338 N 
HETATM    2  C   UNL     1     -42.696 -48.873  11.765  1.00  0.00     0.316 C 
HETATM    3  O   UNL     1     -41.510 -48.766  12.041  1.00  0.00    -0.247 OA
HETATM    4  N   UNL     1     -43.316 -48.184  10.748  1.00  0.00    -0.342 N 
HETATM    5  H   UNL     1     -44.533 -49.418  12.395  1.00  0.00     0.164 HD
HETATM    6  H   UNL     1     -44.077 -48.699  10.328  1.00  0.00     0.164 HD
ENDROOT
BRANCH   1   7
HETATM    7  C   UNL     1     -43.113 -50.554  13.510  1.00  0.00     0.089 C 
HETATM    8  C   UNL     1     -42.673 -51.933  13.017  1.00  0.00     0.045 C 
HETATM    9  C   UNL     1     -43.855 -52.817  12.641  1.00  0.00     0.127 C 
HETATM   10  N   UNL     1     -44.827 -52.891  13.727  1.00  0.00    -0.352 N 
HETATM   11  C   UNL     1     -45.515 -54.088  13.904  1.00  0.00     0.215 C 
HETATM   12  C   UNL     1     -45.310 -51.605  14.235  1.00  0.00     0.127 C 
HETATM   13  C   UNL     1     -46.400 -54.196  15.119  1.00  0.00     0.117 C 
HETATM   14  O   UNL     1     -45.372 -55.052  13.152  1.00  0.00    -0.274 OA
HETATM   15  C   UNL     1     -44.162 -50.679  14.619  1.00  0.00     0.045 C 
ENDBRANCH   1   7
BRANCH   4  16
HETATM   16  C   UNL     1     -42.481 -47.386   9.861  1.00  0.00     0.144 C 
BRANCH  16  17
HETATM   17  C   UNL     1     -42.730 -45.889   9.992  1.00  0.00     0.149 C 
BRANCH  17  18
HETATM   18  N   UNL     1     -41.621 -45.213  10.629  1.00  0.00    -0.350 N 
HETATM   19  C   UNL     1     -40.312 -45.599  10.604  1.00  0.00     0.108 A 
HETATM   20  C   UNL     1     -39.652 -44.652  11.352  1.00  0.00     0.106 A 
HETATM   21  N   UNL     1     -40.526 -43.703  11.817  1.00  0.00    -0.361 N 
HETATM   22  C   UNL     1     -41.705 -44.067  11.366  1.00  0.00     0.182 A 
ATOM     23  HN  UNL     1     -40.307 -42.888  12.391  1.00  0.00     0.166 HD
ENDBRANCH  17  18
ENDBRANCH  16  17
ENDBRANCH   4  16
TORSDOF 4
ENDMDL
MODEL 5
REMARK VINA RESULT:      -5.4      2.691      7.286
REMARK  4 active torsions:
REMARK  status: ('A' for Active; 'I' for Inactive)
REMARK       I    between atoms: C_2  and  N_4 
REMARK    1  A    between atoms: C_7  and  N_10 
REMARK       I    between atoms: N_10  and  C_11 
REMARK       I    between atoms: C_11  and  N_13 
REMARK    2  A    between atoms: N_13  and  C_14 
REMARK    3  A    between atoms: C_14  and  C_15 
REMARK    4  A    between atoms: C_15  and  N_16 
ROOT
HETATM    1  N   UNL     1     -42.099 -50.076  12.448  1.00  0.00    -0.338 N 
HETATM    2  C   UNL     1     -42.600 -51.158  13.123  1.00  0.00     0.316 C 
HETATM    3  O   UNL     1     -42.771 -51.202  14.332  1.00  0.00    -0.247 OA
HETATM    4  N   UNL     1     -42.921 -52.181  12.261  1.00  0.00    -0.342 N 
HETATM    5  H   UNL     1     -41.619 -50.293  11.587  1.00  0.00     0.164 HD
HETATM    6  H   UNL     1     -43.199 -51.856  11.346  1.00  0.00     0.164 HD
ENDROOT
BRANCH   1   7
HETATM    7  C   UNL     1     -41.704 -48.869  13.173  1.00  0.00     0.089 C 
HETATM    8  C   UNL     1     -42.729 -47.750  12.987  1.00  0.00     0.045 C 
HETATM    9  C   UNL     1     -42.654 -47.120  11.602  1.00  0.00     0.127 C 
HETATM   10  N   UNL     1     -41.293 -46.695  11.288  1.00  0.00    -0.352 N 
HETATM   11  C   UNL     1     -41.132 -45.550  10.515  1.00  0.00     0.215 C 
HETATM   12  C   UNL     1     -40.260 -47.724  11.423  1.00  0.00     0.127 C 
HETATM   13  C   UNL     1     -39.725 -45.041  10.328  1.00  0.00     0.117 C 
HETATM   14  O   UNL     1     -42.085 -44.924  10.050  1.00  0.00    -0.274 OA
HETATM   15  C   UNL     1     -40.298 -48.392  12.792  1.00  0.00     0.045 C 
ENDBRANCH   1   7
BRANCH   4  16
HETATM   16  C   UNL     1     -43.633 -53.329  12.806  1.00  0.00     0.144 C 
BRANCH  16  17
HETATM   17  C   UNL     1     -45.128 -53.298  12.516  1.00  0.00     0.149 C 
BRANCH  17  18
HETATM   18  N   UNL     1     -45.881 -52.761  13.628  1.00  0.00    -0.350 N 
HETATM   19  C   UNL     1     -46.287 -53.443  14.739  1.00  0.00     0.108 A 
HETATM   20  C   UNL     1     -46.969 -52.516  15.492  1.00  0.00     0.106 A 
HETATM   21  N   UNL     1     -46.975 -51.294  14.870  1.00  0.00    -0.361 N 
HETATM   22  C   UNL     1     -46.313 -51.472  13.749  1.00  0.00     0.182 A 
ATOM     23  HN  UNL     1     -47.403 -50.430  15.206  1.00  0.00     0.166 HD
ENDBRANCH  17  18
ENDBRANCH  16  17
ENDBRANCH   4  16
TORSDOF 4
ENDMDL
MODEL 6
REMARK VINA RESULT:      -5.4      2.805      3.434
REMARK  4 active torsions:
REMARK  status: ('A' for Active; 'I' for Inactive)
REMARK       I    between atoms: C_2  and  N_4 
REMARK    1  A    between atoms: C_7  and  N_10 
REMARK       I    between atoms: N_10  and  C_11 
REMARK       I    between atoms: C_11  and  N_13 
REMARK    2  A    between atoms: N_13  and  C_14 
REMARK    3  A    between atoms: C_14  and  C_15 
REMARK    4  A    between atoms: C_15  and  N_16 
ROOT
HETATM    1  N   UNL     1     -39.785 -51.756  13.867  1.00  0.00    -0.338 N 
HETATM    2  C   UNL     1     -39.161 -50.871  13.028  1.00  0.00     0.316 C 
HETATM    3  O   UNL     1     -38.381 -51.188  12.142  1.00  0.00    -0.247 OA
HETATM    4  N   UNL     1     -39.550 -49.576  13.286  1.00  0.00    -0.342 N 
HETATM    5  H   UNL     1     -40.035 -51.385  14.772  1.00  0.00     0.164 HD
HETATM    6  H   UNL     1     -40.492 -49.511  13.644  1.00  0.00     0.164 HD
ENDROOT
BRANCH   1   7
HETATM    7  C   UNL     1     -39.525 -53.190  13.757  1.00  0.00     0.089 C 
HETATM    8  C   UNL     1     -40.665 -53.908  13.034  1.00  0.00     0.045 C 
HETATM    9  C   UNL     1     -41.905 -54.051  13.908  1.00  0.00     0.127 C 
HETATM   10  N   UNL     1     -41.578 -54.664  15.191  1.00  0.00    -0.352 N 
HETATM   11  C   UNL     1     -42.527 -55.499  15.774  1.00  0.00     0.215 C 
HETATM   12  C   UNL     1     -40.507 -54.014  15.951  1.00  0.00     0.127 C 
HETATM   13  C   UNL     1     -42.116 -56.240  17.020  1.00  0.00     0.117 C 
HETATM   14  O   UNL     1     -43.636 -55.691  15.275  1.00  0.00    -0.274 OA
HETATM   15  C   UNL     1     -39.244 -53.840  15.116  1.00  0.00     0.045 C 
ENDBRANCH   1   7
BRANCH   4  16
HETATM   16  C   UNL     1     -39.114 -48.540  12.361  1.00  0.00     0.144 C 
BRANCH  16  17
HETATM   17  C   UNL     1     -39.991 -47.294  12.402  1.00  0.00     0.149 C 
BRANCH  17  18
HETATM   18  N   UNL     1     -40.931 -47.263  11.303  1.00  0.00    -0.350 N 
HETATM   19  C   UNL     1     -41.666 -48.313  10.832  1.00  0.00     0.108 A 
HETATM   20  C   UNL     1     -42.393 -47.793   9.787  1.00  0.00     0.106 A 
HETATM   21  N   UNL     1     -42.125 -46.458   9.624  1.00  0.00    -0.361 N 
HETATM   22  C   UNL     1     -41.240 -46.166  10.551  1.00  0.00     0.182 A 
ATOM     23  HN  UNL     1     -42.526 -45.825   8.931  1.00  0.00     0.166 HD
ENDBRANCH  17  18
ENDBRANCH  16  17
ENDBRANCH   4  16
TORSDOF 4
ENDMDL
MODEL 7
REMARK VINA RESULT:      -5.3      4.054      5.130
REMARK  4 active torsions:
REMARK  status: ('A' for Active; 'I' for Inactive)
REMARK       I    between atoms: C_2  and  N_4 
REMARK    1  A    between atoms: C_7  and  N_10 
REMARK       I    between atoms: N_10  and  C_11 
REMARK       I    between atoms: C_11  and  N_13 
REMARK    2  A    between atoms: N_13  and  C_14 
REMARK    3  A    between atoms: C_14  and  C_15 
REMARK    4  A    between atoms: C_15  and  N_16 
ROOT
HETATM    1  N   UNL     1     -40.005 -48.454  11.102  1.00  0.00    -0.338 N 
HETATM    2  C   UNL     1     -41.299 -48.051  10.903  1.00  0.00     0.316 C 
HETATM    3  O   UNL     1     -42.283 -48.733  11.150  1.00  0.00    -0.247 OA
HETATM    4  N   UNL     1     -41.354 -46.765  10.418  1.00  0.00    -0.342 N 
HETATM    5  H   UNL     1     -39.324 -48.024  10.493  1.00  0.00     0.164 HD
HETATM    6  H   UNL     1     -40.582 -46.192  10.728  1.00  0.00     0.164 HD
ENDROOT
BRANCH   1   7
HETATM    7  C   UNL     1     -39.717 -49.788  11.626  1.00  0.00     0.089 C 
HETATM    8  C   UNL     1     -40.504 -50.063  12.908  1.00  0.00     0.045 C 
HETATM    9  C   UNL     1     -39.940 -49.309  14.106  1.00  0.00     0.127 C 
HETATM   10  N   UNL     1     -38.510 -49.557  14.260  1.00  0.00    -0.352 N 
HETATM   11  C   UNL     1     -37.993 -49.601  15.551  1.00  0.00     0.215 C 
HETATM   12  C   UNL     1     -37.689 -49.293  13.076  1.00  0.00     0.127 C 
HETATM   13  C   UNL     1     -36.549 -50.006  15.698  1.00  0.00     0.117 C 
HETATM   14  O   UNL     1     -38.682 -49.389  16.549  1.00  0.00    -0.274 OA
HETATM   15  C   UNL     1     -38.218 -50.020  11.845  1.00  0.00     0.045 C 
ENDBRANCH   1   7
BRANCH   4  16
HETATM   16  C   UNL     1     -42.661 -46.130  10.326  1.00  0.00     0.144 C 
BRANCH  16  17
HETATM   17  C   UNL     1     -43.165 -46.000   8.894  1.00  0.00     0.149 C 
BRANCH  17  18
HETATM   18  N   UNL     1     -44.244 -46.923   8.617  1.00  0.00    -0.350 N 
HETATM   19  C   UNL     1     -45.481 -46.922   9.193  1.00  0.00     0.108 A 
HETATM   20  C   UNL     1     -46.138 -47.985   8.617  1.00  0.00     0.106 A 
HETATM   21  N   UNL     1     -45.333 -48.618   7.705  1.00  0.00    -0.361 N 
HETATM   22  C   UNL     1     -44.198 -47.957   7.727  1.00  0.00     0.182 A 
ATOM     23  HN  UNL     1     -45.567 -49.429   7.131  1.00  0.00     0.166 HD
ENDBRANCH  17  18
ENDBRANCH  16  17
ENDBRANCH   4  16
TORSDOF 4
ENDMDL
MODEL 8
REMARK VINA RESULT:      -5.3      4.863      7.042
REMARK  4 active torsions:
REMARK  status: ('A' for Active; 'I' for Inactive)
REMARK       I    between atoms: C_2  and  N_4 
REMARK    1  A    between atoms: C_7  and  N_10 
REMARK       I    between atoms: N_10  and  C_11 
REMARK       I    between atoms: C_11  and  N_13 
REMARK    2  A    between atoms: N_13  and  C_14 
REMARK    3  A    between atoms: C_14  and  C_15 
REMARK    4  A    between atoms: C_15  and  N_16 
ROOT
HETATM    1  N   UNL     1     -40.102 -51.826  13.905  1.00  0.00    -0.338 N 
HETATM    2  C   UNL     1     -38.862 -51.250  13.817  1.00  0.00     0.316 C 
HETATM    3  O   UNL     1     -37.939 -51.690  13.146  1.00  0.00    -0.247 OA
HETATM    4  N   UNL     1     -38.795 -50.091  14.555  1.00  0.00    -0.342 N 
HETATM    5  H   UNL     1     -40.598 -51.646  14.765  1.00  0.00     0.164 HD
HETATM    6  H   UNL     1     -39.682 -49.613  14.622  1.00  0.00     0.164 HD
ENDROOT
BRANCH   1   7
HETATM    7  C   UNL     1     -40.395 -53.064  13.184  1.00  0.00     0.089 C 
HETATM    8  C   UNL     1     -41.266 -52.799  11.956  1.00  0.00     0.045 C 
HETATM    9  C   UNL     1     -42.713 -52.498  12.327  1.00  0.00     0.127 C 
HETATM   10  N   UNL     1     -43.263 -53.537  13.193  1.00  0.00    -0.352 N 
HETATM   11  C   UNL     1     -44.611 -53.852  13.055  1.00  0.00     0.215 C 
HETATM   12  C   UNL     1     -42.491 -53.828  14.403  1.00  0.00     0.127 C 
HETATM   13  C   UNL     1     -45.126 -55.026  13.848  1.00  0.00     0.117 C 
HETATM   14  O   UNL     1     -45.356 -53.256  12.276  1.00  0.00    -0.274 OA
HETATM   15  C   UNL     1     -41.031 -54.129  14.086  1.00  0.00     0.045 C 
ENDBRANCH   1   7
BRANCH   4  16
HETATM   16  C   UNL     1     -37.601 -49.268  14.419  1.00  0.00     0.144 C 
BRANCH  16  17
HETATM   17  C   UNL     1     -37.361 -48.359  15.618  1.00  0.00     0.149 C 
BRANCH  17  18
HETATM   18  N   UNL     1     -36.515 -48.988  16.608  1.00  0.00    -0.350 N 
HETATM   19  C   UNL     1     -36.320 -48.571  17.893  1.00  0.00     0.108 A 
HETATM   20  C   UNL     1     -35.435 -49.477  18.428  1.00  0.00     0.106 A 
HETATM   21  N   UNL     1     -35.100 -50.433  17.503  1.00  0.00    -0.361 N 
HETATM   22  C   UNL     1     -35.765 -50.112  16.416  1.00  0.00     0.182 A 
ATOM     23  HN  UNL     1     -34.468 -51.224  17.632  1.00  0.00     0.166 HD
ENDBRANCH  17  18
ENDBRANCH  16  17
ENDBRANCH   4  16
TORSDOF 4
ENDMDL
MODEL 9
REMARK VINA RESULT:      -5.3      3.544      7.497
REMARK  4 active torsions:
REMARK  status: ('A' for Active; 'I' for Inactive)
REMARK       I    between atoms: C_2  and  N_4 
REMARK    1  A    between atoms: C_7  and  N_10 
REMARK       I    between atoms: N_10  and  C_11 
REMARK       I    between atoms: C_11  and  N_13 
REMARK    2  A    between atoms: N_13  and  C_14 
REMARK    3  A    between atoms: C_14  and  C_15 
REMARK    4  A    between atoms: C_15  and  N_16 
ROOT
HETATM    1  N   UNL     1     -40.634 -50.841  13.380  1.00  0.00    -0.338 N 
HETATM    2  C   UNL     1     -41.039 -52.085  12.975  1.00  0.00     0.316 C 
HETATM    3  O   UNL     1     -40.436 -52.784  12.175  1.00  0.00    -0.247 OA
HETATM    4  N   UNL     1     -42.199 -52.465  13.611  1.00  0.00    -0.342 N 
HETATM    5  H   UNL     1     -41.375 -50.222  13.672  1.00  0.00     0.164 HD
HETATM    6  H   UNL     1     -42.291 -52.069  14.536  1.00  0.00     0.164 HD
ENDROOT
BRANCH   1   7
HETATM    7  C   UNL     1     -39.413 -50.247  12.836  1.00  0.00     0.089 C 
HETATM    8  C   UNL     1     -38.856 -49.170  13.767  1.00  0.00     0.045 C 
HETATM    9  C   UNL     1     -39.676 -47.886  13.722  1.00  0.00     0.127 C 
HETATM   10  N   UNL     1     -39.842 -47.414  12.351  1.00  0.00    -0.352 N 
HETATM   11  C   UNL     1     -39.881 -46.040  12.137  1.00  0.00     0.215 C 
HETATM   12  C   UNL     1     -40.393 -48.389  11.407  1.00  0.00     0.127 C 
HETATM   13  C   UNL     1     -39.901 -45.570  10.705  1.00  0.00     0.117 C 
HETATM   14  O   UNL     1     -39.833 -45.223  13.057  1.00  0.00    -0.274 OA
HETATM   15  C   UNL     1     -39.611 -49.697  11.420  1.00  0.00     0.045 C 
ENDBRANCH   1   7
BRANCH   4  16
HETATM   16  C   UNL     1     -42.658 -53.834  13.424  1.00  0.00     0.144 C 
BRANCH  16  17
HETATM   17  C   UNL     1     -43.920 -53.932  12.577  1.00  0.00     0.149 C 
BRANCH  17  18
HETATM   18  N   UNL     1     -45.115 -53.966  13.392  1.00  0.00    -0.350 N 
HETATM   19  C   UNL     1     -45.855 -52.892  13.795  1.00  0.00     0.108 A 
HETATM   20  C   UNL     1     -46.872 -53.429  14.549  1.00  0.00     0.106 A 
HETATM   21  N   UNL     1     -46.769 -54.795  14.603  1.00  0.00    -0.361 N 
HETATM   22  C   UNL     1     -45.701 -55.091  13.898  1.00  0.00     0.182 A 
ATOM     23  HN  UNL     1     -47.390 -55.444  15.088  1.00  0.00     0.166 HD
ENDBRANCH  17  18
ENDBRANCH  16  17
ENDBRANCH   4  16
TORSDOF 4
ENDMDL
