MODEL 1
REMARK VINA RESULT:      -6.3      0.000      0.000
REMARK  5 active torsions:
REMARK  status: ('A' for Active; 'I' for Inactive)
REMARK    1  A    between atoms: C_2  and  C_3 
REMARK    2  A    between atoms: C_6  and  C_7 
REMARK    3  A    between atoms: C_7  and  C_8 
REMARK       I    between atoms: C_8  and  N_10 
REMARK    4  A    between atoms: N_10  and  C_11 
REMARK    5  A    between atoms: C_11  and  C_12 
ROOT
HETATM    1  C   UNL     1     -42.484 -49.081  12.324  1.00  0.00     0.223 C 
HETATM    2  O   UNL     1     -42.735 -48.364  13.290  1.00  0.00    -0.273 OA
HETATM    3  N   UNL     1     -42.593 -50.456  12.353  1.00  0.00    -0.360 N 
HETATM    4  H   UNL     1     -42.569 -50.926  11.450  1.00  0.00     0.162 HD
ENDROOT
BRANCH   1   5
HETATM    5  C   UNL     1     -41.945 -48.515  11.023  1.00  0.00     0.160 C 
BRANCH   5   6
HETATM    6  C   UNL     1     -42.921 -47.630  10.318  1.00  0.00     0.025 A 
HETATM    7  N   UNL     1     -44.254 -48.020  10.230  1.00  0.00    -0.356 N 
HETATM    8  C   UNL     1     -44.938 -47.143   9.521  1.00  0.00     0.050 A 
ATOM      9  HN  UNL     1     -44.646 -48.862  10.653  1.00  0.00     0.166 HD
HETATM   10  S   UNL     1     -44.032 -45.806   8.930  1.00  0.00    -0.087 SA
HETATM   11  C   UNL     1     -42.627 -46.446   9.667  1.00  0.00     0.077 A 
BRANCH   8  12
HETATM   12  C   UNL     1     -46.397 -47.261   9.205  1.00  0.00     0.060 C 
HETATM   13  C   UNL     1     -46.750 -48.644   8.681  1.00  0.00     0.012 C 
ENDBRANCH   8  12
ENDBRANCH   5   6
ENDBRANCH   1   5
BRANCH   3  14
HETATM   14  C   UNL     1     -43.154 -51.164  13.487  1.00  0.00     0.127 C 
BRANCH  14  15
HETATM   15  C   UNL     1     -44.628 -50.824  13.738  1.00  0.00     0.008 C 
HETATM   16  C   UNL     1     -45.095 -51.082  15.188  1.00  0.00     0.011 C 
HETATM   17  C   UNL     1     -46.294 -52.029  15.004  1.00  0.00    -0.014 C 
HETATM   18  C   UNL     1     -45.769 -53.407  14.562  1.00  0.00     0.005 C 
HETATM   19  C   UNL     1     -46.923 -51.493  13.720  1.00  0.00     0.010 C 
HETATM   20  C   UNL     1     -45.397 -53.177  13.090  1.00  0.00     0.005 C 
HETATM   21  C   UNL     1     -45.635 -51.670  12.909  1.00  0.00    -0.009 C 
ENDBRANCH  14  15
ENDBRANCH   3  14
TORSDOF 5
ENDMDL
MODEL 2
REMARK VINA RESULT:      -6.1      1.153      1.401
REMARK  5 active torsions:
REMARK  status: ('A' for Active; 'I' for Inactive)
REMARK    1  A    between atoms: C_2  and  C_3 
REMARK    2  A    between atoms: C_6  and  C_7 
REMARK    3  A    between atoms: C_7  and  C_8 
REMARK       I    between atoms: C_8  and  N_10 
REMARK    4  A    between atoms: N_10  and  C_11 
REMARK    5  A    between atoms: C_11  and  C_12 
ROOT
HETATM    1  C   UNL     1     -41.526 -50.110  12.330  1.00  0.00     0.223 C 
HETATM    2  O   UNL     1     -41.222 -49.784  13.476  1.00  0.00    -0.273 OA
HETATM    3  N   UNL     1     -42.393 -51.142  12.042  1.00  0.00    -0.360 N 
HETATM    4  H   UNL     1     -42.736 -51.185  11.084  1.00  0.00     0.162 HD
ENDROOT
BRANCH   1   5
HETATM    5  C   UNL     1     -40.900 -49.448  11.116  1.00  0.00     0.160 C 
BRANCH   5   6
HETATM    6  C   UNL     1     -41.566 -48.165  10.737  1.00  0.00     0.025 A 
HETATM    7  N   UNL     1     -42.705 -48.199   9.936  1.00  0.00    -0.356 N 
HETATM    8  C   UNL     1     -43.104 -46.973   9.663  1.00  0.00     0.050 A 
ATOM      9  HN  UNL     1     -43.164 -49.050   9.609  1.00  0.00     0.166 HD
HETATM   10  S   UNL     1     -42.151 -45.717  10.350  1.00  0.00    -0.087 SA
HETATM   11  C   UNL     1     -41.130 -46.893  11.057  1.00  0.00     0.077 A 
BRANCH   8  12
HETATM   12  C   UNL     1     -44.284 -46.636   8.804  1.00  0.00     0.060 C 
HETATM   13  C   UNL     1     -45.450 -47.579   9.055  1.00  0.00     0.012 C 
ENDBRANCH   8  12
ENDBRANCH   5   6
ENDBRANCH   1   5
BRANCH   3  14
HETATM   14  C   UNL     1     -43.135 -51.841  13.072  1.00  0.00     0.127 C 
BRANCH  14  15
HETATM   15  C   UNL     1     -44.474 -51.174  13.407  1.00  0.00     0.008 C 
HETATM   16  C   UNL     1     -44.705 -50.948  14.919  1.00  0.00     0.011 C 
HETATM   17  C   UNL     1     -46.042 -51.663  15.177  1.00  0.00    -0.014 C 
HETATM   18  C   UNL     1     -45.812 -53.183  15.088  1.00  0.00     0.005 C 
HETATM   19  C   UNL     1     -46.807 -51.373  13.887  1.00  0.00     0.010 C 
HETATM   20  C   UNL     1     -45.682 -53.423  13.577  1.00  0.00     0.005 C 
HETATM   21  C   UNL     1     -45.727 -51.999  13.000  1.00  0.00    -0.009 C 
ENDBRANCH  14  15
ENDBRANCH   3  14
TORSDOF 5
ENDMDL
MODEL 3
REMARK VINA RESULT:      -5.9      3.047      6.109
REMARK  5 active torsions:
REMARK  status: ('A' for Active; 'I' for Inactive)
REMARK    1  A    between atoms: C_2  and  C_3 
REMARK    2  A    between atoms: C_6  and  C_7 
REMARK    3  A    between atoms: C_7  and  C_8 
REMARK       I    between atoms: C_8  and  N_10 
REMARK    4  A    between atoms: N_10  and  C_11 
REMARK    5  A    between atoms: C_11  and  C_12 
ROOT
HETATM    1  C   UNL     1     -41.320 -51.226  12.342  1.00  0.00     0.223 C 
HETATM    2  O   UNL     1     -41.348 -50.751  13.475  1.00  0.00    -0.273 OA
HETATM    3  N   UNL     1     -40.990 -50.493  11.222  1.00  0.00    -0.360 N 
HETATM    4  H   UNL     1     -40.791 -51.028  10.378  1.00  0.00     0.162 HD
ENDROOT
BRANCH   1   5
HETATM    5  C   UNL     1     -41.732 -52.660  12.063  1.00  0.00     0.160 C 
BRANCH   5   6
HETATM    6  C   UNL     1     -43.109 -52.981  12.546  1.00  0.00     0.025 A 
HETATM    7  N   UNL     1     -44.089 -51.992  12.517  1.00  0.00    -0.356 N 
HETATM    8  C   UNL     1     -45.211 -52.449  13.039  1.00  0.00     0.050 A 
ATOM      9  HN  UNL     1     -43.959 -51.051  12.145  1.00  0.00     0.166 HD
HETATM   10  S   UNL     1     -45.159 -54.079  13.585  1.00  0.00    -0.087 SA
HETATM   11  C   UNL     1     -43.524 -54.180  13.095  1.00  0.00     0.077 A 
BRANCH   8  12
HETATM   12  C   UNL     1     -46.465 -51.645  13.191  1.00  0.00     0.060 C 
HETATM   13  C   UNL     1     -46.804 -51.400  14.652  1.00  0.00     0.012 C 
ENDBRANCH   8  12
ENDBRANCH   5   6
ENDBRANCH   1   5
BRANCH   3  14
HETATM   14  C   UNL     1     -40.507 -49.129  11.304  1.00  0.00     0.127 C 
BRANCH  14  15
HETATM   15  C   UNL     1     -41.398 -48.130  10.557  1.00  0.00     0.008 C 
HETATM   16  C   UNL     1     -40.955 -46.656  10.707  1.00  0.00     0.011 C 
HETATM   17  C   UNL     1     -42.216 -45.968  11.259  1.00  0.00    -0.014 C 
HETATM   18  C   UNL     1     -42.421 -46.415  12.718  1.00  0.00     0.005 C 
HETATM   19  C   UNL     1     -43.328 -46.719  10.529  1.00  0.00     0.010 C 
HETATM   20  C   UNL     1     -42.957 -47.846  12.567  1.00  0.00     0.005 C 
HETATM   21  C   UNL     1     -42.872 -48.085  11.051  1.00  0.00    -0.009 C 
ENDBRANCH  14  15
ENDBRANCH   3  14
TORSDOF 5
ENDMDL
MODEL 4
REMARK VINA RESULT:      -5.9      2.382      5.865
REMARK  5 active torsions:
REMARK  status: ('A' for Active; 'I' for Inactive)
REMARK    1  A    between atoms: C_2  and  C_3 
REMARK    2  A    between atoms: C_6  and  C_7 
REMARK    3  A    between atoms: C_7  and  C_8 
REMARK       I    between atoms: C_8  and  N_10 
REMARK    4  A    between atoms: N_10  and  C_11 
REMARK    5  A    between atoms: C_11  and  C_12 
ROOT
HETATM    1  C   UNL     1     -41.394 -49.522  12.047  1.00  0.00     0.223 C 
HETATM    2  O   UNL     1     -40.651 -48.804  12.712  1.00  0.00    -0.273 OA
HETATM    3  N   UNL     1     -42.043 -49.092  10.909  1.00  0.00    -0.360 N 
HETATM    4  H   UNL     1     -42.456 -49.819  10.327  1.00  0.00     0.162 HD
ENDROOT
BRANCH   1   5
HETATM    5  C   UNL     1     -41.733 -50.939  12.475  1.00  0.00     0.160 C 
BRANCH   5   6
HETATM    6  C   UNL     1     -42.935 -51.015  13.358  1.00  0.00     0.025 A 
HETATM    7  N   UNL     1     -44.176 -51.308  12.798  1.00  0.00    -0.356 N 
HETATM    8  C   UNL     1     -45.114 -51.267  13.724  1.00  0.00     0.050 A 
ATOM      9  HN  UNL     1     -44.336 -51.523  11.813  1.00  0.00     0.166 HD
HETATM   10  S   UNL     1     -44.567 -50.887  15.310  1.00  0.00    -0.087 SA
HETATM   11  C   UNL     1     -42.968 -50.762  14.717  1.00  0.00     0.077 A 
BRANCH   8  12
HETATM   12  C   UNL     1     -46.570 -51.507  13.468  1.00  0.00     0.060 C 
HETATM   13  C   UNL     1     -46.849 -51.760  11.995  1.00  0.00     0.012 C 
ENDBRANCH   8  12
ENDBRANCH   5   6
ENDBRANCH   1   5
BRANCH   3  14
HETATM   14  C   UNL     1     -41.789 -47.794  10.317  1.00  0.00     0.127 C 
BRANCH  14  15
HETATM   15  C   UNL     1     -43.038 -46.908  10.252  1.00  0.00     0.008 C 
HETATM   16  C   UNL     1     -44.363 -47.668  10.492  1.00  0.00     0.011 C 
HETATM   17  C   UNL     1     -45.185 -47.339   9.234  1.00  0.00    -0.014 C 
HETATM   18  C   UNL     1     -44.572 -48.088   8.036  1.00  0.00     0.005 C 
HETATM   19  C   UNL     1     -44.775 -45.894   8.960  1.00  0.00     0.010 C 
HETATM   20  C   UNL     1     -43.306 -47.273   7.734  1.00  0.00     0.005 C 
HETATM   21  C   UNL     1     -43.285 -46.239   8.871  1.00  0.00    -0.009 C 
ENDBRANCH  14  15
ENDBRANCH   3  14
TORSDOF 5
ENDMDL
MODEL 5
REMARK VINA RESULT:      -5.9      4.804      6.755
REMARK  5 active torsions:
REMARK  status: ('A' for Active; 'I' for Inactive)
REMARK    1  A    between atoms: C_2  and  C_3 
REMARK    2  A    between atoms: C_6  and  C_7 
REMARK    3  A    between atoms: C_7  and  C_8 
REMARK       I    between atoms: C_8  and  N_10 
REMARK    4  A    between atoms: N_10  and  C_11 
REMARK    5  A    between atoms: C_11  and  C_12 
ROOT
HETATM    1  C   UNL     1     -44.025 -53.250  12.470  1.00  0.00     0.223 C 
HETATM    2  O   UNL     1     -44.581 -54.341  12.364  1.00  0.00    -0.273 OA
HETATM    3  N   UNL     1     -44.711 -52.062  12.613  1.00  0.00    -0.360 N 
HETATM    4  H   UNL     1     -44.157 -51.258  12.904  1.00  0.00     0.162 HD
ENDROOT
BRANCH   1   5
HETATM    5  C   UNL     1     -42.517 -53.106  12.370  1.00  0.00     0.160 C 
BRANCH   5   6
HETATM    6  C   UNL     1     -41.786 -53.780  13.486  1.00  0.00     0.025 A 
HETATM    7  N   UNL     1     -42.492 -54.592  14.370  1.00  0.00    -0.356 N 
HETATM    8  C   UNL     1     -41.687 -55.041  15.313  1.00  0.00     0.050 A 
ATOM      9  HN  UNL     1     -43.486 -54.808  14.298  1.00  0.00     0.166 HD
HETATM   10  S   UNL     1     -40.050 -54.527  15.193  1.00  0.00    -0.087 SA
HETATM   11  C   UNL     1     -40.444 -53.638  13.786  1.00  0.00     0.077 A 
BRANCH   8  12
HETATM   12  C   UNL     1     -42.117 -55.922  16.445  1.00  0.00     0.060 C 
HETATM   13  C   UNL     1     -41.017 -56.086  17.481  1.00  0.00     0.012 C 
ENDBRANCH   8  12
ENDBRANCH   5   6
ENDBRANCH   1   5
BRANCH   3  14
HETATM   14  C   UNL     1     -46.147 -52.014  12.794  1.00  0.00     0.127 C 
BRANCH  14  15
HETATM   15  C   UNL     1     -46.564 -51.412  14.141  1.00  0.00     0.008 C 
HETATM   16  C   UNL     1     -45.383 -50.874  14.982  1.00  0.00     0.011 C 
HETATM   17  C   UNL     1     -45.531 -51.631  16.313  1.00  0.00    -0.014 C 
HETATM   18  C   UNL     1     -45.147 -53.104  16.086  1.00  0.00     0.005 C 
HETATM   19  C   UNL     1     -47.049 -51.709  16.462  1.00  0.00     0.010 C 
HETATM   20  C   UNL     1     -46.365 -53.665  15.337  1.00  0.00     0.005 C 
HETATM   21  C   UNL     1     -47.236 -52.418  15.118  1.00  0.00    -0.009 C 
ENDBRANCH  14  15
ENDBRANCH   3  14
TORSDOF 5
ENDMDL
MODEL 6
REMARK VINA RESULT:      -5.9      4.137      5.260
REMARK  5 active torsions:
REMARK  status: ('A' for Active; 'I' for Inactive)
REMARK    1  A    between atoms: C_2  and  C_3 
REMARK    2  A    between atoms: C_6  and  C_7 
REMARK    3  A    between atoms: C_7  and  C_8 
REMARK       I    between atoms: C_8  and  N_10 
REMARK    4  A    between atoms: N_10  and  C_11 
REMARK    5  A    between atoms: C_11  and  C_12 
ROOT
HETATM    1  C   UNL     1     -42.319 -54.003  13.213  1.00  0.00     0.223 C 
HETATM    2  O   UNL     1     -42.398 -54.577  14.297  1.00  0.00    -0.273 OA
HETATM    3  N   UNL     1     -43.405 -53.781  12.394  1.00  0.00    -0.360 N 
HETATM    4  H   UNL     1     -43.264 -53.118  11.633  1.00  0.00     0.162 HD
ENDROOT
BRANCH   1   5
HETATM    5  C   UNL     1     -40.987 -53.558  12.637  1.00  0.00     0.160 C 
BRANCH   5   6
HETATM    6  C   UNL     1     -40.669 -52.127  12.927  1.00  0.00     0.025 A 
HETATM    7  N   UNL     1     -39.733 -51.463  12.138  1.00  0.00    -0.356 N 
HETATM    8  C   UNL     1     -39.547 -50.238  12.589  1.00  0.00     0.050 A 
ATOM      9  HN  UNL     1     -39.260 -51.866  11.329  1.00  0.00     0.166 HD
HETATM   10  S   UNL     1     -40.482 -49.810  13.968  1.00  0.00    -0.087 SA
HETATM   11  C   UNL     1     -41.179 -51.372  13.967  1.00  0.00     0.077 A 
BRANCH   8  12
HETATM   12  C   UNL     1     -38.589 -49.252  11.995  1.00  0.00     0.060 C 
HETATM   13  C   UNL     1     -37.470 -49.943  11.233  1.00  0.00     0.012 C 
ENDBRANCH   8  12
ENDBRANCH   5   6
ENDBRANCH   1   5
BRANCH   3  14
HETATM   14  C   UNL     1     -44.762 -54.077  12.809  1.00  0.00     0.127 C 
BRANCH  14  15
HETATM   15  C   UNL     1     -45.607 -52.820  13.041  1.00  0.00     0.008 C 
HETATM   16  C   UNL     1     -44.778 -51.542  13.304  1.00  0.00     0.011 C 
HETATM   17  C   UNL     1     -45.323 -51.046  14.655  1.00  0.00    -0.014 C 
HETATM   18  C   UNL     1     -44.842 -52.002  15.761  1.00  0.00     0.005 C 
HETATM   19  C   UNL     1     -46.805 -51.397  14.542  1.00  0.00     0.010 C 
HETATM   20  C   UNL     1     -45.736 -53.235  15.562  1.00  0.00     0.005 C 
HETATM   21  C   UNL     1     -46.527 -52.882  14.293  1.00  0.00    -0.009 C 
ENDBRANCH  14  15
ENDBRANCH   3  14
TORSDOF 5
ENDMDL
MODEL 7
REMARK VINA RESULT:      -5.9      1.840      2.555
REMARK  5 active torsions:
REMARK  status: ('A' for Active; 'I' for Inactive)
REMARK    1  A    between atoms: C_2  and  C_3 
REMARK    2  A    between atoms: C_6  and  C_7 
REMARK    3  A    between atoms: C_7  and  C_8 
REMARK       I    between atoms: C_8  and  N_10 
REMARK    4  A    between atoms: N_10  and  C_11 
REMARK    5  A    between atoms: C_11  and  C_12 
ROOT
HETATM    1  C   UNL     1     -42.713 -49.712  12.389  1.00  0.00     0.223 C 
HETATM    2  O   UNL     1     -43.663 -49.748  13.168  1.00  0.00    -0.273 OA
HETATM    3  N   UNL     1     -42.046 -50.839  11.956  1.00  0.00    -0.360 N 
HETATM    4  H   UNL     1     -41.425 -50.712  11.159  1.00  0.00     0.162 HD
ENDROOT
BRANCH   1   5
HETATM    5  C   UNL     1     -42.132 -48.400  11.894  1.00  0.00     0.160 C 
BRANCH   5   6
HETATM    6  C   UNL     1     -42.959 -47.756  10.829  1.00  0.00     0.025 A 
HETATM    7  N   UNL     1     -44.301 -48.104  10.703  1.00  0.00    -0.356 N 
HETATM    8  C   UNL     1     -44.838 -47.479   9.673  1.00  0.00     0.050 A 
ATOM      9  HN  UNL     1     -44.797 -48.749  11.318  1.00  0.00     0.166 HD
HETATM   10  S   UNL     1     -43.776 -46.439   8.807  1.00  0.00    -0.087 SA
HETATM   11  C   UNL     1     -42.510 -46.857   9.878  1.00  0.00     0.077 A 
BRANCH   8  12
HETATM   12  C   UNL     1     -46.259 -47.640   9.231  1.00  0.00     0.060 C 
HETATM   13  C   UNL     1     -46.396 -48.698   8.148  1.00  0.00     0.012 C 
ENDBRANCH   8  12
ENDBRANCH   5   6
ENDBRANCH   1   5
BRANCH   3  14
HETATM   14  C   UNL     1     -42.501 -52.178  12.272  1.00  0.00     0.127 C 
BRANCH  14  15
HETATM   15  C   UNL     1     -41.863 -52.744  13.546  1.00  0.00     0.008 C 
HETATM   16  C   UNL     1     -41.578 -54.263  13.485  1.00  0.00     0.011 C 
HETATM   17  C   UNL     1     -42.323 -54.806  14.717  1.00  0.00    -0.014 C 
HETATM   18  C   UNL     1     -43.837 -54.730  14.447  1.00  0.00     0.005 C 
HETATM   19  C   UNL     1     -42.115 -53.682  15.730  1.00  0.00     0.010 C 
HETATM   20  C   UNL     1     -44.139 -53.233  14.606  1.00  0.00     0.005 C 
HETATM   21  C   UNL     1     -42.745 -52.623  14.820  1.00  0.00    -0.009 C 
ENDBRANCH  14  15
ENDBRANCH   3  14
TORSDOF 5
ENDMDL
MODEL 8
REMARK VINA RESULT:      -5.9      3.020      4.371
REMARK  5 active torsions:
REMARK  status: ('A' for Active; 'I' for Inactive)
REMARK    1  A    between atoms: C_2  and  C_3 
REMARK    2  A    between atoms: C_6  and  C_7 
REMARK    3  A    between atoms: C_7  and  C_8 
REMARK       I    between atoms: C_8  and  N_10 
REMARK    4  A    between atoms: N_10  and  C_11 
REMARK    5  A    between atoms: C_11  and  C_12 
ROOT
HETATM    1  C   UNL     1     -42.158 -53.889  13.325  1.00  0.00     0.223 C 
HETATM    2  O   UNL     1     -41.841 -54.091  14.495  1.00  0.00    -0.273 OA
HETATM    3  N   UNL     1     -43.416 -54.153  12.825  1.00  0.00    -0.360 N 
HETATM    4  H   UNL     1     -43.629 -53.753  11.913  1.00  0.00     0.162 HD
ENDROOT
BRANCH   1   5
HETATM    5  C   UNL     1     -41.155 -53.404  12.294  1.00  0.00     0.160 C 
BRANCH   5   6
HETATM    6  C   UNL     1     -40.945 -51.925  12.330  1.00  0.00     0.025 A 
HETATM    7  N   UNL     1     -41.955 -51.082  11.873  1.00  0.00    -0.356 N 
HETATM    8  C   UNL     1     -41.557 -49.826  11.927  1.00  0.00     0.050 A 
ATOM      9  HN  UNL     1     -42.870 -51.391  11.544  1.00  0.00     0.166 HD
HETATM   10  S   UNL     1     -39.965 -49.582  12.530  1.00  0.00    -0.087 SA
HETATM   11  C   UNL     1     -39.793 -51.273  12.728  1.00  0.00     0.077 A 
BRANCH   8  12
HETATM   12  C   UNL     1     -42.382 -48.655  11.488  1.00  0.00     0.060 C 
HETATM   13  C   UNL     1     -41.577 -47.687  10.636  1.00  0.00     0.012 C 
ENDBRANCH   8  12
ENDBRANCH   5   6
ENDBRANCH   1   5
BRANCH   3  14
HETATM   14  C   UNL     1     -44.518 -54.557  13.676  1.00  0.00     0.127 C 
BRANCH  14  15
HETATM   15  C   UNL     1     -45.719 -53.607  13.595  1.00  0.00     0.008 C 
HETATM   16  C   UNL     1     -45.579 -52.504  12.521  1.00  0.00     0.011 C 
HETATM   17  C   UNL     1     -45.773 -51.208  13.327  1.00  0.00    -0.014 C 
HETATM   18  C   UNL     1     -44.532 -50.987  14.210  1.00  0.00     0.005 C 
HETATM   19  C   UNL     1     -46.829 -51.628  14.347  1.00  0.00     0.010 C 
HETATM   20  C   UNL     1     -44.722 -52.017  15.333  1.00  0.00     0.005 C 
HETATM   21  C   UNL     1     -45.978 -52.782  14.887  1.00  0.00    -0.009 C 
ENDBRANCH  14  15
ENDBRANCH   3  14
TORSDOF 5
ENDMDL
MODEL 9
REMARK VINA RESULT:      -5.8      4.304      5.676
REMARK  5 active torsions:
REMARK  status: ('A' for Active; 'I' for Inactive)
REMARK    1  A    between atoms: C_2  and  C_3 
REMARK    2  A    between atoms: C_6  and  C_7 
REMARK    3  A    between atoms: C_7  and  C_8 
REMARK       I    between atoms: C_8  and  N_10 
REMARK    4  A    between atoms: N_10  and  C_11 
REMARK    5  A    between atoms: C_11  and  C_12 
ROOT
HETATM    1  C   UNL     1     -42.046 -53.578  13.152  1.00  0.00     0.223 C 
HETATM    2  O   UNL     1     -42.457 -52.843  12.256  1.00  0.00    -0.273 OA
HETATM    3  N   UNL     1     -42.874 -54.178  14.078  1.00  0.00    -0.360 N 
HETATM    4  H   UNL     1     -42.459 -54.925  14.632  1.00  0.00     0.162 HD
ENDROOT
BRANCH   1   5
HETATM    5  C   UNL     1     -40.565 -53.827  13.369  1.00  0.00     0.160 C 
BRANCH   5   6
HETATM    6  C   UNL     1     -39.771 -52.568  13.504  1.00  0.00     0.025 A 
HETATM    7  N   UNL     1     -39.653 -51.715  12.410  1.00  0.00    -0.356 N 
HETATM    8  C   UNL     1     -38.868 -50.699  12.709  1.00  0.00     0.050 A 
ATOM      9  HN  UNL     1     -40.108 -51.856  11.508  1.00  0.00     0.166 HD
HETATM   10  S   UNL     1     -38.237 -50.701  14.309  1.00  0.00    -0.087 SA
HETATM   11  C   UNL     1     -39.065 -52.164  14.622  1.00  0.00     0.077 A 
BRANCH   8  12
HETATM   12  C   UNL     1     -38.501 -49.602  11.757  1.00  0.00     0.060 C 
HETATM   13  C   UNL     1     -37.251 -49.941  10.962  1.00  0.00     0.012 C 
ENDBRANCH   8  12
ENDBRANCH   5   6
ENDBRANCH   1   5
BRANCH   3  14
HETATM   14  C   UNL     1     -44.318 -54.106  13.986  1.00  0.00     0.127 C 
BRANCH  14  15
HETATM   15  C   UNL     1     -44.948 -53.241  15.084  1.00  0.00     0.008 C 
HETATM   16  C   UNL     1     -46.488 -53.349  15.166  1.00  0.00     0.011 C 
HETATM   17  C   UNL     1     -46.947 -51.887  15.025  1.00  0.00    -0.014 C 
HETATM   18  C   UNL     1     -46.711 -51.436  13.572  1.00  0.00     0.005 C 
HETATM   19  C   UNL     1     -45.851 -51.141  15.781  1.00  0.00     0.010 C 
HETATM   20  C   UNL     1     -45.190 -51.232  13.519  1.00  0.00     0.005 C 
HETATM   21  C   UNL     1     -44.732 -51.712  14.905  1.00  0.00    -0.009 C 
ENDBRANCH  14  15
ENDBRANCH   3  14
TORSDOF 5
ENDMDL
