MODEL 1
REMARK VINA RESULT:      -5.5      0.000      0.000
REMARK  5 active torsions:
REMARK  status: ('A' for Active; 'I' for Inactive)
REMARK    1  A    between atoms: C_2  and  C_3 
REMARK    2  A    between atoms: C_2  and  N_15 
REMARK       I    between atoms: C_3  and  N_5 
REMARK    3  A    between atoms: N_5  and  C_6 
REMARK    4  A    between atoms: C_6  and  C_12 
REMARK    5  A    between atoms: C_12  and  O_14 
ROOT
HETATM    1  C   UNL     1     -42.180 -45.668  10.894  1.00  0.00     0.243 C 
HETATM    2  O   UNL     1     -41.489 -45.213   9.983  1.00  0.00    -0.271 OA
HETATM    3  N   UNL     1     -42.549 -44.874  11.960  1.00  0.00    -0.340 N 
HETATM    4  H   UNL     1     -43.293 -45.226  12.561  1.00  0.00     0.163 HD
ENDROOT
BRANCH   3   5
HETATM    5  C   UNL     1     -42.156 -43.454  12.154  1.00  0.00     0.118 C 
HETATM    6  C   UNL     1     -40.628 -43.268  12.318  1.00  0.00     0.042 C 
HETATM    7  C   UNL     1     -40.085 -43.964  13.566  1.00  0.00     0.003 C 
HETATM    8  C   UNL     1     -40.779 -43.466  14.828  1.00  0.00     0.000 C 
HETATM    9  C   UNL     1     -42.296 -43.578  14.724  1.00  0.00     0.003 C 
HETATM   10  C   UNL     1     -42.835 -42.928  13.448  1.00  0.00     0.042 C 
BRANCH   5  11
HETATM   11  C   UNL     1     -42.661 -42.595  10.957  1.00  0.00     0.169 C 
HETATM   12  O   UNL     1     -43.841 -42.414  10.686  1.00  0.00    -0.648 OA
BRANCH  11  13
HETATM   13  O   UNL     1     -41.682 -42.015  10.222  1.00  0.00    -0.775 OA
HETATM   14  H   UNL     1     -41.386 -41.142  10.579  1.00  0.00     0.167 HD
ENDBRANCH  11  13
ENDBRANCH   5  11
ENDBRANCH   3   5
BRANCH   1  15
HETATM   15  C   UNL     1     -42.656 -47.116  10.941  1.00  0.00     0.195 C 
HETATM   16  C   UNL     1     -41.499 -48.096  11.126  1.00  0.00     0.044 C 
BRANCH  15  17
HETATM   17  N   UNL     1     -43.441 -47.441   9.758  1.00  0.00    -0.290 N 
HETATM   18  C   UNL     1     -44.802 -47.475   9.639  1.00  0.00     0.112 A 
HETATM   19  C   UNL     1     -45.061 -47.831   8.336  1.00  0.00     0.037 A 
HETATM   20  C   UNL     1     -43.794 -48.015   7.756  1.00  0.00     0.108 A 
HETATM   21  N   UNL     1     -42.804 -47.818   8.630  1.00  0.00    -0.309 N 
ATOM     22  HN  UNL     1     -41.801 -47.928   8.480  1.00  0.00     0.186 HD
ENDBRANCH  15  17
ENDBRANCH   1  15
TORSDOF 5
ENDMDL
MODEL 2
REMARK VINA RESULT:      -5.5      5.639      7.230
REMARK  5 active torsions:
REMARK  status: ('A' for Active; 'I' for Inactive)
REMARK    1  A    between atoms: C_2  and  C_3 
REMARK    2  A    between atoms: C_2  and  N_15 
REMARK       I    between atoms: C_3  and  N_5 
REMARK    3  A    between atoms: N_5  and  C_6 
REMARK    4  A    between atoms: C_6  and  C_12 
REMARK    5  A    between atoms: C_12  and  O_14 
ROOT
HETATM    1  C   UNL     1     -40.711 -52.274  13.034  1.00  0.00     0.243 C 
HETATM    2  O   UNL     1     -40.431 -52.601  11.881  1.00  0.00    -0.271 OA
HETATM    3  N   UNL     1     -40.559 -50.967  13.449  1.00  0.00    -0.340 N 
HETATM    4  H   UNL     1     -41.008 -50.709  14.327  1.00  0.00     0.163 HD
ENDROOT
BRANCH   3   5
HETATM    5  C   UNL     1     -40.038 -49.852  12.617  1.00  0.00     0.118 C 
HETATM    6  C   UNL     1     -38.589 -50.093  12.126  1.00  0.00     0.042 C 
HETATM    7  C   UNL     1     -37.588 -50.178  13.277  1.00  0.00     0.003 C 
HETATM    8  C   UNL     1     -37.614 -48.918  14.133  1.00  0.00     0.000 C 
HETATM    9  C   UNL     1     -39.022 -48.591  14.620  1.00  0.00     0.003 C 
HETATM   10  C   UNL     1     -40.035 -48.558  13.474  1.00  0.00     0.042 C 
BRANCH   5  11
HETATM   11  C   UNL     1     -40.972 -49.622  11.393  1.00  0.00     0.169 C 
HETATM   12  O   UNL     1     -42.061 -49.063  11.449  1.00  0.00    -0.648 OA
BRANCH  11  13
HETATM   13  O   UNL     1     -40.481 -50.068  10.212  1.00  0.00    -0.775 OA
HETATM   14  H   UNL     1     -41.089 -49.911   9.448  1.00  0.00     0.167 HD
ENDBRANCH  11  13
ENDBRANCH   5  11
ENDBRANCH   3   5
BRANCH   1  15
HETATM   15  C   UNL     1     -41.209 -53.258  14.086  1.00  0.00     0.195 C 
HETATM   16  C   UNL     1     -40.242 -54.423  14.289  1.00  0.00     0.044 C 
BRANCH  15  17
HETATM   17  N   UNL     1     -42.547 -53.732  13.759  1.00  0.00    -0.290 N 
HETATM   18  C   UNL     1     -43.354 -54.544  14.504  1.00  0.00     0.112 A 
HETATM   19  C   UNL     1     -44.511 -54.703  13.778  1.00  0.00     0.037 A 
HETATM   20  C   UNL     1     -44.295 -53.972  12.597  1.00  0.00     0.108 A 
HETATM   21  N   UNL     1     -43.083 -53.411  12.563  1.00  0.00    -0.309 N 
ATOM     22  HN  UNL     1     -42.662 -52.868  11.809  1.00  0.00     0.186 HD
ENDBRANCH  15  17
ENDBRANCH   1  15
TORSDOF 5
ENDMDL
MODEL 3
REMARK VINA RESULT:      -5.4      5.987      7.281
REMARK  5 active torsions:
REMARK  status: ('A' for Active; 'I' for Inactive)
REMARK    1  A    between atoms: C_2  and  C_3 
REMARK    2  A    between atoms: C_2  and  N_15 
REMARK       I    between atoms: C_3  and  N_5 
REMARK    3  A    between atoms: N_5  and  C_6 
REMARK    4  A    between atoms: C_6  and  C_12 
REMARK    5  A    between atoms: C_12  and  O_14 
ROOT
HETATM    1  C   UNL     1     -40.547 -51.193  12.527  1.00  0.00     0.243 C 
HETATM    2  O   UNL     1     -40.068 -52.326  12.530  1.00  0.00    -0.271 OA
HETATM    3  N   UNL     1     -39.755 -50.094  12.787  1.00  0.00    -0.340 N 
HETATM    4  H   UNL     1     -40.144 -49.181  12.555  1.00  0.00     0.163 HD
ENDROOT
BRANCH   3   5
HETATM    5  C   UNL     1     -38.306 -50.133  13.117  1.00  0.00     0.118 C 
HETATM    6  C   UNL     1     -38.003 -50.935  14.406  1.00  0.00     0.042 C 
HETATM    7  C   UNL     1     -38.636 -50.306  15.648  1.00  0.00     0.003 C 
HETATM    8  C   UNL     1     -38.172 -48.868  15.842  1.00  0.00     0.000 C 
HETATM    9  C   UNL     1     -38.399 -48.024  14.593  1.00  0.00     0.003 C 
HETATM   10  C   UNL     1     -37.812 -48.678  13.340  1.00  0.00     0.042 C 
BRANCH   5  11
HETATM   11  C   UNL     1     -37.508 -50.740  11.926  1.00  0.00     0.169 C 
HETATM   12  O   UNL     1     -36.794 -51.732  12.006  1.00  0.00    -0.648 OA
BRANCH  11  13
HETATM   13  O   UNL     1     -37.676 -50.099  10.744  1.00  0.00    -0.775 OA
HETATM   14  H   UNL     1     -37.624 -50.699   9.960  1.00  0.00     0.167 HD
ENDBRANCH  11  13
ENDBRANCH   5  11
ENDBRANCH   3   5
BRANCH   1  15
HETATM   15  C   UNL     1     -42.023 -50.909  12.272  1.00  0.00     0.195 C 
HETATM   16  C   UNL     1     -42.466 -49.576  12.870  1.00  0.00     0.044 C 
BRANCH  15  17
HETATM   17  N   UNL     1     -42.851 -52.006  12.753  1.00  0.00    -0.290 N 
HETATM   18  C   UNL     1     -43.342 -52.195  14.015  1.00  0.00     0.112 A 
HETATM   19  C   UNL     1     -44.063 -53.365  13.972  1.00  0.00     0.037 A 
HETATM   20  C   UNL     1     -43.927 -53.822  12.650  1.00  0.00     0.108 A 
HETATM   21  N   UNL     1     -43.155 -53.017  11.913  1.00  0.00    -0.309 N 
ATOM     22  HN  UNL     1     -42.864 -53.140  10.943  1.00  0.00     0.186 HD
ENDBRANCH  15  17
ENDBRANCH   1  15
TORSDOF 5
ENDMDL
MODEL 4
REMARK VINA RESULT:      -5.4      6.973      9.113
REMARK  5 active torsions:
REMARK  status: ('A' for Active; 'I' for Inactive)
REMARK    1  A    between atoms: C_2  and  C_3 
REMARK    2  A    between atoms: C_2  and  N_15 
REMARK       I    between atoms: C_3  and  N_5 
REMARK    3  A    between atoms: N_5  and  C_6 
REMARK    4  A    between atoms: C_6  and  C_12 
REMARK    5  A    between atoms: C_12  and  O_14 
ROOT
HETATM    1  C   UNL     1     -42.568 -53.202  12.880  1.00  0.00     0.243 C 
HETATM    2  O   UNL     1     -43.353 -52.874  11.991  1.00  0.00    -0.271 OA
HETATM    3  N   UNL     1     -43.024 -53.479  14.152  1.00  0.00    -0.340 N 
HETATM    4  H   UNL     1     -42.376 -53.954  14.779  1.00  0.00     0.163 HD
ENDROOT
BRANCH   3   5
HETATM    5  C   UNL     1     -44.438 -53.392  14.600  1.00  0.00     0.118 C 
HETATM    6  C   UNL     1     -45.027 -51.966  14.465  1.00  0.00     0.042 C 
HETATM    7  C   UNL     1     -44.307 -50.950  15.353  1.00  0.00     0.003 C 
HETATM    8  C   UNL     1     -44.349 -51.363  16.819  1.00  0.00     0.000 C 
HETATM    9  C   UNL     1     -43.823 -52.780  17.025  1.00  0.00     0.003 C 
HETATM   10  C   UNL     1     -44.505 -53.789  16.100  1.00  0.00     0.042 C 
BRANCH   5  11
HETATM   11  C   UNL     1     -45.313 -54.396  13.793  1.00  0.00     0.169 C 
HETATM   12  O   UNL     1     -45.385 -55.595  14.029  1.00  0.00    -0.648 OA
BRANCH  11  13
HETATM   13  O   UNL     1     -46.038 -53.840  12.793  1.00  0.00    -0.775 OA
HETATM   14  H   UNL     1     -46.420 -52.958  13.026  1.00  0.00     0.167 HD
ENDBRANCH  11  13
ENDBRANCH   5  11
ENDBRANCH   3   5
BRANCH   1  15
HETATM   15  C   UNL     1     -41.062 -53.302  12.671  1.00  0.00     0.195 C 
HETATM   16  C   UNL     1     -40.360 -53.975  13.849  1.00  0.00     0.044 C 
BRANCH  15  17
HETATM   17  N   UNL     1     -40.490 -51.992  12.392  1.00  0.00    -0.290 N 
HETATM   18  C   UNL     1     -39.538 -51.324  13.109  1.00  0.00     0.112 A 
HETATM   19  C   UNL     1     -39.328 -50.135  12.450  1.00  0.00     0.037 A 
HETATM   20  C   UNL     1     -40.219 -50.167  11.363  1.00  0.00     0.108 A 
HETATM   21  N   UNL     1     -40.958 -51.280  11.347  1.00  0.00    -0.309 N 
ATOM     22  HN  UNL     1     -41.703 -51.531  10.696  1.00  0.00     0.186 HD
ENDBRANCH  15  17
ENDBRANCH   1  15
TORSDOF 5
ENDMDL
MODEL 5
REMARK VINA RESULT:      -5.4      3.993      6.263
REMARK  5 active torsions:
REMARK  status: ('A' for Active; 'I' for Inactive)
REMARK    1  A    between atoms: C_2  and  C_3 
REMARK    2  A    between atoms: C_2  and  N_15 
REMARK       I    between atoms: C_3  and  N_5 
REMARK    3  A    between atoms: N_5  and  C_6 
REMARK    4  A    between atoms: C_6  and  C_12 
REMARK    5  A    between atoms: C_12  and  O_14 
ROOT
HETATM    1  C   UNL     1     -41.675 -48.919  11.641  1.00  0.00     0.243 C 
HETATM    2  O   UNL     1     -42.840 -49.048  12.016  1.00  0.00    -0.271 OA
HETATM    3  N   UNL     1     -40.714 -49.839  12.004  1.00  0.00    -0.340 N 
HETATM    4  H   UNL     1     -39.833 -49.810  11.492  1.00  0.00     0.163 HD
ENDROOT
BRANCH   3   5
HETATM    5  C   UNL     1     -40.938 -51.024  12.873  1.00  0.00     0.118 C 
HETATM    6  C   UNL     1     -41.602 -50.663  14.224  1.00  0.00     0.042 C 
HETATM    7  C   UNL     1     -40.725 -49.750  15.082  1.00  0.00     0.003 C 
HETATM    8  C   UNL     1     -39.365 -50.381  15.355  1.00  0.00     0.000 C 
HETATM    9  C   UNL     1     -38.666 -50.804  14.067  1.00  0.00     0.003 C 
HETATM   10  C   UNL     1     -39.562 -51.673  13.183  1.00  0.00     0.042 C 
BRANCH   5  11
HETATM   11  C   UNL     1     -41.812 -52.072  12.125  1.00  0.00     0.169 C 
HETATM   12  O   UNL     1     -42.949 -52.386  12.455  1.00  0.00    -0.648 OA
BRANCH  11  13
HETATM   13  O   UNL     1     -41.232 -52.618  11.029  1.00  0.00    -0.775 OA
HETATM   14  H   UNL     1     -41.382 -52.096  10.203  1.00  0.00     0.167 HD
ENDBRANCH  11  13
ENDBRANCH   5  11
ENDBRANCH   3   5
BRANCH   1  15
HETATM   15  C   UNL     1     -41.196 -47.750  10.788  1.00  0.00     0.195 C 
HETATM   16  C   UNL     1     -40.641 -46.607  11.637  1.00  0.00     0.044 C 
BRANCH  15  17
HETATM   17  N   UNL     1     -42.256 -47.285   9.904  1.00  0.00    -0.290 N 
HETATM   18  C   UNL     1     -42.905 -46.083   9.933  1.00  0.00     0.112 A 
HETATM   19  C   UNL     1     -43.815 -46.116   8.903  1.00  0.00     0.037 A 
HETATM   20  C   UNL     1     -43.659 -47.389   8.327  1.00  0.00     0.108 A 
HETATM   21  N   UNL     1     -42.737 -48.121   8.961  1.00  0.00    -0.309 N 
ATOM     22  HN  UNL     1     -42.463 -49.085   8.774  1.00  0.00     0.186 HD
ENDBRANCH  15  17
ENDBRANCH   1  15
TORSDOF 5
ENDMDL
MODEL 6
REMARK VINA RESULT:      -5.3      7.399      9.646
REMARK  5 active torsions:
REMARK  status: ('A' for Active; 'I' for Inactive)
REMARK    1  A    between atoms: C_2  and  C_3 
REMARK    2  A    between atoms: C_2  and  N_15 
REMARK       I    between atoms: C_3  and  N_5 
REMARK    3  A    between atoms: N_5  and  C_6 
REMARK    4  A    between atoms: C_6  and  C_12 
REMARK    5  A    between atoms: C_12  and  O_14 
ROOT
HETATM    1  C   UNL     1     -43.282 -52.201  13.508  1.00  0.00     0.243 C 
HETATM    2  O   UNL     1     -43.588 -52.769  12.460  1.00  0.00    -0.271 OA
HETATM    3  N   UNL     1     -44.018 -52.402  14.657  1.00  0.00    -0.340 N 
HETATM    4  H   UNL     1     -43.599 -52.092  15.532  1.00  0.00     0.163 HD
ENDROOT
BRANCH   3   5
HETATM    5  C   UNL     1     -45.228 -53.258  14.767  1.00  0.00     0.118 C 
HETATM    6  C   UNL     1     -46.448 -52.678  14.009  1.00  0.00     0.042 C 
HETATM    7  C   UNL     1     -46.906 -51.336  14.578  1.00  0.00     0.003 C 
HETATM    8  C   UNL     1     -47.253 -51.447  16.057  1.00  0.00     0.000 C 
HETATM    9  C   UNL     1     -46.111 -52.053  16.866  1.00  0.00     0.003 C 
HETATM   10  C   UNL     1     -45.616 -53.370  16.267  1.00  0.00     0.042 C 
BRANCH   5  11
HETATM   11  C   UNL     1     -44.916 -54.688  14.238  1.00  0.00     0.169 C 
HETATM   12  O   UNL     1     -44.183 -55.490  14.802  1.00  0.00    -0.648 OA
BRANCH  11  13
HETATM   13  O   UNL     1     -45.549 -55.018  13.086  1.00  0.00    -0.775 OA
HETATM   14  H   UNL     1     -44.932 -55.246  12.348  1.00  0.00     0.167 HD
ENDBRANCH  11  13
ENDBRANCH   5  11
ENDBRANCH   3   5
BRANCH   1  15
HETATM   15  C   UNL     1     -42.112 -51.230  13.623  1.00  0.00     0.195 C 
HETATM   16  C   UNL     1     -42.035 -50.277  12.431  1.00  0.00     0.044 C 
BRANCH  15  17
HETATM   17  N   UNL     1     -40.859 -51.949  13.807  1.00  0.00    -0.290 N 
HETATM   18  C   UNL     1     -39.612 -51.423  13.998  1.00  0.00     0.112 A 
HETATM   19  C   UNL     1     -38.761 -52.496  14.122  1.00  0.00     0.037 A 
HETATM   20  C   UNL     1     -39.583 -53.626  13.966  1.00  0.00     0.108 A 
HETATM   21  N   UNL     1     -40.857 -53.296  13.733  1.00  0.00    -0.309 N 
ATOM     22  HN  UNL     1     -41.644 -53.917  13.543  1.00  0.00     0.186 HD
ENDBRANCH  15  17
ENDBRANCH   1  15
TORSDOF 5
ENDMDL
MODEL 7
REMARK VINA RESULT:      -5.2      5.729      8.337
REMARK  5 active torsions:
REMARK  status: ('A' for Active; 'I' for Inactive)
REMARK    1  A    between atoms: C_2  and  C_3 
REMARK    2  A    between atoms: C_2  and  N_15 
REMARK       I    between atoms: C_3  and  N_5 
REMARK    3  A    between atoms: N_5  and  C_6 
REMARK    4  A    between atoms: C_6  and  C_12 
REMARK    5  A    between atoms: C_12  and  O_14 
ROOT
HETATM    1  C   UNL     1     -42.097 -50.894  12.566  1.00  0.00     0.243 C 
HETATM    2  O   UNL     1     -41.788 -51.822  11.819  1.00  0.00    -0.271 OA
HETATM    3  N   UNL     1     -43.034 -51.078  13.563  1.00  0.00    -0.340 N 
HETATM    4  H   UNL     1     -43.087 -50.357  14.281  1.00  0.00     0.163 HD
ENDROOT
BRANCH   3   5
HETATM    5  C   UNL     1     -43.773 -52.338  13.830  1.00  0.00     0.118 C 
HETATM    6  C   UNL     1     -44.893 -52.611  12.796  1.00  0.00     0.042 C 
HETATM    7  C   UNL     1     -45.986 -51.543  12.822  1.00  0.00     0.003 C 
HETATM    8  C   UNL     1     -46.613 -51.420  14.205  1.00  0.00     0.000 C 
HETATM    9  C   UNL     1     -45.563 -51.192  15.287  1.00  0.00     0.003 C 
HETATM   10  C   UNL     1     -44.440 -52.230  15.228  1.00  0.00     0.042 C 
BRANCH   5  11
HETATM   11  C   UNL     1     -42.783 -53.539  13.856  1.00  0.00     0.169 C 
HETATM   12  O   UNL     1     -42.063 -53.822  14.806  1.00  0.00    -0.648 OA
BRANCH  11  13
HETATM   13  O   UNL     1     -42.783 -54.299  12.735  1.00  0.00    -0.775 OA
HETATM   14  H   UNL     1     -42.742 -55.270  12.917  1.00  0.00     0.167 HD
ENDBRANCH  11  13
ENDBRANCH   5  11
ENDBRANCH   3   5
BRANCH   1  15
HETATM   15  C   UNL     1     -41.513 -49.491  12.445  1.00  0.00     0.195 C 
HETATM   16  C   UNL     1     -42.133 -48.706  11.291  1.00  0.00     0.044 C 
BRANCH  15  17
HETATM   17  N   UNL     1     -40.062 -49.544  12.331  1.00  0.00    -0.290 N 
HETATM   18  C   UNL     1     -39.134 -49.223  13.281  1.00  0.00     0.112 A 
HETATM   19  C   UNL     1     -37.905 -49.436  12.702  1.00  0.00     0.037 A 
HETATM   20  C   UNL     1     -38.195 -49.858  11.393  1.00  0.00     0.108 A 
HETATM   21  N   UNL     1     -39.508 -49.886  11.149  1.00  0.00    -0.309 N 
ATOM     22  HN  UNL     1     -39.981 -50.113  10.274  1.00  0.00     0.186 HD
ENDBRANCH  15  17
ENDBRANCH   1  15
TORSDOF 5
ENDMDL
MODEL 8
REMARK VINA RESULT:      -5.2      5.864      8.254
REMARK  5 active torsions:
REMARK  status: ('A' for Active; 'I' for Inactive)
REMARK    1  A    between atoms: C_2  and  C_3 
REMARK    2  A    between atoms: C_2  and  N_15 
REMARK       I    between atoms: C_3  and  N_5 
REMARK    3  A    between atoms: N_5  and  C_6 
REMARK    4  A    between atoms: C_6  and  C_12 
REMARK    5  A    between atoms: C_12  and  O_14 
ROOT
HETATM    1  C   UNL     1     -42.880 -51.169  12.817  1.00  0.00     0.243 C 
HETATM    2  O   UNL     1     -43.438 -50.196  13.322  1.00  0.00    -0.271 OA
HETATM    3  N   UNL     1     -43.412 -52.434  12.957  1.00  0.00    -0.340 N 
HETATM    4  H   UNL     1     -43.042 -53.159  12.343  1.00  0.00     0.163 HD
ENDROOT
BRANCH   3   5
HETATM    5  C   UNL     1     -44.641 -52.774  13.720  1.00  0.00     0.118 C 
HETATM    6  C   UNL     1     -44.613 -52.244  15.174  1.00  0.00     0.042 C 
HETATM    7  C   UNL     1     -43.492 -52.871  16.004  1.00  0.00     0.003 C 
HETATM    8  C   UNL     1     -43.606 -54.390  16.035  1.00  0.00     0.000 C 
HETATM    9  C   UNL     1     -43.682 -54.984  14.633  1.00  0.00     0.003 C 
HETATM   10  C   UNL     1     -44.768 -54.320  13.784  1.00  0.00     0.042 C 
BRANCH   5  11
HETATM   11  C   UNL     1     -45.893 -52.214  12.984  1.00  0.00     0.169 C 
HETATM   12  O   UNL     1     -46.626 -51.341  13.433  1.00  0.00    -0.648 OA
BRANCH  11  13
HETATM   13  O   UNL     1     -46.118 -52.746  11.759  1.00  0.00    -0.775 OA
HETATM   14  H   UNL     1     -47.064 -52.988  11.602  1.00  0.00     0.167 HD
ENDBRANCH  11  13
ENDBRANCH   5  11
ENDBRANCH   3   5
BRANCH   1  15
HETATM   15  C   UNL     1     -41.574 -51.073  12.036  1.00  0.00     0.195 C 
HETATM   16  C   UNL     1     -40.408 -51.717  12.783  1.00  0.00     0.044 C 
BRANCH  15  17
HETATM   17  N   UNL     1     -41.280 -49.690  11.687  1.00  0.00    -0.290 N 
HETATM   18  C   UNL     1     -40.230 -48.925  12.108  1.00  0.00     0.112 A 
HETATM   19  C   UNL     1     -40.386 -47.698  11.507  1.00  0.00     0.037 A 
HETATM   20  C   UNL     1     -41.574 -47.813  10.764  1.00  0.00     0.108 A 
HETATM   21  N   UNL     1     -42.144 -49.013  10.903  1.00  0.00    -0.309 N 
ATOM     22  HN  UNL     1     -43.027 -49.340  10.509  1.00  0.00     0.186 HD
ENDBRANCH  15  17
ENDBRANCH   1  15
TORSDOF 5
ENDMDL
MODEL 9
REMARK VINA RESULT:      -5.1      7.143      9.083
REMARK  5 active torsions:
REMARK  status: ('A' for Active; 'I' for Inactive)
REMARK    1  A    between atoms: C_2  and  C_3 
REMARK    2  A    between atoms: C_2  and  N_15 
REMARK       I    between atoms: C_3  and  N_5 
REMARK    3  A    between atoms: N_5  and  C_6 
REMARK    4  A    between atoms: C_6  and  C_12 
REMARK    5  A    between atoms: C_12  and  O_14 
ROOT
HETATM    1  C   UNL     1     -43.308 -51.849  13.388  1.00  0.00     0.243 C 
HETATM    2  O   UNL     1     -43.482 -52.530  12.379  1.00  0.00    -0.271 OA
HETATM    3  N   UNL     1     -42.169 -52.001  14.151  1.00  0.00    -0.340 N 
HETATM    4  H   UNL     1     -41.972 -51.271  14.835  1.00  0.00     0.163 HD
ENDROOT
BRANCH   3   5
HETATM    5  C   UNL     1     -41.077 -52.973  13.887  1.00  0.00     0.118 C 
HETATM    6  C   UNL     1     -41.582 -54.434  13.791  1.00  0.00     0.042 C 
HETATM    7  C   UNL     1     -42.193 -54.929  15.101  1.00  0.00     0.003 C 
HETATM    8  C   UNL     1     -41.200 -54.826  16.253  1.00  0.00     0.000 C 
HETATM    9  C   UNL     1     -40.625 -53.420  16.383  1.00  0.00     0.003 C 
HETATM   10  C   UNL     1     -40.061 -52.903  15.058  1.00  0.00     0.042 C 
BRANCH   5  11
HETATM   11  C   UNL     1     -40.332 -52.591  12.574  1.00  0.00     0.169 C 
HETATM   12  O   UNL     1     -39.496 -51.701  12.487  1.00  0.00    -0.648 OA
BRANCH  11  13
HETATM   13  O   UNL     1     -40.654 -53.349  11.498  1.00  0.00    -0.775 OA
HETATM   14  H   UNL     1     -41.310 -54.061  11.699  1.00  0.00     0.167 HD
ENDBRANCH  11  13
ENDBRANCH   5  11
ENDBRANCH   3   5
BRANCH   1  15
HETATM   15  C   UNL     1     -44.319 -50.824  13.890  1.00  0.00     0.195 C 
HETATM   16  C   UNL     1     -43.690 -49.818  14.852  1.00  0.00     0.044 C 
BRANCH  15  17
HETATM   17  N   UNL     1     -45.469 -51.484  14.493  1.00  0.00    -0.290 N 
HETATM   18  C   UNL     1     -46.161 -51.109  15.610  1.00  0.00     0.112 A 
HETATM   19  C   UNL     1     -47.156 -52.043  15.774  1.00  0.00     0.037 A 
HETATM   20  C   UNL     1     -46.968 -52.956  14.722  1.00  0.00     0.108 A 
HETATM   21  N   UNL     1     -45.915 -52.642  13.962  1.00  0.00    -0.309 N 
ATOM     22  HN  UNL     1     -45.537 -53.156  13.166  1.00  0.00     0.186 HD
ENDBRANCH  15  17
ENDBRANCH   1  15
TORSDOF 5
ENDMDL
