MODEL 1
REMARK VINA RESULT:      -6.0      0.000      0.000
REMARK  4 active torsions:
REMARK  status: ('A' for Active; 'I' for Inactive)
REMARK    1  A    between atoms: C_2  and  C_3 
REMARK    2  A    between atoms: C_2  and  N_10 
REMARK    3  A    between atoms: C_3  and  N_4 
REMARK       I    between atoms: N_10  and  C_11 
REMARK    4  A    between atoms: C_11  and  C_13 
REMARK       I    between atoms: N_17  and  C_19 
ROOT
HETATM    1  N   UNL     1     -42.927 -53.418  13.454  1.00  0.00    -0.355 N 
HETATM    2  C   UNL     1     -43.799 -52.377  13.231  1.00  0.00     0.223 C 
HETATM    3  O   UNL     1     -43.426 -51.206  13.281  1.00  0.00    -0.273 OA
HETATM    4  H   UNL     1     -43.302 -54.310  13.748  1.00  0.00     0.162 HD
ENDROOT
BRANCH   1   5
HETATM    5  C   UNL     1     -41.507 -53.149  13.750  1.00  0.00     0.100 C 
HETATM    6  C   UNL     1     -40.954 -54.211  14.706  1.00  0.00     0.034 C 
BRANCH   5   7
HETATM    7  C   UNL     1     -40.695 -53.041  12.452  1.00  0.00     0.172 C 
BRANCH   7   8
HETATM    8  N   UNL     1     -40.285 -51.686  12.141  1.00  0.00    -0.302 N 
HETATM    9  C   UNL     1     -39.233 -51.003  12.680  1.00  0.00     0.111 A 
HETATM   10  C   UNL     1     -39.220 -49.775  12.061  1.00  0.00     0.037 A 
HETATM   11  C   UNL     1     -40.316 -49.808  11.180  1.00  0.00     0.108 A 
HETATM   12  N   UNL     1     -40.985 -50.962  11.245  1.00  0.00    -0.310 N 
ATOM     13  HN  UNL     1     -41.827 -51.232  10.737  1.00  0.00     0.186 HD
ENDBRANCH   7   8
ENDBRANCH   5   7
ENDBRANCH   1   5
BRANCH   2  14
HETATM   14  C   UNL     1     -45.261 -52.702  12.909  1.00  0.00     0.096 C 
HETATM   15  C   UNL     1     -46.317 -51.591  13.041  1.00  0.00     0.017 C 
HETATM   16  C   UNL     1     -46.820 -51.373  14.474  1.00  0.00     0.021 C 
HETATM   17  C   UNL     1     -47.191 -52.692  15.144  1.00  0.00     0.126 C 
HETATM   18  N   UNL     1     -46.061 -53.611  15.068  1.00  0.00    -0.352 N 
HETATM   19  C   UNL     1     -45.676 -53.957  13.696  1.00  0.00     0.139 C 
HETATM   20  C   UNL     1     -45.238 -54.008  16.108  1.00  0.00     0.215 C 
HETATM   21  O   UNL     1     -44.285 -54.771  15.933  1.00  0.00    -0.274 OA
HETATM   22  C   UNL     1     -45.482 -53.496  17.506  1.00  0.00     0.117 C 
ENDBRANCH   2  14
TORSDOF 4
ENDMDL
MODEL 2
REMARK VINA RESULT:      -5.8      2.255      2.901
REMARK  4 active torsions:
REMARK  status: ('A' for Active; 'I' for Inactive)
REMARK    1  A    between atoms: C_2  and  C_3 
REMARK    2  A    between atoms: C_2  and  N_10 
REMARK    3  A    between atoms: C_3  and  N_4 
REMARK       I    between atoms: N_10  and  C_11 
REMARK    4  A    between atoms: C_11  and  C_13 
REMARK       I    between atoms: N_17  and  C_19 
ROOT
HETATM    1  N   UNL     1     -43.091 -51.063  12.611  1.00  0.00    -0.355 N 
HETATM    2  C   UNL     1     -44.156 -50.788  13.439  1.00  0.00     0.223 C 
HETATM    3  O   UNL     1     -44.041 -50.026  14.398  1.00  0.00    -0.273 OA
HETATM    4  H   UNL     1     -43.104 -51.919  12.073  1.00  0.00     0.162 HD
ENDROOT
BRANCH   1   5
HETATM    5  C   UNL     1     -41.779 -50.435  12.852  1.00  0.00     0.100 C 
HETATM    6  C   UNL     1     -40.832 -51.427  13.532  1.00  0.00     0.034 C 
BRANCH   5   7
HETATM    7  C   UNL     1     -41.204 -49.867  11.546  1.00  0.00     0.172 C 
BRANCH   7   8
HETATM    8  N   UNL     1     -41.858 -48.648  11.112  1.00  0.00    -0.302 N 
HETATM    9  C   UNL     1     -42.532 -47.754  11.894  1.00  0.00     0.111 A 
HETATM   10  C   UNL     1     -42.947 -46.751  11.051  1.00  0.00     0.037 A 
HETATM   11  C   UNL     1     -42.492 -47.141   9.779  1.00  0.00     0.108 A 
HETATM   12  N   UNL     1     -41.851 -48.312   9.807  1.00  0.00    -0.310 N 
ATOM     13  HN  UNL     1     -41.449 -48.830   9.025  1.00  0.00     0.186 HD
ENDBRANCH   7   8
ENDBRANCH   5   7
ENDBRANCH   1   5
BRANCH   2  14
HETATM   14  C   UNL     1     -45.505 -51.449  13.141  1.00  0.00     0.096 C 
HETATM   15  C   UNL     1     -46.583 -51.467  14.239  1.00  0.00     0.017 C 
HETATM   16  C   UNL     1     -46.409 -52.591  15.268  1.00  0.00     0.021 C 
HETATM   17  C   UNL     1     -46.162 -53.936  14.592  1.00  0.00     0.126 C 
HETATM   18  N   UNL     1     -45.033 -53.819  13.677  1.00  0.00    -0.352 N 
HETATM   19  C   UNL     1     -45.256 -52.862  12.587  1.00  0.00     0.139 C 
HETATM   20  C   UNL     1     -43.765 -54.351  13.843  1.00  0.00     0.215 C 
HETATM   21  O   UNL     1     -42.866 -54.168  13.019  1.00  0.00    -0.274 OA
HETATM   22  C   UNL     1     -43.442 -55.169  15.068  1.00  0.00     0.117 C 
ENDBRANCH   2  14
TORSDOF 4
ENDMDL
MODEL 3
REMARK VINA RESULT:      -5.6      1.600      2.707
REMARK  4 active torsions:
REMARK  status: ('A' for Active; 'I' for Inactive)
REMARK    1  A    between atoms: C_2  and  C_3 
REMARK    2  A    between atoms: C_2  and  N_10 
REMARK    3  A    between atoms: C_3  and  N_4 
REMARK       I    between atoms: N_10  and  C_11 
REMARK    4  A    between atoms: C_11  and  C_13 
REMARK       I    between atoms: N_17  and  C_19 
ROOT
HETATM    1  N   UNL     1     -43.525 -51.542  12.759  1.00  0.00    -0.355 N 
HETATM    2  C   UNL     1     -44.033 -52.821  12.727  1.00  0.00     0.223 C 
HETATM    3  O   UNL     1     -43.295 -53.802  12.653  1.00  0.00    -0.273 OA
HETATM    4  H   UNL     1     -44.120 -50.777  12.473  1.00  0.00     0.162 HD
ENDROOT
BRANCH   1   5
HETATM    5  C   UNL     1     -42.068 -51.319  12.718  1.00  0.00     0.100 C 
HETATM    6  C   UNL     1     -41.752 -50.001  12.004  1.00  0.00     0.034 C 
BRANCH   5   7
HETATM    7  C   UNL     1     -41.471 -51.384  14.131  1.00  0.00     0.172 C 
BRANCH   7   8
HETATM    8  N   UNL     1     -40.740 -52.610  14.390  1.00  0.00    -0.302 N 
HETATM    9  C   UNL     1     -39.461 -52.899  14.010  1.00  0.00     0.111 A 
HETATM   10  C   UNL     1     -39.194 -54.154  14.504  1.00  0.00     0.037 A 
HETATM   11  C   UNL     1     -40.381 -54.545  15.149  1.00  0.00     0.108 A 
HETATM   12  N   UNL     1     -41.337 -53.616  15.059  1.00  0.00    -0.310 N 
ATOM     13  HN  UNL     1     -42.292 -53.659  15.412  1.00  0.00     0.186 HD
ENDBRANCH   7   8
ENDBRANCH   5   7
ENDBRANCH   1   5
BRANCH   2  14
HETATM   14  C   UNL     1     -45.553 -53.007  12.790  1.00  0.00     0.096 C 
HETATM   15  C   UNL     1     -46.444 -51.773  13.015  1.00  0.00     0.017 C 
HETATM   16  C   UNL     1     -46.567 -51.349  14.485  1.00  0.00     0.021 C 
HETATM   17  C   UNL     1     -46.881 -52.539  15.386  1.00  0.00     0.126 C 
HETATM   18  N   UNL     1     -45.888 -53.585  15.174  1.00  0.00    -0.352 N 
HETATM   19  C   UNL     1     -45.876 -54.116  13.806  1.00  0.00     0.139 C 
HETATM   20  C   UNL     1     -44.878 -53.965  16.041  1.00  0.00     0.215 C 
HETATM   21  O   UNL     1     -44.066 -54.847  15.753  1.00  0.00    -0.274 OA
HETATM   22  C   UNL     1     -44.733 -53.285  17.380  1.00  0.00     0.117 C 
ENDBRANCH   2  14
TORSDOF 4
ENDMDL
MODEL 4
REMARK VINA RESULT:      -5.1      2.259      6.244
REMARK  4 active torsions:
REMARK  status: ('A' for Active; 'I' for Inactive)
REMARK    1  A    between atoms: C_2  and  C_3 
REMARK    2  A    between atoms: C_2  and  N_10 
REMARK    3  A    between atoms: C_3  and  N_4 
REMARK       I    between atoms: N_10  and  C_11 
REMARK    4  A    between atoms: C_11  and  C_13 
REMARK       I    between atoms: N_17  and  C_19 
ROOT
HETATM    1  N   UNL     1     -41.622 -51.955  13.825  1.00  0.00    -0.355 N 
HETATM    2  C   UNL     1     -41.832 -50.659  13.409  1.00  0.00     0.223 C 
HETATM    3  O   UNL     1     -42.494 -50.408  12.404  1.00  0.00    -0.273 OA
HETATM    4  H   UNL     1     -40.824 -52.152  14.412  1.00  0.00     0.162 HD
ENDROOT
BRANCH   1   5
HETATM    5  C   UNL     1     -42.205 -53.081  13.073  1.00  0.00     0.100 C 
HETATM    6  C   UNL     1     -41.143 -54.156  12.821  1.00  0.00     0.034 C 
BRANCH   5   7
HETATM    7  C   UNL     1     -43.444 -53.630  13.793  1.00  0.00     0.172 C 
BRANCH   7   8
HETATM    8  N   UNL     1     -44.598 -52.757  13.699  1.00  0.00    -0.302 N 
HETATM    9  C   UNL     1     -45.348 -52.272  14.732  1.00  0.00     0.111 A 
HETATM   10  C   UNL     1     -46.307 -51.470  14.161  1.00  0.00     0.037 A 
HETATM   11  C   UNL     1     -46.064 -51.551  12.778  1.00  0.00     0.108 A 
HETATM   12  N   UNL     1     -45.039 -52.357  12.490  1.00  0.00    -0.310 N 
ATOM     13  HN  UNL     1     -44.675 -52.610  11.571  1.00  0.00     0.186 HD
ENDBRANCH   7   8
ENDBRANCH   5   7
ENDBRANCH   1   5
BRANCH   2  14
HETATM   14  C   UNL     1     -41.224 -49.518  14.232  1.00  0.00     0.096 C 
HETATM   15  C   UNL     1     -41.254 -48.090  13.660  1.00  0.00     0.017 C 
HETATM   16  C   UNL     1     -40.129 -47.793  12.661  1.00  0.00     0.021 C 
HETATM   17  C   UNL     1     -38.772 -48.239  13.197  1.00  0.00     0.126 C 
HETATM   18  N   UNL     1     -38.839 -49.644  13.580  1.00  0.00    -0.352 N 
HETATM   19  C   UNL     1     -39.799 -49.915  14.655  1.00  0.00     0.139 C 
HETATM   20  C   UNL     1     -38.258 -50.716  12.924  1.00  0.00     0.215 C 
HETATM   21  O   UNL     1     -38.400 -51.877  13.315  1.00  0.00    -0.274 OA
HETATM   22  C   UNL     1     -37.434 -50.488  11.682  1.00  0.00     0.117 C 
ENDBRANCH   2  14
TORSDOF 4
ENDMDL
MODEL 5
REMARK VINA RESULT:      -5.1      2.331      3.224
REMARK  4 active torsions:
REMARK  status: ('A' for Active; 'I' for Inactive)
REMARK    1  A    between atoms: C_2  and  C_3 
REMARK    2  A    between atoms: C_2  and  N_10 
REMARK    3  A    between atoms: C_3  and  N_4 
REMARK       I    between atoms: N_10  and  C_11 
REMARK    4  A    between atoms: C_11  and  C_13 
REMARK       I    between atoms: N_17  and  C_19 
ROOT
HETATM    1  N   UNL     1     -42.707 -50.942  12.295  1.00  0.00    -0.355 N 
HETATM    2  C   UNL     1     -43.636 -50.665  13.272  1.00  0.00     0.223 C 
HETATM    3  O   UNL     1     -43.374 -49.918  14.213  1.00  0.00    -0.273 OA
HETATM    4  H   UNL     1     -42.810 -51.790  11.755  1.00  0.00     0.162 HD
ENDROOT
BRANCH   1   5
HETATM    5  C   UNL     1     -41.365 -50.333  12.351  1.00  0.00     0.100 C 
HETATM    6  C   UNL     1     -40.303 -51.411  12.591  1.00  0.00     0.034 C 
BRANCH   5   7
HETATM    7  C   UNL     1     -41.094 -49.506  11.087  1.00  0.00     0.172 C 
BRANCH   7   8
HETATM    8  N   UNL     1     -41.809 -48.245  11.061  1.00  0.00    -0.302 N 
HETATM    9  C   UNL     1     -42.300 -47.603   9.960  1.00  0.00     0.111 A 
HETATM   10  C   UNL     1     -42.922 -46.469  10.429  1.00  0.00     0.037 A 
HETATM   11  C   UNL     1     -42.734 -46.508  11.822  1.00  0.00     0.108 A 
HETATM   12  N   UNL     1     -42.031 -47.576  12.209  1.00  0.00    -0.310 N 
ATOM     13  HN  UNL     1     -41.734 -47.827  13.152  1.00  0.00     0.186 HD
ENDBRANCH   7   8
ENDBRANCH   5   7
ENDBRANCH   1   5
BRANCH   2  14
HETATM   14  C   UNL     1     -45.025 -51.305  13.165  1.00  0.00     0.096 C 
HETATM   15  C   UNL     1     -45.967 -51.246  14.380  1.00  0.00     0.017 C 
HETATM   16  C   UNL     1     -45.696 -52.327  15.435  1.00  0.00     0.021 C 
HETATM   17  C   UNL     1     -45.556 -53.706  14.799  1.00  0.00     0.126 C 
HETATM   18  N   UNL     1     -44.540 -53.660  13.755  1.00  0.00    -0.352 N 
HETATM   19  C   UNL     1     -44.869 -52.748  12.654  1.00  0.00     0.139 C 
HETATM   20  C   UNL     1     -43.272 -54.215  13.799  1.00  0.00     0.215 C 
HETATM   21  O   UNL     1     -42.472 -54.092  12.868  1.00  0.00    -0.274 OA
HETATM   22  C   UNL     1     -42.823 -54.984  15.016  1.00  0.00     0.117 C 
ENDBRANCH   2  14
TORSDOF 4
ENDMDL
MODEL 6
REMARK VINA RESULT:      -5.0      2.563      4.067
REMARK  4 active torsions:
REMARK  status: ('A' for Active; 'I' for Inactive)
REMARK    1  A    between atoms: C_2  and  C_3 
REMARK    2  A    between atoms: C_2  and  N_10 
REMARK    3  A    between atoms: C_3  and  N_4 
REMARK       I    between atoms: N_10  and  C_11 
REMARK    4  A    between atoms: C_11  and  C_13 
REMARK       I    between atoms: N_17  and  C_19 
ROOT
HETATM    1  N   UNL     1     -43.288 -53.759  13.691  1.00  0.00    -0.355 N 
HETATM    2  C   UNL     1     -44.479 -54.406  13.938  1.00  0.00     0.223 C 
HETATM    3  O   UNL     1     -44.506 -55.543  14.406  1.00  0.00    -0.273 OA
HETATM    4  H   UNL     1     -43.275 -53.011  13.012  1.00  0.00     0.162 HD
ENDROOT
BRANCH   1   5
HETATM    5  C   UNL     1     -42.006 -54.420  13.997  1.00  0.00     0.100 C 
HETATM    6  C   UNL     1     -40.964 -54.077  12.928  1.00  0.00     0.034 C 
BRANCH   5   7
HETATM    7  C   UNL     1     -41.538 -54.064  15.415  1.00  0.00     0.172 C 
BRANCH   7   8
HETATM    8  N   UNL     1     -40.857 -55.154  16.086  1.00  0.00    -0.302 N 
HETATM    9  C   UNL     1     -39.509 -55.307  16.242  1.00  0.00     0.111 A 
HETATM   10  C   UNL     1     -39.340 -56.465  16.965  1.00  0.00     0.037 A 
HETATM   11  C   UNL     1     -40.645 -56.946  17.178  1.00  0.00     0.108 A 
HETATM   12  N   UNL     1     -41.572 -56.163  16.621  1.00  0.00    -0.310 N 
ATOM     13  HN  UNL     1     -42.583 -56.297  16.604  1.00  0.00     0.186 HD
ENDBRANCH   7   8
ENDBRANCH   5   7
ENDBRANCH   1   5
BRANCH   2  14
HETATM   14  C   UNL     1     -45.788 -53.674  13.623  1.00  0.00     0.096 C 
HETATM   15  C   UNL     1     -45.731 -52.196  13.199  1.00  0.00     0.017 C 
HETATM   16  C   UNL     1     -45.617 -51.213  14.371  1.00  0.00     0.021 C 
HETATM   17  C   UNL     1     -46.633 -51.526  15.465  1.00  0.00     0.126 C 
HETATM   18  N   UNL     1     -46.495 -52.919  15.872  1.00  0.00    -0.352 N 
HETATM   19  C   UNL     1     -46.764 -53.877  14.794  1.00  0.00     0.139 C 
HETATM   20  C   UNL     1     -45.969 -53.392  17.063  1.00  0.00     0.215 C 
HETATM   21  O   UNL     1     -45.868 -54.597  17.300  1.00  0.00    -0.274 OA
HETATM   22  C   UNL     1     -45.482 -52.425  18.113  1.00  0.00     0.117 C 
ENDBRANCH   2  14
TORSDOF 4
ENDMDL
MODEL 7
REMARK VINA RESULT:      -5.0      2.892      4.183
REMARK  4 active torsions:
REMARK  status: ('A' for Active; 'I' for Inactive)
REMARK    1  A    between atoms: C_2  and  C_3 
REMARK    2  A    between atoms: C_2  and  N_10 
REMARK    3  A    between atoms: C_3  and  N_4 
REMARK       I    between atoms: N_10  and  C_11 
REMARK    4  A    between atoms: C_11  and  C_13 
REMARK       I    between atoms: N_17  and  C_19 
ROOT
HETATM    1  N   UNL     1     -42.592 -50.700  12.613  1.00  0.00    -0.355 N 
HETATM    2  C   UNL     1     -42.064 -51.926  12.276  1.00  0.00     0.223 C 
HETATM    3  O   UNL     1     -41.111 -52.024  11.504  1.00  0.00    -0.273 OA
HETATM    4  H   UNL     1     -43.545 -50.658  12.945  1.00  0.00     0.162 HD
ENDROOT
BRANCH   1   5
HETATM    5  C   UNL     1     -42.012 -49.463  12.058  1.00  0.00     0.100 C 
HETATM    6  C   UNL     1     -43.117 -48.443  11.769  1.00  0.00     0.034 C 
BRANCH   5   7
HETATM    7  C   UNL     1     -40.925 -48.910  12.991  1.00  0.00     0.172 C 
BRANCH   7   8
HETATM    8  N   UNL     1     -39.594 -49.388  12.669  1.00  0.00    -0.302 N 
HETATM    9  C   UNL     1     -38.631 -49.788  13.550  1.00  0.00     0.111 A 
HETATM   10  C   UNL     1     -37.558 -50.182  12.785  1.00  0.00     0.037 A 
HETATM   11  C   UNL     1     -37.966 -49.961  11.457  1.00  0.00     0.108 A 
HETATM   12  N   UNL     1     -39.198 -49.451  11.383  1.00  0.00    -0.310 N 
ATOM     13  HN  UNL     1     -39.716 -49.175  10.549  1.00  0.00     0.186 HD
ENDBRANCH   7   8
ENDBRANCH   5   7
ENDBRANCH   1   5
BRANCH   2  14
HETATM   14  C   UNL     1     -42.685 -53.185  12.890  1.00  0.00     0.096 C 
HETATM   15  C   UNL     1     -43.654 -53.034  14.076  1.00  0.00     0.017 C 
HETATM   16  C   UNL     1     -42.960 -52.873  15.434  1.00  0.00     0.021 C 
HETATM   17  C   UNL     1     -41.867 -53.918  15.631  1.00  0.00     0.126 C 
HETATM   18  N   UNL     1     -40.940 -53.869  14.506  1.00  0.00    -0.352 N 
HETATM   19  C   UNL     1     -41.563 -54.185  13.217  1.00  0.00     0.139 C 
HETATM   20  C   UNL     1     -39.642 -53.386  14.515  1.00  0.00     0.215 C 
HETATM   21  O   UNL     1     -38.947 -53.361  13.497  1.00  0.00    -0.274 OA
HETATM   22  C   UNL     1     -39.041 -52.853  15.791  1.00  0.00     0.117 C 
ENDBRANCH   2  14
TORSDOF 4
ENDMDL
MODEL 8
REMARK VINA RESULT:      -4.8      2.255      3.368
REMARK  4 active torsions:
REMARK  status: ('A' for Active; 'I' for Inactive)
REMARK    1  A    between atoms: C_2  and  C_3 
REMARK    2  A    between atoms: C_2  and  N_10 
REMARK    3  A    between atoms: C_3  and  N_4 
REMARK       I    between atoms: N_10  and  C_11 
REMARK    4  A    between atoms: C_11  and  C_13 
REMARK       I    between atoms: N_17  and  C_19 
ROOT
HETATM    1  N   UNL     1     -41.971 -50.478  14.544  1.00  0.00    -0.355 N 
HETATM    2  C   UNL     1     -42.042 -51.505  13.630  1.00  0.00     0.223 C 
HETATM    3  O   UNL     1     -41.895 -51.303  12.426  1.00  0.00    -0.273 OA
HETATM    4  H   UNL     1     -42.424 -50.595  15.440  1.00  0.00     0.162 HD
ENDROOT
BRANCH   1   5
HETATM    5  C   UNL     1     -41.702 -49.100  14.095  1.00  0.00     0.100 C 
HETATM    6  C   UNL     1     -42.697 -48.129  14.736  1.00  0.00     0.034 C 
BRANCH   5   7
HETATM    7  C   UNL     1     -40.241 -48.717  14.369  1.00  0.00     0.172 C 
BRANCH   7   8
HETATM    8  N   UNL     1     -39.309 -49.277  13.409  1.00  0.00    -0.302 N 
HETATM    9  C   UNL     1     -38.109 -49.869  13.680  1.00  0.00     0.111 A 
HETATM   10  C   UNL     1     -37.602 -50.269  12.465  1.00  0.00     0.037 A 
HETATM   11  C   UNL     1     -38.560 -49.853  11.524  1.00  0.00     0.108 A 
HETATM   12  N   UNL     1     -39.591 -49.223  12.093  1.00  0.00    -0.310 N 
ATOM     13  HN  UNL     1     -40.400 -48.801  11.638  1.00  0.00     0.186 HD
ENDBRANCH   7   8
ENDBRANCH   5   7
ENDBRANCH   1   5
BRANCH   2  14
HETATM   14  C   UNL     1     -42.305 -52.925  14.143  1.00  0.00     0.096 C 
HETATM   15  C   UNL     1     -42.704 -54.018  13.136  1.00  0.00     0.017 C 
HETATM   16  C   UNL     1     -44.193 -54.017  12.770  1.00  0.00     0.021 C 
HETATM   17  C   UNL     1     -45.076 -53.938  14.011  1.00  0.00     0.126 C 
HETATM   18  N   UNL     1     -44.684 -52.785  14.813  1.00  0.00    -0.352 N 
HETATM   19  C   UNL     1     -43.305 -52.855  15.310  1.00  0.00     0.139 C 
HETATM   20  C   UNL     1     -45.387 -51.603  14.975  1.00  0.00     0.215 C 
HETATM   21  O   UNL     1     -44.952 -50.671  15.655  1.00  0.00    -0.274 OA
HETATM   22  C   UNL     1     -46.722 -51.417  14.298  1.00  0.00     0.117 C 
ENDBRANCH   2  14
TORSDOF 4
ENDMDL
MODEL 9
REMARK VINA RESULT:      -4.7      2.547      3.446
REMARK  4 active torsions:
REMARK  status: ('A' for Active; 'I' for Inactive)
REMARK    1  A    between atoms: C_2  and  C_3 
REMARK    2  A    between atoms: C_2  and  N_10 
REMARK    3  A    between atoms: C_3  and  N_4 
REMARK       I    between atoms: N_10  and  C_11 
REMARK    4  A    between atoms: C_11  and  C_13 
REMARK       I    between atoms: N_17  and  C_19 
ROOT
HETATM    1  N   UNL     1     -43.493 -52.498  16.519  1.00  0.00    -0.355 N 
HETATM    2  C   UNL     1     -43.482 -51.550  15.521  1.00  0.00     0.223 C 
HETATM    3  O   UNL     1     -42.430 -51.168  15.011  1.00  0.00    -0.273 OA
HETATM    4  H   UNL     1     -44.288 -52.537  17.141  1.00  0.00     0.162 HD
ENDROOT
BRANCH   1   5
HETATM    5  C   UNL     1     -42.229 -53.090  16.996  1.00  0.00     0.100 C 
HETATM    6  C   UNL     1     -42.219 -53.156  18.526  1.00  0.00     0.034 C 
BRANCH   5   7
HETATM    7  C   UNL     1     -41.993 -54.459  16.343  1.00  0.00     0.172 C 
BRANCH   7   8
HETATM    8  N   UNL     1     -41.041 -54.419  15.250  1.00  0.00    -0.302 N 
HETATM    9  C   UNL     1     -39.714 -54.733  15.306  1.00  0.00     0.111 A 
HETATM   10  C   UNL     1     -39.233 -54.575  14.027  1.00  0.00     0.037 A 
HETATM   11  C   UNL     1     -40.343 -54.143  13.279  1.00  0.00     0.108 A 
HETATM   12  N   UNL     1     -41.442 -54.021  14.027  1.00  0.00    -0.310 N 
ATOM     13  HN  UNL     1     -42.368 -53.701  13.740  1.00  0.00     0.186 HD
ENDBRANCH   7   8
ENDBRANCH   5   7
ENDBRANCH   1   5
BRANCH   2  14
HETATM   14  C   UNL     1     -44.819 -50.976  15.042  1.00  0.00     0.096 C 
HETATM   15  C   UNL     1     -46.031 -51.023  15.990  1.00  0.00     0.017 C 
HETATM   16  C   UNL     1     -46.764 -52.371  16.000  1.00  0.00     0.021 C 
HETATM   17  C   UNL     1     -47.038 -52.870  14.585  1.00  0.00     0.126 C 
HETATM   18  N   UNL     1     -45.791 -52.904  13.832  1.00  0.00    -0.352 N 
HETATM   19  C   UNL     1     -45.163 -51.588  13.674  1.00  0.00     0.139 C 
HETATM   20  C   UNL     1     -45.081 -54.028  13.443  1.00  0.00     0.215 C 
HETATM   21  O   UNL     1     -44.014 -53.948  12.831  1.00  0.00    -0.274 OA
HETATM   22  C   UNL     1     -45.598 -55.404  13.780  1.00  0.00     0.117 C 
ENDBRANCH   2  14
TORSDOF 4
ENDMDL
