MODEL 1
REMARK VINA RESULT:      -7.3      0.000      0.000
REMARK  4 active torsions:
REMARK  status: ('A' for Active; 'I' for Inactive)
REMARK    1  A    between atoms: C_2  and  C_3 
REMARK    2  A    between atoms: C_2  and  C_18 
REMARK    3  A    between atoms: C_3  and  N_4 
REMARK       I    between atoms: N_4  and  C_5 
REMARK       I    between atoms: C_5  and  N_7 
REMARK    4  A    between atoms: N_7  and  C_8 
ROOT
HETATM    1  N   UNL     1     -42.082 -49.452  11.213  1.00  0.00    -0.342 N 
HETATM    2  C   UNL     1     -41.609 -50.306  12.172  1.00  0.00     0.316 C 
HETATM    3  O   UNL     1     -40.549 -50.151  12.762  1.00  0.00    -0.247 OA
HETATM    4  N   UNL     1     -42.460 -51.353  12.400  1.00  0.00    -0.338 N 
HETATM    5  H   UNL     1     -43.052 -49.507  10.947  1.00  0.00     0.164 HD
HETATM    6  H   UNL     1     -43.341 -51.353  11.912  1.00  0.00     0.164 HD
ENDROOT
BRANCH   1   7
HETATM    7  C   UNL     1     -41.358 -48.246  10.847  1.00  0.00     0.133 C 
BRANCH   7   8
HETATM    8  C   UNL     1     -42.261 -47.038  10.504  1.00  0.00     0.032 C 
HETATM    9  C   UNL     1     -42.718 -46.270  11.750  1.00  0.00     0.017 C 
BRANCH   8  10
HETATM   10  C   UNL     1     -43.404 -47.431   9.579  1.00  0.00    -0.050 A 
HETATM   11  C   UNL     1     -43.125 -47.838   8.267  1.00  0.00     0.024 A 
HETATM   12  C   UNL     1     -44.177 -48.192   7.435  1.00  0.00     0.088 A 
HETATM   13  N   UNL     1     -45.472 -48.179   7.813  1.00  0.00    -0.375 N 
HETATM   14  C   UNL     1     -45.725 -47.786   9.077  1.00  0.00     0.088 A 
ATOM     15  HN  UNL     1     -46.220 -48.453   7.176  1.00  0.00     0.164 HD
HETATM   16  C   UNL     1     -44.742 -47.413   9.982  1.00  0.00     0.024 A 
ENDBRANCH   8  10
ENDBRANCH   7   8
ENDBRANCH   1   7
BRANCH   4  17
HETATM   17  C   UNL     1     -42.263 -52.267  13.520  1.00  0.00     0.091 C 
HETATM   18  C   UNL     1     -42.376 -53.725  13.085  1.00  0.00     0.051 C 
HETATM   19  C   UNL     1     -43.820 -54.141  12.855  1.00  0.00     0.171 C 
HETATM   20  O   UNL     1     -44.668 -53.818  13.954  1.00  0.00    -0.380 OA
HETATM   21  C   UNL     1     -44.670 -52.440  14.357  1.00  0.00     0.062 C 
HETATM   22  C   UNL     1     -45.380 -51.542  13.318  1.00  0.00     0.038 C 
HETATM   23  C   UNL     1     -45.567 -52.347  15.619  1.00  0.00     0.038 C 
HETATM   24  C   UNL     1     -43.235 -51.991  14.672  1.00  0.00     0.063 C 
HETATM   25  C   UNL     1     -46.811 -51.405  13.814  1.00  0.00     0.003 C 
HETATM   26  C   UNL     1     -46.628 -51.297  15.313  1.00  0.00     0.003 C 
ENDBRANCH   4  17
TORSDOF 4
ENDMDL
MODEL 2
REMARK VINA RESULT:      -6.6      1.873      3.056
REMARK  4 active torsions:
REMARK  status: ('A' for Active; 'I' for Inactive)
REMARK    1  A    between atoms: C_2  and  C_3 
REMARK    2  A    between atoms: C_2  and  C_18 
REMARK    3  A    between atoms: C_3  and  N_4 
REMARK       I    between atoms: N_4  and  C_5 
REMARK       I    between atoms: C_5  and  N_7 
REMARK    4  A    between atoms: N_7  and  C_8 
ROOT
HETATM    1  N   UNL     1     -42.210 -49.344  11.151  1.00  0.00    -0.342 N 
HETATM    2  C   UNL     1     -41.678 -50.154  12.118  1.00  0.00     0.316 C 
HETATM    3  O   UNL     1     -40.611 -49.940  12.677  1.00  0.00    -0.247 OA
HETATM    4  N   UNL     1     -42.477 -51.229  12.393  1.00  0.00    -0.338 N 
HETATM    5  H   UNL     1     -43.183 -49.447  10.911  1.00  0.00     0.164 HD
HETATM    6  H   UNL     1     -43.370 -51.279  11.927  1.00  0.00     0.164 HD
ENDROOT
BRANCH   1   7
HETATM    7  C   UNL     1     -41.547 -48.119  10.738  1.00  0.00     0.133 C 
BRANCH   7   8
HETATM    8  C   UNL     1     -42.491 -46.904  10.581  1.00  0.00     0.032 C 
HETATM    9  C   UNL     1     -43.361 -46.990   9.321  1.00  0.00     0.017 C 
BRANCH   8  10
HETATM   10  C   UNL     1     -41.740 -45.586  10.715  1.00  0.00    -0.050 A 
HETATM   11  C   UNL     1     -42.430 -44.432  11.108  1.00  0.00     0.024 A 
HETATM   12  C   UNL     1     -41.733 -43.238  11.224  1.00  0.00     0.088 A 
HETATM   13  N   UNL     1     -40.411 -43.113  10.987  1.00  0.00    -0.375 N 
HETATM   14  C   UNL     1     -39.760 -44.232  10.610  1.00  0.00     0.088 A 
ATOM     15  HN  UNL     1     -39.929 -42.221  11.089  1.00  0.00     0.164 HD
HETATM   16  C   UNL     1     -40.369 -45.470  10.466  1.00  0.00     0.024 A 
ENDBRANCH   8  10
ENDBRANCH   7   8
ENDBRANCH   1   7
BRANCH   4  17
HETATM   17  C   UNL     1     -42.214 -52.107  13.529  1.00  0.00     0.091 C 
HETATM   18  C   UNL     1     -42.272 -53.578  13.132  1.00  0.00     0.051 C 
HETATM   19  C   UNL     1     -43.701 -54.063  12.946  1.00  0.00     0.171 C 
HETATM   20  O   UNL     1     -44.537 -53.750  14.057  1.00  0.00    -0.380 OA
HETATM   21  C   UNL     1     -44.592 -52.364  14.428  1.00  0.00     0.062 C 
HETATM   22  C   UNL     1     -45.364 -51.524  13.385  1.00  0.00     0.038 C 
HETATM   23  C   UNL     1     -45.463 -52.279  15.708  1.00  0.00     0.038 C 
HETATM   24  C   UNL     1     -43.171 -51.845  14.697  1.00  0.00     0.063 C 
HETATM   25  C   UNL     1     -46.789 -51.437  13.912  1.00  0.00     0.003 C 
HETATM   26  C   UNL     1     -46.576 -51.284  15.403  1.00  0.00     0.003 C 
ENDBRANCH   4  17
TORSDOF 4
ENDMDL
MODEL 3
REMARK VINA RESULT:      -6.5      1.623      1.996
REMARK  4 active torsions:
REMARK  status: ('A' for Active; 'I' for Inactive)
REMARK    1  A    between atoms: C_2  and  C_3 
REMARK    2  A    between atoms: C_2  and  C_18 
REMARK    3  A    between atoms: C_3  and  N_4 
REMARK       I    between atoms: N_4  and  C_5 
REMARK       I    between atoms: C_5  and  N_7 
REMARK    4  A    between atoms: N_7  and  C_8 
ROOT
HETATM    1  N   UNL     1     -43.530 -50.039  12.491  1.00  0.00    -0.342 N 
HETATM    2  C   UNL     1     -42.949 -50.893  13.389  1.00  0.00     0.316 C 
HETATM    3  O   UNL     1     -41.996 -50.596  14.096  1.00  0.00    -0.247 OA
HETATM    4  N   UNL     1     -43.558 -52.118  13.410  1.00  0.00    -0.338 N 
HETATM    5  H   UNL     1     -44.442 -50.264  12.125  1.00  0.00     0.164 HD
HETATM    6  H   UNL     1     -44.379 -52.241  12.839  1.00  0.00     0.164 HD
ENDROOT
BRANCH   1   7
HETATM    7  C   UNL     1     -43.070 -48.669  12.340  1.00  0.00     0.133 C 
BRANCH   7   8
HETATM    8  C   UNL     1     -42.562 -48.319  10.922  1.00  0.00     0.032 C 
HETATM    9  C   UNL     1     -41.125 -47.783  10.926  1.00  0.00     0.017 C 
BRANCH   8  10
HETATM   10  C   UNL     1     -43.542 -47.426  10.175  1.00  0.00    -0.050 A 
HETATM   11  C   UNL     1     -44.851 -47.872   9.947  1.00  0.00     0.024 A 
HETATM   12  C   UNL     1     -45.733 -47.047   9.264  1.00  0.00     0.088 A 
HETATM   13  N   UNL     1     -45.412 -45.821   8.803  1.00  0.00    -0.375 N 
HETATM   14  C   UNL     1     -44.150 -45.405   9.029  1.00  0.00     0.088 A 
ATOM     15  HN  UNL     1     -46.089 -45.238   8.310  1.00  0.00     0.164 HD
HETATM   16  C   UNL     1     -43.197 -46.156   9.702  1.00  0.00     0.024 A 
ENDBRANCH   8  10
ENDBRANCH   7   8
ENDBRANCH   1   7
BRANCH   4  17
HETATM   17  C   UNL     1     -43.243 -53.111  14.432  1.00  0.00     0.091 C 
HETATM   18  C   UNL     1     -43.637 -54.518  13.993  1.00  0.00     0.051 C 
HETATM   19  C   UNL     1     -45.138 -54.743  14.079  1.00  0.00     0.171 C 
HETATM   20  O   UNL     1     -45.676 -54.380  15.349  1.00  0.00    -0.380 OA
HETATM   21  C   UNL     1     -45.411 -53.037  15.780  1.00  0.00     0.062 C 
HETATM   22  C   UNL     1     -46.207 -52.003  14.950  1.00  0.00     0.038 C 
HETATM   23  C   UNL     1     -45.992 -52.907  17.212  1.00  0.00     0.038 C 
HETATM   24  C   UNL     1     -43.896 -52.783  15.779  1.00  0.00     0.063 C 
HETATM   25  C   UNL     1     -47.465 -51.722  15.757  1.00  0.00     0.003 C 
HETATM   26  C   UNL     1     -46.947 -51.720  17.180  1.00  0.00     0.003 C 
ENDBRANCH   4  17
TORSDOF 4
ENDMDL
MODEL 4
REMARK VINA RESULT:      -6.4      3.527      7.938
REMARK  4 active torsions:
REMARK  status: ('A' for Active; 'I' for Inactive)
REMARK    1  A    between atoms: C_2  and  C_3 
REMARK    2  A    between atoms: C_2  and  C_18 
REMARK    3  A    between atoms: C_3  and  N_4 
REMARK       I    between atoms: N_4  and  C_5 
REMARK       I    between atoms: C_5  and  N_7 
REMARK    4  A    between atoms: N_7  and  C_8 
ROOT
HETATM    1  N   UNL     1     -40.641 -50.270  11.224  1.00  0.00    -0.342 N 
HETATM    2  C   UNL     1     -41.780 -49.639  11.646  1.00  0.00     0.316 C 
HETATM    3  O   UNL     1     -42.349 -49.889  12.700  1.00  0.00    -0.247 OA
HETATM    4  N   UNL     1     -42.209 -48.692  10.757  1.00  0.00    -0.338 N 
HETATM    5  H   UNL     1     -40.103 -49.857  10.479  1.00  0.00     0.164 HD
HETATM    6  H   UNL     1     -41.633 -48.513   9.950  1.00  0.00     0.164 HD
ENDROOT
BRANCH   1   7
HETATM    7  C   UNL     1     -39.987 -51.280  12.038  1.00  0.00     0.133 C 
BRANCH   7   8
HETATM    8  C   UNL     1     -38.820 -50.747  12.901  1.00  0.00     0.032 C 
HETATM    9  C   UNL     1     -37.489 -50.713  12.140  1.00  0.00     0.017 C 
BRANCH   8  10
HETATM   10  C   UNL     1     -38.737 -51.464  14.242  1.00  0.00    -0.050 A 
HETATM   11  C   UNL     1     -39.167 -52.793  14.344  1.00  0.00     0.024 A 
HETATM   12  C   UNL     1     -39.085 -53.434  15.573  1.00  0.00     0.088 A 
HETATM   13  N   UNL     1     -38.604 -52.855  16.692  1.00  0.00    -0.375 N 
HETATM   14  C   UNL     1     -38.195 -51.575  16.578  1.00  0.00     0.088 A 
ATOM     15  HN  UNL     1     -38.553 -53.357  17.578  1.00  0.00     0.164 HD
HETATM   16  C   UNL     1     -38.237 -50.853  15.395  1.00  0.00     0.024 A 
ENDBRANCH   8  10
ENDBRANCH   7   8
ENDBRANCH   1   7
BRANCH   4  17
HETATM   17  C   UNL     1     -43.277 -47.755  11.094  1.00  0.00     0.091 C 
HETATM   18  C   UNL     1     -44.074 -47.341   9.862  1.00  0.00     0.051 C 
HETATM   19  C   UNL     1     -43.317 -46.342   9.001  1.00  0.00     0.171 C 
HETATM   20  O   UNL     1     -42.827 -45.232   9.750  1.00  0.00    -0.380 OA
HETATM   21  C   UNL     1     -41.997 -45.555  10.876  1.00  0.00     0.062 C 
HETATM   22  C   UNL     1     -40.616 -46.092  10.432  1.00  0.00     0.038 C 
HETATM   23  C   UNL     1     -41.676 -44.217  11.590  1.00  0.00     0.038 C 
HETATM   24  C   UNL     1     -42.749 -46.510  11.815  1.00  0.00     0.063 C 
HETATM   25  C   UNL     1     -39.692 -44.884  10.445  1.00  0.00     0.003 C 
HETATM   26  C   UNL     1     -40.157 -44.130  11.674  1.00  0.00     0.003 C 
ENDBRANCH   4  17
TORSDOF 4
ENDMDL
MODEL 5
REMARK VINA RESULT:      -6.2      3.340      6.555
REMARK  4 active torsions:
REMARK  status: ('A' for Active; 'I' for Inactive)
REMARK    1  A    between atoms: C_2  and  C_3 
REMARK    2  A    between atoms: C_2  and  C_18 
REMARK    3  A    between atoms: C_3  and  N_4 
REMARK       I    between atoms: N_4  and  C_5 
REMARK       I    between atoms: C_5  and  N_7 
REMARK    4  A    between atoms: N_7  and  C_8 
ROOT
HETATM    1  N   UNL     1     -44.793 -53.678  14.605  1.00  0.00    -0.342 N 
HETATM    2  C   UNL     1     -43.953 -53.971  13.566  1.00  0.00     0.316 C 
HETATM    3  O   UNL     1     -44.334 -54.274  12.444  1.00  0.00    -0.247 OA
HETATM    4  N   UNL     1     -42.635 -53.883  13.923  1.00  0.00    -0.338 N 
HETATM    5  H   UNL     1     -44.420 -53.212  15.417  1.00  0.00     0.164 HD
HETATM    6  H   UNL     1     -42.424 -53.559  14.853  1.00  0.00     0.164 HD
ENDROOT
BRANCH   1   7
HETATM    7  C   UNL     1     -46.236 -53.665  14.435  1.00  0.00     0.133 C 
BRANCH   7   8
HETATM    8  C   UNL     1     -46.854 -52.251  14.330  1.00  0.00     0.032 C 
HETATM    9  C   UNL     1     -46.407 -51.502  13.069  1.00  0.00     0.017 C 
BRANCH   8  10
HETATM   10  C   UNL     1     -46.661 -51.454  15.613  1.00  0.00    -0.050 A 
HETATM   11  C   UNL     1     -47.708 -51.367  16.539  1.00  0.00     0.024 A 
HETATM   12  C   UNL     1     -47.517 -50.635  17.703  1.00  0.00     0.088 A 
HETATM   13  N   UNL     1     -46.368 -50.000  18.012  1.00  0.00    -0.375 N 
HETATM   14  C   UNL     1     -45.370 -50.093  17.111  1.00  0.00     0.088 A 
ATOM     15  HN  UNL     1     -46.260 -49.476  18.880  1.00  0.00     0.164 HD
HETATM   16  C   UNL     1     -45.465 -50.798  15.921  1.00  0.00     0.024 A 
ENDBRANCH   8  10
ENDBRANCH   7   8
ENDBRANCH   1   7
BRANCH   4  17
HETATM   17  C   UNL     1     -41.568 -53.948  12.929  1.00  0.00     0.091 C 
HETATM   18  C   UNL     1     -40.201 -54.132  13.580  1.00  0.00     0.051 C 
HETATM   19  C   UNL     1     -39.690 -52.845  14.207  1.00  0.00     0.171 C 
HETATM   20  O   UNL     1     -39.739 -51.738  13.310  1.00  0.00    -0.380 OA
HETATM   21  C   UNL     1     -41.022 -51.461  12.728  1.00  0.00     0.062 C 
HETATM   22  C   UNL     1     -42.008 -50.886  13.770  1.00  0.00     0.038 C 
HETATM   23  C   UNL     1     -40.812 -50.302  11.719  1.00  0.00     0.038 C 
HETATM   24  C   UNL     1     -41.550 -52.716  12.017  1.00  0.00     0.063 C 
HETATM   25  C   UNL     1     -41.919 -49.375  13.619  1.00  0.00     0.003 C 
HETATM   26  C   UNL     1     -41.790 -49.204  12.120  1.00  0.00     0.003 C 
ENDBRANCH   4  17
TORSDOF 4
ENDMDL
MODEL 6
REMARK VINA RESULT:      -6.2      2.200      2.723
REMARK  4 active torsions:
REMARK  status: ('A' for Active; 'I' for Inactive)
REMARK    1  A    between atoms: C_2  and  C_3 
REMARK    2  A    between atoms: C_2  and  C_18 
REMARK    3  A    between atoms: C_3  and  N_4 
REMARK       I    between atoms: N_4  and  C_5 
REMARK       I    between atoms: C_5  and  N_7 
REMARK    4  A    between atoms: N_7  and  C_8 
ROOT
HETATM    1  N   UNL     1     -41.355 -50.257  11.690  1.00  0.00    -0.342 N 
HETATM    2  C   UNL     1     -41.228 -51.422  12.398  1.00  0.00     0.316 C 
HETATM    3  O   UNL     1     -40.183 -52.051  12.495  1.00  0.00    -0.247 OA
HETATM    4  N   UNL     1     -42.402 -51.802  12.989  1.00  0.00    -0.338 N 
HETATM    5  H   UNL     1     -42.164 -49.677  11.849  1.00  0.00     0.164 HD
HETATM    6  H   UNL     1     -43.189 -51.179  12.906  1.00  0.00     0.164 HD
ENDROOT
BRANCH   1   7
HETATM    7  C   UNL     1     -40.219 -49.648  11.021  1.00  0.00     0.133 C 
BRANCH   7   8
HETATM    8  C   UNL     1     -39.700 -48.354  11.691  1.00  0.00     0.032 C 
HETATM    9  C   UNL     1     -38.982 -48.624  13.020  1.00  0.00     0.017 C 
BRANCH   8  10
HETATM   10  C   UNL     1     -40.788 -47.295  11.792  1.00  0.00    -0.050 A 
HETATM   11  C   UNL     1     -41.289 -46.703  10.625  1.00  0.00     0.024 A 
HETATM   12  C   UNL     1     -42.281 -45.737  10.733  1.00  0.00     0.088 A 
HETATM   13  N   UNL     1     -42.809 -45.330  11.905  1.00  0.00    -0.375 N 
HETATM   14  C   UNL     1     -42.317 -45.908  13.019  1.00  0.00     0.088 A 
ATOM     15  HN  UNL     1     -43.542 -44.622  11.947  1.00  0.00     0.164 HD
HETATM   16  C   UNL     1     -41.328 -46.880  13.014  1.00  0.00     0.024 A 
ENDBRANCH   8  10
ENDBRANCH   7   8
ENDBRANCH   1   7
BRANCH   4  17
HETATM   17  C   UNL     1     -42.452 -52.892  13.958  1.00  0.00     0.091 C 
HETATM   18  C   UNL     1     -42.764 -54.227  13.290  1.00  0.00     0.051 C 
HETATM   19  C   UNL     1     -44.232 -54.347  12.913  1.00  0.00     0.171 C 
HETATM   20  O   UNL     1     -45.105 -54.046  13.999  1.00  0.00    -0.380 OA
HETATM   21  C   UNL     1     -44.917 -52.764  14.616  1.00  0.00     0.062 C 
HETATM   22  C   UNL     1     -45.380 -51.613  13.694  1.00  0.00     0.038 C 
HETATM   23  C   UNL     1     -45.889 -52.703  15.822  1.00  0.00     0.038 C 
HETATM   24  C   UNL     1     -43.459 -52.623  15.081  1.00  0.00     0.063 C 
HETATM   25  C   UNL     1     -46.807 -51.303  14.122  1.00  0.00     0.003 C 
HETATM   26  C   UNL     1     -46.735 -51.450  15.627  1.00  0.00     0.003 C 
ENDBRANCH   4  17
TORSDOF 4
ENDMDL
MODEL 7
REMARK VINA RESULT:      -6.1      2.709      7.976
REMARK  4 active torsions:
REMARK  status: ('A' for Active; 'I' for Inactive)
REMARK    1  A    between atoms: C_2  and  C_3 
REMARK    2  A    between atoms: C_2  and  C_18 
REMARK    3  A    between atoms: C_3  and  N_4 
REMARK       I    between atoms: N_4  and  C_5 
REMARK       I    between atoms: C_5  and  N_7 
REMARK    4  A    between atoms: N_7  and  C_8 
ROOT
HETATM    1  N   UNL     1     -41.385 -50.442  12.095  1.00  0.00    -0.342 N 
HETATM    2  C   UNL     1     -42.463 -49.615  12.257  1.00  0.00     0.316 C 
HETATM    3  O   UNL     1     -43.175 -49.607  13.252  1.00  0.00    -0.247 OA
HETATM    4  N   UNL     1     -42.653 -48.792  11.180  1.00  0.00    -0.338 N 
HETATM    5  H   UNL     1     -40.715 -50.232  11.372  1.00  0.00     0.164 HD
HETATM    6  H   UNL     1     -41.971 -48.827  10.440  1.00  0.00     0.164 HD
ENDROOT
BRANCH   1   7
HETATM    7  C   UNL     1     -40.974 -51.366  13.138  1.00  0.00     0.133 C 
BRANCH   7   8
HETATM    8  C   UNL     1     -41.313 -52.847  12.850  1.00  0.00     0.032 C 
HETATM    9  C   UNL     1     -42.793 -53.059  12.510  1.00  0.00     0.017 C 
BRANCH   8  10
HETATM   10  C   UNL     1     -40.803 -53.767  13.950  1.00  0.00    -0.050 A 
HETATM   11  C   UNL     1     -39.457 -54.154  13.961  1.00  0.00     0.024 A 
HETATM   12  C   UNL     1     -39.006 -54.995  14.970  1.00  0.00     0.088 A 
HETATM   13  N   UNL     1     -39.790 -55.465  15.962  1.00  0.00    -0.375 N 
HETATM   14  C   UNL     1     -41.083 -55.085  15.938  1.00  0.00     0.088 A 
ATOM     15  HN  UNL     1     -39.424 -56.076  16.692  1.00  0.00     0.164 HD
HETATM   16  C   UNL     1     -41.626 -54.249  14.973  1.00  0.00     0.024 A 
ENDBRANCH   8  10
ENDBRANCH   7   8
ENDBRANCH   1   7
BRANCH   4  17
HETATM   17  C   UNL     1     -43.609 -47.689  11.220  1.00  0.00     0.091 C 
HETATM   18  C   UNL     1     -44.220 -47.422   9.849  1.00  0.00     0.051 C 
HETATM   19  C   UNL     1     -43.254 -46.698   8.924  1.00  0.00     0.171 C 
HETATM   20  O   UNL     1     -42.690 -45.534   9.522  1.00  0.00    -0.380 OA
HETATM   21  C   UNL     1     -42.023 -45.736  10.778  1.00  0.00     0.062 C 
HETATM   22  C   UNL     1     -40.694 -46.505  10.602  1.00  0.00     0.038 C 
HETATM   23  C   UNL     1     -41.591 -44.335  11.283  1.00  0.00     0.038 C 
HETATM   24  C   UNL     1     -42.986 -46.403  11.773  1.00  0.00     0.063 C 
HETATM   25  C   UNL     1     -39.617 -45.434  10.515  1.00  0.00     0.003 C 
HETATM   26  C   UNL     1     -40.089 -44.414  11.530  1.00  0.00     0.003 C 
ENDBRANCH   4  17
TORSDOF 4
ENDMDL
MODEL 8
REMARK VINA RESULT:      -6.0      3.614      6.992
REMARK  4 active torsions:
REMARK  status: ('A' for Active; 'I' for Inactive)
REMARK    1  A    between atoms: C_2  and  C_3 
REMARK    2  A    between atoms: C_2  and  C_18 
REMARK    3  A    between atoms: C_3  and  N_4 
REMARK       I    between atoms: N_4  and  C_5 
REMARK       I    between atoms: C_5  and  N_7 
REMARK    4  A    between atoms: N_7  and  C_8 
ROOT
HETATM    1  N   UNL     1     -43.557 -52.515  13.078  1.00  0.00    -0.342 N 
HETATM    2  C   UNL     1     -42.560 -53.094  13.814  1.00  0.00     0.316 C 
HETATM    3  O   UNL     1     -42.528 -54.282  14.107  1.00  0.00    -0.247 OA
HETATM    4  N   UNL     1     -41.597 -52.195  14.183  1.00  0.00    -0.338 N 
HETATM    5  H   UNL     1     -43.400 -51.604  12.677  1.00  0.00     0.164 HD
HETATM    6  H   UNL     1     -41.679 -51.253  13.833  1.00  0.00     0.164 HD
ENDROOT
BRANCH   1   7
HETATM    7  C   UNL     1     -44.658 -53.298  12.543  1.00  0.00     0.133 C 
BRANCH   7   8
HETATM    8  C   UNL     1     -46.061 -52.786  12.944  1.00  0.00     0.032 C 
HETATM    9  C   UNL     1     -46.482 -51.538  12.159  1.00  0.00     0.017 C 
BRANCH   8  10
HETATM   10  C   UNL     1     -46.194 -52.630  14.453  1.00  0.00    -0.050 A 
HETATM   11  C   UNL     1     -46.641 -51.414  14.987  1.00  0.00     0.024 A 
HETATM   12  C   UNL     1     -46.756 -51.286  16.364  1.00  0.00     0.088 A 
HETATM   13  N   UNL     1     -46.470 -52.274  17.237  1.00  0.00    -0.375 N 
HETATM   14  C   UNL     1     -46.040 -53.437  16.709  1.00  0.00     0.088 A 
ATOM     15  HN  UNL     1     -46.572 -52.147  18.244  1.00  0.00     0.164 HD
HETATM   16  C   UNL     1     -45.893 -53.661  15.348  1.00  0.00     0.024 A 
ENDBRANCH   8  10
ENDBRANCH   7   8
ENDBRANCH   1   7
BRANCH   4  17
HETATM   17  C   UNL     1     -40.341 -52.625  14.790  1.00  0.00     0.091 C 
HETATM   18  C   UNL     1     -40.068 -51.895  16.101  1.00  0.00     0.051 C 
HETATM   19  C   UNL     1     -39.597 -50.467  15.872  1.00  0.00     0.171 C 
HETATM   20  O   UNL     1     -38.513 -50.388  14.950  1.00  0.00    -0.380 OA
HETATM   21  C   UNL     1     -38.740 -50.984  13.664  1.00  0.00     0.062 C 
HETATM   22  C   UNL     1     -39.745 -50.164  12.823  1.00  0.00     0.038 C 
HETATM   23  C   UNL     1     -37.406 -50.874  12.880  1.00  0.00     0.038 C 
HETATM   24  C   UNL     1     -39.150 -52.454  13.841  1.00  0.00     0.063 C 
HETATM   25  C   UNL     1     -38.893 -49.257  11.948  1.00  0.00     0.003 C 
HETATM   26  C   UNL     1     -37.735 -50.159  11.575  1.00  0.00     0.003 C 
ENDBRANCH   4  17
TORSDOF 4
ENDMDL
MODEL 9
REMARK VINA RESULT:      -5.9      3.932      4.910
REMARK  4 active torsions:
REMARK  status: ('A' for Active; 'I' for Inactive)
REMARK    1  A    between atoms: C_2  and  C_3 
REMARK    2  A    between atoms: C_2  and  C_18 
REMARK    3  A    between atoms: C_3  and  N_4 
REMARK       I    between atoms: N_4  and  C_5 
REMARK       I    between atoms: C_5  and  N_7 
REMARK    4  A    between atoms: N_7  and  C_8 
ROOT
HETATM    1  N   UNL     1     -40.442 -51.541  15.616  1.00  0.00    -0.342 N 
HETATM    2  C   UNL     1     -40.812 -52.717  15.023  1.00  0.00     0.316 C 
HETATM    3  O   UNL     1     -40.023 -53.586  14.676  1.00  0.00    -0.247 OA
HETATM    4  N   UNL     1     -42.168 -52.816  14.864  1.00  0.00    -0.338 N 
HETATM    5  H   UNL     1     -41.144 -50.990  16.084  1.00  0.00     0.164 HD
HETATM    6  H   UNL     1     -42.737 -52.077  15.245  1.00  0.00     0.164 HD
ENDROOT
BRANCH   1   7
HETATM    7  C   UNL     1     -39.052 -51.250  15.922  1.00  0.00     0.133 C 
BRANCH   7   8
HETATM    8  C   UNL     1     -38.549 -49.892  15.379  1.00  0.00     0.032 C 
HETATM    9  C   UNL     1     -39.339 -48.703  15.937  1.00  0.00     0.017 C 
BRANCH   8  10
HETATM   10  C   UNL     1     -38.446 -49.895  13.860  1.00  0.00    -0.050 A 
HETATM   11  C   UNL     1     -37.504 -50.719  13.231  1.00  0.00     0.024 A 
HETATM   12  C   UNL     1     -37.421 -50.710  11.845  1.00  0.00     0.088 A 
HETATM   13  N   UNL     1     -38.205 -49.954  11.050  1.00  0.00    -0.375 N 
HETATM   14  C   UNL     1     -39.106 -49.166  11.670  1.00  0.00     0.088 A 
ATOM     15  HN  UNL     1     -38.122 -49.977  10.034  1.00  0.00     0.164 HD
HETATM   16  C   UNL     1     -39.264 -49.106  13.046  1.00  0.00     0.024 A 
ENDBRANCH   8  10
ENDBRANCH   7   8
ENDBRANCH   1   7
BRANCH   4  17
HETATM   17  C   UNL     1     -42.800 -54.064  14.448  1.00  0.00     0.091 C 
HETATM   18  C   UNL     1     -42.818 -54.209  12.930  1.00  0.00     0.051 C 
HETATM   19  C   UNL     1     -43.876 -53.328  12.285  1.00  0.00     0.171 C 
HETATM   20  O   UNL     1     -45.162 -53.490  12.878  1.00  0.00    -0.380 OA
HETATM   21  C   UNL     1     -45.227 -53.281  14.297  1.00  0.00     0.062 C 
HETATM   22  C   UNL     1     -45.050 -51.789  14.663  1.00  0.00     0.038 C 
HETATM   23  C   UNL     1     -46.679 -53.612  14.729  1.00  0.00     0.038 C 
HETATM   24  C   UNL     1     -44.222 -54.205  15.002  1.00  0.00     0.063 C 
HETATM   25  C   UNL     1     -46.461 -51.236  14.794  1.00  0.00     0.003 C 
HETATM   26  C   UNL     1     -47.199 -52.379  15.459  1.00  0.00     0.003 C 
ENDBRANCH   4  17
TORSDOF 4
ENDMDL
