MODEL 1
REMARK VINA RESULT:      -7.1      0.000      0.000
REMARK  5 active torsions:
REMARK  status: ('A' for Active; 'I' for Inactive)
REMARK    1  A    between atoms: N_8  and  C_9 
REMARK    2  A    between atoms: C_9  and  C_10 
REMARK    3  A    between atoms: C_10  and  O_11 
REMARK    4  A    between atoms: C_10  and  C_12 
REMARK    5  A    between atoms: C_12  and  N_13 
ROOT
HETATM    1  C   UNL     1     -41.916 -52.816  12.773  1.00  0.00     0.155 C 
ENDROOT
BRANCH   1   2
HETATM    2  C   UNL     1     -42.519 -53.819  13.762  1.00  0.00     0.163 C 
BRANCH   2   3
HETATM    3  N   UNL     1     -43.962 -53.758  13.874  1.00  0.00    -0.339 N 
HETATM    4  C   UNL     1     -44.834 -54.639  13.297  1.00  0.00     0.184 A 
HETATM    5  N   UNL     1     -46.076 -54.384  13.632  1.00  0.00    -0.350 N 
HETATM    6  C   UNL     1     -46.006 -53.312  14.488  1.00  0.00     0.060 A 
ATOM      7  HN  UNL     1     -46.915 -54.876  13.322  1.00  0.00     0.166 HD
HETATM    8  C   UNL     1     -47.033 -52.648  15.171  1.00  0.00     0.039 A 
HETATM    9  C   UNL     1     -44.690 -52.894  14.658  1.00  0.00     0.062 A 
HETATM   10  C   UNL     1     -46.718 -51.571  16.024  1.00  0.00    -0.054 A 
HETATM   11  C   UNL     1     -47.834 -50.886  16.766  1.00  0.00     0.049 C 
HETATM   12  C   UNL     1     -45.375 -51.161  16.176  1.00  0.00    -0.054 A 
HETATM   13  C   UNL     1     -44.341 -51.824  15.486  1.00  0.00     0.039 A 
HETATM   14  C   UNL     1     -45.011 -50.015  17.084  1.00  0.00     0.049 C 
ENDBRANCH   2   3
ENDBRANCH   1   2
BRANCH   1  15
HETATM   15  O   UNL     1     -42.883 -52.498  11.761  1.00  0.00    -0.392 OA
HETATM   16  H   UNL     1     -43.628 -53.130  11.833  1.00  0.00     0.210 HD
ENDBRANCH   1  15
BRANCH   1  17
HETATM   17  C   UNL     1     -41.323 -51.543  13.419  1.00  0.00     0.170 C 
BRANCH  17  18
HETATM   18  N   UNL     1     -40.423 -50.886  12.482  1.00  0.00    -0.265 N 
HETATM   19  C   UNL     1     -40.769 -49.850  11.669  1.00  0.00     0.326 C 
HETATM   20  O   UNL     1     -41.888 -49.408  11.472  1.00  0.00    -0.247 OA
HETATM   21  N   UNL     1     -39.614 -49.321  11.124  1.00  0.00    -0.325 N 
HETATM   22  C   UNL     1     -38.455 -49.769  11.862  1.00  0.00     0.108 C 
HETATM   23  H   UNL     1     -39.666 -48.447  10.615  1.00  0.00     0.165 HD
HETATM   24  C   UNL     1     -37.257 -50.071  10.980  1.00  0.00     0.049 C 
HETATM   25  C   UNL     1     -38.104 -48.770  12.971  1.00  0.00     0.049 C 
HETATM   26  C   UNL     1     -39.059 -50.997  12.550  1.00  0.00     0.255 C 
HETATM   27  O   UNL     1     -38.441 -51.840  13.187  1.00  0.00    -0.270 OA
ENDBRANCH  17  18
ENDBRANCH   1  17
TORSDOF 5
ENDMDL
MODEL 2
REMARK VINA RESULT:      -6.9      2.145      3.748
REMARK  5 active torsions:
REMARK  status: ('A' for Active; 'I' for Inactive)
REMARK    1  A    between atoms: N_8  and  C_9 
REMARK    2  A    between atoms: C_9  and  C_10 
REMARK    3  A    between atoms: C_10  and  O_11 
REMARK    4  A    between atoms: C_10  and  C_12 
REMARK    5  A    between atoms: C_12  and  N_13 
ROOT
HETATM    1  C   UNL     1     -40.221 -50.142  11.376  1.00  0.00     0.155 C 
ENDROOT
BRANCH   1   2
HETATM    2  C   UNL     1     -41.517 -50.289  12.182  1.00  0.00     0.163 C 
BRANCH   2   3
HETATM    3  N   UNL     1     -41.930 -51.659  12.408  1.00  0.00    -0.339 N 
HETATM    4  C   UNL     1     -41.136 -52.758  12.239  1.00  0.00     0.184 A 
HETATM    5  N   UNL     1     -41.751 -53.862  12.592  1.00  0.00    -0.350 N 
HETATM    6  C   UNL     1     -42.985 -53.459  13.041  1.00  0.00     0.060 A 
ATOM      7  HN  UNL     1     -41.390 -54.815  12.543  1.00  0.00     0.166 HD
HETATM    8  C   UNL     1     -44.035 -54.221  13.568  1.00  0.00     0.039 A 
HETATM    9  C   UNL     1     -43.128 -52.079  12.936  1.00  0.00     0.062 A 
HETATM   10  C   UNL     1     -45.218 -53.580  13.988  1.00  0.00    -0.054 A 
HETATM   11  C   UNL     1     -46.325 -54.416  14.572  1.00  0.00     0.049 C 
HETATM   12  C   UNL     1     -45.342 -52.179  13.866  1.00  0.00    -0.054 A 
HETATM   13  C   UNL     1     -44.290 -51.410  13.331  1.00  0.00     0.039 A 
HETATM   14  C   UNL     1     -46.595 -51.470  14.310  1.00  0.00     0.049 C 
ENDBRANCH   2   3
ENDBRANCH   1   2
BRANCH   1  15
HETATM   15  O   UNL     1     -40.537 -49.818  10.014  1.00  0.00    -0.392 OA
HETATM   16  H   UNL     1     -40.537 -50.647   9.489  1.00  0.00     0.210 HD
ENDBRANCH   1  15
BRANCH   1  17
HETATM   17  C   UNL     1     -39.192 -49.156  11.975  1.00  0.00     0.170 C 
BRANCH  17  18
HETATM   18  N   UNL     1     -38.763 -49.624  13.285  1.00  0.00    -0.265 N 
HETATM   19  C   UNL     1     -37.842 -50.605  13.496  1.00  0.00     0.326 C 
HETATM   20  O   UNL     1     -37.349 -51.346  12.663  1.00  0.00    -0.247 OA
HETATM   21  N   UNL     1     -37.498 -50.596  14.835  1.00  0.00    -0.325 N 
HETATM   22  C   UNL     1     -37.917 -49.360  15.458  1.00  0.00     0.108 C 
HETATM   23  H   UNL     1     -36.713 -51.155  15.145  1.00  0.00     0.165 HD
HETATM   24  C   UNL     1     -38.446 -49.544  16.868  1.00  0.00     0.049 C 
HETATM   25  C   UNL     1     -36.788 -48.324  15.407  1.00  0.00     0.049 C 
HETATM   26  C   UNL     1     -38.970 -48.915  14.439  1.00  0.00     0.255 C 
HETATM   27  O   UNL     1     -39.750 -47.981  14.575  1.00  0.00    -0.270 OA
ENDBRANCH  17  18
ENDBRANCH   1  17
TORSDOF 5
ENDMDL
MODEL 3
REMARK VINA RESULT:      -6.7      2.562      4.018
REMARK  5 active torsions:
REMARK  status: ('A' for Active; 'I' for Inactive)
REMARK    1  A    between atoms: N_8  and  C_9 
REMARK    2  A    between atoms: C_9  and  C_10 
REMARK    3  A    between atoms: C_10  and  O_11 
REMARK    4  A    between atoms: C_10  and  C_12 
REMARK    5  A    between atoms: C_12  and  N_13 
ROOT
HETATM    1  C   UNL     1     -40.242 -50.081  11.491  1.00  0.00     0.155 C 
ENDROOT
BRANCH   1   2
HETATM    2  C   UNL     1     -41.586 -50.240  12.210  1.00  0.00     0.163 C 
BRANCH   2   3
HETATM    3  N   UNL     1     -42.002 -51.613  12.407  1.00  0.00    -0.339 N 
HETATM    4  C   UNL     1     -41.217 -52.712  12.193  1.00  0.00     0.184 A 
HETATM    5  N   UNL     1     -41.831 -53.821  12.528  1.00  0.00    -0.350 N 
HETATM    6  C   UNL     1     -43.054 -53.425  13.012  1.00  0.00     0.060 A 
ATOM      7  HN  UNL     1     -41.476 -54.775  12.446  1.00  0.00     0.166 HD
HETATM    8  C   UNL     1     -44.097 -54.197  13.539  1.00  0.00     0.039 A 
HETATM    9  C   UNL     1     -43.192 -52.042  12.947  1.00  0.00     0.062 A 
HETATM   10  C   UNL     1     -45.268 -53.562  13.999  1.00  0.00    -0.054 A 
HETATM   11  C   UNL     1     -46.368 -54.408  14.582  1.00  0.00     0.049 C 
HETATM   12  C   UNL     1     -45.387 -52.157  13.917  1.00  0.00    -0.054 A 
HETATM   13  C   UNL     1     -44.342 -51.379  13.383  1.00  0.00     0.039 A 
HETATM   14  C   UNL     1     -46.627 -51.454  14.405  1.00  0.00     0.049 C 
ENDBRANCH   2   3
ENDBRANCH   1   2
BRANCH   1  15
HETATM   15  O   UNL     1     -40.470 -49.813  10.099  1.00  0.00    -0.392 OA
HETATM   16  H   UNL     1     -41.056 -50.512   9.740  1.00  0.00     0.210 HD
ENDBRANCH   1  15
BRANCH   1  17
HETATM   17  C   UNL     1     -39.285 -49.045  12.124  1.00  0.00     0.170 C 
BRANCH  17  18
HETATM   18  N   UNL     1     -40.049 -47.936  12.672  1.00  0.00    -0.265 N 
HETATM   19  C   UNL     1     -40.221 -47.692  14.001  1.00  0.00     0.326 C 
HETATM   20  O   UNL     1     -39.912 -48.417  14.931  1.00  0.00    -0.247 OA
HETATM   21  N   UNL     1     -40.768 -46.430  14.144  1.00  0.00    -0.325 N 
HETATM   22  C   UNL     1     -40.622 -45.673  12.920  1.00  0.00     0.108 C 
HETATM   23  H   UNL     1     -40.822 -46.019  15.068  1.00  0.00     0.165 HD
HETATM   24  C   UNL     1     -41.827 -44.808  12.599  1.00  0.00     0.049 C 
HETATM   25  C   UNL     1     -39.327 -44.854  12.947  1.00  0.00     0.049 C 
HETATM   26  C   UNL     1     -40.393 -46.829  11.942  1.00  0.00     0.255 C 
HETATM   27  O   UNL     1     -40.363 -46.739  10.721  1.00  0.00    -0.270 OA
ENDBRANCH  17  18
ENDBRANCH   1  17
TORSDOF 5
ENDMDL
MODEL 4
REMARK VINA RESULT:      -6.7      2.644      3.551
REMARK  5 active torsions:
REMARK  status: ('A' for Active; 'I' for Inactive)
REMARK    1  A    between atoms: N_8  and  C_9 
REMARK    2  A    between atoms: C_9  and  C_10 
REMARK    3  A    between atoms: C_10  and  O_11 
REMARK    4  A    between atoms: C_10  and  C_12 
REMARK    5  A    between atoms: C_12  and  N_13 
ROOT
HETATM    1  C   UNL     1     -41.869 -52.755  12.062  1.00  0.00     0.155 C 
ENDROOT
BRANCH   1   2
HETATM    2  C   UNL     1     -42.580 -51.840  13.065  1.00  0.00     0.163 C 
BRANCH   2   3
HETATM    3  N   UNL     1     -43.983 -52.142  13.262  1.00  0.00    -0.339 N 
HETATM    4  C   UNL     1     -44.717 -53.006  12.498  1.00  0.00     0.184 A 
HETATM    5  N   UNL     1     -45.938 -53.142  12.955  1.00  0.00    -0.350 N 
HETATM    6  C   UNL     1     -45.991 -52.360  14.083  1.00  0.00     0.060 A 
ATOM      7  HN  UNL     1     -46.689 -53.707  12.557  1.00  0.00     0.166 HD
HETATM    8  C   UNL     1     -47.047 -52.161  14.981  1.00  0.00     0.039 A 
HETATM    9  C   UNL     1     -44.777 -51.717  14.301  1.00  0.00     0.062 A 
HETATM   10  C   UNL     1     -46.862 -51.317  16.095  1.00  0.00    -0.054 A 
HETATM   11  C   UNL     1     -48.002 -51.135  17.061  1.00  0.00     0.049 C 
HETATM   12  C   UNL     1     -45.622 -50.670  16.292  1.00  0.00    -0.054 A 
HETATM   13  C   UNL     1     -44.561 -50.864  15.387  1.00  0.00     0.039 A 
HETATM   14  C   UNL     1     -45.399 -49.766  17.476  1.00  0.00     0.049 C 
ENDBRANCH   2   3
ENDBRANCH   1   2
BRANCH   1  15
HETATM   15  O   UNL     1     -40.853 -52.012  11.370  1.00  0.00    -0.392 OA
HETATM   16  H   UNL     1     -41.180 -51.805  10.469  1.00  0.00     0.210 HD
ENDBRANCH   1  15
BRANCH   1  17
HETATM   17  C   UNL     1     -41.310 -54.066  12.661  1.00  0.00     0.170 C 
BRANCH  17  18
HETATM   18  N   UNL     1     -40.882 -53.840  14.033  1.00  0.00    -0.265 N 
HETATM   19  C   UNL     1     -41.533 -54.301  15.137  1.00  0.00     0.326 C 
HETATM   20  O   UNL     1     -42.632 -54.828  15.179  1.00  0.00    -0.247 OA
HETATM   21  N   UNL     1     -40.709 -54.125  16.233  1.00  0.00    -0.325 N 
HETATM   22  C   UNL     1     -39.348 -53.881  15.809  1.00  0.00     0.108 C 
HETATM   23  H   UNL     1     -40.966 -54.550  17.115  1.00  0.00     0.165 HD
HETATM   24  C   UNL     1     -38.628 -52.849  16.656  1.00  0.00     0.049 C 
HETATM   25  C   UNL     1     -38.566 -55.198  15.733  1.00  0.00     0.049 C 
HETATM   26  C   UNL     1     -39.614 -53.442  14.366  1.00  0.00     0.255 C 
HETATM   27  O   UNL     1     -38.787 -52.968  13.597  1.00  0.00    -0.270 OA
ENDBRANCH  17  18
ENDBRANCH   1  17
TORSDOF 5
ENDMDL
MODEL 5
REMARK VINA RESULT:      -6.6      1.099      1.896
REMARK  5 active torsions:
REMARK  status: ('A' for Active; 'I' for Inactive)
REMARK    1  A    between atoms: N_8  and  C_9 
REMARK    2  A    between atoms: C_9  and  C_10 
REMARK    3  A    between atoms: C_10  and  O_11 
REMARK    4  A    between atoms: C_10  and  C_12 
REMARK    5  A    between atoms: C_12  and  N_13 
ROOT
HETATM    1  C   UNL     1     -42.419 -52.358  12.209  1.00  0.00     0.155 C 
ENDROOT
BRANCH   1   2
HETATM    2  C   UNL     1     -42.802 -52.903  13.589  1.00  0.00     0.163 C 
BRANCH   2   3
HETATM    3  N   UNL     1     -44.228 -53.007  13.819  1.00  0.00    -0.339 N 
HETATM    4  C   UNL     1     -45.053 -53.928  13.237  1.00  0.00     0.184 A 
HETATM    5  N   UNL     1     -46.281 -53.837  13.689  1.00  0.00    -0.350 N 
HETATM    6  C   UNL     1     -46.245 -52.837  14.630  1.00  0.00     0.060 A 
ATOM      7  HN  UNL     1     -47.089 -54.390  13.404  1.00  0.00     0.166 HD
HETATM    8  C   UNL     1     -47.270 -52.345  15.448  1.00  0.00     0.039 A 
HETATM    9  C   UNL     1     -44.968 -52.294  14.732  1.00  0.00     0.062 A 
HETATM   10  C   UNL     1     -46.992 -51.312  16.367  1.00  0.00    -0.054 A 
HETATM   11  C   UNL     1     -48.102 -50.814  17.252  1.00  0.00     0.049 C 
HETATM   12  C   UNL     1     -45.689 -50.773  16.448  1.00  0.00    -0.054 A 
HETATM   13  C   UNL     1     -44.657 -51.262  15.623  1.00  0.00     0.039 A 
HETATM   14  C   UNL     1     -45.365 -49.671  17.423  1.00  0.00     0.049 C 
ENDBRANCH   2   3
ENDBRANCH   1   2
BRANCH   1  15
HETATM   15  O   UNL     1     -42.813 -50.981  12.110  1.00  0.00    -0.392 OA
HETATM   16  H   UNL     1     -43.729 -50.943  11.765  1.00  0.00     0.210 HD
ENDBRANCH   1  15
BRANCH   1  17
HETATM   17  C   UNL     1     -40.937 -52.560  11.818  1.00  0.00     0.170 C 
BRANCH  17  18
HETATM   18  N   UNL     1     -40.108 -51.578  12.501  1.00  0.00    -0.265 N 
HETATM   19  C   UNL     1     -39.295 -51.848  13.559  1.00  0.00     0.326 C 
HETATM   20  O   UNL     1     -39.237 -52.884  14.200  1.00  0.00    -0.247 OA
HETATM   21  N   UNL     1     -38.477 -50.753  13.770  1.00  0.00    -0.325 N 
HETATM   22  C   UNL     1     -38.488 -49.884  12.615  1.00  0.00     0.108 C 
HETATM   23  H   UNL     1     -37.704 -50.835  14.418  1.00  0.00     0.165 HD
HETATM   24  C   UNL     1     -38.470 -48.409  12.969  1.00  0.00     0.049 C 
HETATM   25  C   UNL     1     -37.347 -50.250  11.657  1.00  0.00     0.049 C 
HETATM   26  C   UNL     1     -39.786 -50.362  11.958  1.00  0.00     0.255 C 
HETATM   27  O   UNL     1     -40.345 -49.833  11.006  1.00  0.00    -0.270 OA
ENDBRANCH  17  18
ENDBRANCH   1  17
TORSDOF 5
ENDMDL
MODEL 6
REMARK VINA RESULT:      -6.6      2.606      3.843
REMARK  5 active torsions:
REMARK  status: ('A' for Active; 'I' for Inactive)
REMARK    1  A    between atoms: N_8  and  C_9 
REMARK    2  A    between atoms: C_9  and  C_10 
REMARK    3  A    between atoms: C_10  and  O_11 
REMARK    4  A    between atoms: C_10  and  C_12 
REMARK    5  A    between atoms: C_12  and  N_13 
ROOT
HETATM    1  C   UNL     1     -40.564 -49.961  11.972  1.00  0.00     0.155 C 
ENDROOT
BRANCH   1   2
HETATM    2  C   UNL     1     -40.453 -50.890  13.185  1.00  0.00     0.163 C 
BRANCH   2   3
HETATM    3  N   UNL     1     -41.193 -52.129  13.061  1.00  0.00    -0.339 N 
HETATM    4  C   UNL     1     -40.668 -53.320  12.643  1.00  0.00     0.184 A 
HETATM    5  N   UNL     1     -41.550 -54.289  12.703  1.00  0.00    -0.350 N 
HETATM    6  C   UNL     1     -42.686 -53.711  13.214  1.00  0.00     0.060 A 
ATOM      7  HN  UNL     1     -41.419 -55.263  12.429  1.00  0.00     0.166 HD
HETATM    8  C   UNL     1     -43.923 -54.292  13.517  1.00  0.00     0.039 A 
HETATM    9  C   UNL     1     -42.493 -52.353  13.447  1.00  0.00     0.062 A 
HETATM   10  C   UNL     1     -44.953 -53.496  14.059  1.00  0.00    -0.054 A 
HETATM   11  C   UNL     1     -46.267 -54.146  14.399  1.00  0.00     0.049 C 
HETATM   12  C   UNL     1     -44.735 -52.118  14.281  1.00  0.00    -0.054 A 
HETATM   13  C   UNL     1     -43.494 -51.529  13.972  1.00  0.00     0.039 A 
HETATM   14  C   UNL     1     -45.818 -51.246  14.862  1.00  0.00     0.049 C 
ENDBRANCH   2   3
ENDBRANCH   1   2
BRANCH   1  15
HETATM   15  O   UNL     1     -40.758 -50.743  10.783  1.00  0.00    -0.392 OA
HETATM   16  H   UNL     1     -40.611 -50.166  10.004  1.00  0.00     0.210 HD
ENDBRANCH   1  15
BRANCH   1  17
HETATM   17  C   UNL     1     -41.626 -48.845  12.102  1.00  0.00     0.170 C 
BRANCH  17  18
HETATM   18  N   UNL     1     -41.303 -47.747  11.203  1.00  0.00    -0.265 N 
HETATM   19  C   UNL     1     -42.067 -47.358  10.145  1.00  0.00     0.326 C 
HETATM   20  O   UNL     1     -43.038 -47.935   9.684  1.00  0.00    -0.247 OA
HETATM   21  N   UNL     1     -41.594 -46.141   9.691  1.00  0.00    -0.325 N 
HETATM   22  C   UNL     1     -40.736 -45.530  10.682  1.00  0.00     0.108 C 
HETATM   23  H   UNL     1     -42.136 -45.626   9.009  1.00  0.00     0.165 HD
HETATM   24  C   UNL     1     -39.536 -44.819  10.085  1.00  0.00     0.049 C 
HETATM   25  C   UNL     1     -41.546 -44.604  11.596  1.00  0.00     0.049 C 
HETATM   26  C   UNL     1     -40.390 -46.773  11.508  1.00  0.00     0.255 C 
HETATM   27  O   UNL     1     -39.551 -46.831  12.399  1.00  0.00    -0.270 OA
ENDBRANCH  17  18
ENDBRANCH   1  17
TORSDOF 5
ENDMDL
MODEL 7
REMARK VINA RESULT:      -6.6      2.455      6.648
REMARK  5 active torsions:
REMARK  status: ('A' for Active; 'I' for Inactive)
REMARK    1  A    between atoms: N_8  and  C_9 
REMARK    2  A    between atoms: C_9  and  C_10 
REMARK    3  A    between atoms: C_10  and  O_11 
REMARK    4  A    between atoms: C_10  and  C_12 
REMARK    5  A    between atoms: C_12  and  N_13 
ROOT
HETATM    1  C   UNL     1     -41.648 -52.542  13.752  1.00  0.00     0.155 C 
ENDROOT
BRANCH   1   2
HETATM    2  C   UNL     1     -40.914 -51.205  13.897  1.00  0.00     0.163 C 
BRANCH   2   3
HETATM    3  N   UNL     1     -40.833 -50.429  12.676  1.00  0.00    -0.339 N 
HETATM    4  C   UNL     1     -40.358 -50.891  11.481  1.00  0.00     0.184 A 
HETATM    5  N   UNL     1     -40.476 -49.994  10.531  1.00  0.00    -0.350 N 
HETATM    6  C   UNL     1     -41.084 -48.916  11.127  1.00  0.00     0.060 A 
ATOM      7  HN  UNL     1     -40.179 -50.079   9.559  1.00  0.00     0.166 HD
HETATM    8  C   UNL     1     -41.477 -47.694  10.568  1.00  0.00     0.039 A 
HETATM    9  C   UNL     1     -41.319 -49.159  12.476  1.00  0.00     0.062 A 
HETATM   10  C   UNL     1     -42.110 -46.730  11.379  1.00  0.00    -0.054 A 
HETATM   11  C   UNL     1     -42.546 -45.432  10.754  1.00  0.00     0.049 C 
HETATM   12  C   UNL     1     -42.333 -46.997  12.748  1.00  0.00    -0.054 A 
HETATM   13  C   UNL     1     -41.933 -48.223  13.314  1.00  0.00     0.039 A 
HETATM   14  C   UNL     1     -43.011 -45.985  13.635  1.00  0.00     0.049 C 
ENDBRANCH   2   3
ENDBRANCH   1   2
BRANCH   1  15
HETATM   15  O   UNL     1     -40.701 -53.619  13.813  1.00  0.00    -0.392 OA
HETATM   16  H   UNL     1     -40.258 -53.594  14.687  1.00  0.00     0.210 HD
ENDBRANCH   1  15
BRANCH   1  17
HETATM   17  C   UNL     1     -42.818 -52.752  14.740  1.00  0.00     0.170 C 
BRANCH  17  18
HETATM   18  N   UNL     1     -44.068 -52.885  14.007  1.00  0.00    -0.265 N 
HETATM   19  C   UNL     1     -44.859 -53.993  14.014  1.00  0.00     0.326 C 
HETATM   20  O   UNL     1     -44.596 -55.085  14.489  1.00  0.00    -0.247 OA
HETATM   21  N   UNL     1     -46.069 -53.667  13.430  1.00  0.00    -0.325 N 
HETATM   22  C   UNL     1     -46.227 -52.231  13.361  1.00  0.00     0.108 C 
HETATM   23  H   UNL     1     -46.836 -54.325  13.488  1.00  0.00     0.165 HD
HETATM   24  C   UNL     1     -46.890 -51.758  12.081  1.00  0.00     0.049 C 
HETATM   25  C   UNL     1     -46.960 -51.711  14.603  1.00  0.00     0.049 C 
HETATM   26  C   UNL     1     -44.761 -51.814  13.506  1.00  0.00     0.255 C 
HETATM   27  O   UNL     1     -44.319 -50.682  13.357  1.00  0.00    -0.270 OA
ENDBRANCH  17  18
ENDBRANCH   1  17
TORSDOF 5
ENDMDL
MODEL 8
REMARK VINA RESULT:      -6.6      1.658      2.258
REMARK  5 active torsions:
REMARK  status: ('A' for Active; 'I' for Inactive)
REMARK    1  A    between atoms: N_8  and  C_9 
REMARK    2  A    between atoms: C_9  and  C_10 
REMARK    3  A    between atoms: C_10  and  O_11 
REMARK    4  A    between atoms: C_10  and  C_12 
REMARK    5  A    between atoms: C_12  and  N_13 
ROOT
HETATM    1  C   UNL     1     -40.147 -53.799  14.202  1.00  0.00     0.155 C 
ENDROOT
BRANCH   1   2
HETATM    2  C   UNL     1     -41.500 -54.426  13.848  1.00  0.00     0.163 C 
BRANCH   2   3
HETATM    3  N   UNL     1     -42.496 -54.335  14.895  1.00  0.00    -0.339 N 
HETATM    4  C   UNL     1     -42.361 -54.846  16.156  1.00  0.00     0.184 A 
HETATM    5  N   UNL     1     -43.388 -54.547  16.915  1.00  0.00    -0.350 N 
HETATM    6  C   UNL     1     -44.209 -53.780  16.124  1.00  0.00     0.060 A 
ATOM      7  HN  UNL     1     -43.544 -54.824  17.885  1.00  0.00     0.166 HD
HETATM    8  C   UNL     1     -45.428 -53.165  16.438  1.00  0.00     0.039 A 
HETATM    9  C   UNL     1     -43.676 -53.632  14.848  1.00  0.00     0.062 A 
HETATM   10  C   UNL     1     -46.093 -52.400  15.458  1.00  0.00    -0.054 A 
HETATM   11  C   UNL     1     -47.389 -51.728  15.823  1.00  0.00     0.049 C 
HETATM   12  C   UNL     1     -45.535 -52.268  14.168  1.00  0.00    -0.054 A 
HETATM   13  C   UNL     1     -44.313 -52.890  13.848  1.00  0.00     0.039 A 
HETATM   14  C   UNL     1     -46.225 -51.453  13.105  1.00  0.00     0.049 C 
ENDBRANCH   2   3
ENDBRANCH   1   2
BRANCH   1  15
HETATM   15  O   UNL     1     -39.159 -54.217  13.248  1.00  0.00    -0.392 OA
HETATM   16  H   UNL     1     -39.564 -54.883  12.653  1.00  0.00     0.210 HD
ENDBRANCH   1  15
BRANCH   1  17
HETATM   17  C   UNL     1     -40.167 -52.262  14.371  1.00  0.00     0.170 C 
BRANCH  17  18
HETATM   18  N   UNL     1     -39.697 -51.625  13.150  1.00  0.00    -0.265 N 
HETATM   19  C   UNL     1     -40.491 -51.275  12.100  1.00  0.00     0.326 C 
HETATM   20  O   UNL     1     -41.664 -51.563  11.934  1.00  0.00    -0.247 OA
HETATM   21  N   UNL     1     -39.756 -50.469  11.250  1.00  0.00    -0.325 N 
HETATM   22  C   UNL     1     -38.574 -49.973  11.918  1.00  0.00     0.108 C 
HETATM   23  H   UNL     1     -40.231 -49.989  10.496  1.00  0.00     0.165 HD
HETATM   24  C   UNL     1     -37.352 -49.919  11.020  1.00  0.00     0.049 C 
HETATM   25  C   UNL     1     -38.856 -48.616  12.572  1.00  0.00     0.049 C 
HETATM   26  C   UNL     1     -38.482 -50.999  13.051  1.00  0.00     0.255 C 
HETATM   27  O   UNL     1     -37.548 -51.122  13.833  1.00  0.00    -0.270 OA
ENDBRANCH  17  18
ENDBRANCH   1  17
TORSDOF 5
ENDMDL
MODEL 9
REMARK VINA RESULT:      -6.3      2.464      6.920
REMARK  5 active torsions:
REMARK  status: ('A' for Active; 'I' for Inactive)
REMARK    1  A    between atoms: N_8  and  C_9 
REMARK    2  A    between atoms: C_9  and  C_10 
REMARK    3  A    between atoms: C_10  and  O_11 
REMARK    4  A    between atoms: C_10  and  C_12 
REMARK    5  A    between atoms: C_12  and  N_13 
ROOT
HETATM    1  C   UNL     1     -40.858 -51.819  12.110  1.00  0.00     0.155 C 
ENDROOT
BRANCH   1   2
HETATM    2  C   UNL     1     -39.575 -50.984  12.061  1.00  0.00     0.163 C 
BRANCH   2   3
HETATM    3  N   UNL     1     -39.739 -49.606  12.474  1.00  0.00    -0.339 N 
HETATM    4  C   UNL     1     -39.033 -48.994  13.472  1.00  0.00     0.184 A 
HETATM    5  N   UNL     1     -39.338 -47.722  13.575  1.00  0.00    -0.350 N 
HETATM    6  C   UNL     1     -40.256 -47.490  12.580  1.00  0.00     0.060 A 
ATOM      7  HN  UNL     1     -38.971 -47.050  14.249  1.00  0.00     0.166 HD
HETATM    8  C   UNL     1     -40.892 -46.297  12.214  1.00  0.00     0.039 A 
HETATM    9  C   UNL     1     -40.531 -48.656  11.872  1.00  0.00     0.062 A 
HETATM   10  C   UNL     1     -41.796 -46.293  11.133  1.00  0.00    -0.054 A 
HETATM   11  C   UNL     1     -42.450 -44.996  10.742  1.00  0.00     0.049 C 
HETATM   12  C   UNL     1     -42.062 -47.490  10.433  1.00  0.00    -0.054 A 
HETATM   13  C   UNL     1     -41.429 -48.693  10.802  1.00  0.00     0.039 A 
HETATM   14  C   UNL     1     -43.022 -47.513   9.272  1.00  0.00     0.049 C 
ENDBRANCH   2   3
ENDBRANCH   1   2
BRANCH   1  15
HETATM   15  O   UNL     1     -40.576 -53.159  11.680  1.00  0.00    -0.392 OA
HETATM   16  H   UNL     1     -41.320 -53.469  11.121  1.00  0.00     0.210 HD
ENDBRANCH   1  15
BRANCH   1  17
HETATM   17  C   UNL     1     -41.596 -51.798  13.469  1.00  0.00     0.170 C 
BRANCH  17  18
HETATM   18  N   UNL     1     -42.994 -52.155  13.279  1.00  0.00    -0.265 N 
HETATM   19  C   UNL     1     -43.512 -53.400  13.474  1.00  0.00     0.326 C 
HETATM   20  O   UNL     1     -42.895 -54.431  13.681  1.00  0.00    -0.247 OA
HETATM   21  N   UNL     1     -44.891 -53.304  13.456  1.00  0.00    -0.325 N 
HETATM   22  C   UNL     1     -45.305 -51.928  13.617  1.00  0.00     0.108 C 
HETATM   23  H   UNL     1     -45.442 -54.105  13.738  1.00  0.00     0.165 HD
HETATM   24  C   UNL     1     -46.504 -51.556  12.765  1.00  0.00     0.049 C 
HETATM   25  C   UNL     1     -45.541 -51.608  15.097  1.00  0.00     0.049 C 
HETATM   26  C   UNL     1     -44.002 -51.230  13.217  1.00  0.00     0.255 C 
HETATM   27  O   UNL     1     -43.860 -50.027  13.033  1.00  0.00    -0.270 OA
ENDBRANCH  17  18
ENDBRANCH   1  17
TORSDOF 5
ENDMDL
