MODEL 1
REMARK VINA RESULT:      -6.2      0.000      0.000
REMARK  6 active torsions:
REMARK  status: ('A' for Active; 'I' for Inactive)
REMARK    1  A    between atoms: C_2  and  N_3 
REMARK    2  A    between atoms: C_2  and  C_14 
REMARK    3  A    between atoms: N_3  and  C_4 
REMARK    4  A    between atoms: C_4  and  C_5 
REMARK       I    between atoms: C_5  and  N_7 
REMARK    5  A    between atoms: N_7  and  C_8 
REMARK    6  A    between atoms: C_14  and  N_16 
ROOT
HETATM    1  N   UNL     1     -42.283 -52.228  11.861  1.00  0.00     0.098 N 
HETATM    2  H   UNL     1     -43.169 -52.094  11.378  1.00  0.00     0.317 HD
ENDROOT
BRANCH   1   3
HETATM    3  C   UNL     1     -42.458 -53.142  13.012  1.00  0.00     0.241 C 
HETATM    4  C   UNL     1     -41.288 -54.135  13.053  1.00  0.00     0.045 C 
BRANCH   3   5
HETATM    5  C   UNL     1     -43.852 -53.843  13.094  1.00  0.00     0.136 C 
HETATM    6  C   UNL     1     -43.951 -54.872  14.228  1.00  0.00     0.036 C 
BRANCH   5   7
HETATM    7  N   UNL     1     -44.948 -52.878  13.213  1.00  0.00    -0.297 N 
HETATM    8  C   UNL     1     -45.469 -52.384  14.377  1.00  0.00     0.112 A 
HETATM    9  C   UNL     1     -46.496 -51.549  14.011  1.00  0.00     0.037 A 
HETATM   10  C   UNL     1     -46.489 -51.571  12.606  1.00  0.00     0.108 A 
HETATM   11  N   UNL     1     -45.515 -52.341  12.111  1.00  0.00    -0.310 N 
ATOM     12  HN  UNL     1     -45.261 -52.487  11.134  1.00  0.00     0.186 HD
ENDBRANCH   5   7
ENDBRANCH   3   5
ENDBRANCH   1   3
BRANCH   1  13
HETATM   13  C   UNL     1     -41.631 -50.950  12.153  1.00  0.00     0.372 C 
BRANCH  13  14
HETATM   14  C   UNL     1     -42.689 -49.843  12.222  1.00  0.00     0.246 C 
HETATM   15  O   UNL     1     -43.516 -49.779  13.130  1.00  0.00    -0.272 OA
HETATM   16  N   UNL     1     -42.612 -48.925  11.184  1.00  0.00    -0.355 N 
HETATM   17  H   UNL     1     -41.712 -48.885  10.724  1.00  0.00     0.162 HD
BRANCH  16  18
HETATM   18  C   UNL     1     -43.387 -47.681  11.230  1.00  0.00     0.088 C 
HETATM   19  C   UNL     1     -44.198 -47.407   9.952  1.00  0.00     0.051 C 
HETATM   20  C   UNL     1     -43.396 -46.737   8.844  1.00  0.00     0.169 C 
HETATM   21  O   UNL     1     -42.647 -45.624   9.326  1.00  0.00    -0.391 OA
HETATM   22  C   UNL     1     -41.722 -46.014  10.335  1.00  0.00     0.169 C 
HETATM   23  C   UNL     1     -42.480 -46.491  11.563  1.00  0.00     0.051 C 
ENDBRANCH  16  18
ENDBRANCH  13  14
ENDBRANCH   1  13
TORSDOF 6
ENDMDL
MODEL 2
REMARK VINA RESULT:      -5.9      2.672      6.902
REMARK  6 active torsions:
REMARK  status: ('A' for Active; 'I' for Inactive)
REMARK    1  A    between atoms: C_2  and  N_3 
REMARK    2  A    between atoms: C_2  and  C_14 
REMARK    3  A    between atoms: N_3  and  C_4 
REMARK    4  A    between atoms: C_4  and  C_5 
REMARK       I    between atoms: C_5  and  N_7 
REMARK    5  A    between atoms: N_7  and  C_8 
REMARK    6  A    between atoms: C_14  and  N_16 
ROOT
HETATM    1  N   UNL     1     -41.870 -50.025  11.587  1.00  0.00     0.098 N 
HETATM    2  H   UNL     1     -42.210 -50.642  10.852  1.00  0.00     0.317 HD
ENDROOT
BRANCH   1   3
HETATM    3  C   UNL     1     -41.136 -48.882  11.002  1.00  0.00     0.241 C 
HETATM    4  C   UNL     1     -39.803 -48.702  11.743  1.00  0.00     0.045 C 
BRANCH   3   5
HETATM    5  C   UNL     1     -41.954 -47.555  10.895  1.00  0.00     0.136 C 
HETATM    6  C   UNL     1     -41.077 -46.313  10.682  1.00  0.00     0.036 C 
BRANCH   5   7
HETATM    7  N   UNL     1     -42.972 -47.619   9.844  1.00  0.00    -0.297 N 
HETATM    8  C   UNL     1     -44.308 -47.359   9.992  1.00  0.00     0.112 A 
HETATM    9  C   UNL     1     -44.879 -47.581   8.762  1.00  0.00     0.037 A 
HETATM   10  C   UNL     1     -43.802 -47.929   7.928  1.00  0.00     0.108 A 
HETATM   11  N   UNL     1     -42.630 -47.906   8.569  1.00  0.00    -0.310 N 
ATOM     12  HN  UNL     1     -41.698 -48.067   8.186  1.00  0.00     0.186 HD
ENDBRANCH   5   7
ENDBRANCH   3   5
ENDBRANCH   1   3
BRANCH   1  13
HETATM   13  C   UNL     1     -41.164 -50.772  12.630  1.00  0.00     0.372 C 
BRANCH  13  14
HETATM   14  C   UNL     1     -41.478 -52.265  12.489  1.00  0.00     0.246 C 
HETATM   15  O   UNL     1     -40.694 -53.056  11.968  1.00  0.00    -0.272 OA
HETATM   16  N   UNL     1     -42.708 -52.633  13.014  1.00  0.00    -0.355 N 
HETATM   17  H   UNL     1     -43.083 -51.990  13.699  1.00  0.00     0.162 HD
BRANCH  16  18
HETATM   18  C   UNL     1     -43.056 -54.048  13.177  1.00  0.00     0.088 C 
HETATM   19  C   UNL     1     -44.554 -54.345  12.989  1.00  0.00     0.051 C 
HETATM   20  C   UNL     1     -45.391 -54.110  14.239  1.00  0.00     0.169 C 
HETATM   21  O   UNL     1     -44.805 -54.706  15.394  1.00  0.00    -0.391 OA
HETATM   22  C   UNL     1     -43.508 -54.179  15.653  1.00  0.00     0.169 C 
HETATM   23  C   UNL     1     -42.564 -54.575  14.530  1.00  0.00     0.051 C 
ENDBRANCH  16  18
ENDBRANCH  13  14
ENDBRANCH   1  13
TORSDOF 6
ENDMDL
MODEL 3
REMARK VINA RESULT:      -5.4      2.701      7.172
REMARK  6 active torsions:
REMARK  status: ('A' for Active; 'I' for Inactive)
REMARK    1  A    between atoms: C_2  and  N_3 
REMARK    2  A    between atoms: C_2  and  C_14 
REMARK    3  A    between atoms: N_3  and  C_4 
REMARK    4  A    between atoms: C_4  and  C_5 
REMARK       I    between atoms: C_5  and  N_7 
REMARK    5  A    between atoms: N_7  and  C_8 
REMARK    6  A    between atoms: C_14  and  N_16 
ROOT
HETATM    1  N   UNL     1     -41.594 -50.268  11.368  1.00  0.00     0.098 N 
HETATM    2  H   UNL     1     -41.231 -50.300  10.418  1.00  0.00     0.317 HD
ENDROOT
BRANCH   1   3
HETATM    3  C   UNL     1     -41.922 -48.877  11.749  1.00  0.00     0.241 C 
HETATM    4  C   UNL     1     -43.047 -48.889  12.794  1.00  0.00     0.045 C 
BRANCH   3   5
HETATM    5  C   UNL     1     -42.217 -47.916  10.553  1.00  0.00     0.136 C 
HETATM    6  C   UNL     1     -43.707 -47.587  10.387  1.00  0.00     0.036 C 
BRANCH   5   7
HETATM    7  N   UNL     1     -41.449 -46.672  10.645  1.00  0.00    -0.297 N 
HETATM    8  C   UNL     1     -41.950 -45.430  10.928  1.00  0.00     0.112 A 
HETATM    9  C   UNL     1     -40.883 -44.566  10.870  1.00  0.00     0.037 A 
HETATM   10  C   UNL     1     -39.777 -45.386  10.587  1.00  0.00     0.108 A 
HETATM   11  N   UNL     1     -40.107 -46.677  10.498  1.00  0.00    -0.310 N 
ATOM     12  HN  UNL     1     -39.490 -47.477  10.353  1.00  0.00     0.186 HD
ENDBRANCH   5   7
ENDBRANCH   3   5
ENDBRANCH   1   3
BRANCH   1  13
HETATM   13  C   UNL     1     -40.730 -50.999  12.298  1.00  0.00     0.372 C 
BRANCH  13  14
HETATM   14  C   UNL     1     -41.189 -52.459  12.380  1.00  0.00     0.246 C 
HETATM   15  O   UNL     1     -40.440 -53.399  12.123  1.00  0.00    -0.272 OA
HETATM   16  N   UNL     1     -42.507 -52.612  12.783  1.00  0.00    -0.355 N 
HETATM   17  H   UNL     1     -42.890 -51.820  13.284  1.00  0.00     0.162 HD
BRANCH  16  18
HETATM   18  C   UNL     1     -43.028 -53.935  13.143  1.00  0.00     0.088 C 
HETATM   19  C   UNL     1     -44.513 -54.134  12.792  1.00  0.00     0.051 C 
HETATM   20  C   UNL     1     -45.474 -53.592  13.843  1.00  0.00     0.169 C 
HETATM   21  O   UNL     1     -45.111 -54.002  15.158  1.00  0.00    -0.391 OA
HETATM   22  C   UNL     1     -43.808 -53.547  15.508  1.00  0.00     0.169 C 
HETATM   23  C   UNL     1     -42.777 -54.231  14.626  1.00  0.00     0.051 C 
ENDBRANCH  16  18
ENDBRANCH  13  14
ENDBRANCH   1  13
TORSDOF 6
ENDMDL
MODEL 4
REMARK VINA RESULT:      -5.3      2.922      7.125
REMARK  6 active torsions:
REMARK  status: ('A' for Active; 'I' for Inactive)
REMARK    1  A    between atoms: C_2  and  N_3 
REMARK    2  A    between atoms: C_2  and  C_14 
REMARK    3  A    between atoms: N_3  and  C_4 
REMARK    4  A    between atoms: C_4  and  C_5 
REMARK       I    between atoms: C_5  and  N_7 
REMARK    5  A    between atoms: N_7  and  C_8 
REMARK    6  A    between atoms: C_14  and  N_16 
ROOT
HETATM    1  N   UNL     1     -40.437 -50.504  11.101  1.00  0.00     0.098 N 
HETATM    2  H   UNL     1     -39.983 -51.349  10.762  1.00  0.00     0.317 HD
ENDROOT
BRANCH   1   3
HETATM    3  C   UNL     1     -39.430 -49.462  11.397  1.00  0.00     0.241 C 
HETATM    4  C   UNL     1     -38.088 -50.133  11.729  1.00  0.00     0.045 C 
BRANCH   3   5
HETATM    5  C   UNL     1     -39.861 -48.408  12.467  1.00  0.00     0.136 C 
HETATM    6  C   UNL     1     -38.717 -47.978  13.395  1.00  0.00     0.036 C 
BRANCH   5   7
HETATM    7  N   UNL     1     -40.468 -47.222  11.859  1.00  0.00    -0.297 N 
HETATM    8  C   UNL     1     -41.477 -46.465  12.390  1.00  0.00     0.112 A 
HETATM    9  C   UNL     1     -41.750 -45.488  11.463  1.00  0.00     0.037 A 
HETATM   10  C   UNL     1     -40.826 -45.713  10.428  1.00  0.00     0.108 A 
HETATM   11  N   UNL     1     -40.009 -46.738  10.684  1.00  0.00    -0.310 N 
ATOM     12  HN  UNL     1     -39.224 -47.074  10.126  1.00  0.00     0.186 HD
ENDBRANCH   5   7
ENDBRANCH   3   5
ENDBRANCH   1   3
BRANCH   1  13
HETATM   13  C   UNL     1     -41.387 -50.799  12.176  1.00  0.00     0.372 C 
BRANCH  13  14
HETATM   14  C   UNL     1     -41.584 -52.316  12.279  1.00  0.00     0.246 C 
HETATM   15  O   UNL     1     -40.715 -53.116  11.937  1.00  0.00    -0.272 OA
HETATM   16  N   UNL     1     -42.812 -52.689  12.803  1.00  0.00    -0.355 N 
HETATM   17  H   UNL     1     -43.272 -51.973  13.350  1.00  0.00     0.162 HD
BRANCH  16  18
HETATM   18  C   UNL     1     -43.066 -54.080  13.190  1.00  0.00     0.088 C 
HETATM   19  C   UNL     1     -44.550 -54.484  13.121  1.00  0.00     0.051 C 
HETATM   20  C   UNL     1     -45.350 -54.109  14.361  1.00  0.00     0.169 C 
HETATM   21  O   UNL     1     -44.683 -54.491  15.561  1.00  0.00    -0.391 OA
HETATM   22  C   UNL     1     -43.411 -53.861  15.677  1.00  0.00     0.169 C 
HETATM   23  C   UNL     1     -42.490 -54.370  14.580  1.00  0.00     0.051 C 
ENDBRANCH  16  18
ENDBRANCH  13  14
ENDBRANCH   1  13
TORSDOF 6
ENDMDL
MODEL 5
REMARK VINA RESULT:      -5.3      2.671      3.128
REMARK  6 active torsions:
REMARK  status: ('A' for Active; 'I' for Inactive)
REMARK    1  A    between atoms: C_2  and  N_3 
REMARK    2  A    between atoms: C_2  and  C_14 
REMARK    3  A    between atoms: N_3  and  C_4 
REMARK    4  A    between atoms: C_4  and  C_5 
REMARK       I    between atoms: C_5  and  N_7 
REMARK    5  A    between atoms: N_7  and  C_8 
REMARK    6  A    between atoms: C_14  and  N_16 
ROOT
HETATM    1  N   UNL     1     -42.083 -53.567  12.490  1.00  0.00     0.098 N 
HETATM    2  H   UNL     1     -42.282 -54.186  11.707  1.00  0.00     0.317 HD
ENDROOT
BRANCH   1   3
HETATM    3  C   UNL     1     -43.029 -53.819  13.599  1.00  0.00     0.241 C 
HETATM    4  C   UNL     1     -42.412 -54.835  14.571  1.00  0.00     0.045 C 
BRANCH   3   5
HETATM    5  C   UNL     1     -44.478 -54.204  13.159  1.00  0.00     0.136 C 
HETATM    6  C   UNL     1     -45.089 -55.335  13.997  1.00  0.00     0.036 C 
BRANCH   5   7
HETATM    7  N   UNL     1     -45.380 -53.050  13.164  1.00  0.00    -0.297 N 
HETATM    8  C   UNL     1     -45.869 -52.408  14.269  1.00  0.00     0.112 A 
HETATM    9  C   UNL     1     -46.699 -51.419  13.800  1.00  0.00     0.037 A 
HETATM   10  C   UNL     1     -46.611 -51.515  12.401  1.00  0.00     0.108 A 
HETATM   11  N   UNL     1     -45.770 -52.475  12.005  1.00  0.00    -0.310 N 
ATOM     12  HN  UNL     1     -45.490 -52.715  11.055  1.00  0.00     0.186 HD
ENDBRANCH   5   7
ENDBRANCH   3   5
ENDBRANCH   1   3
BRANCH   1  13
HETATM   13  C   UNL     1     -41.962 -52.174  12.056  1.00  0.00     0.372 C 
BRANCH  13  14
HETATM   14  C   UNL     1     -40.640 -51.593  12.568  1.00  0.00     0.246 C 
HETATM   15  O   UNL     1     -39.613 -52.265  12.646  1.00  0.00    -0.272 OA
HETATM   16  N   UNL     1     -40.711 -50.252  12.914  1.00  0.00    -0.355 N 
HETATM   17  H   UNL     1     -41.478 -49.747  12.489  1.00  0.00     0.162 HD
BRANCH  16  18
HETATM   18  C   UNL     1     -39.491 -49.487  13.191  1.00  0.00     0.088 C 
HETATM   19  C   UNL     1     -39.641 -48.472  14.338  1.00  0.00     0.051 C 
HETATM   20  C   UNL     1     -40.244 -47.141  13.909  1.00  0.00     0.169 C 
HETATM   21  O   UNL     1     -39.622 -46.627  12.734  1.00  0.00    -0.391 OA
HETATM   22  C   UNL     1     -39.758 -47.522  11.636  1.00  0.00     0.169 C 
HETATM   23  C   UNL     1     -38.983 -48.798  11.920  1.00  0.00     0.051 C 
ENDBRANCH  16  18
ENDBRANCH  13  14
ENDBRANCH   1  13
TORSDOF 6
ENDMDL
MODEL 6
REMARK VINA RESULT:      -5.2      3.219      6.837
REMARK  6 active torsions:
REMARK  status: ('A' for Active; 'I' for Inactive)
REMARK    1  A    between atoms: C_2  and  N_3 
REMARK    2  A    between atoms: C_2  and  C_14 
REMARK    3  A    between atoms: N_3  and  C_4 
REMARK    4  A    between atoms: C_4  and  C_5 
REMARK       I    between atoms: C_5  and  N_7 
REMARK    5  A    between atoms: N_7  and  C_8 
REMARK    6  A    between atoms: C_14  and  N_16 
ROOT
HETATM    1  N   UNL     1     -39.150 -50.433  14.213  1.00  0.00     0.098 N 
HETATM    2  H   UNL     1     -39.915 -50.125  13.617  1.00  0.00     0.317 HD
ENDROOT
BRANCH   1   3
HETATM    3  C   UNL     1     -37.871 -49.850  13.751  1.00  0.00     0.241 C 
HETATM    4  C   UNL     1     -37.469 -48.701  14.688  1.00  0.00     0.045 C 
BRANCH   3   5
HETATM    5  C   UNL     1     -37.835 -49.443  12.243  1.00  0.00     0.136 C 
HETATM    6  C   UNL     1     -37.280 -50.543  11.328  1.00  0.00     0.036 C 
BRANCH   5   7
HETATM    7  N   UNL     1     -39.150 -49.020  11.756  1.00  0.00    -0.297 N 
HETATM    8  C   UNL     1     -39.734 -47.799  11.956  1.00  0.00     0.112 A 
HETATM    9  C   UNL     1     -40.970 -47.864  11.359  1.00  0.00     0.037 A 
HETATM   10  C   UNL     1     -41.022 -49.148  10.790  1.00  0.00     0.108 A 
HETATM   11  N   UNL     1     -39.896 -49.841  10.985  1.00  0.00    -0.310 N 
ATOM     12  HN  UNL     1     -39.658 -50.769  10.635  1.00  0.00     0.186 HD
ENDBRANCH   5   7
ENDBRANCH   3   5
ENDBRANCH   1   3
BRANCH   1  13
HETATM   13  C   UNL     1     -39.162 -51.886  14.395  1.00  0.00     0.372 C 
BRANCH  13  14
HETATM   14  C   UNL     1     -40.218 -52.505  13.473  1.00  0.00     0.246 C 
HETATM   15  O   UNL     1     -40.043 -52.626  12.261  1.00  0.00    -0.272 OA
HETATM   16  N   UNL     1     -41.364 -52.926  14.131  1.00  0.00    -0.355 N 
HETATM   17  H   UNL     1     -41.244 -53.090  15.122  1.00  0.00     0.162 HD
BRANCH  16  18
HETATM   18  C   UNL     1     -42.360 -53.751  13.441  1.00  0.00     0.088 C 
HETATM   19  C   UNL     1     -43.382 -52.938  12.626  1.00  0.00     0.051 C 
HETATM   20  C   UNL     1     -44.550 -52.413  13.450  1.00  0.00     0.169 C 
HETATM   21  O   UNL     1     -45.116 -53.424  14.279  1.00  0.00    -0.391 OA
HETATM   22  C   UNL     1     -44.160 -53.946  15.194  1.00  0.00     0.169 C 
HETATM   23  C   UNL     1     -43.072 -54.681  14.429  1.00  0.00     0.051 C 
ENDBRANCH  16  18
ENDBRANCH  13  14
ENDBRANCH   1  13
TORSDOF 6
ENDMDL
MODEL 7
REMARK VINA RESULT:      -5.1      2.576      6.475
REMARK  6 active torsions:
REMARK  status: ('A' for Active; 'I' for Inactive)
REMARK    1  A    between atoms: C_2  and  N_3 
REMARK    2  A    between atoms: C_2  and  C_14 
REMARK    3  A    between atoms: N_3  and  C_4 
REMARK    4  A    between atoms: C_4  and  C_5 
REMARK       I    between atoms: C_5  and  N_7 
REMARK    5  A    between atoms: N_7  and  C_8 
REMARK    6  A    between atoms: C_14  and  N_16 
ROOT
HETATM    1  N   UNL     1     -42.358 -51.273  12.977  1.00  0.00     0.098 N 
HETATM    2  H   UNL     1     -43.226 -50.742  12.983  1.00  0.00     0.317 HD
ENDROOT
BRANCH   1   3
HETATM    3  C   UNL     1     -41.370 -50.634  12.080  1.00  0.00     0.241 C 
HETATM    4  C   UNL     1     -39.999 -51.295  12.285  1.00  0.00     0.045 C 
BRANCH   3   5
HETATM    5  C   UNL     1     -41.310 -49.075  12.164  1.00  0.00     0.136 C 
HETATM    6  C   UNL     1     -39.887 -48.512  12.044  1.00  0.00     0.036 C 
BRANCH   5   7
HETATM    7  N   UNL     1     -42.174 -48.437  11.168  1.00  0.00    -0.297 N 
HETATM    8  C   UNL     1     -43.407 -47.890  11.396  1.00  0.00     0.112 A 
HETATM    9  C   UNL     1     -43.860 -47.447  10.177  1.00  0.00     0.037 A 
HETATM   10  C   UNL     1     -42.812 -47.733   9.284  1.00  0.00     0.108 A 
HETATM   11  N   UNL     1     -41.761 -48.291   9.890  1.00  0.00    -0.310 N 
ATOM     12  HN  UNL     1     -40.861 -48.546   9.484  1.00  0.00     0.186 HD
ENDBRANCH   5   7
ENDBRANCH   3   5
ENDBRANCH   1   3
BRANCH   1  13
HETATM   13  C   UNL     1     -42.603 -52.698  12.748  1.00  0.00     0.372 C 
BRANCH  13  14
HETATM   14  C   UNL     1     -44.105 -52.982  12.861  1.00  0.00     0.246 C 
HETATM   15  O   UNL     1     -44.675 -53.804  12.146  1.00  0.00    -0.272 OA
HETATM   16  N   UNL     1     -44.744 -52.243  13.845  1.00  0.00    -0.355 N 
HETATM   17  H   UNL     1     -44.133 -51.884  14.567  1.00  0.00     0.162 HD
BRANCH  16  18
HETATM   18  C   UNL     1     -46.118 -52.564  14.244  1.00  0.00     0.088 C 
HETATM   19  C   UNL     1     -46.861 -51.393  14.912  1.00  0.00     0.051 C 
HETATM   20  C   UNL     1     -46.579 -51.253  16.402  1.00  0.00     0.169 C 
HETATM   21  O   UNL     1     -46.690 -52.498  17.086  1.00  0.00    -0.391 OA
HETATM   22  C   UNL     1     -45.774 -53.460  16.575  1.00  0.00     0.169 C 
HETATM   23  C   UNL     1     -46.145 -53.806  15.142  1.00  0.00     0.051 C 
ENDBRANCH  16  18
ENDBRANCH  13  14
ENDBRANCH   1  13
TORSDOF 6
ENDMDL
MODEL 8
REMARK VINA RESULT:      -5.0      3.685      6.782
REMARK  6 active torsions:
REMARK  status: ('A' for Active; 'I' for Inactive)
REMARK    1  A    between atoms: C_2  and  N_3 
REMARK    2  A    between atoms: C_2  and  C_14 
REMARK    3  A    between atoms: N_3  and  C_4 
REMARK    4  A    between atoms: C_4  and  C_5 
REMARK       I    between atoms: C_5  and  N_7 
REMARK    5  A    between atoms: N_7  and  C_8 
REMARK    6  A    between atoms: C_14  and  N_16 
ROOT
HETATM    1  N   UNL     1     -42.268 -52.459  11.824  1.00  0.00     0.098 N 
HETATM    2  H   UNL     1     -42.740 -53.300  11.500  1.00  0.00     0.317 HD
ENDROOT
BRANCH   1   3
HETATM    3  C   UNL     1     -40.933 -52.794  12.366  1.00  0.00     0.241 C 
HETATM    4  C   UNL     1     -40.923 -54.262  12.817  1.00  0.00     0.045 C 
BRANCH   3   5
HETATM    5  C   UNL     1     -40.400 -51.819  13.464  1.00  0.00     0.136 C 
HETATM    6  C   UNL     1     -39.801 -52.539  14.680  1.00  0.00     0.036 C 
BRANCH   5   7
HETATM    7  N   UNL     1     -39.422 -50.869  12.929  1.00  0.00    -0.297 N 
HETATM    8  C   UNL     1     -38.641 -50.014  13.657  1.00  0.00     0.112 A 
HETATM    9  C   UNL     1     -37.912 -49.291  12.744  1.00  0.00     0.037 A 
HETATM   10  C   UNL     1     -38.290 -49.812  11.495  1.00  0.00     0.108 A 
HETATM   11  N   UNL     1     -39.174 -50.809  11.602  1.00  0.00    -0.310 N 
ATOM     12  HN  UNL     1     -39.567 -51.387  10.859  1.00  0.00     0.186 HD
ENDBRANCH   5   7
ENDBRANCH   3   5
ENDBRANCH   1   3
BRANCH   1  13
HETATM   13  C   UNL     1     -43.131 -51.661  12.697  1.00  0.00     0.372 C 
BRANCH  13  14
HETATM   14  C   UNL     1     -44.429 -52.429  12.971  1.00  0.00     0.246 C 
HETATM   15  O   UNL     1     -44.861 -53.285  12.201  1.00  0.00    -0.272 OA
HETATM   16  N   UNL     1     -45.047 -52.082  14.162  1.00  0.00    -0.355 N 
HETATM   17  H   UNL     1     -44.438 -51.647  14.843  1.00  0.00     0.162 HD
BRANCH  16  18
HETATM   18  C   UNL     1     -46.157 -52.884  14.688  1.00  0.00     0.088 C 
HETATM   19  C   UNL     1     -47.215 -52.060  15.444  1.00  0.00     0.051 C 
HETATM   20  C   UNL     1     -46.863 -51.794  16.902  1.00  0.00     0.169 C 
HETATM   21  O   UNL     1     -46.436 -52.977  17.572  1.00  0.00    -0.391 OA
HETATM   22  C   UNL     1     -45.281 -53.538  16.958  1.00  0.00     0.169 C 
HETATM   23  C   UNL     1     -45.633 -54.027  15.563  1.00  0.00     0.051 C 
ENDBRANCH  16  18
ENDBRANCH  13  14
ENDBRANCH   1  13
TORSDOF 6
ENDMDL
MODEL 9
REMARK VINA RESULT:      -5.0      3.609      6.304
REMARK  6 active torsions:
REMARK  status: ('A' for Active; 'I' for Inactive)
REMARK    1  A    between atoms: C_2  and  N_3 
REMARK    2  A    between atoms: C_2  and  C_14 
REMARK    3  A    between atoms: N_3  and  C_4 
REMARK    4  A    between atoms: C_4  and  C_5 
REMARK       I    between atoms: C_5  and  N_7 
REMARK    5  A    between atoms: N_7  and  C_8 
REMARK    6  A    between atoms: C_14  and  N_16 
ROOT
HETATM    1  N   UNL     1     -40.267 -54.056  12.917  1.00  0.00     0.098 N 
HETATM    2  H   UNL     1     -39.890 -54.852  12.406  1.00  0.00     0.317 HD
ENDROOT
BRANCH   1   3
HETATM    3  C   UNL     1     -39.343 -53.653  13.999  1.00  0.00     0.241 C 
HETATM    4  C   UNL     1     -39.546 -54.576  15.209  1.00  0.00     0.045 C 
BRANCH   3   5
HETATM    5  C   UNL     1     -39.387 -52.138  14.377  1.00  0.00     0.136 C 
HETATM    6  C   UNL     1     -38.633 -51.811  15.674  1.00  0.00     0.036 C 
BRANCH   5   7
HETATM    7  N   UNL     1     -38.890 -51.286  13.295  1.00  0.00    -0.297 N 
HETATM    8  C   UNL     1     -37.580 -51.099  12.947  1.00  0.00     0.112 A 
HETATM    9  C   UNL     1     -37.585 -50.195  11.913  1.00  0.00     0.037 A 
HETATM   10  C   UNL     1     -38.945 -49.928  11.680  1.00  0.00     0.108 A 
HETATM   11  N   UNL     1     -39.749 -50.628  12.486  1.00  0.00    -0.310 N 
ATOM     12  HN  UNL     1     -40.768 -50.658  12.489  1.00  0.00     0.186 HD
ENDBRANCH   5   7
ENDBRANCH   3   5
ENDBRANCH   1   3
BRANCH   1  13
HETATM   13  C   UNL     1     -41.658 -54.284  13.315  1.00  0.00     0.372 C 
BRANCH  13  14
HETATM   14  C   UNL     1     -42.500 -53.056  12.951  1.00  0.00     0.246 C 
HETATM   15  O   UNL     1     -42.204 -52.309  12.020  1.00  0.00    -0.272 OA
HETATM   16  N   UNL     1     -43.620 -52.885  13.751  1.00  0.00    -0.355 N 
HETATM   17  H   UNL     1     -43.931 -53.723  14.225  1.00  0.00     0.162 HD
BRANCH  16  18
HETATM   18  C   UNL     1     -44.652 -51.909  13.389  1.00  0.00     0.088 C 
HETATM   19  C   UNL     1     -44.864 -50.808  14.444  1.00  0.00     0.051 C 
HETATM   20  C   UNL     1     -45.799 -51.211  15.576  1.00  0.00     0.169 C 
HETATM   21  O   UNL     1     -46.996 -51.811  15.092  1.00  0.00    -0.391 OA
HETATM   22  C   UNL     1     -46.724 -52.986  14.336  1.00  0.00     0.169 C 
HETATM   23  C   UNL     1     -45.975 -52.613  13.067  1.00  0.00     0.051 C 
ENDBRANCH  16  18
ENDBRANCH  13  14
ENDBRANCH   1  13
TORSDOF 6
ENDMDL
