MODEL 1
REMARK VINA RESULT:      -7.3      0.000      0.000
REMARK  6 active torsions:
REMARK  status: ('A' for Active; 'I' for Inactive)
REMARK    1  A    between atoms: N_1  and  C_5 
REMARK    2  A    between atoms: N_3  and  C_14 
REMARK    3  A    between atoms: N_4  and  C_20 
REMARK    4  A    between atoms: C_12  and  C_14 
REMARK    5  A    between atoms: C_12  and  O_29 
REMARK    6  A    between atoms: C_15  and  C_20 
ROOT
HETATM    1  C   UNL     1     -41.217 -50.034  11.931  1.00  0.00     0.122 A 
HETATM    2  N   UNL     1     -41.143 -52.031  12.821  1.00  0.00    -0.324 N 
HETATM    3  C   UNL     1     -40.648 -48.873  11.355  1.00  0.00     0.137 A 
HETATM    4  C   UNL     1     -40.344 -50.994  12.422  1.00  0.00     0.140 A 
HETATM    5  N   UNL     1     -42.529 -50.455  12.087  1.00  0.00    -0.346 N 
ATOM      6  HN  UNL     1     -43.378 -49.947  11.838  1.00  0.00     0.167 HD
HETATM    7  C   UNL     1     -42.441 -51.651  12.625  1.00  0.00     0.185 A 
HETATM    8  N   UNL     1     -39.002 -50.942  12.457  1.00  0.00    -0.336 N 
ATOM      9  HN  UNL     1     -38.401 -51.674  12.836  1.00  0.00     0.168 HD
HETATM   10  N   UNL     1     -39.285 -48.787  11.370  1.00  0.00    -0.337 N 
ATOM     11  HN  UNL     1     -38.817 -47.976  10.968  1.00  0.00     0.168 HD
HETATM   12  C   UNL     1     -38.561 -49.787  11.922  1.00  0.00     0.183 A 
ENDROOT
BRANCH   3  13
HETATM   13  N   UNL     1     -41.366 -47.843  10.806  1.00  0.00    -0.340 N 
HETATM   14  C   UNL     1     -42.309 -47.997   9.726  1.00  0.00     0.254 C 
HETATM   15  N   UNL     1     -42.890 -46.682   9.650  1.00  0.00    -0.326 N 
HETATM   16  C   UNL     1     -42.117 -45.718  10.279  1.00  0.00     0.239 C 
HETATM   17  C   UNL     1     -41.028 -46.447  11.047  1.00  0.00     0.229 C 
HETATM   18  O   UNL     1     -42.292 -44.511  10.217  1.00  0.00    -0.271 OA
BRANCH  15  19
HETATM   19  C   UNL     1     -43.967 -46.353   8.723  1.00  0.00     0.245 C 
BRANCH  19  20
HETATM   20  C   UNL     1     -45.294 -47.089   8.931  1.00  0.00     0.403 C 
HETATM   21  F   UNL     1     -45.429 -48.164   8.124  1.00  0.00    -0.169 F 
HETATM   22  F   UNL     1     -45.382 -47.537  10.208  1.00  0.00    -0.169 F 
HETATM   23  F   UNL     1     -46.353 -46.275   8.721  1.00  0.00    -0.169 F 
ENDBRANCH  19  20
ENDBRANCH  15  19
ENDBRANCH   3  13
BRANCH   2  24
HETATM   24  C   UNL     1     -40.685 -53.361  13.176  1.00  0.00     0.172 C 
BRANCH  24  25
HETATM   25  C   UNL     1     -41.026 -53.811  14.602  1.00  0.00     0.102 C 
HETATM   26  C   UNL     1     -39.992 -54.827  15.145  1.00  0.00     0.153 C 
HETATM   27  O   UNL     1     -40.686 -55.670  16.091  1.00  0.00    -0.383 OA
HETATM   28  C   UNL     1     -38.776 -54.232  15.834  1.00  0.00     0.042 C 
HETATM   29  C   UNL     1     -42.082 -55.354  16.029  1.00  0.00     0.171 C 
HETATM   30  C   UNL     1     -42.297 -54.636  14.711  1.00  0.00     0.068 C 
BRANCH  25  31
HETATM   31  O   UNL     1     -41.166 -52.689  15.483  1.00  0.00    -0.385 OA
HETATM   32  H   UNL     1     -41.612 -52.973  16.303  1.00  0.00     0.210 HD
ENDBRANCH  25  31
ENDBRANCH  24  25
ENDBRANCH   2  24
TORSDOF 6
ENDMDL
MODEL 2
REMARK VINA RESULT:      -7.2      3.115      7.459
REMARK  6 active torsions:
REMARK  status: ('A' for Active; 'I' for Inactive)
REMARK    1  A    between atoms: N_1  and  C_5 
REMARK    2  A    between atoms: N_3  and  C_14 
REMARK    3  A    between atoms: N_4  and  C_20 
REMARK    4  A    between atoms: C_12  and  C_14 
REMARK    5  A    between atoms: C_12  and  O_29 
REMARK    6  A    between atoms: C_15  and  C_20 
ROOT
HETATM    1  C   UNL     1     -41.806 -48.724  11.463  1.00  0.00     0.122 A 
HETATM    2  N   UNL     1     -41.382 -46.815  10.483  1.00  0.00    -0.324 N 
HETATM    3  C   UNL     1     -41.464 -49.878  12.209  1.00  0.00     0.137 A 
HETATM    4  C   UNL     1     -40.771 -47.877  11.092  1.00  0.00     0.140 A 
HETATM    5  N   UNL     1     -43.020 -48.215  11.030  1.00  0.00    -0.346 N 
ATOM      6  HN  UNL     1     -43.944 -48.633  11.140  1.00  0.00     0.167 HD
HETATM    7  C   UNL     1     -42.722 -47.075  10.446  1.00  0.00     0.185 A 
HETATM    8  N   UNL     1     -39.456 -48.037  11.321  1.00  0.00    -0.336 N 
ATOM      9  HN  UNL     1     -38.730 -47.387  11.022  1.00  0.00     0.168 HD
HETATM   10  N   UNL     1     -40.136 -50.071  12.464  1.00  0.00    -0.337 N 
ATOM     11  HN  UNL     1     -39.829 -50.883  12.998  1.00  0.00     0.168 HD
HETATM   12  C   UNL     1     -39.233 -49.178  12.002  1.00  0.00     0.183 A 
ENDROOT
BRANCH   3  13
HETATM   13  N   UNL     1     -42.364 -50.801  12.671  1.00  0.00    -0.340 N 
HETATM   14  C   UNL     1     -43.209 -50.605  13.823  1.00  0.00     0.254 C 
HETATM   15  N   UNL     1     -44.056 -51.769  13.771  1.00  0.00    -0.326 N 
HETATM   16  C   UNL     1     -43.533 -52.776  12.975  1.00  0.00     0.239 C 
HETATM   17  C   UNL     1     -42.344 -52.190  12.234  1.00  0.00     0.229 C 
HETATM   18  O   UNL     1     -43.961 -53.918  12.896  1.00  0.00    -0.271 OA
BRANCH  15  19
HETATM   19  C   UNL     1     -45.141 -51.991  14.721  1.00  0.00     0.245 C 
BRANCH  19  20
HETATM   20  C   UNL     1     -46.564 -51.818  14.182  1.00  0.00     0.403 C 
HETATM   21  F   UNL     1     -46.594 -51.261  12.952  1.00  0.00    -0.169 F 
HETATM   22  F   UNL     1     -47.174 -53.026  14.085  1.00  0.00    -0.169 F 
HETATM   23  F   UNL     1     -47.319 -51.056  15.004  1.00  0.00    -0.169 F 
ENDBRANCH  19  20
ENDBRANCH  15  19
ENDBRANCH   3  13
BRANCH   2  24
HETATM   24  C   UNL     1     -40.744 -45.557  10.142  1.00  0.00     0.172 C 
BRANCH  24  25
HETATM   25  C   UNL     1     -41.020 -44.400  11.111  1.00  0.00     0.102 C 
HETATM   26  C   UNL     1     -40.551 -44.731  12.548  1.00  0.00     0.153 C 
HETATM   27  O   UNL     1     -41.402 -43.991  13.451  1.00  0.00    -0.383 OA
HETATM   28  C   UNL     1     -39.104 -44.394  12.868  1.00  0.00     0.042 C 
HETATM   29  C   UNL     1     -42.447 -43.383  12.680  1.00  0.00     0.171 C 
HETATM   30  C   UNL     1     -42.494 -44.133  11.363  1.00  0.00     0.068 C 
BRANCH  25  31
HETATM   31  O   UNL     1     -40.437 -43.177  10.641  1.00  0.00    -0.385 OA
HETATM   32  H   UNL     1     -40.021 -43.328   9.771  1.00  0.00     0.210 HD
ENDBRANCH  25  31
ENDBRANCH  24  25
ENDBRANCH   2  24
TORSDOF 6
ENDMDL
MODEL 3
REMARK VINA RESULT:      -7.1      3.310      4.296
REMARK  6 active torsions:
REMARK  status: ('A' for Active; 'I' for Inactive)
REMARK    1  A    between atoms: N_1  and  C_5 
REMARK    2  A    between atoms: N_3  and  C_14 
REMARK    3  A    between atoms: N_4  and  C_20 
REMARK    4  A    between atoms: C_12  and  C_14 
REMARK    5  A    between atoms: C_12  and  O_29 
REMARK    6  A    between atoms: C_15  and  C_20 
ROOT
HETATM    1  C   UNL     1     -42.256 -49.917  12.946  1.00  0.00     0.122 A 
HETATM    2  N   UNL     1     -43.040 -51.301  14.447  1.00  0.00    -0.324 N 
HETATM    3  C   UNL     1     -41.540 -49.581  11.771  1.00  0.00     0.137 A 
HETATM    4  C   UNL     1     -42.196 -51.236  13.372  1.00  0.00     0.140 A 
HETATM    5  N   UNL     1     -43.073 -49.178  13.787  1.00  0.00    -0.346 N 
ATOM      6  HN  UNL     1     -43.283 -48.182  13.731  1.00  0.00     0.167 HD
HETATM    7  C   UNL     1     -43.519 -50.042  14.673  1.00  0.00     0.185 A 
HETATM    8  N   UNL     1     -41.500 -52.246  12.823  1.00  0.00    -0.336 N 
ATOM      9  HN  UNL     1     -41.483 -53.201  13.178  1.00  0.00     0.168 HD
HETATM   10  N   UNL     1     -40.823 -50.584  11.184  1.00  0.00    -0.337 N 
ATOM     11  HN  UNL     1     -40.289 -50.404  10.334  1.00  0.00     0.168 HD
HETATM   12  C   UNL     1     -40.827 -51.817  11.737  1.00  0.00     0.183 A 
ENDROOT
BRANCH   3  13
HETATM   13  N   UNL     1     -41.512 -48.334  11.206  1.00  0.00    -0.340 N 
HETATM   14  C   UNL     1     -40.528 -47.326  11.512  1.00  0.00     0.254 C 
HETATM   15  N   UNL     1     -40.843 -46.301  10.550  1.00  0.00    -0.326 N 
HETATM   16  C   UNL     1     -42.115 -46.441  10.017  1.00  0.00     0.239 C 
HETATM   17  C   UNL     1     -42.645 -47.790  10.469  1.00  0.00     0.229 C 
HETATM   18  O   UNL     1     -42.689 -45.621   9.316  1.00  0.00    -0.271 OA
BRANCH  15  19
HETATM   19  C   UNL     1     -40.061 -45.076  10.426  1.00  0.00     0.245 C 
BRANCH  19  20
HETATM   20  C   UNL     1     -40.123 -44.105  11.609  1.00  0.00     0.403 C 
HETATM   21  F   UNL     1     -40.098 -42.810  11.225  1.00  0.00    -0.169 F 
HETATM   22  F   UNL     1     -41.273 -44.291  12.303  1.00  0.00    -0.169 F 
HETATM   23  F   UNL     1     -39.100 -44.304  12.471  1.00  0.00    -0.169 F 
ENDBRANCH  19  20
ENDBRANCH  15  19
ENDBRANCH   3  13
BRANCH   2  24
HETATM   24  C   UNL     1     -43.504 -52.520  15.084  1.00  0.00     0.172 C 
BRANCH  24  25
HETATM   25  C   UNL     1     -44.590 -53.286  14.317  1.00  0.00     0.102 C 
HETATM   26  C   UNL     1     -45.948 -53.250  15.058  1.00  0.00     0.153 C 
HETATM   27  O   UNL     1     -46.654 -54.459  14.703  1.00  0.00    -0.383 OA
HETATM   28  C   UNL     1     -46.842 -52.062  14.746  1.00  0.00     0.042 C 
HETATM   29  C   UNL     1     -45.762 -55.292  13.952  1.00  0.00     0.171 C 
HETATM   30  C   UNL     1     -44.363 -54.786  14.244  1.00  0.00     0.068 C 
BRANCH  25  31
HETATM   31  O   UNL     1     -44.716 -52.805  12.973  1.00  0.00    -0.385 OA
HETATM   32  H   UNL     1     -44.374 -53.476  12.353  1.00  0.00     0.210 HD
ENDBRANCH  25  31
ENDBRANCH  24  25
ENDBRANCH   2  24
TORSDOF 6
ENDMDL
MODEL 4
REMARK VINA RESULT:      -6.9      3.735      4.802
REMARK  6 active torsions:
REMARK  status: ('A' for Active; 'I' for Inactive)
REMARK    1  A    between atoms: N_1  and  C_5 
REMARK    2  A    between atoms: N_3  and  C_14 
REMARK    3  A    between atoms: N_4  and  C_20 
REMARK    4  A    between atoms: C_12  and  C_14 
REMARK    5  A    between atoms: C_12  and  O_29 
REMARK    6  A    between atoms: C_15  and  C_20 
ROOT
HETATM    1  C   UNL     1     -39.067 -48.641  13.382  1.00  0.00     0.122 A 
HETATM    2  N   UNL     1     -37.974 -49.303  15.157  1.00  0.00    -0.324 N 
HETATM    3  C   UNL     1     -39.399 -48.666  12.005  1.00  0.00     0.137 A 
HETATM    4  C   UNL     1     -38.011 -49.440  13.796  1.00  0.00     0.140 A 
HETATM    5  N   UNL     1     -39.620 -47.979  14.466  1.00  0.00    -0.346 N 
ATOM      6  HN  UNL     1     -40.391 -47.310  14.458  1.00  0.00     0.167 HD
HETATM    7  C   UNL     1     -38.936 -48.399  15.507  1.00  0.00     0.185 A 
HETATM    8  N   UNL     1     -37.224 -50.221  13.036  1.00  0.00    -0.336 N 
ATOM      9  HN  UNL     1     -36.454 -50.789  13.388  1.00  0.00     0.168 HD
HETATM   10  N   UNL     1     -38.622 -49.452  11.203  1.00  0.00    -0.337 N 
ATOM     11  HN  UNL     1     -38.813 -49.513  10.203  1.00  0.00     0.168 HD
HETATM   12  C   UNL     1     -37.597 -50.148  11.743  1.00  0.00     0.183 A 
ENDROOT
BRANCH   3  13
HETATM   13  N   UNL     1     -40.423 -47.956  11.438  1.00  0.00    -0.340 N 
HETATM   14  C   UNL     1     -41.625 -48.549  10.906  1.00  0.00     0.254 C 
HETATM   15  N   UNL     1     -42.418 -47.387  10.598  1.00  0.00    -0.326 N 
HETATM   16  C   UNL     1     -41.661 -46.228  10.521  1.00  0.00     0.239 C 
HETATM   17  C   UNL     1     -40.273 -46.564  11.036  1.00  0.00     0.229 C 
HETATM   18  O   UNL     1     -42.053 -45.146  10.112  1.00  0.00    -0.271 OA
BRANCH  15  19
HETATM   19  C   UNL     1     -43.778 -47.482  10.079  1.00  0.00     0.245 C 
BRANCH  19  20
HETATM   20  C   UNL     1     -43.925 -47.529   8.555  1.00  0.00     0.403 C 
HETATM   21  F   UNL     1     -45.077 -48.112   8.159  1.00  0.00    -0.169 F 
HETATM   22  F   UNL     1     -43.923 -46.271   8.049  1.00  0.00    -0.169 F 
HETATM   23  F   UNL     1     -42.900 -48.193   7.976  1.00  0.00    -0.169 F 
ENDBRANCH  19  20
ENDBRANCH  15  19
ENDBRANCH   3  13
BRANCH   2  24
HETATM   24  C   UNL     1     -37.203 -50.128  16.068  1.00  0.00     0.172 C 
BRANCH  24  25
HETATM   25  C   UNL     1     -35.905 -49.496  16.585  1.00  0.00     0.102 C 
HETATM   26  C   UNL     1     -35.781 -49.615  18.123  1.00  0.00     0.153 C 
HETATM   27  O   UNL     1     -34.994 -48.489  18.571  1.00  0.00    -0.383 OA
HETATM   28  C   UNL     1     -35.135 -50.889  18.640  1.00  0.00     0.042 C 
HETATM   29  C   UNL     1     -34.784 -47.619  17.452  1.00  0.00     0.171 C 
HETATM   30  C   UNL     1     -35.836 -47.987  16.425  1.00  0.00     0.068 C 
BRANCH  25  31
HETATM   31  O   UNL     1     -34.758 -50.049  15.925  1.00  0.00    -0.385 OA
HETATM   32  H   UNL     1     -33.984 -49.994  16.517  1.00  0.00     0.210 HD
ENDBRANCH  25  31
ENDBRANCH  24  25
ENDBRANCH   2  24
TORSDOF 6
ENDMDL
MODEL 5
REMARK VINA RESULT:      -6.9      3.618      8.561
REMARK  6 active torsions:
REMARK  status: ('A' for Active; 'I' for Inactive)
REMARK    1  A    between atoms: N_1  and  C_5 
REMARK    2  A    between atoms: N_3  and  C_14 
REMARK    3  A    between atoms: N_4  and  C_20 
REMARK    4  A    between atoms: C_12  and  C_14 
REMARK    5  A    between atoms: C_12  and  O_29 
REMARK    6  A    between atoms: C_15  and  C_20 
ROOT
HETATM    1  C   UNL     1     -40.669 -47.499  11.860  1.00  0.00     0.122 A 
HETATM    2  N   UNL     1     -40.370 -45.354  11.548  1.00  0.00    -0.324 N 
HETATM    3  C   UNL     1     -41.151 -48.783  11.509  1.00  0.00     0.137 A 
HETATM    4  C   UNL     1     -41.043 -46.436  11.050  1.00  0.00     0.140 A 
HETATM    5  N   UNL     1     -39.832 -47.057  12.873  1.00  0.00    -0.346 N 
ATOM      6  HN  UNL     1     -39.423 -47.611  13.625  1.00  0.00     0.167 HD
HETATM    7  C   UNL     1     -39.682 -45.770  12.653  1.00  0.00     0.185 A 
HETATM    8  N   UNL     1     -41.852 -46.466   9.977  1.00  0.00    -0.336 N 
ATOM      9  HN  UNL     1     -42.103 -45.653   9.414  1.00  0.00     0.168 HD
HETATM   10  N   UNL     1     -41.974 -48.852  10.421  1.00  0.00    -0.337 N 
ATOM     11  HN  UNL     1     -42.350 -49.750  10.118  1.00  0.00     0.168 HD
HETATM   12  C   UNL     1     -42.285 -47.722   9.749  1.00  0.00     0.183 A 
ENDROOT
BRANCH   3  13
HETATM   13  N   UNL     1     -40.859 -49.936  12.187  1.00  0.00    -0.340 N 
HETATM   14  C   UNL     1     -41.764 -50.594  13.097  1.00  0.00     0.254 C 
HETATM   15  N   UNL     1     -41.054 -51.811  13.394  1.00  0.00    -0.326 N 
HETATM   16  C   UNL     1     -39.705 -51.734  13.080  1.00  0.00     0.239 C 
HETATM   17  C   UNL     1     -39.500 -50.450  12.296  1.00  0.00     0.229 C 
HETATM   18  O   UNL     1     -38.854 -52.555  13.385  1.00  0.00    -0.271 OA
BRANCH  15  19
HETATM   19  C   UNL     1     -41.611 -52.855  14.247  1.00  0.00     0.245 C 
BRANCH  19  20
HETATM   20  C   UNL     1     -42.136 -54.107  13.538  1.00  0.00     0.403 C 
HETATM   21  F   UNL     1     -42.543 -55.065  14.399  1.00  0.00    -0.169 F 
HETATM   22  F   UNL     1     -43.203 -53.790  12.764  1.00  0.00    -0.169 F 
HETATM   23  F   UNL     1     -41.201 -54.647  12.724  1.00  0.00    -0.169 F 
ENDBRANCH  19  20
ENDBRANCH  15  19
ENDBRANCH   3  13
BRANCH   2  24
HETATM   24  C   UNL     1     -40.242 -44.065  10.895  1.00  0.00     0.172 C 
BRANCH  24  25
HETATM   25  C   UNL     1     -41.189 -42.973  11.410  1.00  0.00     0.102 C 
HETATM   26  C   UNL     1     -40.768 -42.463  12.809  1.00  0.00     0.153 C 
HETATM   27  O   UNL     1     -41.970 -42.020  13.476  1.00  0.00    -0.383 OA
HETATM   28  C   UNL     1     -39.763 -41.323  12.825  1.00  0.00     0.042 C 
HETATM   29  C   UNL     1     -43.091 -42.383  12.660  1.00  0.00     0.171 C 
HETATM   30  C   UNL     1     -42.596 -43.457  11.713  1.00  0.00     0.068 C 
BRANCH  25  31
HETATM   31  O   UNL     1     -41.298 -41.894  10.473  1.00  0.00    -0.385 OA
HETATM   32  H   UNL     1     -41.206 -41.044  10.943  1.00  0.00     0.210 HD
ENDBRANCH  25  31
ENDBRANCH  24  25
ENDBRANCH   2  24
TORSDOF 6
ENDMDL
MODEL 6
REMARK VINA RESULT:      -6.8      2.563      3.030
REMARK  6 active torsions:
REMARK  status: ('A' for Active; 'I' for Inactive)
REMARK    1  A    between atoms: N_1  and  C_5 
REMARK    2  A    between atoms: N_3  and  C_14 
REMARK    3  A    between atoms: N_4  and  C_20 
REMARK    4  A    between atoms: C_12  and  C_14 
REMARK    5  A    between atoms: C_12  and  O_29 
REMARK    6  A    between atoms: C_15  and  C_20 
ROOT
HETATM    1  C   UNL     1     -41.936 -49.765  11.995  1.00  0.00     0.122 A 
HETATM    2  N   UNL     1     -42.217 -51.777  12.805  1.00  0.00    -0.324 N 
HETATM    3  C   UNL     1     -41.208 -48.747  11.332  1.00  0.00     0.137 A 
HETATM    4  C   UNL     1     -41.270 -50.952  12.261  1.00  0.00     0.140 A 
HETATM    5  N   UNL     1     -43.250 -49.845  12.428  1.00  0.00    -0.346 N 
ATOM      6  HN  UNL     1     -43.964 -49.118  12.384  1.00  0.00     0.167 HD
HETATM    7  C   UNL     1     -43.376 -51.062  12.909  1.00  0.00     0.185 A 
HETATM    8  N   UNL     1     -39.986 -51.251  12.000  1.00  0.00    -0.336 N 
ATOM      9  HN  UNL     1     -39.539 -52.140  12.221  1.00  0.00     0.168 HD
HETATM   10  N   UNL     1     -39.900 -49.017  11.047  1.00  0.00    -0.337 N 
ATOM     11  HN  UNL     1     -39.325 -48.324  10.569  1.00  0.00     0.168 HD
HETATM   12  C   UNL     1     -39.373 -50.209  11.404  1.00  0.00     0.183 A 
ENDROOT
BRANCH   3  13
HETATM   13  N   UNL     1     -41.721 -47.528  10.977  1.00  0.00    -0.340 N 
HETATM   14  C   UNL     1     -41.671 -46.352  11.811  1.00  0.00     0.254 C 
HETATM   15  N   UNL     1     -42.180 -45.338  10.924  1.00  0.00    -0.326 N 
HETATM   16  C   UNL     1     -42.871 -45.868   9.846  1.00  0.00     0.239 C 
HETATM   17  C   UNL     1     -42.637 -47.368   9.856  1.00  0.00     0.229 C 
HETATM   18  O   UNL     1     -43.541 -45.232   9.046  1.00  0.00    -0.271 OA
BRANCH  15  19
HETATM   19  C   UNL     1     -42.264 -43.932  11.307  1.00  0.00     0.245 C 
BRANCH  19  20
HETATM   20  C   UNL     1     -40.947 -43.151  11.324  1.00  0.00     0.403 C 
HETATM   21  F   UNL     1     -40.062 -43.596  10.406  1.00  0.00    -0.169 F 
HETATM   22  F   UNL     1     -41.180 -41.843  11.048  1.00  0.00    -0.169 F 
HETATM   23  F   UNL     1     -40.352 -43.202  12.537  1.00  0.00    -0.169 F 
ENDBRANCH  19  20
ENDBRANCH  15  19
ENDBRANCH   3  13
BRANCH   2  24
HETATM   24  C   UNL     1     -42.069 -53.204  13.022  1.00  0.00     0.172 C 
BRANCH  24  25
HETATM   25  C   UNL     1     -41.684 -53.612  14.450  1.00  0.00     0.102 C 
HETATM   26  C   UNL     1     -40.302 -54.306  14.495  1.00  0.00     0.153 C 
HETATM   27  O   UNL     1     -40.322 -55.216  15.617  1.00  0.00    -0.383 OA
HETATM   28  C   UNL     1     -39.102 -53.386  14.644  1.00  0.00     0.042 C 
HETATM   29  C   UNL     1     -41.656 -55.248  16.139  1.00  0.00     0.171 C 
HETATM   30  C   UNL     1     -42.554 -54.706  15.044  1.00  0.00     0.068 C 
BRANCH  25  31
HETATM   31  O   UNL     1     -41.734 -52.492  15.343  1.00  0.00    -0.385 OA
HETATM   32  H   UNL     1     -42.626 -52.426  15.733  1.00  0.00     0.210 HD
ENDBRANCH  25  31
ENDBRANCH  24  25
ENDBRANCH   2  24
TORSDOF 6
ENDMDL
MODEL 7
REMARK VINA RESULT:      -6.6      3.378      7.868
REMARK  6 active torsions:
REMARK  status: ('A' for Active; 'I' for Inactive)
REMARK    1  A    between atoms: N_1  and  C_5 
REMARK    2  A    between atoms: N_3  and  C_14 
REMARK    3  A    between atoms: N_4  and  C_20 
REMARK    4  A    between atoms: C_12  and  C_14 
REMARK    5  A    between atoms: C_12  and  O_29 
REMARK    6  A    between atoms: C_15  and  C_20 
ROOT
HETATM    1  C   UNL     1     -42.106 -49.603  12.082  1.00  0.00     0.122 A 
HETATM    2  N   UNL     1     -42.028 -47.739  10.938  1.00  0.00    -0.324 N 
HETATM    3  C   UNL     1     -41.539 -50.739  12.708  1.00  0.00     0.137 A 
HETATM    4  C   UNL     1     -41.256 -48.796  11.339  1.00  0.00     0.140 A 
HETATM    5  N   UNL     1     -43.388 -49.078  12.079  1.00  0.00    -0.346 N 
ATOM      6  HN  UNL     1     -44.221 -49.468  12.521  1.00  0.00     0.167 HD
HETATM    7  C   UNL     1     -43.300 -47.967  11.381  1.00  0.00     0.185 A 
HETATM    8  N   UNL     1     -39.946 -48.982  11.102  1.00  0.00    -0.336 N 
ATOM      9  HN  UNL     1     -39.362 -48.361  10.542  1.00  0.00     0.168 HD
HETATM   10  N   UNL     1     -40.209 -50.957  12.492  1.00  0.00    -0.337 N 
ATOM     11  HN  UNL     1     -39.743 -51.758  12.919  1.00  0.00     0.168 HD
HETATM   12  C   UNL     1     -39.513 -50.104  11.708  1.00  0.00     0.183 A 
ENDROOT
BRANCH   3  13
HETATM   13  N   UNL     1     -42.232 -51.623  13.492  1.00  0.00    -0.340 N 
HETATM   14  C   UNL     1     -42.832 -52.841  13.006  1.00  0.00     0.254 C 
HETATM   15  N   UNL     1     -43.273 -53.463  14.228  1.00  0.00    -0.326 N 
HETATM   16  C   UNL     1     -43.348 -52.569  15.286  1.00  0.00     0.239 C 
HETATM   17  C   UNL     1     -42.696 -51.276  14.829  1.00  0.00     0.229 C 
HETATM   18  O   UNL     1     -43.849 -52.796  16.377  1.00  0.00    -0.271 OA
BRANCH  15  19
HETATM   19  C   UNL     1     -43.901 -54.779  14.256  1.00  0.00     0.245 C 
BRANCH  19  20
HETATM   20  C   UNL     1     -45.420 -54.813  14.063  1.00  0.00     0.403 C 
HETATM   21  F   UNL     1     -46.098 -54.542  15.199  1.00  0.00    -0.169 F 
HETATM   22  F   UNL     1     -45.794 -53.885  13.147  1.00  0.00    -0.169 F 
HETATM   23  F   UNL     1     -45.837 -56.015  13.604  1.00  0.00    -0.169 F 
ENDBRANCH  19  20
ENDBRANCH  15  19
ENDBRANCH   3  13
BRANCH   2  24
HETATM   24  C   UNL     1     -41.534 -46.511  10.345  1.00  0.00     0.172 C 
BRANCH  24  25
HETATM   25  C   UNL     1     -40.939 -45.500  11.334  1.00  0.00     0.102 C 
HETATM   26  C   UNL     1     -42.032 -44.615  11.978  1.00  0.00     0.153 C 
HETATM   27  O   UNL     1     -41.415 -43.349  12.301  1.00  0.00    -0.383 OA
HETATM   28  C   UNL     1     -42.678 -45.169  13.237  1.00  0.00     0.042 C 
HETATM   29  C   UNL     1     -40.093 -43.345  11.748  1.00  0.00     0.171 C 
HETATM   30  C   UNL     1     -40.072 -44.432  10.691  1.00  0.00     0.068 C 
BRANCH  25  31
HETATM   31  O   UNL     1     -40.144 -46.155  12.332  1.00  0.00    -0.385 OA
HETATM   32  H   UNL     1     -40.689 -46.811  12.804  1.00  0.00     0.210 HD
ENDBRANCH  25  31
ENDBRANCH  24  25
ENDBRANCH   2  24
TORSDOF 6
ENDMDL
MODEL 8
REMARK VINA RESULT:      -6.5      1.586      2.105
REMARK  6 active torsions:
REMARK  status: ('A' for Active; 'I' for Inactive)
REMARK    1  A    between atoms: N_1  and  C_5 
REMARK    2  A    between atoms: N_3  and  C_14 
REMARK    3  A    between atoms: N_4  and  C_20 
REMARK    4  A    between atoms: C_12  and  C_14 
REMARK    5  A    between atoms: C_12  and  O_29 
REMARK    6  A    between atoms: C_15  and  C_20 
ROOT
HETATM    1  C   UNL     1     -39.660 -49.981  13.053  1.00  0.00     0.122 A 
HETATM    2  N   UNL     1     -39.161 -51.547  14.498  1.00  0.00    -0.324 N 
HETATM    3  C   UNL     1     -39.467 -49.232  11.868  1.00  0.00     0.137 A 
HETATM    4  C   UNL     1     -38.682 -50.907  13.387  1.00  0.00     0.140 A 
HETATM    5  N   UNL     1     -40.687 -50.014  13.983  1.00  0.00    -0.346 N 
ATOM      6  HN  UNL     1     -41.524 -49.431  14.005  1.00  0.00     0.167 HD
HETATM    7  C   UNL     1     -40.349 -50.960  14.831  1.00  0.00     0.185 A 
HETATM    8  N   UNL     1     -37.533 -51.159  12.736  1.00  0.00    -0.336 N 
ATOM      9  HN  UNL     1     -36.840 -51.849  13.025  1.00  0.00     0.168 HD
HETATM   10  N   UNL     1     -38.311 -49.465  11.178  1.00  0.00    -0.337 N 
ATOM     11  HN  UNL     1     -38.117 -48.957  10.315  1.00  0.00     0.168 HD
HETATM   12  C   UNL     1     -37.427 -50.372  11.647  1.00  0.00     0.183 A 
ENDROOT
BRANCH   3  13
HETATM   13  N   UNL     1     -40.344 -48.297  11.385  1.00  0.00    -0.340 N 
HETATM   14  C   UNL     1     -41.627 -48.611  10.806  1.00  0.00     0.254 C 
HETATM   15  N   UNL     1     -42.199 -47.302  10.626  1.00  0.00    -0.326 N 
HETATM   16  C   UNL     1     -41.248 -46.293  10.663  1.00  0.00     0.239 C 
HETATM   17  C   UNL     1     -39.947 -46.920  11.128  1.00  0.00     0.229 C 
HETATM   18  O   UNL     1     -41.440 -45.122  10.371  1.00  0.00    -0.271 OA
BRANCH  15  19
HETATM   19  C   UNL     1     -43.550 -47.100  10.112  1.00  0.00     0.245 C 
BRANCH  19  20
HETATM   20  C   UNL     1     -43.720 -47.180   8.592  1.00  0.00     0.403 C 
HETATM   21  F   UNL     1     -42.991 -48.172   8.035  1.00  0.00    -0.169 F 
HETATM   22  F   UNL     1     -45.019 -47.421   8.282  1.00  0.00    -0.169 F 
HETATM   23  F   UNL     1     -43.376 -46.020   7.991  1.00  0.00    -0.169 F 
ENDBRANCH  19  20
ENDBRANCH  15  19
ENDBRANCH   3  13
BRANCH   2  24
HETATM   24  C   UNL     1     -38.614 -52.760  15.075  1.00  0.00     0.172 C 
BRANCH  24  25
HETATM   25  C   UNL     1     -39.537 -53.984  15.021  1.00  0.00     0.102 C 
HETATM   26  C   UNL     1     -40.829 -53.694  14.221  1.00  0.00     0.153 C 
HETATM   27  O   UNL     1     -41.863 -54.544  14.764  1.00  0.00    -0.383 OA
HETATM   28  C   UNL     1     -40.749 -53.934  12.722  1.00  0.00     0.042 C 
HETATM   29  C   UNL     1     -41.339 -55.190  15.932  1.00  0.00     0.171 C 
HETATM   30  C   UNL     1     -40.134 -54.378  16.362  1.00  0.00     0.068 C 
BRANCH  25  31
HETATM   31  O   UNL     1     -38.850 -55.131  14.504  1.00  0.00    -0.385 OA
HETATM   32  H   UNL     1     -38.303 -54.867  13.741  1.00  0.00     0.210 HD
ENDBRANCH  25  31
ENDBRANCH  24  25
ENDBRANCH   2  24
TORSDOF 6
ENDMDL
MODEL 9
REMARK VINA RESULT:      -6.4      3.031      7.753
REMARK  6 active torsions:
REMARK  status: ('A' for Active; 'I' for Inactive)
REMARK    1  A    between atoms: N_1  and  C_5 
REMARK    2  A    between atoms: N_3  and  C_14 
REMARK    3  A    between atoms: N_4  and  C_20 
REMARK    4  A    between atoms: C_12  and  C_14 
REMARK    5  A    between atoms: C_12  and  O_29 
REMARK    6  A    between atoms: C_15  and  C_20 
ROOT
HETATM    1  C   UNL     1     -41.132 -48.884  11.763  1.00  0.00     0.122 A 
HETATM    2  N   UNL     1     -41.290 -46.941  10.771  1.00  0.00    -0.324 N 
HETATM    3  C   UNL     1     -40.603 -49.792  12.712  1.00  0.00     0.137 A 
HETATM    4  C   UNL     1     -40.532 -47.636  11.675  1.00  0.00     0.140 A 
HETATM    5  N   UNL     1     -42.197 -48.967  10.881  1.00  0.00    -0.346 N 
ATOM      6  HN  UNL     1     -42.804 -49.770  10.714  1.00  0.00     0.167 HD
HETATM    7  C   UNL     1     -42.256 -47.787  10.305  1.00  0.00     0.185 A 
HETATM    8  N   UNL     1     -39.468 -47.185  12.361  1.00  0.00    -0.336 N 
ATOM      9  HN  UNL     1     -39.059 -46.257  12.256  1.00  0.00     0.168 HD
HETATM   10  N   UNL     1     -39.522 -49.366  13.430  1.00  0.00    -0.337 N 
ATOM     11  HN  UNL     1     -39.098 -49.975  14.130  1.00  0.00     0.168 HD
HETATM   12  C   UNL     1     -39.018 -48.133  13.207  1.00  0.00     0.183 A 
ENDROOT
BRANCH   3  13
HETATM   13  N   UNL     1     -41.090 -51.052  12.940  1.00  0.00    -0.340 N 
HETATM   14  C   UNL     1     -42.258 -51.338  13.736  1.00  0.00     0.254 C 
HETATM   15  N   UNL     1     -42.426 -52.752  13.520  1.00  0.00    -0.326 N 
HETATM   16  C   UNL     1     -41.279 -53.357  13.028  1.00  0.00     0.239 C 
HETATM   17  C   UNL     1     -40.309 -52.249  12.660  1.00  0.00     0.229 C 
HETATM   18  O   UNL     1     -41.099 -54.561  12.919  1.00  0.00    -0.271 OA
BRANCH  15  19
HETATM   19  C   UNL     1     -43.540 -53.505  14.085  1.00  0.00     0.245 C 
BRANCH  19  20
HETATM   20  C   UNL     1     -44.729 -53.764  13.155  1.00  0.00     0.403 C 
HETATM   21  F   UNL     1     -45.799 -52.994  13.446  1.00  0.00    -0.169 F 
HETATM   22  F   UNL     1     -44.383 -53.494  11.872  1.00  0.00    -0.169 F 
HETATM   23  F   UNL     1     -45.121 -55.057  13.197  1.00  0.00    -0.169 F 
ENDBRANCH  19  20
ENDBRANCH  15  19
ENDBRANCH   3  13
BRANCH   2  24
HETATM   24  C   UNL     1     -41.211 -45.513  10.526  1.00  0.00     0.172 C 
BRANCH  24  25
HETATM   25  C   UNL     1     -42.011 -44.637  11.498  1.00  0.00     0.102 C 
HETATM   26  C   UNL     1     -41.119 -43.565  12.169  1.00  0.00     0.153 C 
HETATM   27  O   UNL     1     -41.698 -43.285  13.463  1.00  0.00    -0.383 OA
HETATM   28  C   UNL     1     -40.976 -42.254  11.415  1.00  0.00     0.042 C 
HETATM   29  C   UNL     1     -42.757 -44.223  13.690  1.00  0.00     0.171 C 
HETATM   30  C   UNL     1     -42.522 -45.370  12.726  1.00  0.00     0.068 C 
BRANCH  25  31
HETATM   31  O   UNL     1     -43.144 -44.042  10.851  1.00  0.00    -0.385 OA
HETATM   32  H   UNL     1     -43.596 -43.442  11.474  1.00  0.00     0.210 HD
ENDBRANCH  25  31
ENDBRANCH  24  25
ENDBRANCH   2  24
TORSDOF 6
ENDMDL
