MODEL 1
REMARK VINA RESULT:      -5.9      0.000      0.000
REMARK  7 active torsions:
REMARK  status: ('A' for Active; 'I' for Inactive)
REMARK    1  A    between atoms: C_2  and  N_3 
REMARK    2  A    between atoms: C_2  and  C_13 
REMARK    3  A    between atoms: N_3  and  C_4 
REMARK    4  A    between atoms: C_4  and  C_5 
REMARK       I    between atoms: C_5  and  N_7 
REMARK    5  A    between atoms: N_7  and  C_8 
REMARK    6  A    between atoms: C_8  and  C_9 
REMARK    7  A    between atoms: C_13  and  N_15 
ROOT
HETATM    1  N   UNL     1     -42.038 -48.776  10.462  1.00  0.00     0.098 N 
HETATM    2  H   UNL     1     -43.041 -48.977  10.489  1.00  0.00     0.317 HD
ENDROOT
BRANCH   1   3
HETATM    3  C   UNL     1     -41.421 -49.286  11.715  1.00  0.00     0.241 C 
HETATM    4  C   UNL     1     -41.152 -48.120  12.681  1.00  0.00     0.045 C 
BRANCH   3   5
HETATM    5  C   UNL     1     -40.166 -50.194  11.507  1.00  0.00     0.136 C 
HETATM    6  C   UNL     1     -38.863 -49.569  12.024  1.00  0.00     0.036 C 
BRANCH   5   7
HETATM    7  N   UNL     1     -40.347 -51.517  12.106  1.00  0.00    -0.297 N 
HETATM    8  C   UNL     1     -39.886 -51.923  13.329  1.00  0.00     0.112 A 
HETATM    9  C   UNL     1     -40.323 -53.218  13.491  1.00  0.00     0.037 A 
HETATM   10  C   UNL     1     -41.050 -53.498  12.321  1.00  0.00     0.108 A 
HETATM   11  N   UNL     1     -41.083 -52.461  11.481  1.00  0.00    -0.310 N 
ATOM     12  HN  UNL     1     -41.553 -52.396  10.577  1.00  0.00     0.186 HD
ENDBRANCH   5   7
ENDBRANCH   3   5
ENDBRANCH   1   3
BRANCH   1  13
HETATM   13  C   UNL     1     -41.862 -47.325  10.244  1.00  0.00     0.372 C 
BRANCH  13  14
HETATM   14  C   UNL     1     -43.108 -46.732   9.581  1.00  0.00     0.246 C 
HETATM   15  O   UNL     1     -43.102 -45.650   9.006  1.00  0.00    -0.272 OA
HETATM   16  N   UNL     1     -44.213 -47.553   9.619  1.00  0.00    -0.351 N 
HETATM   17  H   UNL     1     -44.168 -48.315  10.295  1.00  0.00     0.162 HD
BRANCH  16  18
HETATM   18  C   UNL     1     -45.496 -47.095   9.099  1.00  0.00     0.240 C 
BRANCH  18  19
HETATM   19  C   UNL     1     -46.566 -48.177   8.896  1.00  0.00     0.403 C 
HETATM   20  F   UNL     1     -47.822 -47.682   8.974  1.00  0.00    -0.169 F 
HETATM   21  F   UNL     1     -46.437 -48.797   7.702  1.00  0.00    -0.169 F 
HETATM   22  F   UNL     1     -46.455 -49.129   9.856  1.00  0.00    -0.169 F 
ENDBRANCH  18  19
ENDBRANCH  16  18
ENDBRANCH  13  14
ENDBRANCH   1  13
TORSDOF 7
ENDMDL
MODEL 2
REMARK VINA RESULT:      -5.9      2.801      3.522
REMARK  7 active torsions:
REMARK  status: ('A' for Active; 'I' for Inactive)
REMARK    1  A    between atoms: C_2  and  N_3 
REMARK    2  A    between atoms: C_2  and  C_13 
REMARK    3  A    between atoms: N_3  and  C_4 
REMARK    4  A    between atoms: C_4  and  C_5 
REMARK       I    between atoms: C_5  and  N_7 
REMARK    5  A    between atoms: N_7  and  C_8 
REMARK    6  A    between atoms: C_8  and  C_9 
REMARK    7  A    between atoms: C_13  and  N_15 
ROOT
HETATM    1  N   UNL     1     -42.059 -50.256  11.725  1.00  0.00     0.098 N 
HETATM    2  H   UNL     1     -42.650 -50.618  10.971  1.00  0.00     0.317 HD
ENDROOT
BRANCH   1   3
HETATM    3  C   UNL     1     -42.136 -51.195  12.876  1.00  0.00     0.241 C 
HETATM    4  C   UNL     1     -40.720 -51.579  13.335  1.00  0.00     0.045 C 
BRANCH   3   5
HETATM    5  C   UNL     1     -43.051 -52.441  12.647  1.00  0.00     0.136 C 
HETATM    6  C   UNL     1     -42.595 -53.687  13.416  1.00  0.00     0.036 C 
BRANCH   5   7
HETATM    7  N   UNL     1     -44.451 -52.152  12.964  1.00  0.00    -0.297 N 
HETATM    8  C   UNL     1     -44.910 -51.485  14.067  1.00  0.00     0.112 A 
HETATM    9  C   UNL     1     -46.277 -51.413  13.928  1.00  0.00     0.037 A 
HETATM   10  C   UNL     1     -46.545 -52.053  12.705  1.00  0.00     0.108 A 
HETATM   11  N   UNL     1     -45.435 -52.490  12.105  1.00  0.00    -0.310 N 
ATOM     12  HN  UNL     1     -45.351 -52.968  11.208  1.00  0.00     0.186 HD
ENDBRANCH   5   7
ENDBRANCH   3   5
ENDBRANCH   1   3
BRANCH   1  13
HETATM   13  C   UNL     1     -42.495 -48.878  12.033  1.00  0.00     0.372 C 
BRANCH  13  14
HETATM   14  C   UNL     1     -42.983 -48.178  10.762  1.00  0.00     0.246 C 
HETATM   15  O   UNL     1     -42.219 -47.747   9.907  1.00  0.00    -0.272 OA
HETATM   16  N   UNL     1     -44.353 -48.146  10.627  1.00  0.00    -0.351 N 
HETATM   17  H   UNL     1     -44.880 -48.333  11.479  1.00  0.00     0.162 HD
BRANCH  16  18
HETATM   18  C   UNL     1     -44.972 -47.443   9.508  1.00  0.00     0.240 C 
BRANCH  18  19
HETATM   19  C   UNL     1     -46.290 -48.034   8.988  1.00  0.00     0.403 C 
HETATM   20  F   UNL     1     -46.707 -49.091   9.722  1.00  0.00    -0.169 F 
HETATM   21  F   UNL     1     -47.283 -47.118   8.975  1.00  0.00    -0.169 F 
HETATM   22  F   UNL     1     -46.134 -48.474   7.715  1.00  0.00    -0.169 F 
ENDBRANCH  18  19
ENDBRANCH  16  18
ENDBRANCH  13  14
ENDBRANCH   1  13
TORSDOF 7
ENDMDL
MODEL 3
REMARK VINA RESULT:      -5.8      3.454      5.762
REMARK  7 active torsions:
REMARK  status: ('A' for Active; 'I' for Inactive)
REMARK    1  A    between atoms: C_2  and  N_3 
REMARK    2  A    between atoms: C_2  and  C_13 
REMARK    3  A    between atoms: N_3  and  C_4 
REMARK    4  A    between atoms: C_4  and  C_5 
REMARK       I    between atoms: C_5  and  N_7 
REMARK    5  A    between atoms: N_7  and  C_8 
REMARK    6  A    between atoms: C_8  and  C_9 
REMARK    7  A    between atoms: C_13  and  N_15 
ROOT
HETATM    1  N   UNL     1     -42.195 -50.162  11.783  1.00  0.00     0.098 N 
HETATM    2  H   UNL     1     -42.957 -50.322  11.118  1.00  0.00     0.317 HD
ENDROOT
BRANCH   1   3
HETATM    3  C   UNL     1     -41.268 -49.153  11.205  1.00  0.00     0.241 C 
HETATM    4  C   UNL     1     -39.952 -49.133  12.000  1.00  0.00     0.045 C 
BRANCH   3   5
HETATM    5  C   UNL     1     -41.881 -47.726  11.024  1.00  0.00     0.136 C 
HETATM    6  C   UNL     1     -40.834 -46.639  10.749  1.00  0.00     0.036 C 
BRANCH   5   7
HETATM    7  N   UNL     1     -42.901 -47.703   9.975  1.00  0.00    -0.297 N 
HETATM    8  C   UNL     1     -44.221 -47.380  10.136  1.00  0.00     0.112 A 
HETATM    9  C   UNL     1     -44.788 -47.453   8.884  1.00  0.00     0.037 A 
HETATM   10  C   UNL     1     -43.728 -47.813   8.034  1.00  0.00     0.108 A 
HETATM   11  N   UNL     1     -42.572 -47.950   8.690  1.00  0.00    -0.310 N 
ATOM     12  HN  UNL     1     -41.656 -48.186   8.308  1.00  0.00     0.186 HD
ENDBRANCH   5   7
ENDBRANCH   3   5
ENDBRANCH   1   3
BRANCH   1  13
HETATM   13  C   UNL     1     -41.565 -51.463  12.086  1.00  0.00     0.372 C 
BRANCH  13  14
HETATM   14  C   UNL     1     -42.603 -52.439  12.649  1.00  0.00     0.246 C 
HETATM   15  O   UNL     1     -42.302 -53.387  13.364  1.00  0.00    -0.272 OA
HETATM   16  N   UNL     1     -43.906 -52.112  12.347  1.00  0.00    -0.351 N 
HETATM   17  H   UNL     1     -44.023 -51.446  11.584  1.00  0.00     0.162 HD
BRANCH  16  18
HETATM   18  C   UNL     1     -45.001 -52.989  12.746  1.00  0.00     0.240 C 
BRANCH  18  19
HETATM   19  C   UNL     1     -46.320 -52.294  13.115  1.00  0.00     0.403 C 
HETATM   20  F   UNL     1     -47.076 -53.035  13.956  1.00  0.00    -0.169 F 
HETATM   21  F   UNL     1     -46.112 -51.090  13.693  1.00  0.00    -0.169 F 
HETATM   22  F   UNL     1     -47.062 -52.080  12.000  1.00  0.00    -0.169 F 
ENDBRANCH  18  19
ENDBRANCH  16  18
ENDBRANCH  13  14
ENDBRANCH   1  13
TORSDOF 7
ENDMDL
MODEL 4
REMARK VINA RESULT:      -5.7      4.672      5.751
REMARK  7 active torsions:
REMARK  status: ('A' for Active; 'I' for Inactive)
REMARK    1  A    between atoms: C_2  and  N_3 
REMARK    2  A    between atoms: C_2  and  C_13 
REMARK    3  A    between atoms: N_3  and  C_4 
REMARK    4  A    between atoms: C_4  and  C_5 
REMARK       I    between atoms: C_5  and  N_7 
REMARK    5  A    between atoms: N_7  and  C_8 
REMARK    6  A    between atoms: C_8  and  C_9 
REMARK    7  A    between atoms: C_13  and  N_15 
ROOT
HETATM    1  N   UNL     1     -42.811 -52.637  12.021  1.00  0.00     0.098 N 
HETATM    2  H   UNL     1     -42.954 -52.659  11.007  1.00  0.00     0.317 HD
ENDROOT
BRANCH   1   3
HETATM    3  C   UNL     1     -41.349 -52.632  12.290  1.00  0.00     0.241 C 
HETATM    4  C   UNL     1     -40.918 -53.987  12.875  1.00  0.00     0.045 C 
BRANCH   3   5
HETATM    5  C   UNL     1     -40.842 -51.423  13.142  1.00  0.00     0.136 C 
HETATM    6  C   UNL     1     -40.996 -51.629  14.654  1.00  0.00     0.036 C 
BRANCH   5   7
HETATM    7  N   UNL     1     -39.453 -51.084  12.831  1.00  0.00    -0.297 N 
HETATM    8  C   UNL     1     -38.366 -51.306  13.632  1.00  0.00     0.112 A 
HETATM    9  C   UNL     1     -37.272 -50.868  12.923  1.00  0.00     0.037 A 
HETATM   10  C   UNL     1     -37.799 -50.411  11.702  1.00  0.00     0.108 A 
HETATM   11  N   UNL     1     -39.125 -50.556  11.633  1.00  0.00    -0.310 N 
ATOM     12  HN  UNL     1     -39.744 -50.322  10.857  1.00  0.00     0.186 HD
ENDBRANCH   5   7
ENDBRANCH   3   5
ENDBRANCH   1   3
BRANCH   1  13
HETATM   13  C   UNL     1     -43.535 -53.779  12.615  1.00  0.00     0.372 C 
BRANCH  13  14
HETATM   14  C   UNL     1     -44.966 -53.372  12.977  1.00  0.00     0.246 C 
HETATM   15  O   UNL     1     -45.812 -53.103  12.133  1.00  0.00    -0.272 OA
HETATM   16  N   UNL     1     -45.240 -53.411  14.326  1.00  0.00    -0.351 N 
HETATM   17  H   UNL     1     -44.424 -53.435  14.936  1.00  0.00     0.162 HD
BRANCH  16  18
HETATM   18  C   UNL     1     -46.536 -52.974  14.832  1.00  0.00     0.240 C 
BRANCH  18  19
HETATM   19  C   UNL     1     -46.732 -51.457  14.963  1.00  0.00     0.403 C 
HETATM   20  F   UNL     1     -47.638 -51.133  15.913  1.00  0.00    -0.169 F 
HETATM   21  F   UNL     1     -45.576 -50.822  15.256  1.00  0.00    -0.169 F 
HETATM   22  F   UNL     1     -47.185 -50.943  13.792  1.00  0.00    -0.169 F 
ENDBRANCH  18  19
ENDBRANCH  16  18
ENDBRANCH  13  14
ENDBRANCH   1  13
TORSDOF 7
ENDMDL
MODEL 5
REMARK VINA RESULT:      -5.6      1.420      1.897
REMARK  7 active torsions:
REMARK  status: ('A' for Active; 'I' for Inactive)
REMARK    1  A    between atoms: C_2  and  N_3 
REMARK    2  A    between atoms: C_2  and  C_13 
REMARK    3  A    between atoms: N_3  and  C_4 
REMARK    4  A    between atoms: C_4  and  C_5 
REMARK       I    between atoms: C_5  and  N_7 
REMARK    5  A    between atoms: N_7  and  C_8 
REMARK    6  A    between atoms: C_8  and  C_9 
REMARK    7  A    between atoms: C_13  and  N_15 
ROOT
HETATM    1  N   UNL     1     -40.470 -47.859  10.600  1.00  0.00     0.098 N 
HETATM    2  H   UNL     1     -41.085 -48.433  10.017  1.00  0.00     0.317 HD
ENDROOT
BRANCH   1   3
HETATM    3  C   UNL     1     -40.098 -48.643  11.807  1.00  0.00     0.241 C 
HETATM    4  C   UNL     1     -39.532 -47.707  12.887  1.00  0.00     0.045 C 
BRANCH   3   5
HETATM    5  C   UNL     1     -39.171 -49.872  11.533  1.00  0.00     0.136 C 
HETATM    6  C   UNL     1     -37.677 -49.523  11.518  1.00  0.00     0.036 C 
BRANCH   5   7
HETATM    7  N   UNL     1     -39.413 -50.957  12.484  1.00  0.00    -0.297 N 
HETATM    8  C   UNL     1     -40.505 -51.782  12.512  1.00  0.00     0.112 A 
HETATM    9  C   UNL     1     -40.287 -52.670  13.540  1.00  0.00     0.037 A 
HETATM   10  C   UNL     1     -39.033 -52.309  14.063  1.00  0.00     0.108 A 
HETATM   11  N   UNL     1     -38.488 -51.277  13.413  1.00  0.00    -0.310 N 
ATOM     12  HN  UNL     1     -37.584 -50.834  13.580  1.00  0.00     0.186 HD
ENDBRANCH   5   7
ENDBRANCH   3   5
ENDBRANCH   1   3
BRANCH   1  13
HETATM   13  C   UNL     1     -41.162 -46.587  10.890  1.00  0.00     0.372 C 
BRANCH  13  14
HETATM   14  C   UNL     1     -42.307 -46.365   9.897  1.00  0.00     0.246 C 
HETATM   15  O   UNL     1     -42.813 -45.267   9.704  1.00  0.00    -0.272 OA
HETATM   16  N   UNL     1     -42.662 -47.489   9.186  1.00  0.00    -0.351 N 
HETATM   17  H   UNL     1     -42.333 -48.373   9.573  1.00  0.00     0.162 HD
BRANCH  16  18
HETATM   18  C   UNL     1     -43.788 -47.455   8.260  1.00  0.00     0.240 C 
BRANCH  18  19
HETATM   19  C   UNL     1     -45.184 -47.557   8.892  1.00  0.00     0.403 C 
HETATM   20  F   UNL     1     -45.967 -48.467   8.270  1.00  0.00    -0.169 F 
HETATM   21  F   UNL     1     -45.122 -47.885  10.201  1.00  0.00    -0.169 F 
HETATM   22  F   UNL     1     -45.822 -46.363   8.808  1.00  0.00    -0.169 F 
ENDBRANCH  18  19
ENDBRANCH  16  18
ENDBRANCH  13  14
ENDBRANCH   1  13
TORSDOF 7
ENDMDL
MODEL 6
REMARK VINA RESULT:      -5.5      1.735      2.145
REMARK  7 active torsions:
REMARK  status: ('A' for Active; 'I' for Inactive)
REMARK    1  A    between atoms: C_2  and  N_3 
REMARK    2  A    between atoms: C_2  and  C_13 
REMARK    3  A    between atoms: N_3  and  C_4 
REMARK    4  A    between atoms: C_4  and  C_5 
REMARK       I    between atoms: C_5  and  N_7 
REMARK    5  A    between atoms: N_7  and  C_8 
REMARK    6  A    between atoms: C_8  and  C_9 
REMARK    7  A    between atoms: C_13  and  N_15 
ROOT
HETATM    1  N   UNL     1     -42.428 -49.296  11.387  1.00  0.00     0.098 N 
HETATM    2  H   UNL     1     -43.166 -48.924  11.992  1.00  0.00     0.317 HD
ENDROOT
BRANCH   1   3
HETATM    3  C   UNL     1     -41.375 -49.899  12.246  1.00  0.00     0.241 C 
HETATM    4  C   UNL     1     -41.994 -50.404  13.560  1.00  0.00     0.045 C 
BRANCH   3   5
HETATM    5  C   UNL     1     -40.122 -48.994  12.481  1.00  0.00     0.136 C 
HETATM    6  C   UNL     1     -40.105 -48.314  13.856  1.00  0.00     0.036 C 
BRANCH   5   7
HETATM    7  N   UNL     1     -38.874 -49.733  12.283  1.00  0.00    -0.297 N 
HETATM    8  C   UNL     1     -38.205 -50.462  13.229  1.00  0.00     0.112 A 
HETATM    9  C   UNL     1     -37.117 -51.010  12.591  1.00  0.00     0.037 A 
HETATM   10  C   UNL     1     -37.223 -50.566  11.261  1.00  0.00     0.108 A 
HETATM   11  N   UNL     1     -38.300 -49.802  11.063  1.00  0.00    -0.310 N 
ATOM     12  HN  UNL     1     -38.616 -49.371  10.194  1.00  0.00     0.186 HD
ENDBRANCH   5   7
ENDBRANCH   3   5
ENDBRANCH   1   3
BRANCH   1  13
HETATM   13  C   UNL     1     -41.951 -48.203  10.515  1.00  0.00     0.372 C 
BRANCH  13  14
HETATM   14  C   UNL     1     -43.127 -47.337  10.054  1.00  0.00     0.246 C 
HETATM   15  O   UNL     1     -43.226 -46.149  10.336  1.00  0.00    -0.272 OA
HETATM   16  N   UNL     1     -44.019 -47.989   9.232  1.00  0.00    -0.351 N 
HETATM   17  H   UNL     1     -43.958 -49.006   9.241  1.00  0.00     0.162 HD
BRANCH  16  18
HETATM   18  C   UNL     1     -45.232 -47.320   8.776  1.00  0.00     0.240 C 
BRANCH  18  19
HETATM   19  C   UNL     1     -46.516 -48.161   8.803  1.00  0.00     0.403 C 
HETATM   20  F   UNL     1     -47.617 -47.414   9.050  1.00  0.00    -0.169 F 
HETATM   21  F   UNL     1     -46.712 -48.821   7.641  1.00  0.00    -0.169 F 
HETATM   22  F   UNL     1     -46.442 -49.093   9.786  1.00  0.00    -0.169 F 
ENDBRANCH  18  19
ENDBRANCH  16  18
ENDBRANCH  13  14
ENDBRANCH   1  13
TORSDOF 7
ENDMDL
MODEL 7
REMARK VINA RESULT:      -5.5      4.090      6.396
REMARK  7 active torsions:
REMARK  status: ('A' for Active; 'I' for Inactive)
REMARK    1  A    between atoms: C_2  and  N_3 
REMARK    2  A    between atoms: C_2  and  C_13 
REMARK    3  A    between atoms: N_3  and  C_4 
REMARK    4  A    between atoms: C_4  and  C_5 
REMARK       I    between atoms: C_5  and  N_7 
REMARK    5  A    between atoms: N_7  and  C_8 
REMARK    6  A    between atoms: C_8  and  C_9 
REMARK    7  A    between atoms: C_13  and  N_15 
ROOT
HETATM    1  N   UNL     1     -40.923 -50.500  11.038  1.00  0.00     0.098 N 
HETATM    2  H   UNL     1     -40.212 -50.888  10.412  1.00  0.00     0.317 HD
ENDROOT
BRANCH   1   3
HETATM    3  C   UNL     1     -40.610 -49.067  11.280  1.00  0.00     0.241 C 
HETATM    4  C   UNL     1     -40.365 -48.830  12.780  1.00  0.00     0.045 C 
BRANCH   3   5
HETATM    5  C   UNL     1     -41.637 -48.058  10.673  1.00  0.00     0.136 C 
HETATM    6  C   UNL     1     -43.020 -48.116  11.336  1.00  0.00     0.036 C 
BRANCH   5   7
HETATM    7  N   UNL     1     -41.133 -46.684  10.706  1.00  0.00    -0.297 N 
HETATM    8  C   UNL     1     -41.807 -45.585  11.165  1.00  0.00     0.112 A 
HETATM    9  C   UNL     1     -40.938 -44.526  11.042  1.00  0.00     0.037 A 
HETATM   10  C   UNL     1     -39.763 -45.088  10.513  1.00  0.00     0.108 A 
HETATM   11  N   UNL     1     -39.870 -46.405  10.322  1.00  0.00    -0.310 N 
ATOM     12  HN  UNL     1     -39.163 -47.050   9.968  1.00  0.00     0.186 HD
ENDBRANCH   5   7
ENDBRANCH   3   5
ENDBRANCH   1   3
BRANCH   1  13
HETATM   13  C   UNL     1     -40.964 -51.330  12.260  1.00  0.00     0.372 C 
BRANCH  13  14
HETATM   14  C   UNL     1     -42.411 -51.687  12.613  1.00  0.00     0.246 C 
HETATM   15  O   UNL     1     -43.115 -50.977  13.322  1.00  0.00    -0.272 OA
HETATM   16  N   UNL     1     -42.875 -52.830  12.003  1.00  0.00    -0.351 N 
HETATM   17  H   UNL     1     -42.156 -53.443  11.620  1.00  0.00     0.162 HD
BRANCH  16  18
HETATM   18  C   UNL     1     -44.207 -53.342  12.302  1.00  0.00     0.240 C 
BRANCH  18  19
HETATM   19  C   UNL     1     -44.327 -54.211  13.562  1.00  0.00     0.403 C 
HETATM   20  F   UNL     1     -43.148 -54.772  13.916  1.00  0.00    -0.169 F 
HETATM   21  F   UNL     1     -44.788 -53.507  14.619  1.00  0.00    -0.169 F 
HETATM   22  F   UNL     1     -45.200 -55.227  13.347  1.00  0.00    -0.169 F 
ENDBRANCH  18  19
ENDBRANCH  16  18
ENDBRANCH  13  14
ENDBRANCH   1  13
TORSDOF 7
ENDMDL
MODEL 8
REMARK VINA RESULT:      -5.5      2.482      3.414
REMARK  7 active torsions:
REMARK  status: ('A' for Active; 'I' for Inactive)
REMARK    1  A    between atoms: C_2  and  N_3 
REMARK    2  A    between atoms: C_2  and  C_13 
REMARK    3  A    between atoms: N_3  and  C_4 
REMARK    4  A    between atoms: C_4  and  C_5 
REMARK       I    between atoms: C_5  and  N_7 
REMARK    5  A    between atoms: N_7  and  C_8 
REMARK    6  A    between atoms: C_8  and  C_9 
REMARK    7  A    between atoms: C_13  and  N_15 
ROOT
HETATM    1  N   UNL     1     -41.359 -50.835  11.312  1.00  0.00     0.098 N 
HETATM    2  H   UNL     1     -42.246 -50.536  10.896  1.00  0.00     0.317 HD
ENDROOT
BRANCH   1   3
HETATM    3  C   UNL     1     -41.644 -51.483  12.619  1.00  0.00     0.241 C 
HETATM    4  C   UNL     1     -40.740 -50.886  13.710  1.00  0.00     0.045 C 
BRANCH   3   5
HETATM    5  C   UNL     1     -41.608 -53.046  12.599  1.00  0.00     0.136 C 
HETATM    6  C   UNL     1     -40.410 -53.642  13.349  1.00  0.00     0.036 C 
BRANCH   5   7
HETATM    7  N   UNL     1     -42.849 -53.624  13.117  1.00  0.00    -0.297 N 
HETATM    8  C   UNL     1     -44.095 -53.492  12.568  1.00  0.00     0.112 A 
HETATM    9  C   UNL     1     -44.943 -54.231  13.361  1.00  0.00     0.037 A 
HETATM   10  C   UNL     1     -44.113 -54.781  14.354  1.00  0.00     0.108 A 
HETATM   11  N   UNL     1     -42.833 -54.429  14.201  1.00  0.00    -0.310 N 
ATOM     12  HN  UNL     1     -42.032 -54.703  14.770  1.00  0.00     0.186 HD
ENDBRANCH   5   7
ENDBRANCH   3   5
ENDBRANCH   1   3
BRANCH   1  13
HETATM   13  C   UNL     1     -40.468 -49.659  11.397  1.00  0.00     0.372 C 
BRANCH  13  14
HETATM   14  C   UNL     1     -41.214 -48.395  10.962  1.00  0.00     0.246 C 
HETATM   15  O   UNL     1     -40.676 -47.296  10.902  1.00  0.00    -0.272 OA
HETATM   16  N   UNL     1     -42.515 -48.613  10.569  1.00  0.00    -0.351 N 
HETATM   17  H   UNL     1     -42.915 -49.505  10.860  1.00  0.00     0.162 HD
BRANCH  16  18
HETATM   18  C   UNL     1     -43.378 -47.496  10.203  1.00  0.00     0.240 C 
BRANCH  18  19
HETATM   19  C   UNL     1     -43.873 -47.474   8.750  1.00  0.00     0.403 C 
HETATM   20  F   UNL     1     -45.089 -48.050   8.611  1.00  0.00    -0.169 F 
HETATM   21  F   UNL     1     -43.949 -46.217   8.261  1.00  0.00    -0.169 F 
HETATM   22  F   UNL     1     -43.017 -48.163   7.955  1.00  0.00    -0.169 F 
ENDBRANCH  18  19
ENDBRANCH  16  18
ENDBRANCH  13  14
ENDBRANCH   1  13
TORSDOF 7
ENDMDL
MODEL 9
REMARK VINA RESULT:      -5.5      4.154      6.163
REMARK  7 active torsions:
REMARK  status: ('A' for Active; 'I' for Inactive)
REMARK    1  A    between atoms: C_2  and  N_3 
REMARK    2  A    between atoms: C_2  and  C_13 
REMARK    3  A    between atoms: N_3  and  C_4 
REMARK    4  A    between atoms: C_4  and  C_5 
REMARK       I    between atoms: C_5  and  N_7 
REMARK    5  A    between atoms: N_7  and  C_8 
REMARK    6  A    between atoms: C_8  and  C_9 
REMARK    7  A    between atoms: C_13  and  N_15 
ROOT
HETATM    1  N   UNL     1     -42.513 -52.493  11.850  1.00  0.00     0.098 N 
HETATM    2  H   UNL     1     -41.932 -52.910  11.117  1.00  0.00     0.317 HD
ENDROOT
BRANCH   1   3
HETATM    3  C   UNL     1     -41.869 -51.233  12.304  1.00  0.00     0.241 C 
HETATM    4  C   UNL     1     -40.831 -51.538  13.397  1.00  0.00     0.045 C 
BRANCH   3   5
HETATM    5  C   UNL     1     -42.862 -50.100  12.720  1.00  0.00     0.136 C 
HETATM    6  C   UNL     1     -42.870 -49.813  14.227  1.00  0.00     0.036 C 
BRANCH   5   7
HETATM    7  N   UNL     1     -42.609 -48.860  11.985  1.00  0.00    -0.297 N 
HETATM    8  C   UNL     1     -42.801 -47.588  12.453  1.00  0.00     0.112 A 
HETATM    9  C   UNL     1     -42.396 -46.745  11.443  1.00  0.00     0.037 A 
HETATM   10  C   UNL     1     -41.966 -47.601  10.415  1.00  0.00     0.108 A 
HETATM   11  N   UNL     1     -42.077 -48.890  10.745  1.00  0.00    -0.310 N 
ATOM     12  HN  UNL     1     -41.820 -49.707  10.191  1.00  0.00     0.186 HD
ENDBRANCH   5   7
ENDBRANCH   3   5
ENDBRANCH   1   3
BRANCH   1  13
HETATM   13  C   UNL     1     -42.704 -53.498  12.916  1.00  0.00     0.372 C 
BRANCH  13  14
HETATM   14  C   UNL     1     -44.194 -53.681  13.216  1.00  0.00     0.246 C 
HETATM   15  O   UNL     1     -44.923 -54.396  12.539  1.00  0.00    -0.272 OA
HETATM   16  N   UNL     1     -44.624 -53.036  14.354  1.00  0.00    -0.351 N 
HETATM   17  H   UNL     1     -44.000 -52.312  14.707  1.00  0.00     0.162 HD
BRANCH  16  18
HETATM   18  C   UNL     1     -46.034 -53.051  14.727  1.00  0.00     0.240 C 
BRANCH  18  19
HETATM   19  C   UNL     1     -46.680 -51.680  14.976  1.00  0.00     0.403 C 
HETATM   20  F   UNL     1     -45.872 -50.850  15.674  1.00  0.00    -0.169 F 
HETATM   21  F   UNL     1     -47.015 -51.063  13.822  1.00  0.00    -0.169 F 
HETATM   22  F   UNL     1     -47.818 -51.825  15.699  1.00  0.00    -0.169 F 
ENDBRANCH  18  19
ENDBRANCH  16  18
ENDBRANCH  13  14
ENDBRANCH   1  13
TORSDOF 7
ENDMDL
