MODEL 1
REMARK VINA RESULT:      -5.6      0.000      0.000
REMARK  4 active torsions:
REMARK  status: ('A' for Active; 'I' for Inactive)
REMARK    1  A    between atoms: C_2  and  C_3 
REMARK    2  A    between atoms: C_2  and  N_10 
REMARK    3  A    between atoms: C_3  and  N_4 
REMARK       I    between atoms: N_10  and  C_11 
REMARK       I    between atoms: C_11  and  N_13 
REMARK    4  A    between atoms: N_13  and  C_14 
ROOT
HETATM    1  N   UNL     1     -41.484 -50.636  11.446  1.00  0.00    -0.337 N 
HETATM    2  C   UNL     1     -42.350 -51.223  12.355  1.00  0.00     0.322 C 
HETATM    3  O   UNL     1     -42.752 -50.629  13.344  1.00  0.00    -0.247 OA
HETATM    4  N   UNL     1     -42.692 -52.485  11.936  1.00  0.00    -0.289 N 
HETATM    5  H   UNL     1     -40.863 -51.276  10.972  1.00  0.00     0.164 HD
HETATM    6  H   UNL     1     -42.612 -52.708  10.961  1.00  0.00     0.172 HD
ENDROOT
BRANCH   1   7
HETATM    7  C   UNL     1     -40.995 -49.266  11.652  1.00  0.00     0.110 C 
HETATM    8  C   UNL     1     -39.466 -49.279  11.606  1.00  0.00     0.034 C 
BRANCH   7   9
HETATM    9  C   UNL     1     -41.615 -48.305  10.592  1.00  0.00     0.297 C 
BRANCH   9  10
HETATM   10  N   UNL     1     -42.912 -47.684  10.938  1.00  0.00     0.094 N 
HETATM   11  C   UNL     1     -43.795 -47.468   9.767  1.00  0.00     0.298 C 
HETATM   12  C   UNL     1     -43.365 -46.316   8.841  1.00  0.00     0.198 C 
HETATM   13  O   UNL     1     -43.227 -45.088   9.566  1.00  0.00    -0.388 OA
HETATM   14  C   UNL     1     -42.285 -45.237  10.634  1.00  0.00     0.198 C 
HETATM   15  C   UNL     1     -42.710 -46.366  11.593  1.00  0.00     0.298 C 
ENDBRANCH   9  10
ENDBRANCH   7   9
ENDBRANCH   1   7
BRANCH   4  16
HETATM   16  C   UNL     1     -43.481 -53.305  12.693  1.00  0.00     0.152 A 
HETATM   17  N   UNL     1     -44.767 -53.529  12.613  1.00  0.00    -0.346 N 
HETATM   18  C   UNL     1     -45.127 -54.459  13.566  1.00  0.00     0.097 A 
ATOM     19  HN  UNL     1     -45.404 -53.085  11.951  1.00  0.00     0.167 HD
HETATM   20  C   UNL     1     -44.100 -54.926  14.360  1.00  0.00     0.070 A 
HETATM   21  S   UNL     1     -42.640 -54.129  13.934  1.00  0.00    -0.064 SA
ENDBRANCH   4  16
TORSDOF 4
ENDMDL
MODEL 2
REMARK VINA RESULT:      -5.5      1.252      1.423
REMARK  4 active torsions:
REMARK  status: ('A' for Active; 'I' for Inactive)
REMARK    1  A    between atoms: C_2  and  C_3 
REMARK    2  A    between atoms: C_2  and  N_10 
REMARK    3  A    between atoms: C_3  and  N_4 
REMARK       I    between atoms: N_10  and  C_11 
REMARK       I    between atoms: C_11  and  N_13 
REMARK    4  A    between atoms: N_13  and  C_14 
ROOT
HETATM    1  N   UNL     1     -40.692 -50.885  11.530  1.00  0.00    -0.337 N 
HETATM    2  C   UNL     1     -41.810 -51.223  12.276  1.00  0.00     0.322 C 
HETATM    3  O   UNL     1     -42.227 -50.512  13.177  1.00  0.00    -0.247 OA
HETATM    4  N   UNL     1     -42.355 -52.394  11.809  1.00  0.00    -0.289 N 
HETATM    5  H   UNL     1     -40.163 -51.668  11.173  1.00  0.00     0.164 HD
HETATM    6  H   UNL     1     -42.164 -52.671  10.863  1.00  0.00     0.172 HD
ENDROOT
BRANCH   1   7
HETATM    7  C   UNL     1     -39.946 -49.652  11.812  1.00  0.00     0.110 C 
HETATM    8  C   UNL     1     -38.475 -49.877  11.458  1.00  0.00     0.034 C 
BRANCH   7   9
HETATM    9  C   UNL     1     -40.568 -48.451  11.034  1.00  0.00     0.297 C 
BRANCH   9  10
HETATM   10  N   UNL     1     -41.050 -47.313  11.846  1.00  0.00     0.094 N 
HETATM   11  C   UNL     1     -42.366 -46.790  11.410  1.00  0.00     0.298 C 
HETATM   12  C   UNL     1     -42.335 -45.985  10.098  1.00  0.00     0.198 C 
HETATM   13  O   UNL     1     -41.394 -44.906  10.171  1.00  0.00    -0.388 OA
HETATM   14  C   UNL     1     -40.086 -45.400  10.474  1.00  0.00     0.198 C 
HETATM   15  C   UNL     1     -40.085 -46.185  11.801  1.00  0.00     0.298 C 
ENDBRANCH   9  10
ENDBRANCH   7   9
ENDBRANCH   1   7
BRANCH   4  16
HETATM   16  C   UNL     1     -43.426 -52.983  12.420  1.00  0.00     0.152 A 
HETATM   17  N   UNL     1     -44.703 -52.749  12.268  1.00  0.00    -0.346 N 
HETATM   18  C   UNL     1     -45.422 -53.609  13.072  1.00  0.00     0.097 A 
ATOM     19  HN  UNL     1     -45.105 -52.043  11.651  1.00  0.00     0.167 HD
HETATM   20  C   UNL     1     -44.671 -54.483  13.829  1.00  0.00     0.070 A 
HETATM   21  S   UNL     1     -43.002 -54.180  13.565  1.00  0.00    -0.064 SA
ENDBRANCH   4  16
TORSDOF 4
ENDMDL
MODEL 3
REMARK VINA RESULT:      -5.0      3.017      6.978
REMARK  4 active torsions:
REMARK  status: ('A' for Active; 'I' for Inactive)
REMARK    1  A    between atoms: C_2  and  C_3 
REMARK    2  A    between atoms: C_2  and  N_10 
REMARK    3  A    between atoms: C_3  and  N_4 
REMARK       I    between atoms: N_10  and  C_11 
REMARK       I    between atoms: C_11  and  N_13 
REMARK    4  A    between atoms: N_13  and  C_14 
ROOT
HETATM    1  N   UNL     1     -44.031 -50.465  12.759  1.00  0.00    -0.337 N 
HETATM    2  C   UNL     1     -43.359 -49.253  12.775  1.00  0.00     0.322 C 
HETATM    3  O   UNL     1     -42.865 -48.800  13.796  1.00  0.00    -0.247 OA
HETATM    4  N   UNL     1     -43.309 -48.722  11.510  1.00  0.00    -0.289 N 
HETATM    5  H   UNL     1     -44.767 -50.537  12.071  1.00  0.00     0.164 HD
HETATM    6  H   UNL     1     -43.404 -49.340  10.724  1.00  0.00     0.172 HD
ENDROOT
BRANCH   1   7
HETATM    7  C   UNL     1     -44.193 -51.251  13.989  1.00  0.00     0.110 C 
HETATM    8  C   UNL     1     -45.681 -51.319  14.336  1.00  0.00     0.034 C 
BRANCH   7   9
HETATM    9  C   UNL     1     -43.556 -52.665  13.817  1.00  0.00     0.297 C 
BRANCH   9  10
HETATM   10  N   UNL     1     -42.371 -52.965  14.649  1.00  0.00     0.094 N 
HETATM   11  C   UNL     1     -41.331 -51.911  14.599  1.00  0.00     0.298 C 
HETATM   12  C   UNL     1     -40.532 -51.857  13.285  1.00  0.00     0.198 C 
HETATM   13  O   UNL     1     -39.938 -53.127  12.984  1.00  0.00    -0.388 OA
HETATM   14  C   UNL     1     -40.941 -54.145  12.908  1.00  0.00     0.198 C 
HETATM   15  C   UNL     1     -41.735 -54.239  14.225  1.00  0.00     0.298 C 
ENDBRANCH   9  10
ENDBRANCH   7   9
ENDBRANCH   1   7
BRANCH   4  16
HETATM   16  C   UNL     1     -42.761 -47.495  11.266  1.00  0.00     0.152 A 
HETATM   17  N   UNL     1     -43.330 -46.318  11.245  1.00  0.00    -0.346 N 
HETATM   18  C   UNL     1     -42.377 -45.355  10.983  1.00  0.00     0.097 A 
ATOM     19  HN  UNL     1     -44.323 -46.139  11.398  1.00  0.00     0.167 HD
HETATM   20  C   UNL     1     -41.092 -45.824  10.804  1.00  0.00     0.070 A 
HETATM   21  S   UNL     1     -41.088 -47.537  10.914  1.00  0.00    -0.064 SA
ENDBRANCH   4  16
TORSDOF 4
ENDMDL
MODEL 4
REMARK VINA RESULT:      -4.9      3.360      6.837
REMARK  4 active torsions:
REMARK  status: ('A' for Active; 'I' for Inactive)
REMARK    1  A    between atoms: C_2  and  C_3 
REMARK    2  A    between atoms: C_2  and  N_10 
REMARK    3  A    between atoms: C_3  and  N_4 
REMARK       I    between atoms: N_10  and  C_11 
REMARK       I    between atoms: C_11  and  N_13 
REMARK    4  A    between atoms: N_13  and  C_14 
ROOT
HETATM    1  N   UNL     1     -40.092 -49.014  12.631  1.00  0.00    -0.337 N 
HETATM    2  C   UNL     1     -40.717 -48.920  11.397  1.00  0.00     0.322 C 
HETATM    3  O   UNL     1     -40.509 -49.725  10.503  1.00  0.00    -0.247 OA
HETATM    4  N   UNL     1     -41.591 -47.862  11.388  1.00  0.00    -0.289 N 
HETATM    5  H   UNL     1     -39.941 -48.134  13.102  1.00  0.00     0.164 HD
HETATM    6  H   UNL     1     -41.949 -47.524  12.264  1.00  0.00     0.172 HD
ENDROOT
BRANCH   1   7
HETATM    7  C   UNL     1     -39.130 -50.089  12.905  1.00  0.00     0.110 C 
HETATM    8  C   UNL     1     -37.890 -49.481  13.564  1.00  0.00     0.034 C 
BRANCH   7   9
HETATM    9  C   UNL     1     -39.789 -51.196  13.785  1.00  0.00     0.297 C 
BRANCH   9  10
HETATM   10  N   UNL     1     -41.194 -51.540  13.475  1.00  0.00     0.094 N 
HETATM   11  C   UNL     1     -41.954 -52.033  14.647  1.00  0.00     0.298 C 
HETATM   12  C   UNL     1     -41.588 -53.458  15.099  1.00  0.00     0.198 C 
HETATM   13  O   UNL     1     -41.715 -54.395  14.021  1.00  0.00    -0.388 OA
HETATM   14  C   UNL     1     -40.894 -54.004  12.916  1.00  0.00     0.198 C 
HETATM   15  C   UNL     1     -41.262 -52.590  12.426  1.00  0.00     0.298 C 
ENDBRANCH   9  10
ENDBRANCH   7   9
ENDBRANCH   1   7
BRANCH   4  16
HETATM   16  C   UNL     1     -42.282 -47.508  10.263  1.00  0.00     0.152 A 
HETATM   17  N   UNL     1     -42.610 -48.233   9.226  1.00  0.00    -0.346 N 
HETATM   18  C   UNL     1     -43.335 -47.459   8.342  1.00  0.00     0.097 A 
ATOM     19  HN  UNL     1     -42.369 -49.215   9.091  1.00  0.00     0.167 HD
HETATM   20  C   UNL     1     -43.541 -46.151   8.726  1.00  0.00     0.070 A 
HETATM   21  S   UNL     1     -42.752 -45.864  10.223  1.00  0.00    -0.064 SA
ENDBRANCH   4  16
TORSDOF 4
ENDMDL
MODEL 5
REMARK VINA RESULT:      -4.9      2.667      4.091
REMARK  4 active torsions:
REMARK  status: ('A' for Active; 'I' for Inactive)
REMARK    1  A    between atoms: C_2  and  C_3 
REMARK    2  A    between atoms: C_2  and  N_10 
REMARK    3  A    between atoms: C_3  and  N_4 
REMARK       I    between atoms: N_10  and  C_11 
REMARK       I    between atoms: C_11  and  N_13 
REMARK    4  A    between atoms: N_13  and  C_14 
ROOT
HETATM    1  N   UNL     1     -42.808 -47.667  10.944  1.00  0.00    -0.337 N 
HETATM    2  C   UNL     1     -41.937 -48.711  11.215  1.00  0.00     0.322 C 
HETATM    3  O   UNL     1     -40.753 -48.661  10.917  1.00  0.00    -0.247 OA
HETATM    4  N   UNL     1     -42.594 -49.714  11.882  1.00  0.00    -0.289 N 
HETATM    5  H   UNL     1     -43.766 -47.941  10.780  1.00  0.00     0.164 HD
HETATM    6  H   UNL     1     -43.429 -49.489  12.392  1.00  0.00     0.172 HD
ENDROOT
BRANCH   1   7
HETATM    7  C   UNL     1     -42.337 -46.454  10.261  1.00  0.00     0.110 C 
HETATM    8  C   UNL     1     -43.464 -45.921   9.375  1.00  0.00     0.034 C 
BRANCH   7   9
HETATM    9  C   UNL     1     -41.850 -45.401  11.303  1.00  0.00     0.297 C 
BRANCH   9  10
HETATM   10  N   UNL     1     -40.415 -45.045  11.266  1.00  0.00     0.094 N 
HETATM   11  C   UNL     1     -39.647 -45.564  12.423  1.00  0.00     0.298 C 
HETATM   12  C   UNL     1     -39.908 -44.829  13.750  1.00  0.00     0.198 C 
HETATM   13  O   UNL     1     -39.679 -43.420  13.620  1.00  0.00    -0.388 OA
HETATM   14  C   UNL     1     -40.501 -42.871  12.584  1.00  0.00     0.198 C 
HETATM   15  C   UNL     1     -40.235 -43.571  11.237  1.00  0.00     0.298 C 
ENDBRANCH   9  10
ENDBRANCH   7   9
ENDBRANCH   1   7
BRANCH   4  16
HETATM   16  C   UNL     1     -41.975 -50.890  12.204  1.00  0.00     0.152 A 
HETATM   17  N   UNL     1     -41.190 -51.643  11.479  1.00  0.00    -0.346 N 
HETATM   18  C   UNL     1     -40.774 -52.723  12.231  1.00  0.00     0.097 A 
ATOM     19  HN  UNL     1     -40.927 -51.462  10.511  1.00  0.00     0.167 HD
HETATM   20  C   UNL     1     -41.259 -52.771  13.522  1.00  0.00     0.070 A 
HETATM   21  S   UNL     1     -42.317 -51.445  13.785  1.00  0.00    -0.064 SA
ENDBRANCH   4  16
TORSDOF 4
ENDMDL
MODEL 6
REMARK VINA RESULT:      -4.9      2.990      7.278
REMARK  4 active torsions:
REMARK  status: ('A' for Active; 'I' for Inactive)
REMARK    1  A    between atoms: C_2  and  C_3 
REMARK    2  A    between atoms: C_2  and  N_10 
REMARK    3  A    between atoms: C_3  and  N_4 
REMARK       I    between atoms: N_10  and  C_11 
REMARK       I    between atoms: C_11  and  N_13 
REMARK    4  A    between atoms: N_13  and  C_14 
ROOT
HETATM    1  N   UNL     1     -42.342 -50.643  12.334  1.00  0.00    -0.337 N 
HETATM    2  C   UNL     1     -41.529 -49.712  11.707  1.00  0.00     0.322 C 
HETATM    3  O   UNL     1     -40.547 -50.042  11.060  1.00  0.00    -0.247 OA
HETATM    4  N   UNL     1     -42.030 -48.447  11.888  1.00  0.00    -0.289 N 
HETATM    5  H   UNL     1     -42.798 -50.316  13.174  1.00  0.00     0.164 HD
HETATM    6  H   UNL     1     -43.006 -48.340  12.097  1.00  0.00     0.172 HD
ENDROOT
BRANCH   1   7
HETATM    7  C   UNL     1     -42.037 -52.078  12.260  1.00  0.00     0.110 C 
HETATM    8  C   UNL     1     -40.893 -52.387  13.227  1.00  0.00     0.034 C 
BRANCH   7   9
HETATM    9  C   UNL     1     -43.315 -52.920  12.561  1.00  0.00     0.297 C 
BRANCH   9  10
HETATM   10  N   UNL     1     -43.624 -53.172  13.985  1.00  0.00     0.094 N 
HETATM   11  C   UNL     1     -43.959 -54.586  14.276  1.00  0.00     0.298 C 
HETATM   12  C   UNL     1     -45.347 -55.033  13.782  1.00  0.00     0.198 C 
HETATM   13  O   UNL     1     -46.381 -54.183  14.295  1.00  0.00    -0.388 OA
HETATM   14  C   UNL     1     -46.142 -52.821  13.924  1.00  0.00     0.198 C 
HETATM   15  C   UNL     1     -44.770 -52.341  14.434  1.00  0.00     0.298 C 
ENDBRANCH   9  10
ENDBRANCH   7   9
ENDBRANCH   1   7
BRANCH   4  16
HETATM   16  C   UNL     1     -41.374 -47.340  11.428  1.00  0.00     0.152 A 
HETATM   17  N   UNL     1     -40.133 -47.210  11.036  1.00  0.00    -0.346 N 
HETATM   18  C   UNL     1     -39.920 -45.910  10.624  1.00  0.00     0.097 A 
ATOM     19  HN  UNL     1     -39.434 -47.952  11.035  1.00  0.00     0.167 HD
HETATM   20  C   UNL     1     -41.010 -45.071  10.716  1.00  0.00     0.070 A 
HETATM   21  S   UNL     1     -42.335 -45.926  11.394  1.00  0.00    -0.064 SA
ENDBRANCH   4  16
TORSDOF 4
ENDMDL
MODEL 7
REMARK VINA RESULT:      -4.8      3.254      7.344
REMARK  4 active torsions:
REMARK  status: ('A' for Active; 'I' for Inactive)
REMARK    1  A    between atoms: C_2  and  C_3 
REMARK    2  A    between atoms: C_2  and  N_10 
REMARK    3  A    between atoms: C_3  and  N_4 
REMARK       I    between atoms: N_10  and  C_11 
REMARK       I    between atoms: C_11  and  N_13 
REMARK    4  A    between atoms: N_13  and  C_14 
ROOT
HETATM    1  N   UNL     1     -42.301 -51.749  11.896  1.00  0.00    -0.337 N 
HETATM    2  C   UNL     1     -41.845 -50.470  12.175  1.00  0.00     0.322 C 
HETATM    3  O   UNL     1     -41.737 -50.057  13.320  1.00  0.00    -0.247 OA
HETATM    4  N   UNL     1     -41.508 -49.822  11.013  1.00  0.00    -0.289 N 
HETATM    5  H   UNL     1     -42.788 -51.846  11.016  1.00  0.00     0.164 HD
HETATM    6  H   UNL     1     -41.282 -50.371  10.203  1.00  0.00     0.172 HD
ENDROOT
BRANCH   1   7
HETATM    7  C   UNL     1     -42.695 -52.659  12.978  1.00  0.00     0.110 C 
HETATM    8  C   UNL     1     -43.932 -53.442  12.535  1.00  0.00     0.034 C 
BRANCH   7   9
HETATM    9  C   UNL     1     -41.505 -53.593  13.361  1.00  0.00     0.297 C 
BRANCH   9  10
HETATM   10  N   UNL     1     -41.480 -54.100  14.751  1.00  0.00     0.094 N 
HETATM   11  C   UNL     1     -41.772 -53.059  15.765  1.00  0.00     0.298 C 
HETATM   12  C   UNL     1     -40.635 -52.048  15.995  1.00  0.00     0.198 C 
HETATM   13  O   UNL     1     -39.409 -52.711  16.332  1.00  0.00    -0.388 OA
HETATM   14  C   UNL     1     -39.041 -53.638  15.306  1.00  0.00     0.198 C 
HETATM   15  C   UNL     1     -40.153 -54.681  15.078  1.00  0.00     0.298 C 
ENDBRANCH   9  10
ENDBRANCH   7   9
ENDBRANCH   1   7
BRANCH   4  16
HETATM   16  C   UNL     1     -41.097 -48.519  11.008  1.00  0.00     0.152 A 
HETATM   17  N   UNL     1     -39.976 -47.998  11.433  1.00  0.00    -0.346 N 
HETATM   18  C   UNL     1     -39.988 -46.638  11.198  1.00  0.00     0.097 A 
ATOM     19  HN  UNL     1     -39.212 -48.515  11.869  1.00  0.00     0.167 HD
HETATM   20  C   UNL     1     -41.130 -46.148  10.599  1.00  0.00     0.070 A 
HETATM   21  S   UNL     1     -42.251 -47.428  10.371  1.00  0.00    -0.064 SA
ENDBRANCH   4  16
TORSDOF 4
ENDMDL
MODEL 8
REMARK VINA RESULT:      -4.7      2.916      7.195
REMARK  4 active torsions:
REMARK  status: ('A' for Active; 'I' for Inactive)
REMARK    1  A    between atoms: C_2  and  C_3 
REMARK    2  A    between atoms: C_2  and  N_10 
REMARK    3  A    between atoms: C_3  and  N_4 
REMARK       I    between atoms: N_10  and  C_11 
REMARK       I    between atoms: C_11  and  N_13 
REMARK    4  A    between atoms: N_13  and  C_14 
ROOT
HETATM    1  N   UNL     1     -42.631 -50.721  13.921  1.00  0.00    -0.337 N 
HETATM    2  C   UNL     1     -42.350 -50.083  12.723  1.00  0.00     0.322 C 
HETATM    3  O   UNL     1     -41.587 -50.563  11.898  1.00  0.00    -0.247 OA
HETATM    4  N   UNL     1     -43.079 -48.925  12.620  1.00  0.00    -0.289 N 
HETATM    5  H   UNL     1     -42.853 -50.106  14.691  1.00  0.00     0.164 HD
HETATM    6  H   UNL     1     -43.923 -48.837  13.157  1.00  0.00     0.172 HD
ENDROOT
BRANCH   1   7
HETATM    7  C   UNL     1     -41.999 -52.004  14.256  1.00  0.00     0.110 C 
HETATM    8  C   UNL     1     -41.251 -51.850  15.581  1.00  0.00     0.034 C 
BRANCH   7   9
HETATM    9  C   UNL     1     -43.068 -53.139  14.304  1.00  0.00     0.297 C 
BRANCH   9  10
HETATM   10  N   UNL     1     -44.474 -52.735  14.087  1.00  0.00     0.094 N 
HETATM   11  C   UNL     1     -45.262 -52.642  15.339  1.00  0.00     0.298 C 
HETATM   12  C   UNL     1     -45.632 -53.997  15.969  1.00  0.00     0.198 C 
HETATM   13  O   UNL     1     -46.322 -54.835  15.033  1.00  0.00    -0.388 OA
HETATM   14  C   UNL     1     -45.528 -55.040  13.860  1.00  0.00     0.198 C 
HETATM   15  C   UNL     1     -45.170 -53.697  13.194  1.00  0.00     0.298 C 
ENDBRANCH   9  10
ENDBRANCH   7   9
ENDBRANCH   1   7
BRANCH   4  16
HETATM   16  C   UNL     1     -42.931 -48.073  11.562  1.00  0.00     0.152 A 
HETATM   17  N   UNL     1     -43.017 -48.314  10.280  1.00  0.00    -0.346 N 
HETATM   18  C   UNL     1     -42.823 -47.140   9.582  1.00  0.00     0.097 A 
ATOM     19  HN  UNL     1     -43.199 -49.226   9.862  1.00  0.00     0.167 HD
HETATM   20  C   UNL     1     -42.587 -46.021  10.353  1.00  0.00     0.070 A 
HETATM   21  S   UNL     1     -42.552 -46.467  12.011  1.00  0.00    -0.064 SA
ENDBRANCH   4  16
TORSDOF 4
ENDMDL
MODEL 9
REMARK VINA RESULT:      -4.6      4.034      5.573
REMARK  4 active torsions:
REMARK  status: ('A' for Active; 'I' for Inactive)
REMARK    1  A    between atoms: C_2  and  C_3 
REMARK    2  A    between atoms: C_2  and  N_10 
REMARK    3  A    between atoms: C_3  and  N_4 
REMARK       I    between atoms: N_10  and  C_11 
REMARK       I    between atoms: C_11  and  N_13 
REMARK    4  A    between atoms: N_13  and  C_14 
ROOT
HETATM    1  N   UNL     1     -39.554 -50.091  12.627  1.00  0.00    -0.337 N 
HETATM    2  C   UNL     1     -40.397 -51.188  12.702  1.00  0.00     0.322 C 
HETATM    3  O   UNL     1     -39.970 -52.326  12.829  1.00  0.00    -0.247 OA
HETATM    4  N   UNL     1     -41.708 -50.782  12.667  1.00  0.00    -0.289 N 
HETATM    5  H   UNL     1     -39.905 -49.318  12.081  1.00  0.00     0.164 HD
HETATM    6  H   UNL     1     -41.929 -49.841  12.941  1.00  0.00     0.172 HD
ENDROOT
BRANCH   1   7
HETATM    7  C   UNL     1     -38.095 -50.259  12.677  1.00  0.00     0.110 C 
HETATM    8  C   UNL     1     -37.517 -49.944  11.297  1.00  0.00     0.034 C 
BRANCH   7   9
HETATM    9  C   UNL     1     -37.485 -49.362  13.798  1.00  0.00     0.297 C 
BRANCH   9  10
HETATM   10  N   UNL     1     -37.630 -49.846  15.188  1.00  0.00     0.094 N 
HETATM   11  C   UNL     1     -38.620 -49.079  15.981  1.00  0.00     0.298 C 
HETATM   12  C   UNL     1     -38.157 -47.673  16.401  1.00  0.00     0.198 C 
HETATM   13  O   UNL     1     -36.914 -47.725  17.114  1.00  0.00    -0.388 OA
HETATM   14  C   UNL     1     -35.905 -48.357  16.319  1.00  0.00     0.198 C 
HETATM   15  C   UNL     1     -36.334 -49.780  15.910  1.00  0.00     0.298 C 
ENDBRANCH   9  10
ENDBRANCH   7   9
ENDBRANCH   1   7
BRANCH   4  16
HETATM   16  C   UNL     1     -42.739 -51.678  12.655  1.00  0.00     0.152 A 
HETATM   17  N   UNL     1     -42.860 -52.800  11.994  1.00  0.00    -0.346 N 
HETATM   18  C   UNL     1     -44.065 -53.390  12.316  1.00  0.00     0.097 A 
ATOM     19  HN  UNL     1     -42.173 -53.178  11.342  1.00  0.00     0.167 HD
HETATM   20  C   UNL     1     -44.843 -52.698  13.220  1.00  0.00     0.070 A 
HETATM   21  S   UNL     1     -44.063 -51.228  13.639  1.00  0.00    -0.064 SA
ENDBRANCH   4  16
TORSDOF 4
ENDMDL
