MODEL 1
REMARK VINA RESULT:      -6.4      0.000      0.000
REMARK  4 active torsions:
REMARK  status: ('A' for Active; 'I' for Inactive)
REMARK    1  A    between atoms: C_4  and  N_5 
REMARK       I    between atoms: N_5  and  C_6 
REMARK       I    between atoms: C_6  and  N_8 
REMARK    2  A    between atoms: N_8  and  C_9 
REMARK    3  A    between atoms: C_9  and  C_10 
REMARK    4  A    between atoms: C_9  and  C_13 
ROOT
HETATM    1  N   UNL     1     -42.105 -48.251   9.568  1.00  0.00    -0.309 N 
HETATM    2  C   UNL     1     -41.651 -48.670  10.802  1.00  0.00     0.321 C 
HETATM    3  O   UNL     1     -42.115 -48.349  11.887  1.00  0.00    -0.247 OA
HETATM    4  N   UNL     1     -40.592 -49.539  10.697  1.00  0.00    -0.338 N 
HETATM    5  H   UNL     1     -41.546 -48.503   8.767  1.00  0.00     0.170 HD
HETATM    6  H   UNL     1     -40.081 -49.594   9.833  1.00  0.00     0.164 HD
ENDROOT
BRANCH   1   7
HETATM    7  C   UNL     1     -43.209 -47.397   9.336  1.00  0.00     0.039 A 
HETATM    8  C   UNL     1     -44.520 -47.860   9.246  1.00  0.00     0.054 A 
HETATM    9  C   UNL     1     -45.557 -46.951   9.064  1.00  0.00     0.007 A 
HETATM   10  C   UNL     1     -46.976 -47.431   9.033  1.00  0.00     0.068 C 
HETATM   11  N   UNL     1     -45.346 -45.621   8.956  1.00  0.00    -0.369 N 
HETATM   12  C   UNL     1     -44.067 -45.194   9.018  1.00  0.00     0.090 A 
ATOM     13  HN  UNL     1     -46.119 -44.967   8.833  1.00  0.00     0.165 HD
HETATM   14  C   UNL     1     -42.976 -46.031   9.198  1.00  0.00     0.046 A 
ENDBRANCH   1   7
BRANCH   4  15
HETATM   15  C   UNL     1     -39.952 -50.061  11.889  1.00  0.00     0.094 C 
BRANCH  15  16
HETATM   16  C   UNL     1     -40.339 -51.509  12.038  1.00  0.00     0.009 A 
HETATM   17  C   UNL     1     -41.792 -51.910  12.143  1.00  0.00     0.007 A 
HETATM   18  C   UNL     1     -40.904 -52.009  13.349  1.00  0.00     0.007 A 
ENDBRANCH  15  16
BRANCH  15  19
HETATM   19  C   UNL     1     -38.459 -49.892  11.754  1.00  0.00     0.009 A 
HETATM   20  C   UNL     1     -37.502 -50.766  12.532  1.00  0.00     0.007 A 
HETATM   21  C   UNL     1     -37.651 -49.316  12.894  1.00  0.00     0.007 A 
ENDBRANCH  15  19
ENDBRANCH   4  15
TORSDOF 4
ENDMDL
MODEL 2
REMARK VINA RESULT:      -5.8      3.419      6.269
REMARK  4 active torsions:
REMARK  status: ('A' for Active; 'I' for Inactive)
REMARK    1  A    between atoms: C_4  and  N_5 
REMARK       I    between atoms: N_5  and  C_6 
REMARK       I    between atoms: C_6  and  N_8 
REMARK    2  A    between atoms: N_8  and  C_9 
REMARK    3  A    between atoms: C_9  and  C_10 
REMARK    4  A    between atoms: C_9  and  C_13 
ROOT
HETATM    1  N   UNL     1     -42.345 -50.657  11.810  1.00  0.00    -0.309 N 
HETATM    2  C   UNL     1     -42.816 -51.321  12.925  1.00  0.00     0.321 C 
HETATM    3  O   UNL     1     -42.299 -51.322  14.033  1.00  0.00    -0.247 OA
HETATM    4  N   UNL     1     -43.985 -51.996  12.671  1.00  0.00    -0.338 N 
HETATM    5  H   UNL     1     -42.811 -50.847  10.936  1.00  0.00     0.170 HD
HETATM    6  H   UNL     1     -44.252 -52.181  11.720  1.00  0.00     0.164 HD
ENDROOT
BRANCH   1   7
HETATM    7  C   UNL     1     -41.196 -49.834  11.758  1.00  0.00     0.039 A 
HETATM    8  C   UNL     1     -39.899 -50.343  11.714  1.00  0.00     0.054 A 
HETATM    9  C   UNL     1     -38.822 -49.469  11.615  1.00  0.00     0.007 A 
HETATM   10  C   UNL     1     -37.429 -50.008  11.499  1.00  0.00     0.068 C 
HETATM   11  N   UNL     1     -38.977 -48.127  11.575  1.00  0.00    -0.369 N 
HETATM   12  C   UNL     1     -40.238 -47.652  11.647  1.00  0.00     0.090 A 
ATOM     13  HN  UNL     1     -38.177 -47.501  11.492  1.00  0.00     0.165 HD
HETATM   14  C   UNL     1     -41.366 -48.451  11.746  1.00  0.00     0.046 A 
ENDBRANCH   1   7
BRANCH   4  15
HETATM   15  C   UNL     1     -44.614 -52.786  13.712  1.00  0.00     0.094 C 
BRANCH  15  16
HETATM   16  C   UNL     1     -46.104 -52.574  13.630  1.00  0.00     0.009 A 
HETATM   17  C   UNL     1     -46.673 -51.410  12.852  1.00  0.00     0.007 A 
HETATM   18  C   UNL     1     -46.741 -51.407  14.352  1.00  0.00     0.007 A 
ENDBRANCH  15  16
BRANCH  15  19
HETATM   19  C   UNL     1     -44.245 -54.235  13.514  1.00  0.00     0.009 A 
HETATM   20  C   UNL     1     -45.139 -55.343  14.018  1.00  0.00     0.007 A 
HETATM   21  C   UNL     1     -43.824 -55.081  14.693  1.00  0.00     0.007 A 
ENDBRANCH  15  19
ENDBRANCH   4  15
TORSDOF 4
ENDMDL
MODEL 3
REMARK VINA RESULT:      -5.5      3.365      6.054
REMARK  4 active torsions:
REMARK  status: ('A' for Active; 'I' for Inactive)
REMARK    1  A    between atoms: C_4  and  N_5 
REMARK       I    between atoms: N_5  and  C_6 
REMARK       I    between atoms: C_6  and  N_8 
REMARK    2  A    between atoms: N_8  and  C_9 
REMARK    3  A    between atoms: C_9  and  C_10 
REMARK    4  A    between atoms: C_9  and  C_13 
ROOT
HETATM    1  N   UNL     1     -42.259 -50.651  11.745  1.00  0.00    -0.309 N 
HETATM    2  C   UNL     1     -42.756 -51.270  12.874  1.00  0.00     0.321 C 
HETATM    3  O   UNL     1     -42.276 -51.209  13.998  1.00  0.00    -0.247 OA
HETATM    4  N   UNL     1     -43.904 -51.978  12.615  1.00  0.00    -0.338 N 
HETATM    5  H   UNL     1     -42.692 -50.891  10.866  1.00  0.00     0.170 HD
HETATM    6  H   UNL     1     -44.136 -52.213  11.666  1.00  0.00     0.164 HD
ENDROOT
BRANCH   1   7
HETATM    7  C   UNL     1     -41.123 -49.810  11.691  1.00  0.00     0.039 A 
HETATM    8  C   UNL     1     -41.207 -48.430  11.518  1.00  0.00     0.054 A 
HETATM    9  C   UNL     1     -40.045 -47.666  11.524  1.00  0.00     0.007 A 
HETATM   10  C   UNL     1     -40.129 -46.175  11.404  1.00  0.00     0.068 C 
HETATM   11  N   UNL     1     -38.818 -48.212  11.679  1.00  0.00    -0.369 N 
HETATM   12  C   UNL     1     -38.755 -49.552  11.818  1.00  0.00     0.090 A 
ATOM     13  HN  UNL     1     -37.977 -47.635  11.691  1.00  0.00     0.165 HD
HETATM   14  C   UNL     1     -39.861 -50.387  11.824  1.00  0.00     0.046 A 
ENDBRANCH   1   7
BRANCH   4  15
HETATM   15  C   UNL     1     -44.555 -52.729  13.671  1.00  0.00     0.094 C 
BRANCH  15  16
HETATM   16  C   UNL     1     -46.044 -52.549  13.530  1.00  0.00     0.009 A 
HETATM   17  C   UNL     1     -46.607 -51.377  12.760  1.00  0.00     0.007 A 
HETATM   18  C   UNL     1     -46.739 -51.418  14.254  1.00  0.00     0.007 A 
ENDBRANCH  15  16
BRANCH  15  19
HETATM   19  C   UNL     1     -44.154 -54.179  13.555  1.00  0.00     0.009 A 
HETATM   20  C   UNL     1     -45.050 -55.279  14.075  1.00  0.00     0.007 A 
HETATM   21  C   UNL     1     -43.767 -54.963  14.788  1.00  0.00     0.007 A 
ENDBRANCH  15  19
ENDBRANCH   4  15
TORSDOF 4
ENDMDL
MODEL 4
REMARK VINA RESULT:      -5.5      2.046      7.113
REMARK  4 active torsions:
REMARK  status: ('A' for Active; 'I' for Inactive)
REMARK    1  A    between atoms: C_4  and  N_5 
REMARK       I    between atoms: N_5  and  C_6 
REMARK       I    between atoms: C_6  and  N_8 
REMARK    2  A    between atoms: N_8  and  C_9 
REMARK    3  A    between atoms: C_9  and  C_10 
REMARK    4  A    between atoms: C_9  and  C_13 
ROOT
HETATM    1  N   UNL     1     -40.718 -50.555  11.219  1.00  0.00    -0.309 N 
HETATM    2  C   UNL     1     -41.480 -49.420  11.412  1.00  0.00     0.321 C 
HETATM    3  O   UNL     1     -42.109 -49.139  12.422  1.00  0.00    -0.247 OA
HETATM    4  N   UNL     1     -41.451 -48.585  10.321  1.00  0.00    -0.338 N 
HETATM    5  H   UNL     1     -40.356 -50.709  10.290  1.00  0.00     0.170 HD
HETATM    6  H   UNL     1     -41.140 -48.940   9.434  1.00  0.00     0.164 HD
ENDROOT
BRANCH   1   7
HETATM    7  C   UNL     1     -40.504 -51.582  12.168  1.00  0.00     0.039 A 
HETATM    8  C   UNL     1     -39.721 -51.411  13.308  1.00  0.00     0.054 A 
HETATM    9  C   UNL     1     -39.599 -52.455  14.218  1.00  0.00     0.007 A 
HETATM   10  C   UNL     1     -38.814 -52.259  15.480  1.00  0.00     0.068 C 
HETATM   11  N   UNL     1     -40.202 -53.650  14.038  1.00  0.00    -0.369 N 
HETATM   12  C   UNL     1     -40.933 -53.806  12.915  1.00  0.00     0.090 A 
ATOM     13  HN  UNL     1     -40.110 -54.402  14.721  1.00  0.00     0.165 HD
HETATM   14  C   UNL     1     -41.108 -52.820  11.958  1.00  0.00     0.046 A 
ENDBRANCH   1   7
BRANCH   4  15
HETATM   15  C   UNL     1     -42.222 -47.357  10.319  1.00  0.00     0.094 C 
BRANCH  15  16
HETATM   16  C   UNL     1     -41.268 -46.200  10.174  1.00  0.00     0.009 A 
HETATM   17  C   UNL     1     -40.058 -46.083  11.072  1.00  0.00     0.007 A 
HETATM   18  C   UNL     1     -41.207 -45.133  11.244  1.00  0.00     0.007 A 
ENDBRANCH  15  16
BRANCH  15  19
HETATM   19  C   UNL     1     -43.216 -47.408   9.185  1.00  0.00     0.009 A 
HETATM   20  C   UNL     1     -44.068 -46.209   8.841  1.00  0.00     0.007 A 
HETATM   21  C   UNL     1     -44.700 -47.416   9.473  1.00  0.00     0.007 A 
ENDBRANCH  15  19
ENDBRANCH   4  15
TORSDOF 4
ENDMDL
MODEL 5
REMARK VINA RESULT:      -5.4      2.983      6.768
REMARK  4 active torsions:
REMARK  status: ('A' for Active; 'I' for Inactive)
REMARK    1  A    between atoms: C_4  and  N_5 
REMARK       I    between atoms: N_5  and  C_6 
REMARK       I    between atoms: C_6  and  N_8 
REMARK    2  A    between atoms: N_8  and  C_9 
REMARK    3  A    between atoms: C_9  and  C_10 
REMARK    4  A    between atoms: C_9  and  C_13 
ROOT
HETATM    1  N   UNL     1     -42.341 -52.065  12.017  1.00  0.00    -0.309 N 
HETATM    2  C   UNL     1     -42.369 -50.711  12.281  1.00  0.00     0.321 C 
HETATM    3  O   UNL     1     -42.959 -50.170  13.205  1.00  0.00    -0.247 OA
HETATM    4  N   UNL     1     -41.620 -49.992  11.380  1.00  0.00    -0.338 N 
HETATM    5  H   UNL     1     -41.912 -52.352  11.150  1.00  0.00     0.170 HD
HETATM    6  H   UNL     1     -41.354 -50.415  10.509  1.00  0.00     0.164 HD
ENDROOT
BRANCH   1   7
HETATM    7  C   UNL     1     -42.967 -53.073  12.787  1.00  0.00     0.039 A 
HETATM    8  C   UNL     1     -42.331 -53.731  13.838  1.00  0.00     0.054 A 
HETATM    9  C   UNL     1     -43.031 -54.677  14.578  1.00  0.00     0.007 A 
HETATM   10  C   UNL     1     -42.378 -55.342  15.751  1.00  0.00     0.068 C 
HETATM   11  N   UNL     1     -44.315 -55.003  14.312  1.00  0.00    -0.369 N 
HETATM   12  C   UNL     1     -44.906 -54.376  13.273  1.00  0.00     0.090 A 
ATOM     13  HN  UNL     1     -44.817 -55.692  14.871  1.00  0.00     0.165 HD
HETATM   14  C   UNL     1     -44.282 -53.421  12.485  1.00  0.00     0.046 A 
ENDBRANCH   1   7
BRANCH   4  15
HETATM   15  C   UNL     1     -41.557 -48.546  11.471  1.00  0.00     0.094 C 
BRANCH  15  16
HETATM   16  C   UNL     1     -40.106 -48.138  11.506  1.00  0.00     0.009 A 
HETATM   17  C   UNL     1     -39.129 -48.852  12.410  1.00  0.00     0.007 A 
HETATM   18  C   UNL     1     -39.547 -47.446  12.729  1.00  0.00     0.007 A 
ENDBRANCH  15  16
BRANCH  15  19
HETATM   19  C   UNL     1     -42.276 -47.952  10.285  1.00  0.00     0.009 A 
HETATM   20  C   UNL     1     -42.481 -46.460  10.166  1.00  0.00     0.007 A 
HETATM   21  C   UNL     1     -43.653 -47.352  10.453  1.00  0.00     0.007 A 
ENDBRANCH  15  19
ENDBRANCH   4  15
TORSDOF 4
ENDMDL
MODEL 6
REMARK VINA RESULT:      -5.3      2.428      3.689
REMARK  4 active torsions:
REMARK  status: ('A' for Active; 'I' for Inactive)
REMARK    1  A    between atoms: C_4  and  N_5 
REMARK       I    between atoms: N_5  and  C_6 
REMARK       I    between atoms: C_6  and  N_8 
REMARK    2  A    between atoms: N_8  and  C_9 
REMARK    3  A    between atoms: C_9  and  C_10 
REMARK    4  A    between atoms: C_9  and  C_13 
ROOT
HETATM    1  N   UNL     1     -41.643 -49.599  10.921  1.00  0.00    -0.309 N 
HETATM    2  C   UNL     1     -41.717 -50.287  12.115  1.00  0.00     0.321 C 
HETATM    3  O   UNL     1     -41.877 -49.792  13.222  1.00  0.00    -0.247 OA
HETATM    4  N   UNL     1     -41.609 -51.645  11.939  1.00  0.00    -0.338 N 
HETATM    5  H   UNL     1     -41.387 -50.131  10.103  1.00  0.00     0.170 HD
HETATM    6  H   UNL     1     -41.239 -52.004  11.076  1.00  0.00     0.164 HD
ENDROOT
BRANCH   1   7
HETATM    7  C   UNL     1     -41.771 -48.199  10.761  1.00  0.00     0.039 A 
HETATM    8  C   UNL     1     -40.719 -47.311  10.978  1.00  0.00     0.054 A 
HETATM    9  C   UNL     1     -40.911 -45.953  10.752  1.00  0.00     0.007 A 
HETATM   10  C   UNL     1     -39.768 -44.998  10.919  1.00  0.00     0.068 C 
HETATM   11  N   UNL     1     -42.093 -45.445  10.339  1.00  0.00    -0.369 N 
HETATM   12  C   UNL     1     -43.108 -46.317  10.161  1.00  0.00     0.090 A 
ATOM     13  HN  UNL     1     -42.213 -44.447  10.169  1.00  0.00     0.165 HD
HETATM   14  C   UNL     1     -43.002 -47.684  10.362  1.00  0.00     0.046 A 
ENDBRANCH   1   7
BRANCH   4  15
HETATM   15  C   UNL     1     -41.626 -52.536  13.083  1.00  0.00     0.094 C 
BRANCH  15  16
HETATM   16  C   UNL     1     -42.622 -53.633  12.813  1.00  0.00     0.009 A 
HETATM   17  C   UNL     1     -44.054 -53.302  12.461  1.00  0.00     0.007 A 
HETATM   18  C   UNL     1     -43.736 -53.900  13.800  1.00  0.00     0.007 A 
ENDBRANCH  15  16
BRANCH  15  19
HETATM   19  C   UNL     1     -40.236 -53.082  13.294  1.00  0.00     0.009 A 
HETATM   20  C   UNL     1     -39.997 -54.284  14.179  1.00  0.00     0.007 A 
HETATM   21  C   UNL     1     -39.551 -52.925  14.633  1.00  0.00     0.007 A 
ENDBRANCH  15  19
ENDBRANCH   4  15
TORSDOF 4
ENDMDL
MODEL 7
REMARK VINA RESULT:      -5.2      2.355      6.791
REMARK  4 active torsions:
REMARK  status: ('A' for Active; 'I' for Inactive)
REMARK    1  A    between atoms: C_4  and  N_5 
REMARK       I    between atoms: N_5  and  C_6 
REMARK       I    between atoms: C_6  and  N_8 
REMARK    2  A    between atoms: N_8  and  C_9 
REMARK    3  A    between atoms: C_9  and  C_10 
REMARK    4  A    between atoms: C_9  and  C_13 
ROOT
HETATM    1  N   UNL     1     -41.314 -51.076  11.624  1.00  0.00    -0.309 N 
HETATM    2  C   UNL     1     -41.905 -49.836  11.762  1.00  0.00     0.321 C 
HETATM    3  O   UNL     1     -42.628 -49.482  12.683  1.00  0.00    -0.247 OA
HETATM    4  N   UNL     1     -41.574 -48.987  10.734  1.00  0.00    -0.338 N 
HETATM    5  H   UNL     1     -40.843 -51.262  10.752  1.00  0.00     0.170 HD
HETATM    6  H   UNL     1     -41.191 -49.364   9.885  1.00  0.00     0.164 HD
ENDROOT
BRANCH   1   7
HETATM    7  C   UNL     1     -41.417 -52.150  12.539  1.00  0.00     0.039 A 
HETATM    8  C   UNL     1     -42.619 -52.795  12.821  1.00  0.00     0.054 A 
HETATM    9  C   UNL     1     -42.629 -53.875  13.696  1.00  0.00     0.007 A 
HETATM   10  C   UNL     1     -43.906 -54.617  13.955  1.00  0.00     0.068 C 
HETATM   11  N   UNL     1     -41.511 -54.325  14.307  1.00  0.00    -0.369 N 
HETATM   12  C   UNL     1     -40.361 -53.671  14.043  1.00  0.00     0.090 A 
ATOM     13  HN  UNL     1     -41.535 -55.125  14.939  1.00  0.00     0.165 HD
HETATM   14  C   UNL     1     -40.262 -52.588  13.184  1.00  0.00     0.046 A 
ENDBRANCH   1   7
BRANCH   4  15
HETATM   15  C   UNL     1     -42.129 -47.648  10.683  1.00  0.00     0.094 C 
BRANCH  15  16
HETATM   16  C   UNL     1     -40.988 -46.664  10.667  1.00  0.00     0.009 A 
HETATM   17  C   UNL     1     -39.898 -46.732  11.712  1.00  0.00     0.007 A 
HETATM   18  C   UNL     1     -40.889 -45.605  11.742  1.00  0.00     0.007 A 
ENDBRANCH  15  16
BRANCH  15  19
HETATM   19  C   UNL     1     -42.991 -47.525   9.452  1.00  0.00     0.009 A 
HETATM   20  C   UNL     1     -43.621 -46.205   9.071  1.00  0.00     0.007 A 
HETATM   21  C   UNL     1     -44.483 -47.322   9.584  1.00  0.00     0.007 A 
ENDBRANCH  15  19
ENDBRANCH   4  15
TORSDOF 4
ENDMDL
MODEL 8
REMARK VINA RESULT:      -5.2      3.145      5.324
REMARK  4 active torsions:
REMARK  status: ('A' for Active; 'I' for Inactive)
REMARK    1  A    between atoms: C_4  and  N_5 
REMARK       I    between atoms: N_5  and  C_6 
REMARK       I    between atoms: C_6  and  N_8 
REMARK    2  A    between atoms: N_8  and  C_9 
REMARK    3  A    between atoms: C_9  and  C_10 
REMARK    4  A    between atoms: C_9  and  C_13 
ROOT
HETATM    1  N   UNL     1     -42.115 -50.024  11.720  1.00  0.00    -0.309 N 
HETATM    2  C   UNL     1     -42.871 -50.579  12.732  1.00  0.00     0.321 C 
HETATM    3  O   UNL     1     -43.219 -50.017  13.761  1.00  0.00    -0.247 OA
HETATM    4  N   UNL     1     -43.234 -51.875  12.457  1.00  0.00    -0.338 N 
HETATM    5  H   UNL     1     -41.804 -50.646  10.989  1.00  0.00     0.170 HD
HETATM    6  H   UNL     1     -42.744 -52.385  11.743  1.00  0.00     0.164 HD
ENDROOT
BRANCH   1   7
HETATM    7  C   UNL     1     -41.631 -48.695  11.678  1.00  0.00     0.039 A 
HETATM    8  C   UNL     1     -40.717 -48.191  12.602  1.00  0.00     0.054 A 
HETATM    9  C   UNL     1     -40.253 -46.887  12.465  1.00  0.00     0.007 A 
HETATM   10  C   UNL     1     -39.220 -46.357  13.413  1.00  0.00     0.068 C 
HETATM   11  N   UNL     1     -40.665 -46.070  11.470  1.00  0.00    -0.369 N 
HETATM   12  C   UNL     1     -41.571 -46.567  10.602  1.00  0.00     0.090 A 
ATOM     13  HN  UNL     1     -40.306 -45.120  11.379  1.00  0.00     0.165 HD
HETATM   14  C   UNL     1     -42.084 -47.853  10.665  1.00  0.00     0.046 A 
ENDBRANCH   1   7
BRANCH   4  15
HETATM   15  C   UNL     1     -44.001 -52.640  13.421  1.00  0.00     0.094 C 
BRANCH  15  16
HETATM   16  C   UNL     1     -45.414 -52.760  12.911  1.00  0.00     0.009 A 
HETATM   17  C   UNL     1     -46.276 -51.530  12.739  1.00  0.00     0.007 A 
HETATM   18  C   UNL     1     -46.577 -52.501  13.843  1.00  0.00     0.007 A 
ENDBRANCH  15  16
BRANCH  15  19
HETATM   19  C   UNL     1     -43.354 -53.991  13.596  1.00  0.00     0.009 A 
HETATM   20  C   UNL     1     -43.961 -55.034  14.505  1.00  0.00     0.007 A 
HETATM   21  C   UNL     1     -42.684 -54.351  14.902  1.00  0.00     0.007 A 
ENDBRANCH  15  19
ENDBRANCH   4  15
TORSDOF 4
ENDMDL
MODEL 9
REMARK VINA RESULT:      -5.1      3.316      5.743
REMARK  4 active torsions:
REMARK  status: ('A' for Active; 'I' for Inactive)
REMARK    1  A    between atoms: C_4  and  N_5 
REMARK       I    between atoms: N_5  and  C_6 
REMARK       I    between atoms: C_6  and  N_8 
REMARK    2  A    between atoms: N_8  and  C_9 
REMARK    3  A    between atoms: C_9  and  C_10 
REMARK    4  A    between atoms: C_9  and  C_13 
ROOT
HETATM    1  N   UNL     1     -42.932 -51.770  12.101  1.00  0.00    -0.309 N 
HETATM    2  C   UNL     1     -42.140 -50.742  12.574  1.00  0.00     0.321 C 
HETATM    3  O   UNL     1     -42.193 -50.250  13.692  1.00  0.00    -0.247 OA
HETATM    4  N   UNL     1     -41.230 -50.316  11.638  1.00  0.00    -0.338 N 
HETATM    5  H   UNL     1     -42.856 -51.988  11.119  1.00  0.00     0.170 HD
HETATM    6  H   UNL     1     -41.365 -50.557  10.671  1.00  0.00     0.164 HD
ENDROOT
BRANCH   1   7
HETATM    7  C   UNL     1     -43.926 -52.457  12.836  1.00  0.00     0.039 A 
HETATM    8  C   UNL     1     -44.902 -51.804  13.587  1.00  0.00     0.054 A 
HETATM    9  C   UNL     1     -45.875 -52.550  14.243  1.00  0.00     0.007 A 
HETATM   10  C   UNL     1     -46.967 -51.855  14.998  1.00  0.00     0.068 C 
HETATM   11  N   UNL     1     -45.909 -53.900  14.198  1.00  0.00    -0.369 N 
HETATM   12  C   UNL     1     -44.939 -54.515  13.489  1.00  0.00     0.090 A 
ATOM     13  HN  UNL     1     -46.636 -54.431  14.677  1.00  0.00     0.165 HD
HETATM   14  C   UNL     1     -43.934 -53.850  12.805  1.00  0.00     0.046 A 
ENDBRANCH   1   7
BRANCH   4  15
HETATM   15  C   UNL     1     -40.333 -49.216  11.936  1.00  0.00     0.094 C 
BRANCH  15  16
HETATM   16  C   UNL     1     -38.930 -49.644  11.592  1.00  0.00     0.009 A 
HETATM   17  C   UNL     1     -38.261 -50.769  12.348  1.00  0.00     0.007 A 
HETATM   18  C   UNL     1     -37.796 -49.356  12.550  1.00  0.00     0.007 A 
ENDBRANCH  15  16
BRANCH  15  19
HETATM   19  C   UNL     1     -40.761 -48.009  11.140  1.00  0.00     0.009 A 
HETATM   20  C   UNL     1     -39.997 -46.708  11.225  1.00  0.00     0.007 A 
HETATM   21  C   UNL     1     -41.365 -46.812  11.837  1.00  0.00     0.007 A 
ENDBRANCH  15  19
ENDBRANCH   4  15
TORSDOF 4
ENDMDL
