MODEL 1
REMARK VINA RESULT:      -6.8      0.000      0.000
REMARK  6 active torsions:
REMARK  status: ('A' for Active; 'I' for Inactive)
REMARK    1  A    between atoms: N_6  and  C_7 
REMARK    2  A    between atoms: C_7  and  C_8 
REMARK    3  A    between atoms: C_8  and  O_9 
REMARK    4  A    between atoms: C_8  and  C_10 
REMARK    5  A    between atoms: C_10  and  O_11 
REMARK    6  A    between atoms: O_11  and  C_12 
ROOT
HETATM    1  C   UNL     1     -40.758 -52.339  12.442  1.00  0.00     0.160 C 
ENDROOT
BRANCH   1   2
HETATM    2  C   UNL     1     -39.599 -51.327  12.536  1.00  0.00     0.166 C 
BRANCH   2   3
HETATM    3  N   UNL     1     -39.976 -49.996  12.088  1.00  0.00    -0.307 N 
HETATM    4  C   UNL     1     -40.745 -49.839  10.971  1.00  0.00     0.186 A 
HETATM    5  N   UNL     1     -41.140 -48.707  10.499  1.00  0.00    -0.355 N 
HETATM    6  C   UNL     1     -40.757 -47.574  11.172  1.00  0.00     0.017 A 
ATOM      7  HN  UNL     1     -41.715 -48.656   9.658  1.00  0.00     0.166 HD
HETATM    8  C   UNL     1     -41.278 -46.291  10.576  1.00  0.00     0.069 C 
HETATM    9  C   UNL     1     -39.980 -47.577  12.271  1.00  0.00     0.028 A 
HETATM   10  C   UNL     1     -39.515 -48.893  12.780  1.00  0.00     0.256 A 
HETATM   11  C   UNL     1     -39.559 -46.349  13.017  1.00  0.00     0.056 C 
HETATM   12  O   UNL     1     -38.771 -48.981  13.757  1.00  0.00    -0.267 OA
ENDBRANCH   2   3
ENDBRANCH   1   2
BRANCH   1  13
HETATM   13  O   UNL     1     -40.474 -53.411  11.536  1.00  0.00    -0.392 OA
HETATM   14  H   UNL     1     -40.209 -53.023  10.678  1.00  0.00     0.210 HD
ENDBRANCH   1  13
BRANCH   1  15
HETATM   15  C   UNL     1     -41.032 -52.936  13.823  1.00  0.00     0.201 C 
BRANCH  15  16
HETATM   16  O   UNL     1     -42.174 -52.308  14.395  1.00  0.00    -0.379 OA
BRANCH  16  17
HETATM   17  C   UNL     1     -43.271 -52.080  13.492  1.00  0.00     0.155 C 
HETATM   18  C   UNL     1     -43.625 -50.594  13.645  1.00  0.00     0.037 C 
HETATM   19  C   UNL     1     -44.223 -50.331  15.029  1.00  0.00     0.007 C 
HETATM   20  C   UNL     1     -45.529 -51.102  15.203  1.00  0.00     0.039 C 
HETATM   21  C   UNL     1     -45.462 -52.530  14.721  1.00  0.00    -0.049 A 
HETATM   22  C   UNL     1     -46.468 -53.425  15.109  1.00  0.00     0.007 A 
HETATM   23  C   UNL     1     -44.459 -52.964  13.830  1.00  0.00    -0.023 A 
HETATM   24  C   UNL     1     -46.479 -54.738  14.637  1.00  0.00     0.001 A 
HETATM   25  C   UNL     1     -45.512 -55.157  13.730  1.00  0.00     0.001 A 
HETATM   26  C   UNL     1     -44.525 -54.269  13.312  1.00  0.00     0.010 A 
ENDBRANCH  16  17
ENDBRANCH  15  16
ENDBRANCH   1  15
TORSDOF 6
ENDMDL
MODEL 2
REMARK VINA RESULT:      -6.6      1.572      2.948
REMARK  6 active torsions:
REMARK  status: ('A' for Active; 'I' for Inactive)
REMARK    1  A    between atoms: N_6  and  C_7 
REMARK    2  A    between atoms: C_7  and  C_8 
REMARK    3  A    between atoms: C_8  and  O_9 
REMARK    4  A    between atoms: C_8  and  C_10 
REMARK    5  A    between atoms: C_10  and  O_11 
REMARK    6  A    between atoms: O_11  and  C_12 
ROOT
HETATM    1  C   UNL     1     -39.940 -53.858  13.542  1.00  0.00     0.160 C 
ENDROOT
BRANCH   1   2
HETATM    2  C   UNL     1     -39.366 -52.481  13.930  1.00  0.00     0.166 C 
BRANCH   2   3
HETATM    3  N   UNL     1     -39.887 -51.401  13.109  1.00  0.00    -0.307 N 
HETATM    4  C   UNL     1     -40.809 -51.661  12.135  1.00  0.00     0.186 A 
HETATM    5  N   UNL     1     -41.338 -50.777  11.363  1.00  0.00    -0.355 N 
HETATM    6  C   UNL     1     -40.945 -49.473  11.534  1.00  0.00     0.017 A 
ATOM      7  HN  UNL     1     -42.023 -51.035  10.653  1.00  0.00     0.166 HD
HETATM    8  C   UNL     1     -41.626 -48.493  10.613  1.00  0.00     0.069 C 
HETATM    9  C   UNL     1     -40.029 -49.074  12.436  1.00  0.00     0.028 A 
HETATM   10  C   UNL     1     -39.412 -50.118  13.295  1.00  0.00     0.256 A 
HETATM   11  C   UNL     1     -39.593 -47.656  12.635  1.00  0.00     0.056 C 
HETATM   12  O   UNL     1     -38.539 -49.843  14.119  1.00  0.00    -0.267 OA
ENDBRANCH   2   3
ENDBRANCH   1   2
BRANCH   1  13
HETATM   13  O   UNL     1     -38.915 -54.839  13.342  1.00  0.00    -0.392 OA
HETATM   14  H   UNL     1     -38.870 -55.401  14.141  1.00  0.00     0.210 HD
ENDBRANCH   1  13
BRANCH   1  15
HETATM   15  C   UNL     1     -40.874 -54.355  14.646  1.00  0.00     0.201 C 
BRANCH  15  16
HETATM   16  O   UNL     1     -42.181 -54.542  14.115  1.00  0.00    -0.379 OA
BRANCH  16  17
HETATM   17  C   UNL     1     -43.254 -54.010  14.913  1.00  0.00     0.155 C 
HETATM   18  C   UNL     1     -44.508 -54.785  14.484  1.00  0.00     0.037 C 
HETATM   19  C   UNL     1     -44.894 -54.416  13.050  1.00  0.00     0.007 C 
HETATM   20  C   UNL     1     -45.253 -52.935  12.957  1.00  0.00     0.039 C 
HETATM   21  C   UNL     1     -44.293 -52.029  13.687  1.00  0.00    -0.049 A 
HETATM   22  C   UNL     1     -44.322 -50.653  13.419  1.00  0.00     0.007 A 
HETATM   23  C   UNL     1     -43.427 -52.518  14.685  1.00  0.00    -0.023 A 
HETATM   24  C   UNL     1     -43.495 -49.771  14.115  1.00  0.00     0.001 A 
HETATM   25  C   UNL     1     -42.666 -50.247  15.124  1.00  0.00     0.001 A 
HETATM   26  C   UNL     1     -42.651 -51.607  15.423  1.00  0.00     0.010 A 
ENDBRANCH  16  17
ENDBRANCH  15  16
ENDBRANCH   1  15
TORSDOF 6
ENDMDL
MODEL 3
REMARK VINA RESULT:      -6.6      1.732      2.762
REMARK  6 active torsions:
REMARK  status: ('A' for Active; 'I' for Inactive)
REMARK    1  A    between atoms: N_6  and  C_7 
REMARK    2  A    between atoms: C_7  and  C_8 
REMARK    3  A    between atoms: C_8  and  O_9 
REMARK    4  A    between atoms: C_8  and  C_10 
REMARK    5  A    between atoms: C_10  and  O_11 
REMARK    6  A    between atoms: O_11  and  C_12 
ROOT
HETATM    1  C   UNL     1     -41.093 -53.567  13.482  1.00  0.00     0.160 C 
ENDROOT
BRANCH   1   2
HETATM    2  C   UNL     1     -40.451 -52.466  14.350  1.00  0.00     0.166 C 
BRANCH   2   3
HETATM    3  N   UNL     1     -40.208 -51.237  13.614  1.00  0.00    -0.307 N 
HETATM    4  C   UNL     1     -41.160 -50.258  13.577  1.00  0.00     0.186 A 
HETATM    5  N   UNL     1     -41.038 -49.132  12.964  1.00  0.00    -0.355 N 
HETATM    6  C   UNL     1     -39.861 -48.900  12.297  1.00  0.00     0.017 A 
ATOM      7  HN  UNL     1     -41.787 -48.440  12.974  1.00  0.00     0.166 HD
HETATM    8  C   UNL     1     -39.782 -47.552  11.626  1.00  0.00     0.069 C 
HETATM    9  C   UNL     1     -38.848 -49.783  12.227  1.00  0.00     0.028 A 
HETATM   10  C   UNL     1     -39.023 -51.086  12.919  1.00  0.00     0.256 A 
HETATM   11  C   UNL     1     -37.559 -49.542  11.506  1.00  0.00     0.056 C 
HETATM   12  O   UNL     1     -38.161 -51.963  12.873  1.00  0.00    -0.267 OA
ENDBRANCH   2   3
ENDBRANCH   1   2
BRANCH   1  13
HETATM   13  O   UNL     1     -40.119 -54.448  12.911  1.00  0.00    -0.392 OA
HETATM   14  H   UNL     1     -39.916 -54.134  12.007  1.00  0.00     0.210 HD
ENDBRANCH   1  13
BRANCH   1  15
HETATM   15  C   UNL     1     -42.054 -54.397  14.334  1.00  0.00     0.201 C 
BRANCH  15  16
HETATM   16  O   UNL     1     -43.129 -53.576  14.777  1.00  0.00    -0.379 OA
BRANCH  16  17
HETATM   17  C   UNL     1     -44.439 -54.162  14.668  1.00  0.00     0.155 C 
HETATM   18  C   UNL     1     -44.662 -54.391  13.167  1.00  0.00     0.037 C 
HETATM   19  C   UNL     1     -44.794 -53.052  12.439  1.00  0.00     0.007 C 
HETATM   20  C   UNL     1     -46.015 -52.287  12.941  1.00  0.00     0.039 C 
HETATM   21  C   UNL     1     -46.163 -52.294  14.443  1.00  0.00    -0.049 A 
HETATM   22  C   UNL     1     -47.040 -51.379  15.043  1.00  0.00     0.007 A 
HETATM   23  C   UNL     1     -45.504 -53.246  15.247  1.00  0.00    -0.023 A 
HETATM   24  C   UNL     1     -47.254 -51.392  16.421  1.00  0.00     0.001 A 
HETATM   25  C   UNL     1     -46.633 -52.353  17.211  1.00  0.00     0.001 A 
HETATM   26  C   UNL     1     -45.784 -53.287  16.624  1.00  0.00     0.010 A 
ENDBRANCH  16  17
ENDBRANCH  15  16
ENDBRANCH   1  15
TORSDOF 6
ENDMDL
MODEL 4
REMARK VINA RESULT:      -6.6      1.324      2.531
REMARK  6 active torsions:
REMARK  status: ('A' for Active; 'I' for Inactive)
REMARK    1  A    between atoms: N_6  and  C_7 
REMARK    2  A    between atoms: C_7  and  C_8 
REMARK    3  A    between atoms: C_8  and  O_9 
REMARK    4  A    between atoms: C_8  and  C_10 
REMARK    5  A    between atoms: C_10  and  O_11 
REMARK    6  A    between atoms: O_11  and  C_12 
ROOT
HETATM    1  C   UNL     1     -41.249 -52.552  12.169  1.00  0.00     0.160 C 
ENDROOT
BRANCH   1   2
HETATM    2  C   UNL     1     -40.417 -51.339  12.631  1.00  0.00     0.166 C 
BRANCH   2   3
HETATM    3  N   UNL     1     -40.979 -50.071  12.196  1.00  0.00    -0.307 N 
HETATM    4  C   UNL     1     -42.333 -49.916  12.101  1.00  0.00     0.186 A 
HETATM    5  N   UNL     1     -42.929 -48.834  11.738  1.00  0.00    -0.355 N 
HETATM    6  C   UNL     1     -42.142 -47.754  11.423  1.00  0.00     0.017 A 
ATOM      7  HN  UNL     1     -43.946 -48.781  11.686  1.00  0.00     0.166 HD
HETATM    8  C   UNL     1     -42.910 -46.518  11.032  1.00  0.00     0.069 C 
HETATM    9  C   UNL     1     -40.796 -47.770  11.449  1.00  0.00     0.028 A 
HETATM   10  C   UNL     1     -40.132 -49.039  11.844  1.00  0.00     0.256 A 
HETATM   11  C   UNL     1     -39.926 -46.600  11.111  1.00  0.00     0.056 C 
HETATM   12  O   UNL     1     -38.906 -49.149  11.856  1.00  0.00    -0.267 OA
ENDBRANCH   2   3
ENDBRANCH   1   2
BRANCH   1  13
HETATM   13  O   UNL     1     -40.509 -53.425  11.309  1.00  0.00    -0.392 OA
HETATM   14  H   UNL     1     -40.952 -53.443  10.437  1.00  0.00     0.210 HD
ENDBRANCH   1  13
BRANCH   1  15
HETATM   15  C   UNL     1     -41.710 -53.353  13.387  1.00  0.00     0.201 C 
BRANCH  15  16
HETATM   16  O   UNL     1     -43.029 -52.957  13.746  1.00  0.00    -0.379 OA
BRANCH  16  17
HETATM   17  C   UNL     1     -43.497 -53.447  15.015  1.00  0.00     0.155 C 
HETATM   18  C   UNL     1     -43.782 -54.940  14.800  1.00  0.00     0.037 C 
HETATM   19  C   UNL     1     -44.981 -55.122  13.867  1.00  0.00     0.007 C 
HETATM   20  C   UNL     1     -46.242 -54.533  14.494  1.00  0.00     0.039 C 
HETATM   21  C   UNL     1     -46.033 -53.177  15.122  1.00  0.00    -0.049 A 
HETATM   22  C   UNL     1     -47.153 -52.397  15.441  1.00  0.00     0.007 A 
HETATM   23  C   UNL     1     -44.748 -52.710  15.465  1.00  0.00    -0.023 A 
HETATM   24  C   UNL     1     -47.009 -51.164  16.078  1.00  0.00     0.001 A 
HETATM   25  C   UNL     1     -45.746 -50.719  16.450  1.00  0.00     0.001 A 
HETATM   26  C   UNL     1     -44.627 -51.498  16.167  1.00  0.00     0.010 A 
ENDBRANCH  16  17
ENDBRANCH  15  16
ENDBRANCH   1  15
TORSDOF 6
ENDMDL
MODEL 5
REMARK VINA RESULT:      -6.5      1.336      2.127
REMARK  6 active torsions:
REMARK  status: ('A' for Active; 'I' for Inactive)
REMARK    1  A    between atoms: N_6  and  C_7 
REMARK    2  A    between atoms: C_7  and  C_8 
REMARK    3  A    between atoms: C_8  and  O_9 
REMARK    4  A    between atoms: C_8  and  C_10 
REMARK    5  A    between atoms: C_10  and  O_11 
REMARK    6  A    between atoms: O_11  and  C_12 
ROOT
HETATM    1  C   UNL     1     -40.987 -52.617  12.508  1.00  0.00     0.160 C 
ENDROOT
BRANCH   1   2
HETATM    2  C   UNL     1     -39.872 -51.745  13.118  1.00  0.00     0.166 C 
BRANCH   2   3
HETATM    3  N   UNL     1     -39.909 -50.371  12.645  1.00  0.00    -0.307 N 
HETATM    4  C   UNL     1     -40.445 -50.078  11.423  1.00  0.00     0.186 A 
HETATM    5  N   UNL     1     -40.536 -48.896  10.920  1.00  0.00    -0.355 N 
HETATM    6  C   UNL     1     -40.055 -47.852  11.670  1.00  0.00     0.017 A 
ATOM      7  HN  UNL     1     -40.948 -48.743  10.000  1.00  0.00     0.166 HD
HETATM    8  C   UNL     1     -40.218 -46.498  11.027  1.00  0.00     0.069 C 
HETATM    9  C   UNL     1     -39.480 -47.994  12.878  1.00  0.00     0.028 A 
HETATM   10  C   UNL     1     -39.362 -49.371  13.425  1.00  0.00     0.256 A 
HETATM   11  C   UNL     1     -38.955 -46.864  13.708  1.00  0.00     0.056 C 
HETATM   12  O   UNL     1     -38.815 -49.592  14.505  1.00  0.00    -0.267 OA
ENDBRANCH   2   3
ENDBRANCH   1   2
BRANCH   1  13
HETATM   13  O   UNL     1     -40.505 -53.460  11.455  1.00  0.00    -0.392 OA
HETATM   14  H   UNL     1     -40.668 -53.007  10.603  1.00  0.00     0.210 HD
ENDBRANCH   1  13
BRANCH   1  15
HETATM   15  C   UNL     1     -41.596 -53.505  13.594  1.00  0.00     0.201 C 
BRANCH  15  16
HETATM   16  O   UNL     1     -42.699 -52.834  14.195  1.00  0.00    -0.379 OA
BRANCH  16  17
HETATM   17  C   UNL     1     -43.844 -53.657  14.478  1.00  0.00     0.155 C 
HETATM   18  C   UNL     1     -44.306 -54.199  13.117  1.00  0.00     0.037 C 
HETATM   19  C   UNL     1     -44.869 -53.065  12.258  1.00  0.00     0.007 C 
HETATM   20  C   UNL     1     -46.103 -52.455  12.918  1.00  0.00     0.039 C 
HETATM   21  C   UNL     1     -45.944 -52.210  14.398  1.00  0.00    -0.049 A 
HETATM   22  C   UNL     1     -46.862 -51.374  15.050  1.00  0.00     0.007 A 
HETATM   23  C   UNL     1     -44.946 -52.859  15.153  1.00  0.00    -0.023 A 
HETATM   24  C   UNL     1     -46.789 -51.169  16.428  1.00  0.00     0.001 A 
HETATM   25  C   UNL     1     -45.829 -51.837  17.179  1.00  0.00     0.001 A 
HETATM   26  C   UNL     1     -44.931 -52.694  16.549  1.00  0.00     0.010 A 
ENDBRANCH  16  17
ENDBRANCH  15  16
ENDBRANCH   1  15
TORSDOF 6
ENDMDL
MODEL 6
REMARK VINA RESULT:      -6.5      2.178      6.929
REMARK  6 active torsions:
REMARK  status: ('A' for Active; 'I' for Inactive)
REMARK    1  A    between atoms: N_6  and  C_7 
REMARK    2  A    between atoms: C_7  and  C_8 
REMARK    3  A    between atoms: C_8  and  O_9 
REMARK    4  A    between atoms: C_8  and  C_10 
REMARK    5  A    between atoms: C_10  and  O_11 
REMARK    6  A    between atoms: O_11  and  C_12 
ROOT
HETATM    1  C   UNL     1     -41.006 -53.131  12.542  1.00  0.00     0.160 C 
ENDROOT
BRANCH   1   2
HETATM    2  C   UNL     1     -42.167 -52.120  12.470  1.00  0.00     0.166 C 
BRANCH   2   3
HETATM    3  N   UNL     1     -43.396 -52.630  13.055  1.00  0.00    -0.307 N 
HETATM    4  C   UNL     1     -43.581 -53.975  13.201  1.00  0.00     0.186 A 
HETATM    5  N   UNL     1     -44.626 -54.525  13.716  1.00  0.00    -0.355 N 
HETATM    6  C   UNL     1     -45.629 -53.695  14.150  1.00  0.00     0.017 A 
ATOM      7  HN  UNL     1     -44.704 -55.539  13.798  1.00  0.00     0.166 HD
HETATM    8  C   UNL     1     -46.806 -54.409  14.763  1.00  0.00     0.069 C 
HETATM    9  C   UNL     1     -45.593 -52.353  14.047  1.00  0.00     0.028 A 
HETATM   10  C   UNL     1     -44.389 -51.744  13.425  1.00  0.00     0.256 A 
HETATM   11  C   UNL     1     -46.677 -51.436  14.520  1.00  0.00     0.056 C 
HETATM   12  O   UNL     1     -44.294 -50.528  13.258  1.00  0.00    -0.267 OA
ENDBRANCH   2   3
ENDBRANCH   1   2
BRANCH   1  13
HETATM   13  O   UNL     1     -40.473 -53.443  11.250  1.00  0.00    -0.392 OA
HETATM   14  H   UNL     1     -40.679 -52.701  10.647  1.00  0.00     0.210 HD
ENDBRANCH   1  13
BRANCH   1  15
HETATM   15  C   UNL     1     -39.879 -52.557  13.402  1.00  0.00     0.201 C 
BRANCH  15  16
HETATM   16  O   UNL     1     -39.960 -51.136  13.407  1.00  0.00    -0.379 OA
BRANCH  16  17
HETATM   17  C   UNL     1     -39.058 -50.462  12.511  1.00  0.00     0.155 C 
HETATM   18  C   UNL     1     -37.657 -50.676  13.101  1.00  0.00     0.037 C 
HETATM   19  C   UNL     1     -37.512 -49.909  14.417  1.00  0.00     0.007 C 
HETATM   20  C   UNL     1     -37.652 -48.408  14.180  1.00  0.00     0.039 C 
HETATM   21  C   UNL     1     -38.796 -48.039  13.268  1.00  0.00    -0.049 A 
HETATM   22  C   UNL     1     -39.227 -46.706  13.225  1.00  0.00     0.007 A 
HETATM   23  C   UNL     1     -39.387 -48.983  12.404  1.00  0.00    -0.023 A 
HETATM   24  C   UNL     1     -40.240 -46.309  12.351  1.00  0.00     0.001 A 
HETATM   25  C   UNL     1     -40.799 -47.230  11.473  1.00  0.00     0.001 A 
HETATM   26  C   UNL     1     -40.358 -48.551  11.483  1.00  0.00     0.010 A 
ENDBRANCH  16  17
ENDBRANCH  15  16
ENDBRANCH   1  15
TORSDOF 6
ENDMDL
MODEL 7
REMARK VINA RESULT:      -6.3      2.607      4.880
REMARK  6 active torsions:
REMARK  status: ('A' for Active; 'I' for Inactive)
REMARK    1  A    between atoms: N_6  and  C_7 
REMARK    2  A    between atoms: C_7  and  C_8 
REMARK    3  A    between atoms: C_8  and  O_9 
REMARK    4  A    between atoms: C_8  and  C_10 
REMARK    5  A    between atoms: C_10  and  O_11 
REMARK    6  A    between atoms: O_11  and  C_12 
ROOT
HETATM    1  C   UNL     1     -40.867 -50.869  11.813  1.00  0.00     0.160 C 
ENDROOT
BRANCH   1   2
HETATM    2  C   UNL     1     -41.292 -52.342  11.649  1.00  0.00     0.166 C 
BRANCH   2   3
HETATM    3  N   UNL     1     -41.180 -53.102  12.883  1.00  0.00    -0.307 N 
HETATM    4  C   UNL     1     -39.994 -53.144  13.559  1.00  0.00     0.186 A 
HETATM    5  N   UNL     1     -39.794 -53.778  14.663  1.00  0.00    -0.355 N 
HETATM    6  C   UNL     1     -40.856 -54.462  15.199  1.00  0.00     0.017 A 
ATOM      7  HN  UNL     1     -38.883 -53.771  15.120  1.00  0.00     0.166 HD
HETATM    8  C   UNL     1     -40.554 -55.157  16.502  1.00  0.00     0.069 C 
HETATM    9  C   UNL     1     -42.075 -54.528  14.630  1.00  0.00     0.028 A 
HETATM   10  C   UNL     1     -42.271 -53.812  13.343  1.00  0.00     0.256 A 
HETATM   11  C   UNL     1     -43.242 -55.267  15.205  1.00  0.00     0.056 C 
HETATM   12  O   UNL     1     -43.343 -53.854  12.738  1.00  0.00    -0.267 OA
ENDBRANCH   2   3
ENDBRANCH   1   2
BRANCH   1  13
HETATM   13  O   UNL     1     -40.396 -50.298  10.588  1.00  0.00    -0.392 OA
HETATM   14  H   UNL     1     -40.767 -49.396  10.508  1.00  0.00     0.210 HD
ENDBRANCH   1  13
BRANCH   1  15
HETATM   15  C   UNL     1     -42.056 -50.043  12.305  1.00  0.00     0.201 C 
BRANCH  15  16
HETATM   16  O   UNL     1     -42.360 -50.399  13.649  1.00  0.00    -0.379 OA
BRANCH  16  17
HETATM   17  C   UNL     1     -43.573 -49.834  14.178  1.00  0.00     0.155 C 
HETATM   18  C   UNL     1     -43.210 -49.323  15.580  1.00  0.00     0.037 C 
HETATM   19  C   UNL     1     -42.911 -50.499  16.512  1.00  0.00     0.007 C 
HETATM   20  C   UNL     1     -44.150 -51.375  16.683  1.00  0.00     0.039 C 
HETATM   21  C   UNL     1     -44.876 -51.662  15.392  1.00  0.00    -0.049 A 
HETATM   22  C   UNL     1     -45.823 -52.696  15.362  1.00  0.00     0.007 A 
HETATM   23  C   UNL     1     -44.683 -50.869  14.243  1.00  0.00    -0.023 A 
HETATM   24  C   UNL     1     -46.561 -52.955  14.207  1.00  0.00     0.001 A 
HETATM   25  C   UNL     1     -46.399 -52.151  13.085  1.00  0.00     0.001 A 
HETATM   26  C   UNL     1     -45.485 -51.101  13.112  1.00  0.00     0.010 A 
ENDBRANCH  16  17
ENDBRANCH  15  16
ENDBRANCH   1  15
TORSDOF 6
ENDMDL
MODEL 8
REMARK VINA RESULT:      -6.3      2.800      6.689
REMARK  6 active torsions:
REMARK  status: ('A' for Active; 'I' for Inactive)
REMARK    1  A    between atoms: N_6  and  C_7 
REMARK    2  A    between atoms: C_7  and  C_8 
REMARK    3  A    between atoms: C_8  and  O_9 
REMARK    4  A    between atoms: C_8  and  C_10 
REMARK    5  A    between atoms: C_10  and  O_11 
REMARK    6  A    between atoms: O_11  and  C_12 
ROOT
HETATM    1  C   UNL     1     -41.652 -54.387  14.735  1.00  0.00     0.160 C 
ENDROOT
BRANCH   1   2
HETATM    2  C   UNL     1     -43.045 -55.035  14.609  1.00  0.00     0.166 C 
BRANCH   2   3
HETATM    3  N   UNL     1     -44.128 -54.078  14.760  1.00  0.00    -0.307 N 
HETATM    4  C   UNL     1     -44.525 -53.680  16.005  1.00  0.00     0.186 A 
HETATM    5  N   UNL     1     -45.464 -52.832  16.245  1.00  0.00    -0.355 N 
HETATM    6  C   UNL     1     -46.114 -52.287  15.166  1.00  0.00     0.017 A 
ATOM      7  HN  UNL     1     -45.714 -52.575  17.199  1.00  0.00     0.166 HD
HETATM    8  C   UNL     1     -47.181 -51.285  15.524  1.00  0.00     0.069 C 
HETATM    9  C   UNL     1     -45.845 -52.604  13.885  1.00  0.00     0.028 A 
HETATM   10  C   UNL     1     -44.777 -53.605  13.636  1.00  0.00     0.256 A 
HETATM   11  C   UNL     1     -46.543 -52.015  12.700  1.00  0.00     0.056 C 
HETATM   12  O   UNL     1     -44.495 -53.979  12.497  1.00  0.00    -0.267 OA
ENDBRANCH   2   3
ENDBRANCH   1   2
BRANCH   1  13
HETATM   13  O   UNL     1     -40.752 -55.176  15.521  1.00  0.00    -0.392 OA
HETATM   14  H   UNL     1     -40.099 -54.576  15.934  1.00  0.00     0.210 HD
ENDBRANCH   1  13
BRANCH   1  15
HETATM   15  C   UNL     1     -41.043 -54.204  13.344  1.00  0.00     0.201 C 
BRANCH  15  16
HETATM   16  O   UNL     1     -41.335 -52.896  12.865  1.00  0.00    -0.379 OA
BRANCH  16  17
HETATM   17  C   UNL     1     -40.943 -51.817  13.732  1.00  0.00     0.155 C 
HETATM   18  C   UNL     1     -42.194 -50.941  13.889  1.00  0.00     0.037 C 
HETATM   19  C   UNL     1     -42.527 -50.250  12.566  1.00  0.00     0.007 C 
HETATM   20  C   UNL     1     -41.396 -49.311  12.153  1.00  0.00     0.039 C 
HETATM   21  C   UNL     1     -40.020 -49.908  12.313  1.00  0.00    -0.049 A 
HETATM   22  C   UNL     1     -38.933 -49.287  11.681  1.00  0.00     0.007 A 
HETATM   23  C   UNL     1     -39.789 -51.024  13.142  1.00  0.00    -0.023 A 
HETATM   24  C   UNL     1     -37.635 -49.769  11.852  1.00  0.00     0.001 A 
HETATM   25  C   UNL     1     -37.401 -50.847  12.698  1.00  0.00     0.001 A 
HETATM   26  C   UNL     1     -38.468 -51.454  13.356  1.00  0.00     0.010 A 
ENDBRANCH  16  17
ENDBRANCH  15  16
ENDBRANCH   1  15
TORSDOF 6
ENDMDL
MODEL 9
REMARK VINA RESULT:      -6.2      2.049      7.018
REMARK  6 active torsions:
REMARK  status: ('A' for Active; 'I' for Inactive)
REMARK    1  A    between atoms: N_6  and  C_7 
REMARK    2  A    between atoms: C_7  and  C_8 
REMARK    3  A    between atoms: C_8  and  O_9 
REMARK    4  A    between atoms: C_8  and  C_10 
REMARK    5  A    between atoms: C_10  and  O_11 
REMARK    6  A    between atoms: O_11  and  C_12 
ROOT
HETATM    1  C   UNL     1     -40.904 -52.704  12.526  1.00  0.00     0.160 C 
ENDROOT
BRANCH   1   2
HETATM    2  C   UNL     1     -42.331 -52.123  12.504  1.00  0.00     0.166 C 
BRANCH   2   3
HETATM    3  N   UNL     1     -43.163 -52.629  13.583  1.00  0.00    -0.307 N 
HETATM    4  C   UNL     1     -42.970 -52.193  14.863  1.00  0.00     0.186 A 
HETATM    5  N   UNL     1     -43.658 -52.570  15.884  1.00  0.00    -0.355 N 
HETATM    6  C   UNL     1     -44.662 -53.481  15.668  1.00  0.00     0.017 A 
ATOM      7  HN  UNL     1     -43.464 -52.207  16.817  1.00  0.00     0.166 HD
HETATM    8  C   UNL     1     -45.439 -53.855  16.904  1.00  0.00     0.069 C 
HETATM    9  C   UNL     1     -44.949 -54.014  14.465  1.00  0.00     0.028 A 
HETATM   10  C   UNL     1     -44.123 -53.583  13.308  1.00  0.00     0.256 A 
HETATM   11  C   UNL     1     -46.043 -55.004  14.215  1.00  0.00     0.056 C 
HETATM   12  O   UNL     1     -44.295 -54.051  12.182  1.00  0.00    -0.267 OA
ENDBRANCH   2   3
ENDBRANCH   1   2
BRANCH   1  13
HETATM   13  O   UNL     1     -40.598 -53.443  11.338  1.00  0.00    -0.392 OA
HETATM   14  H   UNL     1     -41.038 -54.315  11.398  1.00  0.00     0.210 HD
ENDBRANCH   1  13
BRANCH   1  15
HETATM   15  C   UNL     1     -39.889 -51.569  12.662  1.00  0.00     0.201 C 
BRANCH  15  16
HETATM   16  O   UNL     1     -40.544 -50.319  12.477  1.00  0.00    -0.379 OA
BRANCH  16  17
HETATM   17  C   UNL     1     -39.909 -49.420  11.551  1.00  0.00     0.155 C 
HETATM   18  C   UNL     1     -38.550 -49.078  12.177  1.00  0.00     0.037 C 
HETATM   19  C   UNL     1     -38.745 -48.233  13.438  1.00  0.00     0.007 C 
HETATM   20  C   UNL     1     -39.405 -46.901  13.094  1.00  0.00     0.039 C 
HETATM   21  C   UNL     1     -40.567 -47.026  12.139  1.00  0.00    -0.049 A 
HETATM   22  C   UNL     1     -41.447 -45.943  11.995  1.00  0.00     0.007 A 
HETATM   23  C   UNL     1     -40.744 -48.169  11.334  1.00  0.00    -0.023 A 
HETATM   24  C   UNL     1     -42.497 -45.993  11.079  1.00  0.00     0.001 A 
HETATM   25  C   UNL     1     -42.652 -47.104  10.259  1.00  0.00     0.001 A 
HETATM   26  C   UNL     1     -41.766 -48.173  10.369  1.00  0.00     0.010 A 
ENDBRANCH  16  17
ENDBRANCH  15  16
ENDBRANCH   1  15
TORSDOF 6
ENDMDL
