MODEL 1
REMARK VINA RESULT:      -7.2      0.000      0.000
REMARK  4 active torsions:
REMARK  status: ('A' for Active; 'I' for Inactive)
REMARK    1  A    between atoms: O_2  and  C_3 
REMARK    2  A    between atoms: C_6  and  N_7 
REMARK       I    between atoms: N_7  and  C_8 
REMARK       I    between atoms: C_8  and  N_10 
REMARK    3  A    between atoms: N_10  and  C_11 
REMARK    4  A    between atoms: C_13  and  C_18 
ROOT
HETATM    1  N   UNL     1     -40.225 -49.184  11.551  1.00  0.00    -0.337 N 
HETATM    2  C   UNL     1     -41.492 -48.666  11.382  1.00  0.00     0.321 C 
HETATM    3  O   UNL     1     -42.381 -48.923  12.187  1.00  0.00    -0.247 OA
HETATM    4  N   UNL     1     -41.647 -47.880  10.263  1.00  0.00    -0.304 N 
HETATM    5  H   UNL     1     -39.489 -48.901  10.923  1.00  0.00     0.164 HD
HETATM    6  H   UNL     1     -40.835 -47.652   9.698  1.00  0.00     0.171 HD
ENDROOT
BRANCH   4   7
HETATM    7  C   UNL     1     -42.837 -47.301   9.840  1.00  0.00     0.105 A 
HETATM    8  C   UNL     1     -43.995 -47.949   9.628  1.00  0.00     0.052 A 
HETATM    9  C   UNL     1     -45.206 -47.288   9.173  1.00  0.00     0.065 A 
HETATM   10  C   UNL     1     -45.188 -45.954   9.028  1.00  0.00     0.107 A 
HETATM   11  N   UNL     1     -44.038 -45.238   9.253  1.00  0.00    -0.331 N 
HETATM   12  C   UNL     1     -42.830 -45.809   9.607  1.00  0.00     0.272 A 
HETATM   13  H   UNL     1     -44.030 -44.234   9.113  1.00  0.00     0.168 HD
HETATM   14  O   UNL     1     -41.803 -45.150   9.736  1.00  0.00    -0.266 OA
BRANCH   9  15
HETATM   15  C   UNL     1     -46.413 -48.129   8.856  1.00  0.00     0.418 C 
HETATM   16  F   UNL     1     -46.590 -49.168   9.710  1.00  0.00    -0.166 F 
HETATM   17  F   UNL     1     -47.556 -47.396   8.886  1.00  0.00    -0.166 F 
HETATM   18  F   UNL     1     -46.326 -48.664   7.610  1.00  0.00    -0.166 F 
ENDBRANCH   9  15
ENDBRANCH   4   7
BRANCH   1  19
HETATM   19  C   UNL     1     -39.983 -50.063  12.733  1.00  0.00     0.099 C 
HETATM   20  C   UNL     1     -39.969 -49.299  14.076  1.00  0.00     0.064 C 
HETATM   21  C   UNL     1     -38.415 -49.395  14.106  1.00  0.00     0.067 C 
HETATM   22  C   UNL     1     -37.785 -48.072  13.663  1.00  0.00     0.047 C 
HETATM   23  C   UNL     1     -38.544 -50.567  13.042  1.00  0.00     0.004 C 
HETATM   24  C   UNL     1     -37.520 -50.580  11.913  1.00  0.00     0.020 C 
HETATM   25  C   UNL     1     -38.637 -51.980  13.664  1.00  0.00     0.020 C 
BRANCH  21  26
HETATM   26  O   UNL     1     -37.892 -49.779  15.408  1.00  0.00    -0.384 OA
HETATM   27  C   UNL     1     -36.625 -49.267  15.803  1.00  0.00     0.202 C 
ENDBRANCH  21  26
ENDBRANCH   1  19
TORSDOF 4
ENDMDL
MODEL 2
REMARK VINA RESULT:      -7.0      5.261      6.765
REMARK  4 active torsions:
REMARK  status: ('A' for Active; 'I' for Inactive)
REMARK    1  A    between atoms: O_2  and  C_3 
REMARK    2  A    between atoms: C_6  and  N_7 
REMARK       I    between atoms: N_7  and  C_8 
REMARK       I    between atoms: C_8  and  N_10 
REMARK    3  A    between atoms: N_10  and  C_11 
REMARK    4  A    between atoms: C_13  and  C_18 
ROOT
HETATM    1  N   UNL     1     -43.790 -50.350  12.578  1.00  0.00    -0.337 N 
HETATM    2  C   UNL     1     -43.091 -49.170  12.723  1.00  0.00     0.321 C 
HETATM    3  O   UNL     1     -43.102 -48.569  13.793  1.00  0.00    -0.247 OA
HETATM    4  N   UNL     1     -42.425 -48.753  11.593  1.00  0.00    -0.304 N 
HETATM    5  H   UNL     1     -43.708 -50.868  11.717  1.00  0.00     0.164 HD
HETATM    6  H   UNL     1     -42.401 -49.357  10.778  1.00  0.00     0.171 HD
ENDROOT
BRANCH   4   7
HETATM    7  C   UNL     1     -41.708 -47.570  11.468  1.00  0.00     0.105 A 
HETATM    8  C   UNL     1     -40.810 -47.097  12.348  1.00  0.00     0.052 A 
HETATM    9  C   UNL     1     -40.099 -45.843  12.168  1.00  0.00     0.065 A 
HETATM   10  C   UNL     1     -40.295 -45.158  11.031  1.00  0.00     0.107 A 
HETATM   11  N   UNL     1     -41.186 -45.605  10.085  1.00  0.00    -0.331 N 
HETATM   12  C   UNL     1     -41.955 -46.745  10.227  1.00  0.00     0.272 A 
HETATM   13  H   UNL     1     -41.346 -45.064   9.243  1.00  0.00     0.168 HD
HETATM   14  O   UNL     1     -42.791 -47.083   9.395  1.00  0.00    -0.266 OA
BRANCH   9  15
HETATM   15  C   UNL     1     -39.202 -45.354  13.272  1.00  0.00     0.418 C 
HETATM   16  F   UNL     1     -39.876 -44.836  14.330  1.00  0.00    -0.166 F 
HETATM   17  F   UNL     1     -38.415 -46.349  13.757  1.00  0.00    -0.166 F 
HETATM   18  F   UNL     1     -38.368 -44.377  12.831  1.00  0.00    -0.166 F 
ENDBRANCH   9  15
ENDBRANCH   4   7
BRANCH   1  19
HETATM   19  C   UNL     1     -44.555 -50.857  13.755  1.00  0.00     0.099 C 
HETATM   20  C   UNL     1     -43.905 -52.086  14.429  1.00  0.00     0.064 C 
HETATM   21  C   UNL     1     -44.969 -53.006  13.761  1.00  0.00     0.067 C 
HETATM   22  C   UNL     1     -44.380 -53.711  12.536  1.00  0.00     0.047 C 
HETATM   23  C   UNL     1     -45.844 -51.700  13.536  1.00  0.00     0.004 C 
HETATM   24  C   UNL     1     -46.570 -51.586  12.200  1.00  0.00     0.020 C 
HETATM   25  C   UNL     1     -46.836 -51.396  14.683  1.00  0.00     0.020 C 
BRANCH  21  26
HETATM   26  O   UNL     1     -45.527 -53.990  14.675  1.00  0.00    -0.384 OA
HETATM   27  C   UNL     1     -45.921 -55.252  14.149  1.00  0.00     0.202 C 
ENDBRANCH  21  26
ENDBRANCH   1  19
TORSDOF 4
ENDMDL
MODEL 3
REMARK VINA RESULT:      -7.0      4.661      6.147
REMARK  4 active torsions:
REMARK  status: ('A' for Active; 'I' for Inactive)
REMARK    1  A    between atoms: O_2  and  C_3 
REMARK    2  A    between atoms: C_6  and  N_7 
REMARK       I    between atoms: N_7  and  C_8 
REMARK       I    between atoms: C_8  and  N_10 
REMARK    3  A    between atoms: N_10  and  C_11 
REMARK    4  A    between atoms: C_13  and  C_18 
ROOT
HETATM    1  N   UNL     1     -43.902 -50.192  12.550  1.00  0.00    -0.337 N 
HETATM    2  C   UNL     1     -43.223 -49.003  12.712  1.00  0.00     0.321 C 
HETATM    3  O   UNL     1     -43.143 -48.479  13.819  1.00  0.00    -0.247 OA
HETATM    4  N   UNL     1     -42.683 -48.486  11.556  1.00  0.00    -0.304 N 
HETATM    5  H   UNL     1     -43.892 -50.646  11.649  1.00  0.00     0.164 HD
HETATM    6  H   UNL     1     -42.725 -49.030  10.700  1.00  0.00     0.171 HD
ENDROOT
BRANCH   4   7
HETATM    7  C   UNL     1     -42.013 -47.274  11.449  1.00  0.00     0.105 A 
HETATM    8  C   UNL     1     -42.585 -46.059  11.419  1.00  0.00     0.052 A 
HETATM    9  C   UNL     1     -41.830 -44.824  11.292  1.00  0.00     0.065 A 
HETATM   10  C   UNL     1     -40.490 -44.896  11.277  1.00  0.00     0.107 A 
HETATM   11  N   UNL     1     -39.850 -46.110  11.327  1.00  0.00    -0.331 N 
HETATM   12  C   UNL     1     -40.506 -47.327  11.365  1.00  0.00     0.272 A 
HETATM   13  H   UNL     1     -38.838 -46.153  11.286  1.00  0.00     0.168 HD
HETATM   14  O   UNL     1     -39.908 -48.398  11.342  1.00  0.00    -0.266 OA
BRANCH   9  15
HETATM   15  C   UNL     1     -42.580 -43.528  11.153  1.00  0.00     0.418 C 
HETATM   16  F   UNL     1     -43.191 -43.128  12.297  1.00  0.00    -0.166 F 
HETATM   17  F   UNL     1     -41.763 -42.513  10.770  1.00  0.00    -0.166 F 
HETATM   18  F   UNL     1     -43.554 -43.622  10.210  1.00  0.00    -0.166 F 
ENDBRANCH   9  15
ENDBRANCH   4   7
BRANCH   1  19
HETATM   19  C   UNL     1     -44.533 -50.805  13.755  1.00  0.00     0.099 C 
HETATM   20  C   UNL     1     -43.756 -52.022  14.305  1.00  0.00     0.064 C 
HETATM   21  C   UNL     1     -44.816 -52.974  13.677  1.00  0.00     0.067 C 
HETATM   22  C   UNL     1     -44.291 -53.578  12.371  1.00  0.00     0.047 C 
HETATM   23  C   UNL     1     -45.784 -51.718  13.596  1.00  0.00     0.004 C 
HETATM   24  C   UNL     1     -46.625 -51.583  12.331  1.00  0.00     0.020 C 
HETATM   25  C   UNL     1     -46.691 -51.535  14.834  1.00  0.00     0.020 C 
BRANCH  21  26
HETATM   26  O   UNL     1     -45.235 -54.036  14.578  1.00  0.00    -0.384 OA
HETATM   27  C   UNL     1     -45.674 -55.265  14.013  1.00  0.00     0.202 C 
ENDBRANCH  21  26
ENDBRANCH   1  19
TORSDOF 4
ENDMDL
MODEL 4
REMARK VINA RESULT:      -6.9      4.932      6.161
REMARK  4 active torsions:
REMARK  status: ('A' for Active; 'I' for Inactive)
REMARK    1  A    between atoms: O_2  and  C_3 
REMARK    2  A    between atoms: C_6  and  N_7 
REMARK       I    between atoms: N_7  and  C_8 
REMARK       I    between atoms: C_8  and  N_10 
REMARK    3  A    between atoms: N_10  and  C_11 
REMARK    4  A    between atoms: C_13  and  C_18 
ROOT
HETATM    1  N   UNL     1     -43.104 -50.772  12.706  1.00  0.00    -0.337 N 
HETATM    2  C   UNL     1     -42.985 -49.409  12.531  1.00  0.00     0.321 C 
HETATM    3  O   UNL     1     -43.311 -48.637  13.426  1.00  0.00    -0.247 OA
HETATM    4  N   UNL     1     -42.499 -49.029  11.300  1.00  0.00    -0.304 N 
HETATM    5  H   UNL     1     -42.762 -51.393  11.990  1.00  0.00     0.164 HD
HETATM    6  H   UNL     1     -42.176 -49.739  10.651  1.00  0.00     0.171 HD
ENDROOT
BRANCH   4   7
HETATM    7  C   UNL     1     -42.350 -47.719  10.860  1.00  0.00     0.105 A 
HETATM    8  C   UNL     1     -41.217 -46.999  10.902  1.00  0.00     0.052 A 
HETATM    9  C   UNL     1     -41.127 -45.626  10.437  1.00  0.00     0.065 A 
HETATM   10  C   UNL     1     -42.209 -45.073   9.870  1.00  0.00     0.107 A 
HETATM   11  N   UNL     1     -43.389 -45.770   9.780  1.00  0.00    -0.331 N 
HETATM   12  C   UNL     1     -43.571 -47.048  10.275  1.00  0.00     0.272 A 
HETATM   13  H   UNL     1     -44.209 -45.331   9.375  1.00  0.00     0.168 HD
HETATM   14  O   UNL     1     -44.655 -47.621  10.239  1.00  0.00    -0.266 OA
BRANCH   9  15
HETATM   15  C   UNL     1     -39.837 -44.877  10.638  1.00  0.00     0.418 C 
HETATM   16  F   UNL     1     -39.244 -45.129  11.832  1.00  0.00    -0.166 F 
HETATM   17  F   UNL     1     -38.927 -45.177   9.676  1.00  0.00    -0.166 F 
HETATM   18  F   UNL     1     -40.035 -43.535  10.582  1.00  0.00    -0.166 F 
ENDBRANCH   9  15
ENDBRANCH   4   7
BRANCH   1  19
HETATM   19  C   UNL     1     -43.644 -51.263  14.009  1.00  0.00     0.099 C 
HETATM   20  C   UNL     1     -43.148 -52.677  14.387  1.00  0.00     0.064 C 
HETATM   21  C   UNL     1     -44.530 -53.264  13.974  1.00  0.00     0.067 C 
HETATM   22  C   UNL     1     -44.449 -53.906  12.586  1.00  0.00     0.047 C 
HETATM   23  C   UNL     1     -45.106 -51.789  14.093  1.00  0.00     0.004 C 
HETATM   24  C   UNL     1     -46.098 -51.353  13.021  1.00  0.00     0.020 C 
HETATM   25  C   UNL     1     -45.677 -51.442  15.488  1.00  0.00     0.020 C 
BRANCH  21  26
HETATM   26  O   UNL     1     -45.051 -54.225  14.933  1.00  0.00    -0.384 OA
HETATM   27  C   UNL     1     -46.235 -54.938  14.597  1.00  0.00     0.202 C 
ENDBRANCH  21  26
ENDBRANCH   1  19
TORSDOF 4
ENDMDL
MODEL 5
REMARK VINA RESULT:      -6.7      3.994      6.098
REMARK  4 active torsions:
REMARK  status: ('A' for Active; 'I' for Inactive)
REMARK    1  A    between atoms: O_2  and  C_3 
REMARK    2  A    between atoms: C_6  and  N_7 
REMARK       I    between atoms: N_7  and  C_8 
REMARK       I    between atoms: C_8  and  N_10 
REMARK    3  A    between atoms: N_10  and  C_11 
REMARK    4  A    between atoms: C_13  and  C_18 
ROOT
HETATM    1  N   UNL     1     -41.104 -47.450  12.161  1.00  0.00    -0.337 N 
HETATM    2  C   UNL     1     -42.065 -48.420  11.968  1.00  0.00     0.321 C 
HETATM    3  O   UNL     1     -42.984 -48.235  11.177  1.00  0.00    -0.247 OA
HETATM    4  N   UNL     1     -41.898 -49.554  12.729  1.00  0.00    -0.304 N 
HETATM    5  H   UNL     1     -40.316 -47.649  12.757  1.00  0.00     0.164 HD
HETATM    6  H   UNL     1     -41.061 -49.656  13.295  1.00  0.00     0.171 HD
ENDROOT
BRANCH   4   7
HETATM    7  C   UNL     1     -42.764 -50.640  12.762  1.00  0.00     0.105 A 
HETATM    8  C   UNL     1     -44.013 -50.635  13.257  1.00  0.00     0.052 A 
HETATM    9  C   UNL     1     -44.868 -51.809  13.275  1.00  0.00     0.065 A 
HETATM   10  C   UNL     1     -44.416 -52.936  12.704  1.00  0.00     0.107 A 
HETATM   11  N   UNL     1     -43.155 -52.992  12.163  1.00  0.00    -0.331 N 
HETATM   12  C   UNL     1     -42.258 -51.940  12.183  1.00  0.00     0.272 A 
HETATM   13  H   UNL     1     -42.814 -53.858  11.759  1.00  0.00     0.168 HD
HETATM   14  O   UNL     1     -41.114 -52.042  11.752  1.00  0.00    -0.266 OA
BRANCH   9  15
HETATM   15  C   UNL     1     -46.206 -51.719  13.958  1.00  0.00     0.418 C 
HETATM   16  F   UNL     1     -46.707 -52.924  14.330  1.00  0.00    -0.166 F 
HETATM   17  F   UNL     1     -46.148 -50.955  15.078  1.00  0.00    -0.166 F 
HETATM   18  F   UNL     1     -47.135 -51.151  13.146  1.00  0.00    -0.166 F 
ENDBRANCH   9  15
ENDBRANCH   4   7
BRANCH   1  19
HETATM   19  C   UNL     1     -41.228 -46.180  11.386  1.00  0.00     0.099 C 
HETATM   20  C   UNL     1     -39.879 -45.461  11.162  1.00  0.00     0.064 C 
HETATM   21  C   UNL     1     -40.253 -44.431  12.269  1.00  0.00     0.067 C 
HETATM   22  C   UNL     1     -39.542 -44.769  13.582  1.00  0.00     0.047 C 
HETATM   23  C   UNL     1     -41.761 -44.895  12.083  1.00  0.00     0.004 C 
HETATM   24  C   UNL     1     -42.590 -45.048  13.353  1.00  0.00     0.020 C 
HETATM   25  C   UNL     1     -42.557 -44.065  11.050  1.00  0.00     0.020 C 
BRANCH  21  26
HETATM   26  O   UNL     1     -39.964 -43.057  11.890  1.00  0.00    -0.384 OA
HETATM   27  C   UNL     1     -39.814 -42.091  12.923  1.00  0.00     0.202 C 
ENDBRANCH  21  26
ENDBRANCH   1  19
TORSDOF 4
ENDMDL
MODEL 6
REMARK VINA RESULT:      -6.7      3.901      6.795
REMARK  4 active torsions:
REMARK  status: ('A' for Active; 'I' for Inactive)
REMARK    1  A    between atoms: O_2  and  C_3 
REMARK    2  A    between atoms: C_6  and  N_7 
REMARK       I    between atoms: N_7  and  C_8 
REMARK       I    between atoms: C_8  and  N_10 
REMARK    3  A    between atoms: N_10  and  C_11 
REMARK    4  A    between atoms: C_13  and  C_18 
ROOT
HETATM    1  N   UNL     1     -42.083 -48.278  11.231  1.00  0.00    -0.337 N 
HETATM    2  C   UNL     1     -42.295 -49.359  12.061  1.00  0.00     0.321 C 
HETATM    3  O   UNL     1     -42.938 -49.229  13.098  1.00  0.00    -0.247 OA
HETATM    4  N   UNL     1     -41.726 -50.535  11.629  1.00  0.00    -0.304 N 
HETATM    5  H   UNL     1     -41.619 -48.418  10.347  1.00  0.00     0.164 HD
HETATM    6  H   UNL     1     -41.283 -50.569  10.716  1.00  0.00     0.171 HD
ENDROOT
BRANCH   4   7
HETATM    7  C   UNL     1     -41.742 -51.742  12.318  1.00  0.00     0.105 A 
HETATM    8  C   UNL     1     -42.839 -52.447  12.642  1.00  0.00     0.052 A 
HETATM    9  C   UNL     1     -42.793 -53.699  13.377  1.00  0.00     0.065 A 
HETATM   10  C   UNL     1     -41.593 -54.215  13.683  1.00  0.00     0.107 A 
HETATM   11  N   UNL     1     -40.438 -53.548  13.357  1.00  0.00    -0.331 N 
HETATM   12  C   UNL     1     -40.408 -52.315  12.732  1.00  0.00     0.272 A 
HETATM   13  H   UNL     1     -39.537 -53.934  13.618  1.00  0.00     0.168 HD
HETATM   14  O   UNL     1     -39.362 -51.713  12.513  1.00  0.00    -0.266 OA
BRANCH   9  15
HETATM   15  C   UNL     1     -44.089 -54.345  13.787  1.00  0.00     0.418 C 
HETATM   16  F   UNL     1     -43.926 -55.536  14.416  1.00  0.00    -0.166 F 
HETATM   17  F   UNL     1     -44.801 -53.551  14.628  1.00  0.00    -0.166 F 
HETATM   18  F   UNL     1     -44.882 -54.583  12.710  1.00  0.00    -0.166 F 
ENDBRANCH   9  15
ENDBRANCH   4   7
BRANCH   1  19
HETATM   19  C   UNL     1     -42.653 -46.961  11.642  1.00  0.00     0.099 C 
HETATM   20  C   UNL     1     -42.705 -45.928  10.494  1.00  0.00     0.064 C 
HETATM   21  C   UNL     1     -41.466 -45.204  11.099  1.00  0.00     0.067 C 
HETATM   22  C   UNL     1     -40.195 -45.581  10.332  1.00  0.00     0.047 C 
HETATM   23  C   UNL     1     -41.783 -45.961  12.458  1.00  0.00     0.004 C 
HETATM   24  C   UNL     1     -40.588 -46.502  13.234  1.00  0.00     0.020 C 
HETATM   25  C   UNL     1     -42.704 -45.176  13.421  1.00  0.00     0.020 C 
BRANCH  21  26
HETATM   26  O   UNL     1     -41.611 -43.757  11.133  1.00  0.00    -0.384 OA
HETATM   27  C   UNL     1     -40.453 -42.970  11.386  1.00  0.00     0.202 C 
ENDBRANCH  21  26
ENDBRANCH   1  19
TORSDOF 4
ENDMDL
MODEL 7
REMARK VINA RESULT:      -6.5      3.951      4.976
REMARK  4 active torsions:
REMARK  status: ('A' for Active; 'I' for Inactive)
REMARK    1  A    between atoms: O_2  and  C_3 
REMARK    2  A    between atoms: C_6  and  N_7 
REMARK       I    between atoms: N_7  and  C_8 
REMARK       I    between atoms: C_8  and  N_10 
REMARK    3  A    between atoms: N_10  and  C_11 
REMARK    4  A    between atoms: C_13  and  C_18 
ROOT
HETATM    1  N   UNL     1     -42.800 -51.612  13.066  1.00  0.00    -0.337 N 
HETATM    2  C   UNL     1     -42.714 -50.260  12.811  1.00  0.00     0.321 C 
HETATM    3  O   UNL     1     -43.238 -49.450  13.570  1.00  0.00    -0.247 OA
HETATM    4  N   UNL     1     -42.025 -49.933  11.665  1.00  0.00    -0.304 N 
HETATM    5  H   UNL     1     -42.301 -52.258  12.475  1.00  0.00     0.164 HD
HETATM    6  H   UNL     1     -41.553 -50.664  11.143  1.00  0.00     0.171 HD
ENDROOT
BRANCH   4   7
HETATM    7  C   UNL     1     -41.858 -48.650  11.161  1.00  0.00     0.105 A 
HETATM    8  C   UNL     1     -42.792 -47.930  10.515  1.00  0.00     0.052 A 
HETATM    9  C   UNL     1     -42.553 -46.594   9.998  1.00  0.00     0.065 A 
HETATM   10  C   UNL     1     -41.365 -46.020  10.241  1.00  0.00     0.107 A 
HETATM   11  N   UNL     1     -40.380 -46.701  10.915  1.00  0.00    -0.331 N 
HETATM   12  C   UNL     1     -40.509 -48.002  11.363  1.00  0.00     0.272 A 
HETATM   13  H   UNL     1     -39.476 -46.267  11.068  1.00  0.00     0.168 HD
HETATM   14  O   UNL     1     -39.589 -48.607  11.904  1.00  0.00    -0.266 OA
BRANCH   9  15
HETATM   15  C   UNL     1     -43.633 -45.927   9.190  1.00  0.00     0.418 C 
HETATM   16  F   UNL     1     -44.854 -46.498   9.341  1.00  0.00    -0.166 F 
HETATM   17  F   UNL     1     -43.768 -44.616   9.519  1.00  0.00    -0.166 F 
HETATM   18  F   UNL     1     -43.349 -45.968   7.862  1.00  0.00    -0.166 F 
ENDBRANCH   9  15
ENDBRANCH   4   7
BRANCH   1  19
HETATM   19  C   UNL     1     -43.550 -52.047  14.282  1.00  0.00     0.099 C 
HETATM   20  C   UNL     1     -42.635 -52.402  15.475  1.00  0.00     0.064 C 
HETATM   21  C   UNL     1     -42.871 -53.916  15.196  1.00  0.00     0.067 C 
HETATM   22  C   UNL     1     -41.676 -54.520  14.454  1.00  0.00     0.047 C 
HETATM   23  C   UNL     1     -44.146 -53.483  14.353  1.00  0.00     0.004 C 
HETATM   24  C   UNL     1     -44.390 -54.233  13.049  1.00  0.00     0.020 C 
HETATM   25  C   UNL     1     -45.458 -53.434  15.168  1.00  0.00     0.020 C 
BRANCH  21  26
HETATM   26  O   UNL     1     -43.143 -54.683  16.401  1.00  0.00    -0.384 OA
HETATM   27  C   UNL     1     -42.267 -55.754  16.730  1.00  0.00     0.202 C 
ENDBRANCH  21  26
ENDBRANCH   1  19
TORSDOF 4
ENDMDL
MODEL 8
REMARK VINA RESULT:      -6.4      5.292      6.681
REMARK  4 active torsions:
REMARK  status: ('A' for Active; 'I' for Inactive)
REMARK    1  A    between atoms: O_2  and  C_3 
REMARK    2  A    between atoms: C_6  and  N_7 
REMARK       I    between atoms: N_7  and  C_8 
REMARK       I    between atoms: C_8  and  N_10 
REMARK    3  A    between atoms: N_10  and  C_11 
REMARK    4  A    between atoms: C_13  and  C_18 
ROOT
HETATM    1  N   UNL     1     -43.411 -50.665  12.915  1.00  0.00    -0.337 N 
HETATM    2  C   UNL     1     -42.359 -49.913  12.437  1.00  0.00     0.321 C 
HETATM    3  O   UNL     1     -41.311 -50.454  12.101  1.00  0.00    -0.247 OA
HETATM    4  N   UNL     1     -42.594 -48.557  12.393  1.00  0.00    -0.304 N 
HETATM    5  H   UNL     1     -44.290 -50.212  13.115  1.00  0.00     0.164 HD
HETATM    6  H   UNL     1     -43.521 -48.205  12.610  1.00  0.00     0.171 HD
ENDROOT
BRANCH   4   7
HETATM    7  C   UNL     1     -41.672 -47.589  12.013  1.00  0.00     0.105 A 
HETATM    8  C   UNL     1     -40.823 -46.948  12.832  1.00  0.00     0.052 A 
HETATM    9  C   UNL     1     -39.889 -45.933  12.377  1.00  0.00     0.065 A 
HETATM   10  C   UNL     1     -39.819 -45.675  11.062  1.00  0.00     0.107 A 
HETATM   11  N   UNL     1     -40.649 -46.317  10.175  1.00  0.00    -0.331 N 
HETATM   12  C   UNL     1     -41.616 -47.232  10.546  1.00  0.00     0.272 A 
HETATM   13  H   UNL     1     -40.606 -46.093   9.187  1.00  0.00     0.168 HD
HETATM   14  O   UNL     1     -42.387 -47.740   9.739  1.00  0.00    -0.266 OA
BRANCH   9  15
HETATM   15  C   UNL     1     -39.065 -45.196  13.398  1.00  0.00     0.418 C 
HETATM   16  F   UNL     1     -38.403 -44.125  12.892  1.00  0.00    -0.166 F 
HETATM   17  F   UNL     1     -39.829 -44.738  14.423  1.00  0.00    -0.166 F 
HETATM   18  F   UNL     1     -38.123 -46.007  13.947  1.00  0.00    -0.166 F 
ENDBRANCH   9  15
ENDBRANCH   4   7
BRANCH   1  19
HETATM   19  C   UNL     1     -43.225 -52.143  13.012  1.00  0.00     0.099 C 
HETATM   20  C   UNL     1     -44.322 -52.950  12.283  1.00  0.00     0.064 C 
HETATM   21  C   UNL     1     -44.982 -53.278  13.655  1.00  0.00     0.067 C 
HETATM   22  C   UNL     1     -46.195 -52.376  13.898  1.00  0.00     0.047 C 
HETATM   23  C   UNL     1     -43.599 -52.886  14.328  1.00  0.00     0.004 C 
HETATM   24  C   UNL     1     -43.671 -52.082  15.621  1.00  0.00     0.020 C 
HETATM   25  C   UNL     1     -42.627 -54.073  14.518  1.00  0.00     0.020 C 
BRANCH  21  26
HETATM   26  O   UNL     1     -45.373 -54.674  13.781  1.00  0.00    -0.384 OA
HETATM   27  C   UNL     1     -46.535 -54.982  14.539  1.00  0.00     0.202 C 
ENDBRANCH  21  26
ENDBRANCH   1  19
TORSDOF 4
ENDMDL
MODEL 9
REMARK VINA RESULT:      -6.3      4.797      5.746
REMARK  4 active torsions:
REMARK  status: ('A' for Active; 'I' for Inactive)
REMARK    1  A    between atoms: O_2  and  C_3 
REMARK    2  A    between atoms: C_6  and  N_7 
REMARK       I    between atoms: N_7  and  C_8 
REMARK       I    between atoms: C_8  and  N_10 
REMARK    3  A    between atoms: N_10  and  C_11 
REMARK    4  A    between atoms: C_13  and  C_18 
ROOT
HETATM    1  N   UNL     1     -39.651 -50.569  14.864  1.00  0.00    -0.337 N 
HETATM    2  C   UNL     1     -40.720 -50.915  14.064  1.00  0.00     0.321 C 
HETATM    3  O   UNL     1     -40.907 -50.342  12.996  1.00  0.00    -0.247 OA
HETATM    4  N   UNL     1     -41.521 -51.911  14.574  1.00  0.00    -0.304 N 
HETATM    5  H   UNL     1     -39.469 -51.101  15.701  1.00  0.00     0.164 HD
HETATM    6  H   UNL     1     -41.242 -52.388  15.426  1.00  0.00     0.171 HD
ENDROOT
BRANCH   4   7
HETATM    7  C   UNL     1     -42.689 -52.387  13.990  1.00  0.00     0.105 A 
HETATM    8  C   UNL     1     -43.921 -51.884  14.173  1.00  0.00     0.052 A 
HETATM    9  C   UNL     1     -45.109 -52.434  13.543  1.00  0.00     0.065 A 
HETATM   10  C   UNL     1     -44.959 -53.450  12.679  1.00  0.00     0.107 A 
HETATM   11  N   UNL     1     -43.720 -53.990  12.437  1.00  0.00    -0.331 N 
HETATM   12  C   UNL     1     -42.560 -53.571  13.062  1.00  0.00     0.272 A 
HETATM   13  H   UNL     1     -43.623 -54.776  11.804  1.00  0.00     0.168 HD
HETATM   14  O   UNL     1     -41.477 -54.117  12.875  1.00  0.00    -0.266 OA
BRANCH   9  15
HETATM   15  C   UNL     1     -46.452 -51.864  13.909  1.00  0.00     0.418 C 
HETATM   16  F   UNL     1     -47.058 -51.205  12.890  1.00  0.00    -0.166 F 
HETATM   17  F   UNL     1     -47.314 -52.831  14.318  1.00  0.00    -0.166 F 
HETATM   18  F   UNL     1     -46.347 -50.978  14.933  1.00  0.00    -0.166 F 
ENDBRANCH   9  15
ENDBRANCH   4   7
BRANCH   1  19
HETATM   19  C   UNL     1     -38.747 -49.481  14.388  1.00  0.00     0.099 C 
HETATM   20  C   UNL     1     -37.248 -49.851  14.461  1.00  0.00     0.064 C 
HETATM   21  C   UNL     1     -37.099 -48.964  15.732  1.00  0.00     0.067 C 
HETATM   22  C   UNL     1     -37.091 -49.829  16.995  1.00  0.00     0.047 C 
HETATM   23  C   UNL     1     -38.456 -48.258  15.306  1.00  0.00     0.004 C 
HETATM   24  C   UNL     1     -39.441 -47.939  16.424  1.00  0.00     0.020 C 
HETATM   25  C   UNL     1     -38.269 -47.007  14.418  1.00  0.00     0.020 C 
BRANCH  21  26
HETATM   26  O   UNL     1     -35.913 -48.121  15.704  1.00  0.00    -0.384 OA
HETATM   27  C   UNL     1     -35.301 -47.779  16.941  1.00  0.00     0.202 C 
ENDBRANCH  21  26
ENDBRANCH   1  19
TORSDOF 4
ENDMDL
