MODEL 1
REMARK VINA RESULT:      -6.3      0.000      0.000
REMARK  3 active torsions:
REMARK  status: ('A' for Active; 'I' for Inactive)
REMARK       I    between atoms: C_2  and  N_3 
REMARK       I    between atoms: C_2  and  N_14 
REMARK    1  A    between atoms: N_3  and  C_4 
REMARK    2  A    between atoms: C_4  and  C_5 
REMARK    3  A    between atoms: N_14  and  C_15 
ROOT
HETATM    1  O   UNL     1     -42.296 -50.751  13.262  1.00  0.00    -0.247 OA
HETATM    2  C   UNL     1     -42.040 -51.480  12.313  1.00  0.00     0.320 C 
HETATM    3  N   UNL     1     -41.027 -51.205  11.419  1.00  0.00    -0.340 N 
HETATM    4  N   UNL     1     -42.669 -52.660  11.990  1.00  0.00    -0.308 N 
HETATM    5  H   UNL     1     -40.635 -51.985  10.912  1.00  0.00     0.164 HD
HETATM    6  H   UNL     1     -42.474 -53.015  11.067  1.00  0.00     0.170 HD
ENDROOT
BRANCH   3   7
HETATM    7  C   UNL     1     -40.134 -50.076  11.633  1.00  0.00     0.158 C 
BRANCH   7   8
HETATM    8  C   UNL     1     -38.650 -50.468  11.831  1.00  0.00     0.167 C 
HETATM    9  C   UNL     1     -37.773 -49.284  12.323  1.00  0.00     0.306 C 
HETATM   10  N   UNL     1     -38.142 -48.947  13.697  1.00  0.00     0.097 N 
HETATM   11  C   UNL     1     -37.370 -47.887  14.331  1.00  0.00     0.273 C 
HETATM   12  C   UNL     1     -37.921 -50.131  14.546  1.00  0.00     0.246 C 
HETATM   13  C   UNL     1     -37.638 -48.131  15.820  1.00  0.00     0.032 C 
HETATM   14  C   UNL     1     -38.221 -49.547  15.911  1.00  0.00     0.040 C 
HETATM   15  C   UNL     1     -38.795 -51.298  14.093  1.00  0.00     0.204 C 
HETATM   16  O   UNL     1     -38.530 -51.615  12.713  1.00  0.00    -0.380 OA
ENDBRANCH   7   8
ENDBRANCH   3   7
BRANCH   4  17
HETATM   17  C   UNL     1     -43.662 -53.328  12.733  1.00  0.00     0.051 A 
HETATM   18  C   UNL     1     -43.413 -54.338  13.658  1.00  0.00     0.032 A 
HETATM   19  C   UNL     1     -44.475 -54.925  14.346  1.00  0.00     0.019 A 
HETATM   20  C   UNL     1     -45.762 -54.489  14.076  1.00  0.00     0.088 A 
HETATM   21  N   UNL     1     -46.051 -53.529  13.175  1.00  0.00    -0.373 N 
HETATM   22  C   UNL     1     -44.996 -52.976  12.528  1.00  0.00     0.117 A 
ATOM     23  HN  UNL     1     -47.009 -53.236  12.989  1.00  0.00     0.164 HD
ENDBRANCH   4  17
TORSDOF 3
ENDMDL
MODEL 2
REMARK VINA RESULT:      -6.2      2.437      7.318
REMARK  3 active torsions:
REMARK  status: ('A' for Active; 'I' for Inactive)
REMARK       I    between atoms: C_2  and  N_3 
REMARK       I    between atoms: C_2  and  N_14 
REMARK    1  A    between atoms: N_3  and  C_4 
REMARK    2  A    between atoms: C_4  and  C_5 
REMARK    3  A    between atoms: N_14  and  C_15 
ROOT
HETATM    1  O   UNL     1     -41.549 -51.135  13.618  1.00  0.00    -0.247 OA
HETATM    2  C   UNL     1     -41.841 -51.385  12.456  1.00  0.00     0.320 C 
HETATM    3  N   UNL     1     -42.510 -52.535  12.093  1.00  0.00    -0.340 N 
HETATM    4  N   UNL     1     -41.589 -50.599  11.357  1.00  0.00    -0.308 N 
HETATM    5  H   UNL     1     -43.031 -52.511  11.229  1.00  0.00     0.164 HD
HETATM    6  H   UNL     1     -41.705 -51.053  10.465  1.00  0.00     0.170 HD
ENDROOT
BRANCH   3   7
HETATM    7  C   UNL     1     -43.002 -53.460  13.103  1.00  0.00     0.158 C 
BRANCH   7   8
HETATM    8  C   UNL     1     -44.408 -54.034  12.809  1.00  0.00     0.167 C 
HETATM    9  C   UNL     1     -45.152 -54.499  14.090  1.00  0.00     0.306 C 
HETATM   10  N   UNL     1     -45.509 -53.330  14.893  1.00  0.00     0.097 N 
HETATM   11  C   UNL     1     -46.266 -53.589  16.109  1.00  0.00     0.273 C 
HETATM   12  C   UNL     1     -46.380 -52.456  14.088  1.00  0.00     0.246 C 
HETATM   13  C   UNL     1     -46.885 -52.219  16.409  1.00  0.00     0.032 C 
HETATM   14  C   UNL     1     -46.739 -51.405  15.118  1.00  0.00     0.040 C 
HETATM   15  C   UNL     1     -45.656 -51.969  12.835  1.00  0.00     0.204 C 
HETATM   16  O   UNL     1     -45.206 -53.089  12.049  1.00  0.00    -0.380 OA
ENDBRANCH   7   8
ENDBRANCH   3   7
BRANCH   4  17
HETATM   17  C   UNL     1     -41.038 -49.302  11.344  1.00  0.00     0.051 A 
HETATM   18  C   UNL     1     -39.972 -48.888  12.138  1.00  0.00     0.032 A 
HETATM   19  C   UNL     1     -39.500 -47.579  12.036  1.00  0.00     0.019 A 
HETATM   20  C   UNL     1     -40.122 -46.718  11.146  1.00  0.00     0.088 A 
HETATM   21  N   UNL     1     -41.168 -47.071  10.374  1.00  0.00    -0.373 N 
HETATM   22  C   UNL     1     -41.598 -48.350  10.492  1.00  0.00     0.117 A 
ATOM     23  HN  UNL     1     -41.612 -46.411   9.735  1.00  0.00     0.164 HD
ENDBRANCH   4  17
TORSDOF 3
ENDMDL
MODEL 3
REMARK VINA RESULT:      -6.0      3.546      6.245
REMARK  3 active torsions:
REMARK  status: ('A' for Active; 'I' for Inactive)
REMARK       I    between atoms: C_2  and  N_3 
REMARK       I    between atoms: C_2  and  N_14 
REMARK    1  A    between atoms: N_3  and  C_4 
REMARK    2  A    between atoms: C_4  and  C_5 
REMARK    3  A    between atoms: N_14  and  C_15 
ROOT
HETATM    1  O   UNL     1     -42.068 -49.034  12.244  1.00  0.00    -0.247 OA
HETATM    2  C   UNL     1     -41.455 -49.278  11.213  1.00  0.00     0.320 C 
HETATM    3  N   UNL     1     -40.592 -50.347  11.101  1.00  0.00    -0.340 N 
HETATM    4  N   UNL     1     -41.524 -48.579  10.030  1.00  0.00    -0.308 N 
HETATM    5  H   UNL     1     -40.419 -50.704  10.172  1.00  0.00     0.164 HD
HETATM    6  H   UNL     1     -40.799 -48.789   9.362  1.00  0.00     0.170 HD
ENDROOT
BRANCH   3   7
HETATM    7  C   UNL     1     -40.457 -51.310  12.184  1.00  0.00     0.158 C 
BRANCH   7   8
HETATM    8  C   UNL     1     -41.235 -52.629  11.963  1.00  0.00     0.167 C 
HETATM    9  C   UNL     1     -40.736 -53.786  12.871  1.00  0.00     0.306 C 
HETATM   10  N   UNL     1     -41.094 -53.498  14.260  1.00  0.00     0.097 N 
HETATM   11  C   UNL     1     -40.746 -54.517  15.240  1.00  0.00     0.273 C 
HETATM   12  C   UNL     1     -42.560 -53.377  14.351  1.00  0.00     0.246 C 
HETATM   13  C   UNL     1     -41.663 -54.168  16.417  1.00  0.00     0.032 C 
HETATM   14  C   UNL     1     -42.728 -53.223  15.848  1.00  0.00     0.040 C 
HETATM   15  C   UNL     1     -43.066 -52.227  13.483  1.00  0.00     0.204 C 
HETATM   16  O   UNL     1     -42.664 -52.419  12.113  1.00  0.00    -0.380 OA
ENDBRANCH   7   8
ENDBRANCH   3   7
BRANCH   4  17
HETATM   17  C   UNL     1     -42.384 -47.508   9.722  1.00  0.00     0.051 A 
HETATM   18  C   UNL     1     -42.288 -46.233  10.274  1.00  0.00     0.032 A 
HETATM   19  C   UNL     1     -43.191 -45.241   9.888  1.00  0.00     0.019 A 
HETATM   20  C   UNL     1     -44.172 -45.561   8.964  1.00  0.00     0.088 A 
HETATM   21  N   UNL     1     -44.313 -46.786   8.420  1.00  0.00    -0.373 N 
HETATM   22  C   UNL     1     -43.418 -47.724   8.812  1.00  0.00     0.117 A 
ATOM     23  HN  UNL     1     -45.053 -46.995   7.750  1.00  0.00     0.164 HD
ENDBRANCH   4  17
TORSDOF 3
ENDMDL
MODEL 4
REMARK VINA RESULT:      -5.8      1.549      2.010
REMARK  3 active torsions:
REMARK  status: ('A' for Active; 'I' for Inactive)
REMARK       I    between atoms: C_2  and  N_3 
REMARK       I    between atoms: C_2  and  N_14 
REMARK    1  A    between atoms: N_3  and  C_4 
REMARK    2  A    between atoms: C_4  and  C_5 
REMARK    3  A    between atoms: N_14  and  C_15 
ROOT
HETATM    1  O   UNL     1     -42.263 -51.478  14.054  1.00  0.00    -0.247 OA
HETATM    2  C   UNL     1     -42.667 -51.529  12.900  1.00  0.00     0.320 C 
HETATM    3  N   UNL     1     -41.839 -51.326  11.816  1.00  0.00    -0.340 N 
HETATM    4  N   UNL     1     -43.950 -51.804  12.489  1.00  0.00    -0.308 N 
HETATM    5  H   UNL     1     -42.122 -51.734  10.937  1.00  0.00     0.164 HD
HETATM    6  H   UNL     1     -44.149 -51.596  11.523  1.00  0.00     0.170 HD
ENDROOT
BRANCH   3   7
HETATM    7  C   UNL     1     -40.405 -51.150  11.998  1.00  0.00     0.158 C 
BRANCH   7   8
HETATM    8  C   UNL     1     -39.861 -49.795  11.488  1.00  0.00     0.167 C 
HETATM    9  C   UNL     1     -40.211 -48.610  12.429  1.00  0.00     0.306 C 
HETATM   10  N   UNL     1     -39.457 -48.744  13.675  1.00  0.00     0.097 N 
HETATM   11  C   UNL     1     -39.629 -47.676  14.650  1.00  0.00     0.273 C 
HETATM   12  C   UNL     1     -38.019 -48.732  13.356  1.00  0.00     0.246 C 
HETATM   13  C   UNL     1     -38.391 -47.842  15.540  1.00  0.00     0.032 C 
HETATM   14  C   UNL     1     -37.430 -48.740  14.752  1.00  0.00     0.040 C 
HETATM   15  C   UNL     1     -37.651 -49.906  12.451  1.00  0.00     0.204 C 
HETATM   16  O   UNL     1     -38.432 -49.869  11.241  1.00  0.00    -0.380 OA
ENDBRANCH   7   8
ENDBRANCH   3   7
BRANCH   4  17
HETATM   17  C   UNL     1     -45.041 -52.184  13.295  1.00  0.00     0.051 A 
HETATM   18  C   UNL     1     -45.789 -51.308  14.077  1.00  0.00     0.032 A 
HETATM   19  C   UNL     1     -46.858 -51.793  14.832  1.00  0.00     0.019 A 
HETATM   20  C   UNL     1     -47.138 -53.149  14.789  1.00  0.00     0.088 A 
HETATM   21  N   UNL     1     -46.428 -54.035  14.062  1.00  0.00    -0.373 N 
HETATM   22  C   UNL     1     -45.401 -53.531  13.336  1.00  0.00     0.117 A 
ATOM     23  HN  UNL     1     -46.651 -55.030  14.058  1.00  0.00     0.164 HD
ENDBRANCH   4  17
TORSDOF 3
ENDMDL
MODEL 5
REMARK VINA RESULT:      -5.7      3.753      6.580
REMARK  3 active torsions:
REMARK  status: ('A' for Active; 'I' for Inactive)
REMARK       I    between atoms: C_2  and  N_3 
REMARK       I    between atoms: C_2  and  N_14 
REMARK    1  A    between atoms: N_3  and  C_4 
REMARK    2  A    between atoms: C_4  and  C_5 
REMARK    3  A    between atoms: N_14  and  C_15 
ROOT
HETATM    1  O   UNL     1     -39.894 -48.260  12.395  1.00  0.00    -0.247 OA
HETATM    2  C   UNL     1     -40.389 -48.458  11.294  1.00  0.00     0.320 C 
HETATM    3  N   UNL     1     -40.486 -49.718  10.743  1.00  0.00    -0.340 N 
HETATM    4  N   UNL     1     -40.931 -47.514  10.453  1.00  0.00    -0.308 N 
HETATM    5  H   UNL     1     -41.203 -49.863  10.047  1.00  0.00     0.164 HD
HETATM    6  H   UNL     1     -41.096 -47.821   9.508  1.00  0.00     0.170 HD
ENDROOT
BRANCH   3   7
HETATM    7  C   UNL     1     -40.099 -50.896  11.506  1.00  0.00     0.158 C 
BRANCH   7   8
HETATM    8  C   UNL     1     -41.286 -51.663  12.137  1.00  0.00     0.167 C 
HETATM    9  C   UNL     1     -40.949 -53.146  12.450  1.00  0.00     0.306 C 
HETATM   10  N   UNL     1     -39.986 -53.200  13.550  1.00  0.00     0.097 N 
HETATM   11  C   UNL     1     -39.605 -54.529  14.007  1.00  0.00     0.273 C 
HETATM   12  C   UNL     1     -40.585 -52.555  14.730  1.00  0.00     0.246 C 
HETATM   13  C   UNL     1     -39.040 -54.246  15.404  1.00  0.00     0.032 C 
HETATM   14  C   UNL     1     -39.516 -52.834  15.766  1.00  0.00     0.040 C 
HETATM   15  C   UNL     1     -40.900 -51.088  14.449  1.00  0.00     0.204 C 
HETATM   16  O   UNL     1     -41.782 -50.973  13.315  1.00  0.00    -0.380 OA
ENDBRANCH   7   8
ENDBRANCH   3   7
BRANCH   4  17
HETATM   17  C   UNL     1     -41.125 -46.145  10.721  1.00  0.00     0.051 A 
HETATM   18  C   UNL     1     -40.127 -45.176  10.648  1.00  0.00     0.032 A 
HETATM   19  C   UNL     1     -40.435 -43.843  10.925  1.00  0.00     0.019 A 
HETATM   20  C   UNL     1     -41.735 -43.523  11.281  1.00  0.00     0.088 A 
HETATM   21  N   UNL     1     -42.726 -44.431  11.383  1.00  0.00    -0.373 N 
HETATM   22  C   UNL     1     -42.396 -45.714  11.102  1.00  0.00     0.117 A 
ATOM     23  HN  UNL     1     -43.672 -44.167  11.658  1.00  0.00     0.164 HD
ENDBRANCH   4  17
TORSDOF 3
ENDMDL
MODEL 6
REMARK VINA RESULT:      -5.7      3.587      6.546
REMARK  3 active torsions:
REMARK  status: ('A' for Active; 'I' for Inactive)
REMARK       I    between atoms: C_2  and  N_3 
REMARK       I    between atoms: C_2  and  N_14 
REMARK    1  A    between atoms: N_3  and  C_4 
REMARK    2  A    between atoms: C_4  and  C_5 
REMARK    3  A    between atoms: N_14  and  C_15 
ROOT
HETATM    1  O   UNL     1     -42.689 -49.899  13.996  1.00  0.00    -0.247 OA
HETATM    2  C   UNL     1     -43.449 -50.019  13.045  1.00  0.00     0.320 C 
HETATM    3  N   UNL     1     -44.424 -50.993  12.995  1.00  0.00    -0.340 N 
HETATM    4  N   UNL     1     -43.486 -49.233  11.917  1.00  0.00    -0.308 N 
HETATM    5  H   UNL     1     -45.221 -50.817  12.401  1.00  0.00     0.164 HD
HETATM    6  H   UNL     1     -44.026 -49.602  11.151  1.00  0.00     0.170 HD
ENDROOT
BRANCH   3   7
HETATM    7  C   UNL     1     -44.665 -51.863  14.137  1.00  0.00     0.158 C 
BRANCH   7   8
HETATM    8  C   UNL     1     -44.663 -53.372  13.798  1.00  0.00     0.167 C 
HETATM    9  C   UNL     1     -43.491 -53.782  12.865  1.00  0.00     0.306 C 
HETATM   10  N   UNL     1     -42.230 -53.676  13.599  1.00  0.00     0.097 N 
HETATM   11  C   UNL     1     -41.030 -54.080  12.880  1.00  0.00     0.273 C 
HETATM   12  C   UNL     1     -42.289 -54.574  14.765  1.00  0.00     0.246 C 
HETATM   13  C   UNL     1     -40.034 -54.331  14.018  1.00  0.00     0.032 C 
HETATM   14  C   UNL     1     -40.878 -54.425  15.295  1.00  0.00     0.040 C 
HETATM   15  C   UNL     1     -43.421 -54.171  15.707  1.00  0.00     0.204 C 
HETATM   16  O   UNL     1     -44.681 -54.176  15.007  1.00  0.00    -0.380 OA
ENDBRANCH   7   8
ENDBRANCH   3   7
BRANCH   4  17
HETATM   17  C   UNL     1     -42.734 -48.070  11.663  1.00  0.00     0.051 A 
HETATM   18  C   UNL     1     -42.924 -46.849  12.306  1.00  0.00     0.032 A 
HETATM   19  C   UNL     1     -42.112 -45.761  11.982  1.00  0.00     0.019 A 
HETATM   20  C   UNL     1     -41.138 -45.928  11.012  1.00  0.00     0.088 A 
HETATM   21  N   UNL     1     -40.932 -47.084  10.351  1.00  0.00    -0.373 N 
HETATM   22  C   UNL     1     -41.733 -48.122  10.693  1.00  0.00     0.117 A 
ATOM     23  HN  UNL     1     -40.213 -47.174   9.634  1.00  0.00     0.164 HD
ENDBRANCH   4  17
TORSDOF 3
ENDMDL
MODEL 7
REMARK VINA RESULT:      -5.6      4.178      4.912
REMARK  3 active torsions:
REMARK  status: ('A' for Active; 'I' for Inactive)
REMARK       I    between atoms: C_2  and  N_3 
REMARK       I    between atoms: C_2  and  N_14 
REMARK    1  A    between atoms: N_3  and  C_4 
REMARK    2  A    between atoms: C_4  and  C_5 
REMARK    3  A    between atoms: N_14  and  C_15 
ROOT
HETATM    1  O   UNL     1     -42.362 -49.343  12.305  1.00  0.00    -0.247 OA
HETATM    2  C   UNL     1     -41.546 -49.673  11.455  1.00  0.00     0.320 C 
HETATM    3  N   UNL     1     -41.070 -48.795  10.505  1.00  0.00    -0.340 N 
HETATM    4  N   UNL     1     -40.966 -50.912  11.309  1.00  0.00    -0.308 N 
HETATM    5  H   UNL     1     -40.170 -49.001  10.096  1.00  0.00     0.164 HD
HETATM    6  H   UNL     1     -40.486 -51.064  10.436  1.00  0.00     0.170 HD
ENDROOT
BRANCH   3   7
HETATM    7  C   UNL     1     -41.440 -47.387  10.543  1.00  0.00     0.158 C 
BRANCH   7   8
HETATM    8  C   UNL     1     -40.326 -46.451  11.069  1.00  0.00     0.167 C 
HETATM    9  C   UNL     1     -40.567 -44.960  10.708  1.00  0.00     0.306 C 
HETATM   10  N   UNL     1     -41.713 -44.459  11.466  1.00  0.00     0.097 N 
HETATM   11  C   UNL     1     -42.041 -43.052  11.283  1.00  0.00     0.273 C 
HETATM   12  C   UNL     1     -41.419 -44.592  12.903  1.00  0.00     0.246 C 
HETATM   13  C   UNL     1     -42.889 -42.748  12.524  1.00  0.00     0.032 C 
HETATM   14  C   UNL     1     -42.634 -43.908  13.495  1.00  0.00     0.040 C 
HETATM   15  C   UNL     1     -41.203 -46.055  13.282  1.00  0.00     0.204 C 
HETATM   16  O   UNL     1     -40.137 -46.623  12.499  1.00  0.00    -0.380 OA
ENDBRANCH   7   8
ENDBRANCH   3   7
BRANCH   4  17
HETATM   17  C   UNL     1     -41.107 -52.025  12.160  1.00  0.00     0.051 A 
HETATM   18  C   UNL     1     -40.150 -52.441  13.083  1.00  0.00     0.032 A 
HETATM   19  C   UNL     1     -40.399 -53.555  13.885  1.00  0.00     0.019 A 
HETATM   20  C   UNL     1     -41.599 -54.229  13.728  1.00  0.00     0.088 A 
HETATM   21  N   UNL     1     -42.544 -53.874  12.835  1.00  0.00    -0.373 N 
HETATM   22  C   UNL     1     -42.273 -52.785  12.076  1.00  0.00     0.117 A 
ATOM     23  HN  UNL     1     -43.414 -54.396  12.735  1.00  0.00     0.164 HD
ENDBRANCH   4  17
TORSDOF 3
ENDMDL
MODEL 8
REMARK VINA RESULT:      -5.5      3.999      4.992
REMARK  3 active torsions:
REMARK  status: ('A' for Active; 'I' for Inactive)
REMARK       I    between atoms: C_2  and  N_3 
REMARK       I    between atoms: C_2  and  N_14 
REMARK    1  A    between atoms: N_3  and  C_4 
REMARK    2  A    between atoms: C_4  and  C_5 
REMARK    3  A    between atoms: N_14  and  C_15 
ROOT
HETATM    1  O   UNL     1     -41.112 -49.111  13.032  1.00  0.00    -0.247 OA
HETATM    2  C   UNL     1     -41.227 -49.430  11.856  1.00  0.00     0.320 C 
HETATM    3  N   UNL     1     -40.995 -48.547  10.823  1.00  0.00    -0.340 N 
HETATM    4  N   UNL     1     -41.571 -50.670  11.370  1.00  0.00    -0.308 N 
HETATM    5  H   UNL     1     -40.746 -48.940   9.928  1.00  0.00     0.164 HD
HETATM    6  H   UNL     1     -41.824 -50.697  10.395  1.00  0.00     0.170 HD
ENDROOT
BRANCH   3   7
HETATM    7  C   UNL     1     -40.489 -47.208  11.089  1.00  0.00     0.158 C 
BRANCH   7   8
HETATM    8  C   UNL     1     -41.489 -46.073  10.764  1.00  0.00     0.167 C 
HETATM    9  C   UNL     1     -42.150 -45.467  12.031  1.00  0.00     0.306 C 
HETATM   10  N   UNL     1     -41.145 -44.723  12.791  1.00  0.00     0.097 N 
HETATM   11  C   UNL     1     -41.618 -44.041  13.988  1.00  0.00     0.273 C 
HETATM   12  C   UNL     1     -40.610 -43.650  11.935  1.00  0.00     0.246 C 
HETATM   13  C   UNL     1     -40.515 -43.005  14.232  1.00  0.00     0.032 C 
HETATM   14  C   UNL     1     -39.716 -42.933  12.925  1.00  0.00     0.040 C 
HETATM   15  C   UNL     1     -39.934 -44.229  10.695  1.00  0.00     0.204 C 
HETATM   16  O   UNL     1     -40.861 -45.045   9.953  1.00  0.00    -0.380 OA
ENDBRANCH   7   8
ENDBRANCH   3   7
BRANCH   4  17
HETATM   17  C   UNL     1     -41.761 -51.853  12.111  1.00  0.00     0.051 A 
HETATM   18  C   UNL     1     -42.813 -52.070  12.997  1.00  0.00     0.032 A 
HETATM   19  C   UNL     1     -42.909 -53.288  13.672  1.00  0.00     0.019 A 
HETATM   20  C   UNL     1     -41.938 -54.250  13.446  1.00  0.00     0.088 A 
HETATM   21  N   UNL     1     -40.894 -54.074  12.612  1.00  0.00    -0.373 N 
HETATM   22  C   UNL     1     -40.833 -52.884  11.968  1.00  0.00     0.117 A 
ATOM     23  HN  UNL     1     -40.188 -54.797  12.474  1.00  0.00     0.164 HD
ENDBRANCH   4  17
TORSDOF 3
ENDMDL
MODEL 9
REMARK VINA RESULT:      -5.4      2.268      6.949
REMARK  3 active torsions:
REMARK  status: ('A' for Active; 'I' for Inactive)
REMARK       I    between atoms: C_2  and  N_3 
REMARK       I    between atoms: C_2  and  N_14 
REMARK    1  A    between atoms: N_3  and  C_4 
REMARK    2  A    between atoms: C_4  and  C_5 
REMARK    3  A    between atoms: N_14  and  C_15 
ROOT
HETATM    1  O   UNL     1     -42.749 -50.780  14.179  1.00  0.00    -0.247 OA
HETATM    2  C   UNL     1     -43.008 -51.059  13.017  1.00  0.00     0.320 C 
HETATM    3  N   UNL     1     -44.271 -51.434  12.609  1.00  0.00    -0.340 N 
HETATM    4  N   UNL     1     -42.139 -51.031  11.951  1.00  0.00    -0.308 N 
HETATM    5  H   UNL     1     -44.503 -51.289  11.637  1.00  0.00     0.164 HD
HETATM    6  H   UNL     1     -42.465 -51.491  11.116  1.00  0.00     0.170 HD
ENDROOT
BRANCH   3   7
HETATM    7  C   UNL     1     -45.391 -51.407  13.538  1.00  0.00     0.158 C 
BRANCH   7   8
HETATM    8  C   UNL     1     -46.085 -52.775  13.738  1.00  0.00     0.167 C 
HETATM    9  C   UNL     1     -45.097 -53.971  13.660  1.00  0.00     0.306 C 
HETATM   10  N   UNL     1     -44.219 -53.949  14.829  1.00  0.00     0.097 N 
HETATM   11  C   UNL     1     -43.264 -55.043  14.939  1.00  0.00     0.273 C 
HETATM   12  C   UNL     1     -45.049 -54.053  16.042  1.00  0.00     0.246 C 
HETATM   13  C   UNL     1     -42.895 -55.009  16.427  1.00  0.00     0.032 C 
HETATM   14  C   UNL     1     -43.972 -54.151  17.102  1.00  0.00     0.040 C 
HETATM   15  C   UNL     1     -46.009 -52.871  16.148  1.00  0.00     0.204 C 
HETATM   16  O   UNL     1     -46.843 -52.796  14.976  1.00  0.00    -0.380 OA
ENDBRANCH   7   8
ENDBRANCH   3   7
BRANCH   4  17
HETATM   17  C   UNL     1     -40.804 -50.581  11.950  1.00  0.00     0.051 A 
HETATM   18  C   UNL     1     -39.745 -51.247  12.563  1.00  0.00     0.032 A 
HETATM   19  C   UNL     1     -38.458 -50.713  12.491  1.00  0.00     0.019 A 
HETATM   20  C   UNL     1     -38.272 -49.518  11.815  1.00  0.00     0.088 A 
HETATM   21  N   UNL     1     -39.271 -48.832  11.225  1.00  0.00    -0.373 N 
HETATM   22  C   UNL     1     -40.507 -49.380  11.308  1.00  0.00     0.117 A 
ATOM     23  HN  UNL     1     -39.105 -47.949  10.743  1.00  0.00     0.164 HD
ENDBRANCH   4  17
TORSDOF 3
ENDMDL
