MODEL 1
REMARK VINA RESULT:      -6.3      0.000      0.000
REMARK  4 active torsions:
REMARK  status: ('A' for Active; 'I' for Inactive)
REMARK    1  A    between atoms: C_2  and  N_3 
REMARK    2  A    between atoms: C_2  and  C_7 
REMARK       I    between atoms: N_3  and  C_4 
REMARK       I    between atoms: C_4  and  N_6 
REMARK       I    between atoms: C_7  and  N_9 
REMARK    3  A    between atoms: N_9  and  C_10 
REMARK    4  A    between atoms: C_13  and  N_17 
ROOT
HETATM    1  C   UNL     1     -41.819 -50.311  12.324  1.00  0.00     0.050 A 
HETATM    2  C   UNL     1     -42.855 -49.422  12.561  1.00  0.00     0.035 A 
HETATM    3  C   UNL     1     -43.016 -48.294  11.752  1.00  0.00     0.051 A 
HETATM    4  C   UNL     1     -42.147 -48.042  10.690  1.00  0.00     0.103 A 
HETATM    5  N   UNL     1     -41.105 -48.876  10.478  1.00  0.00    -0.350 N 
ATOM      6  HN  UNL     1     -40.437 -48.691   9.730  1.00  0.00     0.166 HD
HETATM    7  C   UNL     1     -40.962 -49.969  11.282  1.00  0.00     0.119 A 
ENDROOT
BRANCH   1   8
HETATM    8  N   UNL     1     -41.593 -51.467  13.108  1.00  0.00    -0.324 N 
HETATM    9  C   UNL     1     -42.336 -52.642  13.044  1.00  0.00     0.244 C 
HETATM   10  O   UNL     1     -43.169 -52.912  12.177  1.00  0.00    -0.271 OA
HETATM   11  H   UNL     1     -40.787 -51.453  13.722  1.00  0.00     0.169 HD
BRANCH   9  12
HETATM   12  C   UNL     1     -42.052 -53.642  14.186  1.00  0.00     0.174 C 
HETATM   13  C   UNL     1     -43.276 -54.521  14.427  1.00  0.00     0.042 C 
BRANCH  12  14
HETATM   14  N   UNL     1     -40.903 -54.458  13.801  1.00  0.00    -0.330 N 
HETATM   15  C   UNL     1     -39.625 -54.108  14.085  1.00  0.00     0.314 C 
HETATM   16  O   UNL     1     -39.294 -53.074  14.647  1.00  0.00    -0.248 OA
HETATM   17  N   UNL     1     -38.715 -55.034  13.712  1.00  0.00    -0.352 N 
HETATM   18  H   UNL     1     -38.946 -55.851  13.171  1.00  0.00     0.160 HD
HETATM   19  H   UNL     1     -37.742 -54.825  13.894  1.00  0.00     0.160 HD
HETATM   20  H   UNL     1     -41.100 -55.349  13.361  1.00  0.00     0.165 HD
ENDBRANCH  12  14
ENDBRANCH   9  12
ENDBRANCH   1   8
BRANCH   4  21
HETATM   21  N   UNL     1     -42.317 -46.934   9.891  1.00  0.00    -0.363 N 
HETATM   22  C   UNL     1     -41.815 -45.601  10.252  1.00  0.00     0.150 C 
HETATM   23  C   UNL     1     -42.976 -44.604  10.387  1.00  0.00     0.187 C 
HETATM   24  O   UNL     1     -43.798 -44.583   9.211  1.00  0.00    -0.388 OA
HETATM   25  C   UNL     1     -44.364 -45.886   8.986  1.00  0.00     0.187 C 
HETATM   26  C   UNL     1     -43.274 -46.947   8.778  1.00  0.00     0.150 C 
ENDBRANCH   4  21
TORSDOF 4
ENDMDL
MODEL 2
REMARK VINA RESULT:      -6.1      2.749      7.877
REMARK  4 active torsions:
REMARK  status: ('A' for Active; 'I' for Inactive)
REMARK    1  A    between atoms: C_2  and  N_3 
REMARK    2  A    between atoms: C_2  and  C_7 
REMARK       I    between atoms: N_3  and  C_4 
REMARK       I    between atoms: C_4  and  N_6 
REMARK       I    between atoms: C_7  and  N_9 
REMARK    3  A    between atoms: N_9  and  C_10 
REMARK    4  A    between atoms: C_13  and  N_17 
ROOT
HETATM    1  C   UNL     1     -41.940 -49.421  12.700  1.00  0.00     0.050 A 
HETATM    2  C   UNL     1     -43.159 -49.754  13.269  1.00  0.00     0.035 A 
HETATM    3  C   UNL     1     -43.547 -51.093  13.373  1.00  0.00     0.051 A 
HETATM    4  C   UNL     1     -42.719 -52.118  12.915  1.00  0.00     0.103 A 
HETATM    5  N   UNL     1     -41.549 -51.804  12.316  1.00  0.00    -0.350 N 
ATOM      6  HN  UNL     1     -40.945 -52.535  11.942  1.00  0.00     0.166 HD
HETATM    7  C   UNL     1     -41.190 -50.490  12.219  1.00  0.00     0.119 A 
ENDROOT
BRANCH   1   8
HETATM    8  N   UNL     1     -41.490 -48.088  12.555  1.00  0.00    -0.324 N 
HETATM    9  C   UNL     1     -41.348 -47.411  11.347  1.00  0.00     0.244 C 
HETATM   10  O   UNL     1     -41.764 -47.806  10.256  1.00  0.00    -0.271 OA
HETATM   11  H   UNL     1     -41.317 -47.568  13.408  1.00  0.00     0.169 HD
BRANCH   9  12
HETATM   12  C   UNL     1     -40.591 -46.069  11.450  1.00  0.00     0.174 C 
HETATM   13  C   UNL     1     -39.799 -46.016  12.754  1.00  0.00     0.042 C 
BRANCH  12  14
HETATM   14  N   UNL     1     -39.694 -45.964  10.302  1.00  0.00    -0.330 N 
HETATM   15  C   UNL     1     -39.441 -44.791   9.672  1.00  0.00     0.314 C 
HETATM   16  O   UNL     1     -39.954 -43.720   9.963  1.00  0.00    -0.248 OA
HETATM   17  N   UNL     1     -38.526 -44.894   8.684  1.00  0.00    -0.352 N 
HETATM   18  H   UNL     1     -38.153 -45.773   8.364  1.00  0.00     0.160 HD
HETATM   19  H   UNL     1     -38.300 -44.050   8.174  1.00  0.00     0.160 HD
HETATM   20  H   UNL     1     -39.204 -46.806  10.023  1.00  0.00     0.165 HD
ENDBRANCH  12  14
ENDBRANCH   9  12
ENDBRANCH   1   8
BRANCH   4  21
HETATM   21  N   UNL     1     -43.101 -53.436  13.030  1.00  0.00    -0.363 N 
HETATM   22  C   UNL     1     -44.402 -53.935  12.565  1.00  0.00     0.150 C 
HETATM   23  C   UNL     1     -45.216 -54.503  13.739  1.00  0.00     0.187 C 
HETATM   24  O   UNL     1     -44.476 -55.491  14.468  1.00  0.00    -0.388 OA
HETATM   25  C   UNL     1     -43.277 -54.907  15.008  1.00  0.00     0.187 C 
HETATM   26  C   UNL     1     -42.365 -54.361  13.899  1.00  0.00     0.150 C 
ENDBRANCH   4  21
TORSDOF 4
ENDMDL
MODEL 3
REMARK VINA RESULT:      -5.9      2.215      8.399
REMARK  4 active torsions:
REMARK  status: ('A' for Active; 'I' for Inactive)
REMARK    1  A    between atoms: C_2  and  N_3 
REMARK    2  A    between atoms: C_2  and  C_7 
REMARK       I    between atoms: N_3  and  C_4 
REMARK       I    between atoms: C_4  and  N_6 
REMARK       I    between atoms: C_7  and  N_9 
REMARK    3  A    between atoms: N_9  and  C_10 
REMARK    4  A    between atoms: C_13  and  N_17 
ROOT
HETATM    1  C   UNL     1     -41.630 -51.150  12.508  1.00  0.00     0.050 A 
HETATM    2  C   UNL     1     -41.687 -51.092  13.891  1.00  0.00     0.035 A 
HETATM    3  C   UNL     1     -41.321 -52.201  14.659  1.00  0.00     0.051 A 
HETATM    4  C   UNL     1     -40.886 -53.381  14.055  1.00  0.00     0.103 A 
HETATM    5  N   UNL     1     -40.871 -53.465  12.707  1.00  0.00    -0.350 N 
ATOM      6  HN  UNL     1     -40.591 -54.330  12.244  1.00  0.00     0.166 HD
HETATM    7  C   UNL     1     -41.237 -52.373  11.974  1.00  0.00     0.119 A 
ENDROOT
BRANCH   1   8
HETATM    8  N   UNL     1     -41.994 -50.069  11.670  1.00  0.00    -0.324 N 
HETATM    9  C   UNL     1     -41.178 -48.988  11.348  1.00  0.00     0.244 C 
HETATM   10  O   UNL     1     -39.972 -48.909  11.591  1.00  0.00    -0.271 OA
HETATM   11  H   UNL     1     -42.902 -50.122  11.224  1.00  0.00     0.169 HD
BRANCH   9  12
HETATM   12  C   UNL     1     -41.906 -47.825  10.639  1.00  0.00     0.174 C 
HETATM   13  C   UNL     1     -41.078 -46.548  10.748  1.00  0.00     0.042 C 
BRANCH  12  14
HETATM   14  N   UNL     1     -42.097 -48.194   9.239  1.00  0.00    -0.330 N 
HETATM   15  C   UNL     1     -43.152 -47.766   8.504  1.00  0.00     0.314 C 
HETATM   16  O   UNL     1     -44.063 -47.072   8.931  1.00  0.00    -0.248 OA
HETATM   17  N   UNL     1     -43.104 -48.156   7.211  1.00  0.00    -0.352 N 
HETATM   18  H   UNL     1     -42.416 -48.797   6.851  1.00  0.00     0.160 HD
HETATM   19  H   UNL     1     -43.868 -47.869   6.614  1.00  0.00     0.160 HD
HETATM   20  H   UNL     1     -41.364 -48.741   8.804  1.00  0.00     0.165 HD
ENDBRANCH  12  14
ENDBRANCH   9  12
ENDBRANCH   1   8
BRANCH   4  21
HETATM   21  N   UNL     1     -40.516 -54.466  14.818  1.00  0.00    -0.363 N 
HETATM   22  C   UNL     1     -41.378 -55.044  15.858  1.00  0.00     0.150 C 
HETATM   23  C   UNL     1     -40.703 -54.947  17.235  1.00  0.00     0.187 C 
HETATM   24  O   UNL     1     -39.389 -55.524  17.224  1.00  0.00    -0.388 OA
HETATM   25  C   UNL     1     -38.557 -54.829  16.279  1.00  0.00     0.187 C 
HETATM   26  C   UNL     1     -39.122 -54.921  14.854  1.00  0.00     0.150 C 
ENDBRANCH   4  21
TORSDOF 4
ENDMDL
MODEL 4
REMARK VINA RESULT:      -5.8      2.176      3.043
REMARK  4 active torsions:
REMARK  status: ('A' for Active; 'I' for Inactive)
REMARK    1  A    between atoms: C_2  and  N_3 
REMARK    2  A    between atoms: C_2  and  C_7 
REMARK       I    between atoms: N_3  and  C_4 
REMARK       I    between atoms: C_4  and  N_6 
REMARK       I    between atoms: C_7  and  N_9 
REMARK    3  A    between atoms: N_9  and  C_10 
REMARK    4  A    between atoms: C_13  and  N_17 
ROOT
HETATM    1  C   UNL     1     -42.281 -51.142  12.914  1.00  0.00     0.050 A 
HETATM    2  C   UNL     1     -43.131 -50.057  13.054  1.00  0.00     0.035 A 
HETATM    3  C   UNL     1     -42.975 -48.930  12.243  1.00  0.00     0.051 A 
HETATM    4  C   UNL     1     -41.971 -48.874  11.276  1.00  0.00     0.103 A 
HETATM    5  N   UNL     1     -41.106 -49.906  11.162  1.00  0.00    -0.350 N 
ATOM      6  HN  UNL     1     -40.343 -49.871  10.487  1.00  0.00     0.166 HD
HETATM    7  C   UNL     1     -41.272 -50.996  11.967  1.00  0.00     0.119 A 
ENDROOT
BRANCH   1   8
HETATM    8  N   UNL     1     -42.377 -52.310  13.707  1.00  0.00    -0.324 N 
HETATM    9  C   UNL     1     -43.255 -53.367  13.483  1.00  0.00     0.244 C 
HETATM   10  O   UNL     1     -43.939 -53.523  12.468  1.00  0.00    -0.271 OA
HETATM   11  H   UNL     1     -41.709 -52.407  14.462  1.00  0.00     0.169 HD
BRANCH   9  12
HETATM   12  C   UNL     1     -43.340 -54.385  14.640  1.00  0.00     0.174 C 
HETATM   13  C   UNL     1     -41.944 -54.676  15.183  1.00  0.00     0.042 C 
BRANCH  12  14
HETATM   14  N   UNL     1     -44.188 -53.816  15.685  1.00  0.00    -0.330 N 
HETATM   15  C   UNL     1     -45.516 -54.076  15.776  1.00  0.00     0.314 C 
HETATM   16  O   UNL     1     -46.146 -54.767  14.989  1.00  0.00    -0.248 OA
HETATM   17  N   UNL     1     -46.103 -53.515  16.856  1.00  0.00    -0.352 N 
HETATM   18  H   UNL     1     -45.632 -52.872  17.471  1.00  0.00     0.160 HD
HETATM   19  H   UNL     1     -47.095 -53.671  16.975  1.00  0.00     0.160 HD
HETATM   20  H   UNL     1     -43.730 -53.259  16.395  1.00  0.00     0.165 HD
ENDBRANCH  12  14
ENDBRANCH   9  12
ENDBRANCH   1   8
BRANCH   4  21
HETATM   21  N   UNL     1     -41.828 -47.764  10.473  1.00  0.00    -0.363 N 
HETATM   22  C   UNL     1     -40.994 -46.612  10.841  1.00  0.00     0.150 C 
HETATM   23  C   UNL     1     -41.848 -45.340  10.959  1.00  0.00     0.187 C 
HETATM   24  O   UNL     1     -42.619 -45.106   9.772  1.00  0.00    -0.388 OA
HETATM   25  C   UNL     1     -43.510 -46.212   9.540  1.00  0.00     0.187 C 
HETATM   26  C   UNL     1     -42.740 -47.527   9.348  1.00  0.00     0.150 C 
ENDBRANCH   4  21
TORSDOF 4
ENDMDL
MODEL 5
REMARK VINA RESULT:      -5.7      2.286      3.258
REMARK  4 active torsions:
REMARK  status: ('A' for Active; 'I' for Inactive)
REMARK    1  A    between atoms: C_2  and  N_3 
REMARK    2  A    between atoms: C_2  and  C_7 
REMARK       I    between atoms: N_3  and  C_4 
REMARK       I    between atoms: C_4  and  N_6 
REMARK       I    between atoms: C_7  and  N_9 
REMARK    3  A    between atoms: N_9  and  C_10 
REMARK    4  A    between atoms: C_13  and  N_17 
ROOT
HETATM    1  C   UNL     1     -42.519 -51.229  12.558  1.00  0.00     0.050 A 
HETATM    2  C   UNL     1     -43.201 -50.056  12.835  1.00  0.00     0.035 A 
HETATM    3  C   UNL     1     -42.747 -48.837  12.321  1.00  0.00     0.051 A 
HETATM    4  C   UNL     1     -41.608 -48.777  11.517  1.00  0.00     0.103 A 
HETATM    5  N   UNL     1     -40.908 -49.908  11.279  1.00  0.00    -0.350 N 
ATOM      6  HN  UNL     1     -40.053 -49.881  10.724  1.00  0.00     0.166 HD
HETATM    7  C   UNL     1     -41.365 -51.087  11.793  1.00  0.00     0.119 A 
ENDROOT
BRANCH   1   8
HETATM    8  N   UNL     1     -42.918 -52.493  13.052  1.00  0.00    -0.324 N 
HETATM    9  C   UNL     1     -42.663 -52.976  14.332  1.00  0.00     0.244 C 
HETATM   10  O   UNL     1     -42.220 -52.309  15.270  1.00  0.00    -0.271 OA
HETATM   11  H   UNL     1     -43.488 -53.065  12.440  1.00  0.00     0.169 HD
BRANCH   9  12
HETATM   12  C   UNL     1     -42.970 -54.477  14.524  1.00  0.00     0.174 C 
HETATM   13  C   UNL     1     -42.120 -55.043  15.657  1.00  0.00     0.042 C 
BRANCH  12  14
HETATM   14  N   UNL     1     -44.392 -54.613  14.833  1.00  0.00    -0.330 N 
HETATM   15  C   UNL     1     -45.347 -54.695  13.874  1.00  0.00     0.314 C 
HETATM   16  O   UNL     1     -45.136 -54.625  12.672  1.00  0.00    -0.248 OA
HETATM   17  N   UNL     1     -46.590 -54.896  14.366  1.00  0.00    -0.352 N 
HETATM   18  H   UNL     1     -46.807 -54.870  15.348  1.00  0.00     0.160 HD
HETATM   19  H   UNL     1     -47.345 -54.960  13.697  1.00  0.00     0.160 HD
HETATM   20  H   UNL     1     -44.642 -54.713  15.809  1.00  0.00     0.165 HD
ENDBRANCH  12  14
ENDBRANCH   9  12
ENDBRANCH   1   8
BRANCH   4  21
HETATM   21  N   UNL     1     -41.172 -47.575  11.006  1.00  0.00    -0.363 N 
HETATM   22  C   UNL     1     -39.910 -46.943  11.413  1.00  0.00     0.150 C 
HETATM   23  C   UNL     1     -40.174 -45.576  12.064  1.00  0.00     0.187 C 
HETATM   24  O   UNL     1     -40.967 -44.730  11.218  1.00  0.00    -0.388 OA
HETATM   25  C   UNL     1     -42.241 -45.348  10.962  1.00  0.00     0.187 C 
HETATM   26  C   UNL     1     -42.081 -46.701  10.255  1.00  0.00     0.150 C 
ENDBRANCH   4  21
TORSDOF 4
ENDMDL
MODEL 6
REMARK VINA RESULT:      -5.4      2.549      3.553
REMARK  4 active torsions:
REMARK  status: ('A' for Active; 'I' for Inactive)
REMARK    1  A    between atoms: C_2  and  N_3 
REMARK    2  A    between atoms: C_2  and  C_7 
REMARK       I    between atoms: N_3  and  C_4 
REMARK       I    between atoms: C_4  and  N_6 
REMARK       I    between atoms: C_7  and  N_9 
REMARK    3  A    between atoms: N_9  and  C_10 
REMARK    4  A    between atoms: C_13  and  N_17 
ROOT
HETATM    1  C   UNL     1     -42.089 -49.741  12.138  1.00  0.00     0.050 A 
HETATM    2  C   UNL     1     -40.766 -49.330  12.152  1.00  0.00     0.035 A 
HETATM    3  C   UNL     1     -40.451 -47.968  12.167  1.00  0.00     0.051 A 
HETATM    4  C   UNL     1     -41.454 -46.999  12.175  1.00  0.00     0.103 A 
HETATM    5  N   UNL     1     -42.747 -47.387  12.114  1.00  0.00    -0.350 N 
ATOM      6  HN  UNL     1     -43.496 -46.695  12.082  1.00  0.00     0.166 HD
HETATM    7  C   UNL     1     -43.035 -48.721  12.095  1.00  0.00     0.119 A 
ENDROOT
BRANCH   1   8
HETATM    8  N   UNL     1     -42.478 -51.102  12.113  1.00  0.00    -0.324 N 
HETATM    9  C   UNL     1     -42.618 -51.921  13.230  1.00  0.00     0.244 C 
HETATM   10  O   UNL     1     -42.605 -51.536  14.401  1.00  0.00    -0.271 OA
HETATM   11  H   UNL     1     -42.733 -51.489  11.212  1.00  0.00     0.169 HD
BRANCH   9  12
HETATM   12  C   UNL     1     -42.791 -53.420  12.906  1.00  0.00     0.174 C 
HETATM   13  C   UNL     1     -41.528 -54.186  13.291  1.00  0.00     0.042 C 
BRANCH  12  14
HETATM   14  N   UNL     1     -43.941 -53.918  13.657  1.00  0.00    -0.330 N 
HETATM   15  C   UNL     1     -45.215 -53.811  13.206  1.00  0.00     0.314 C 
HETATM   16  O   UNL     1     -45.541 -53.262  12.163  1.00  0.00    -0.248 OA
HETATM   17  N   UNL     1     -46.125 -54.401  14.012  1.00  0.00    -0.352 N 
HETATM   18  H   UNL     1     -45.899 -54.782  14.915  1.00  0.00     0.160 HD
HETATM   19  H   UNL     1     -47.094 -54.350  13.728  1.00  0.00     0.160 HD
HETATM   20  H   UNL     1     -43.747 -54.416  14.517  1.00  0.00     0.165 HD
ENDBRANCH  12  14
ENDBRANCH   9  12
ENDBRANCH   1   8
BRANCH   4  21
HETATM   21  N   UNL     1     -41.138 -45.659  12.200  1.00  0.00    -0.363 N 
HETATM   22  C   UNL     1     -42.138 -44.604  12.411  1.00  0.00     0.150 C 
HETATM   23  C   UNL     1     -42.209 -43.674  11.189  1.00  0.00     0.187 C 
HETATM   24  O   UNL     1     -40.918 -43.149  10.847  1.00  0.00    -0.388 OA
HETATM   25  C   UNL     1     -40.021 -44.226  10.526  1.00  0.00     0.187 C 
HETATM   26  C   UNL     1     -39.838 -45.183  11.713  1.00  0.00     0.150 C 
ENDBRANCH   4  21
TORSDOF 4
ENDMDL
MODEL 7
REMARK VINA RESULT:      -5.3      2.041      8.222
REMARK  4 active torsions:
REMARK  status: ('A' for Active; 'I' for Inactive)
REMARK    1  A    between atoms: C_2  and  N_3 
REMARK    2  A    between atoms: C_2  and  C_7 
REMARK       I    between atoms: N_3  and  C_4 
REMARK       I    between atoms: C_4  and  N_6 
REMARK       I    between atoms: C_7  and  N_9 
REMARK    3  A    between atoms: N_9  and  C_10 
REMARK    4  A    between atoms: C_13  and  N_17 
ROOT
HETATM    1  C   UNL     1     -41.006 -48.880  11.736  1.00  0.00     0.050 A 
HETATM    2  C   UNL     1     -40.880 -49.066  13.103  1.00  0.00     0.035 A 
HETATM    3  C   UNL     1     -40.572 -50.328  13.618  1.00  0.00     0.051 A 
HETATM    4  C   UNL     1     -40.379 -51.421  12.773  1.00  0.00     0.103 A 
HETATM    5  N   UNL     1     -40.546 -51.263  11.441  1.00  0.00    -0.350 N 
ATOM      6  HN  UNL     1     -40.446 -52.055  10.808  1.00  0.00     0.166 HD
HETATM    7  C   UNL     1     -40.852 -50.023  10.958  1.00  0.00     0.119 A 
ENDROOT
BRANCH   1   8
HETATM    8  N   UNL     1     -41.324 -47.632  11.149  1.00  0.00    -0.324 N 
HETATM    9  C   UNL     1     -42.599 -47.222  10.768  1.00  0.00     0.244 C 
HETATM   10  O   UNL     1     -43.649 -47.802  11.051  1.00  0.00    -0.271 OA
HETATM   11  H   UNL     1     -40.568 -46.963  11.057  1.00  0.00     0.169 HD
BRANCH   9  12
HETATM   12  C   UNL     1     -42.629 -45.936   9.914  1.00  0.00     0.174 C 
HETATM   13  C   UNL     1     -43.482 -46.156   8.668  1.00  0.00     0.042 C 
BRANCH  12  14
HETATM   14  N   UNL     1     -43.184 -44.860  10.732  1.00  0.00    -0.330 N 
HETATM   15  C   UNL     1     -42.481 -43.749  11.060  1.00  0.00     0.314 C 
HETATM   16  O   UNL     1     -41.316 -43.544  10.749  1.00  0.00    -0.248 OA
HETATM   17  N   UNL     1     -43.200 -42.841  11.756  1.00  0.00    -0.352 N 
HETATM   18  H   UNL     1     -44.129 -43.017  12.101  1.00  0.00     0.160 HD
HETATM   19  H   UNL     1     -42.725 -41.991  12.033  1.00  0.00     0.160 HD
HETATM   20  H   UNL     1     -44.157 -44.943  10.999  1.00  0.00     0.165 HD
ENDBRANCH  12  14
ENDBRANCH   9  12
ENDBRANCH   1   8
BRANCH   4  21
HETATM   21  N   UNL     1     -40.066 -52.660  13.285  1.00  0.00    -0.363 N 
HETATM   22  C   UNL     1     -40.914 -53.844  13.090  1.00  0.00     0.150 C 
HETATM   23  C   UNL     1     -41.418 -54.377  14.441  1.00  0.00     0.187 C 
HETATM   24  O   UNL     1     -40.338 -54.616  15.354  1.00  0.00    -0.388 OA
HETATM   25  C   UNL     1     -39.627 -53.391  15.604  1.00  0.00     0.187 C 
HETATM   26  C   UNL     1     -39.031 -52.809  14.314  1.00  0.00     0.150 C 
ENDBRANCH   4  21
TORSDOF 4
ENDMDL
MODEL 8
REMARK VINA RESULT:      -5.2      3.696      8.743
REMARK  4 active torsions:
REMARK  status: ('A' for Active; 'I' for Inactive)
REMARK    1  A    between atoms: C_2  and  N_3 
REMARK    2  A    between atoms: C_2  and  C_7 
REMARK       I    between atoms: N_3  and  C_4 
REMARK       I    between atoms: C_4  and  N_6 
REMARK       I    between atoms: C_7  and  N_9 
REMARK    3  A    between atoms: N_9  and  C_10 
REMARK    4  A    between atoms: C_13  and  N_17 
ROOT
HETATM    1  C   UNL     1     -40.765 -46.033  11.931  1.00  0.00     0.050 A 
HETATM    2  C   UNL     1     -39.856 -46.473  12.880  1.00  0.00     0.035 A 
HETATM    3  C   UNL     1     -39.375 -47.785  12.840  1.00  0.00     0.051 A 
HETATM    4  C   UNL     1     -39.790 -48.672  11.847  1.00  0.00     0.103 A 
HETATM    5  N   UNL     1     -40.712 -48.269  10.945  1.00  0.00    -0.350 N 
ATOM      6  HN  UNL     1     -41.056 -48.913  10.233  1.00  0.00     0.166 HD
HETATM    7  C   UNL     1     -41.174 -46.986  11.003  1.00  0.00     0.119 A 
ENDROOT
BRANCH   1   8
HETATM    8  N   UNL     1     -41.299 -44.723  11.918  1.00  0.00    -0.324 N 
HETATM    9  C   UNL     1     -40.818 -43.663  11.155  1.00  0.00     0.244 C 
HETATM   10  O   UNL     1     -39.983 -43.757  10.252  1.00  0.00    -0.271 OA
HETATM   11  H   UNL     1     -42.138 -44.565  12.465  1.00  0.00     0.169 HD
BRANCH   9  12
HETATM   12  C   UNL     1     -41.408 -42.286  11.526  1.00  0.00     0.174 C 
HETATM   13  C   UNL     1     -42.822 -42.156  10.967  1.00  0.00     0.042 C 
BRANCH  12  14
HETATM   14  N   UNL     1     -41.421 -42.174  12.983  1.00  0.00    -0.330 N 
HETATM   15  C   UNL     1     -40.345 -41.762  13.697  1.00  0.00     0.314 C 
HETATM   16  O   UNL     1     -39.256 -41.482  13.218  1.00  0.00    -0.248 OA
HETATM   17  N   UNL     1     -40.587 -41.654  15.022  1.00  0.00    -0.352 N 
HETATM   18  H   UNL     1     -41.442 -41.960  15.456  1.00  0.00     0.160 HD
HETATM   19  H   UNL     1     -39.818 -41.354  15.608  1.00  0.00     0.160 HD
HETATM   20  H   UNL     1     -42.301 -42.358  13.449  1.00  0.00     0.165 HD
ENDBRANCH  12  14
ENDBRANCH   9  12
ENDBRANCH   1   8
BRANCH   4  21
HETATM   21  N   UNL     1     -39.304 -49.960  11.807  1.00  0.00    -0.363 N 
HETATM   22  C   UNL     1     -40.106 -51.130  12.191  1.00  0.00     0.150 C 
HETATM   23  C   UNL     1     -39.469 -51.854  13.387  1.00  0.00     0.187 C 
HETATM   24  O   UNL     1     -38.095 -52.185  13.138  1.00  0.00    -0.388 OA
HETATM   25  C   UNL     1     -37.338 -50.985  12.898  1.00  0.00     0.187 C 
HETATM   26  C   UNL     1     -37.866 -50.219  11.677  1.00  0.00     0.150 C 
ENDBRANCH   4  21
TORSDOF 4
ENDMDL
MODEL 9
REMARK VINA RESULT:      -5.2      4.150      9.494
REMARK  4 active torsions:
REMARK  status: ('A' for Active; 'I' for Inactive)
REMARK    1  A    between atoms: C_2  and  N_3 
REMARK    2  A    between atoms: C_2  and  C_7 
REMARK       I    between atoms: N_3  and  C_4 
REMARK       I    between atoms: C_4  and  N_6 
REMARK       I    between atoms: C_7  and  N_9 
REMARK    3  A    between atoms: N_9  and  C_10 
REMARK    4  A    between atoms: C_13  and  N_17 
ROOT
HETATM    1  C   UNL     1     -40.463 -45.268  12.069  1.00  0.00     0.050 A 
HETATM    2  C   UNL     1     -40.283 -46.074  13.182  1.00  0.00     0.035 A 
HETATM    3  C   UNL     1     -39.929 -47.417  13.031  1.00  0.00     0.051 A 
HETATM    4  C   UNL     1     -39.743 -47.973  11.765  1.00  0.00     0.103 A 
HETATM    5  N   UNL     1     -39.961 -47.210  10.671  1.00  0.00    -0.350 N 
ATOM      6  HN  UNL     1     -39.866 -47.605   9.735  1.00  0.00     0.166 HD
HETATM    7  C   UNL     1     -40.311 -45.901  10.839  1.00  0.00     0.119 A 
ENDROOT
BRANCH   1   8
HETATM    8  N   UNL     1     -40.830 -43.904  12.150  1.00  0.00    -0.324 N 
HETATM    9  C   UNL     1     -40.070 -42.898  12.740  1.00  0.00     0.244 C 
HETATM   10  O   UNL     1     -38.900 -43.013  13.109  1.00  0.00    -0.271 OA
HETATM   11  H   UNL     1     -41.689 -43.633  11.686  1.00  0.00     0.169 HD
BRANCH   9  12
HETATM   12  C   UNL     1     -40.816 -41.560  12.929  1.00  0.00     0.174 C 
HETATM   13  C   UNL     1     -40.174 -40.758  14.058  1.00  0.00     0.042 C 
BRANCH  12  14
HETATM   14  N   UNL     1     -40.747 -40.819  11.671  1.00  0.00    -0.330 N 
HETATM   15  C   UNL     1     -41.771 -40.063  11.207  1.00  0.00     0.314 C 
HETATM   16  O   UNL     1     -42.859 -39.951  11.754  1.00  0.00    -0.248 OA
HETATM   17  N   UNL     1     -41.479 -39.399  10.067  1.00  0.00    -0.352 N 
HETATM   18  H   UNL     1     -40.629 -39.539   9.547  1.00  0.00     0.160 HD
HETATM   19  H   UNL     1     -42.208 -38.821   9.670  1.00  0.00     0.160 HD
HETATM   20  H   UNL     1     -39.864 -40.837  11.176  1.00  0.00     0.165 HD
ENDBRANCH  12  14
ENDBRANCH   9  12
ENDBRANCH   1   8
BRANCH   4  21
HETATM   21  N   UNL     1     -39.384 -49.294  11.622  1.00  0.00    -0.363 N 
HETATM   22  C   UNL     1     -40.330 -50.404  11.796  1.00  0.00     0.150 C 
HETATM   23  C   UNL     1     -39.892 -51.313  12.955  1.00  0.00     0.187 C 
HETATM   24  O   UNL     1     -38.539 -51.763  12.794  1.00  0.00    -0.388 OA
HETATM   25  C   UNL     1     -37.648 -50.634  12.761  1.00  0.00     0.187 C 
HETATM   26  C   UNL     1     -37.972 -49.692  11.593  1.00  0.00     0.150 C 
ENDBRANCH   4  21
TORSDOF 4
ENDMDL
