MODEL 1
REMARK VINA RESULT:      -6.3      0.000      0.000
REMARK  6 active torsions:
REMARK  status: ('A' for Active; 'I' for Inactive)
REMARK    1  A    between atoms: C_2  and  C_3 
REMARK    2  A    between atoms: C_6  and  C_7 
REMARK    3  A    between atoms: C_7  and  C_8 
REMARK       I    between atoms: C_8  and  N_10 
REMARK    4  A    between atoms: N_10  and  C_11 
REMARK    5  A    between atoms: C_11  and  C_12 
REMARK    6  A    between atoms: C_16  and  O_17 
ROOT
HETATM    1  C   UNL     1     -42.883 -49.341  12.727  1.00  0.00     0.223 C 
HETATM    2  O   UNL     1     -43.344 -48.668  13.650  1.00  0.00    -0.273 OA
HETATM    3  N   UNL     1     -43.179 -50.677  12.559  1.00  0.00    -0.360 N 
HETATM    4  H   UNL     1     -42.692 -51.177  11.814  1.00  0.00     0.162 HD
ENDROOT
BRANCH   1   5
HETATM    5  C   UNL     1     -42.035 -48.691  11.650  1.00  0.00     0.160 C 
BRANCH   5   6
HETATM    6  C   UNL     1     -42.804 -47.884  10.657  1.00  0.00     0.025 A 
HETATM    7  N   UNL     1     -44.159 -48.144  10.479  1.00  0.00    -0.356 N 
HETATM    8  C   UNL     1     -44.676 -47.282   9.626  1.00  0.00     0.050 A 
ATOM      9  HN  UNL     1     -44.676 -48.891  10.941  1.00  0.00     0.166 HD
HETATM   10  S   UNL     1     -43.567 -46.153   8.955  1.00  0.00    -0.087 SA
HETATM   11  C   UNL     1     -42.315 -46.838   9.898  1.00  0.00     0.077 A 
BRANCH   8  12
HETATM   12  C   UNL     1     -46.123 -47.240   9.248  1.00  0.00     0.060 C 
HETATM   13  C   UNL     1     -46.561 -48.520   8.555  1.00  0.00     0.012 C 
ENDBRANCH   8  12
ENDBRANCH   5   6
ENDBRANCH   1   5
BRANCH   3  14
HETATM   14  C   UNL     1     -43.954 -51.413  13.531  1.00  0.00     0.127 C 
BRANCH  14  15
HETATM   15  C   UNL     1     -45.344 -51.832  13.017  1.00  0.00     0.006 C 
HETATM   16  C   UNL     1     -46.506 -51.365  13.914  1.00  0.00     0.006 C 
HETATM   17  C   UNL     1     -46.560 -52.094  15.255  1.00  0.00     0.003 C 
HETATM   18  C   UNL     1     -46.577 -53.610  15.078  1.00  0.00     0.032 C 
HETATM   19  C   UNL     1     -45.427 -54.095  14.196  1.00  0.00     0.118 C 
HETATM   20  C   UNL     1     -45.406 -53.360  12.850  1.00  0.00     0.038 C 
BRANCH  19  21
HETATM   21  O   UNL     1     -45.542 -55.495  13.971  1.00  0.00    -0.396 OA
HETATM   22  H   UNL     1     -44.720 -55.803  13.553  1.00  0.00     0.210 HD
ENDBRANCH  19  21
ENDBRANCH  14  15
ENDBRANCH   3  14
TORSDOF 6
ENDMDL
MODEL 2
REMARK VINA RESULT:      -6.2      1.043      1.215
REMARK  6 active torsions:
REMARK  status: ('A' for Active; 'I' for Inactive)
REMARK    1  A    between atoms: C_2  and  C_3 
REMARK    2  A    between atoms: C_6  and  C_7 
REMARK    3  A    between atoms: C_7  and  C_8 
REMARK       I    between atoms: C_8  and  N_10 
REMARK    4  A    between atoms: N_10  and  C_11 
REMARK    5  A    between atoms: C_11  and  C_12 
REMARK    6  A    between atoms: C_16  and  O_17 
ROOT
HETATM    1  C   UNL     1     -42.551 -50.138  12.571  1.00  0.00     0.223 C 
HETATM    2  O   UNL     1     -43.229 -49.379  13.263  1.00  0.00    -0.273 OA
HETATM    3  N   UNL     1     -42.731 -51.504  12.566  1.00  0.00    -0.360 N 
HETATM    4  H   UNL     1     -42.073 -52.065  12.023  1.00  0.00     0.162 HD
ENDROOT
BRANCH   1   5
HETATM    5  C   UNL     1     -41.534 -49.583  11.591  1.00  0.00     0.160 C 
BRANCH   5   6
HETATM    6  C   UNL     1     -41.932 -48.297  10.945  1.00  0.00     0.025 A 
HETATM    7  N   UNL     1     -43.114 -48.245  10.214  1.00  0.00    -0.356 N 
HETATM    8  C   UNL     1     -43.331 -47.016   9.792  1.00  0.00     0.050 A 
ATOM      9  HN  UNL     1     -43.724 -49.042  10.032  1.00  0.00     0.166 HD
HETATM   10  S   UNL     1     -42.116 -45.871  10.199  1.00  0.00    -0.087 SA
HETATM   11  C   UNL     1     -41.256 -47.094  11.030  1.00  0.00     0.077 A 
BRANCH   8  12
HETATM   12  C   UNL     1     -44.543 -46.594   9.022  1.00  0.00     0.060 C 
HETATM   13  C   UNL     1     -45.665 -47.613   9.138  1.00  0.00     0.012 C 
ENDBRANCH   8  12
ENDBRANCH   5   6
ENDBRANCH   1   5
BRANCH   3  14
HETATM   14  C   UNL     1     -43.650 -52.154  13.474  1.00  0.00     0.127 C 
BRANCH  14  15
HETATM   15  C   UNL     1     -44.965 -52.593  12.804  1.00  0.00     0.006 C 
HETATM   16  C   UNL     1     -46.092 -51.546  12.899  1.00  0.00     0.006 C 
HETATM   17  C   UNL     1     -46.635 -51.377  14.317  1.00  0.00     0.003 C 
HETATM   18  C   UNL     1     -47.069 -52.708  14.922  1.00  0.00     0.032 C 
HETATM   19  C   UNL     1     -45.962 -53.759  14.843  1.00  0.00     0.118 C 
HETATM   20  C   UNL     1     -45.447 -53.923  13.408  1.00  0.00     0.038 C 
BRANCH  19  21
HETATM   21  O   UNL     1     -46.443 -55.011  15.321  1.00  0.00    -0.396 OA
HETATM   22  H   UNL     1     -46.467 -54.975  16.292  1.00  0.00     0.210 HD
ENDBRANCH  19  21
ENDBRANCH  14  15
ENDBRANCH   3  14
TORSDOF 6
ENDMDL
MODEL 3
REMARK VINA RESULT:      -6.0      2.121      2.757
REMARK  6 active torsions:
REMARK  status: ('A' for Active; 'I' for Inactive)
REMARK    1  A    between atoms: C_2  and  C_3 
REMARK    2  A    between atoms: C_6  and  C_7 
REMARK    3  A    between atoms: C_7  and  C_8 
REMARK       I    between atoms: C_8  and  N_10 
REMARK    4  A    between atoms: N_10  and  C_11 
REMARK    5  A    between atoms: C_11  and  C_12 
REMARK    6  A    between atoms: C_16  and  O_17 
ROOT
HETATM    1  C   UNL     1     -40.417 -50.926  12.128  1.00  0.00     0.223 C 
HETATM    2  O   UNL     1     -39.748 -51.190  13.127  1.00  0.00    -0.273 OA
HETATM    3  N   UNL     1     -41.570 -51.607  11.801  1.00  0.00    -0.360 N 
HETATM    4  H   UNL     1     -42.018 -51.374  10.914  1.00  0.00     0.162 HD
ENDROOT
BRANCH   1   5
HETATM    5  C   UNL     1     -40.052 -49.743  11.249  1.00  0.00     0.160 C 
BRANCH   5   6
HETATM    6  C   UNL     1     -41.156 -48.758  11.046  1.00  0.00     0.025 A 
HETATM    7  N   UNL     1     -41.677 -48.580   9.769  1.00  0.00    -0.356 N 
HETATM    8  C   UNL     1     -42.687 -47.735   9.807  1.00  0.00     0.050 A 
ATOM      9  HN  UNL     1     -41.328 -49.036   8.926  1.00  0.00     0.166 HD
HETATM   10  S   UNL     1     -43.037 -47.071  11.353  1.00  0.00    -0.087 SA
HETATM   11  C   UNL     1     -41.773 -48.006  12.028  1.00  0.00     0.077 A 
BRANCH   8  12
HETATM   12  C   UNL     1     -43.513 -47.359   8.616  1.00  0.00     0.060 C 
HETATM   13  C   UNL     1     -44.971 -47.147   8.988  1.00  0.00     0.012 C 
ENDBRANCH   8  12
ENDBRANCH   5   6
ENDBRANCH   1   5
BRANCH   3  14
HETATM   14  C   UNL     1     -42.005 -52.767  12.544  1.00  0.00     0.127 C 
BRANCH  14  15
HETATM   15  C   UNL     1     -42.967 -52.429  13.698  1.00  0.00     0.006 C 
HETATM   16  C   UNL     1     -43.092 -53.545  14.752  1.00  0.00     0.006 C 
HETATM   17  C   UNL     1     -43.825 -54.782  14.235  1.00  0.00     0.003 C 
HETATM   18  C   UNL     1     -45.187 -54.429  13.645  1.00  0.00     0.032 C 
HETATM   19  C   UNL     1     -45.085 -53.327  12.591  1.00  0.00     0.118 C 
HETATM   20  C   UNL     1     -44.361 -52.092  13.141  1.00  0.00     0.038 C 
BRANCH  19  21
HETATM   21  O   UNL     1     -46.384 -52.957  12.145  1.00  0.00    -0.396 OA
HETATM   22  H   UNL     1     -46.948 -53.749  12.164  1.00  0.00     0.210 HD
ENDBRANCH  19  21
ENDBRANCH  14  15
ENDBRANCH   3  14
TORSDOF 6
ENDMDL
MODEL 4
REMARK VINA RESULT:      -6.0      2.512      3.112
REMARK  6 active torsions:
REMARK  status: ('A' for Active; 'I' for Inactive)
REMARK    1  A    between atoms: C_2  and  C_3 
REMARK    2  A    between atoms: C_6  and  C_7 
REMARK    3  A    between atoms: C_7  and  C_8 
REMARK       I    between atoms: C_8  and  N_10 
REMARK    4  A    between atoms: N_10  and  C_11 
REMARK    5  A    between atoms: C_11  and  C_12 
REMARK    6  A    between atoms: C_16  and  O_17 
ROOT
HETATM    1  C   UNL     1     -42.509 -49.263  12.370  1.00  0.00     0.223 C 
HETATM    2  O   UNL     1     -43.242 -48.859  13.273  1.00  0.00    -0.273 OA
HETATM    3  N   UNL     1     -42.307 -50.602  12.115  1.00  0.00    -0.360 N 
HETATM    4  H   UNL     1     -41.623 -50.848  11.399  1.00  0.00     0.162 HD
ENDROOT
BRANCH   1   5
HETATM    5  C   UNL     1     -41.864 -48.283  11.407  1.00  0.00     0.160 C 
BRANCH   5   6
HETATM    6  C   UNL     1     -42.818 -47.600  10.484  1.00  0.00     0.025 A 
HETATM    7  N   UNL     1     -44.109 -48.100  10.355  1.00  0.00    -0.356 N 
HETATM    8  C   UNL     1     -44.818 -47.322   9.563  1.00  0.00     0.050 A 
ATOM      9  HN  UNL     1     -44.457 -48.946  10.808  1.00  0.00     0.166 HD
HETATM   10  S   UNL     1     -43.972 -45.985   8.891  1.00  0.00    -0.087 SA
HETATM   11  C   UNL     1     -42.569 -46.457   9.748  1.00  0.00     0.077 A 
BRANCH   8  12
HETATM   12  C   UNL     1     -46.266 -47.537   9.251  1.00  0.00     0.060 C 
HETATM   13  C   UNL     1     -46.473 -48.728   8.331  1.00  0.00     0.012 C 
ENDBRANCH   8  12
ENDBRANCH   5   6
ENDBRANCH   1   5
BRANCH   3  14
HETATM   14  C   UNL     1     -42.846 -51.630  12.977  1.00  0.00     0.127 C 
BRANCH  14  15
HETATM   15  C   UNL     1     -42.511 -53.059  12.510  1.00  0.00     0.006 C 
HETATM   16  C   UNL     1     -43.085 -54.162  13.418  1.00  0.00     0.006 C 
HETATM   17  C   UNL     1     -42.403 -54.232  14.783  1.00  0.00     0.003 C 
HETATM   18  C   UNL     1     -40.888 -54.359  14.656  1.00  0.00     0.032 C 
HETATM   19  C   UNL     1     -40.297 -53.269  13.762  1.00  0.00     0.118 C 
HETATM   20  C   UNL     1     -40.986 -53.232  12.394  1.00  0.00     0.038 C 
BRANCH  19  21
HETATM   21  O   UNL     1     -38.902 -53.486  13.586  1.00  0.00    -0.396 OA
HETATM   22  H   UNL     1     -38.426 -52.733  13.975  1.00  0.00     0.210 HD
ENDBRANCH  19  21
ENDBRANCH  14  15
ENDBRANCH   3  14
TORSDOF 6
ENDMDL
MODEL 5
REMARK VINA RESULT:      -5.7      3.194      6.895
REMARK  6 active torsions:
REMARK  status: ('A' for Active; 'I' for Inactive)
REMARK    1  A    between atoms: C_2  and  C_3 
REMARK    2  A    between atoms: C_6  and  C_7 
REMARK    3  A    between atoms: C_7  and  C_8 
REMARK       I    between atoms: C_8  and  N_10 
REMARK    4  A    between atoms: N_10  and  C_11 
REMARK    5  A    between atoms: C_11  and  C_12 
REMARK    6  A    between atoms: C_16  and  O_17 
ROOT
HETATM    1  C   UNL     1     -41.348 -50.817  12.268  1.00  0.00     0.223 C 
HETATM    2  O   UNL     1     -41.076 -50.413  13.399  1.00  0.00    -0.273 OA
HETATM    3  N   UNL     1     -41.241 -50.024  11.146  1.00  0.00    -0.360 N 
HETATM    4  H   UNL     1     -41.561 -50.416  10.260  1.00  0.00     0.162 HD
ENDROOT
BRANCH   1   5
HETATM    5  C   UNL     1     -41.719 -52.271  12.041  1.00  0.00     0.160 C 
BRANCH   5   6
HETATM    6  C   UNL     1     -43.053 -52.663  12.586  1.00  0.00     0.025 A 
HETATM    7  N   UNL     1     -44.034 -51.690  12.739  1.00  0.00    -0.356 N 
HETATM    8  C   UNL     1     -45.156 -52.240  13.155  1.00  0.00     0.050 A 
ATOM      9  HN  UNL     1     -43.904 -50.695  12.555  1.00  0.00     0.166 HD
HETATM   10  S   UNL     1     -45.088 -53.935  13.436  1.00  0.00    -0.087 SA
HETATM   11  C   UNL     1     -43.453 -53.941  12.929  1.00  0.00     0.077 A 
BRANCH   8  12
HETATM   12  C   UNL     1     -46.432 -51.488  13.369  1.00  0.00     0.060 C 
HETATM   13  C   UNL     1     -46.827 -51.455  14.837  1.00  0.00     0.012 C 
ENDBRANCH   8  12
ENDBRANCH   5   6
ENDBRANCH   1   5
BRANCH   3  14
HETATM   14  C   UNL     1     -40.922 -48.617  11.236  1.00  0.00     0.127 C 
BRANCH  14  15
HETATM   15  C   UNL     1     -42.063 -47.768  11.825  1.00  0.00     0.006 C 
HETATM   16  C   UNL     1     -43.418 -47.970  11.120  1.00  0.00     0.006 C 
HETATM   17  C   UNL     1     -43.450 -47.397   9.705  1.00  0.00     0.003 C 
HETATM   18  C   UNL     1     -43.029 -45.930   9.676  1.00  0.00     0.032 C 
HETATM   19  C   UNL     1     -41.684 -45.708  10.365  1.00  0.00     0.118 C 
HETATM   20  C   UNL     1     -41.684 -46.277  11.789  1.00  0.00     0.038 C 
BRANCH  19  21
HETATM   21  O   UNL     1     -41.381 -44.319  10.409  1.00  0.00    -0.396 OA
HETATM   22  H   UNL     1     -40.557 -44.172   9.913  1.00  0.00     0.210 HD
ENDBRANCH  19  21
ENDBRANCH  14  15
ENDBRANCH   3  14
TORSDOF 6
ENDMDL
MODEL 6
REMARK VINA RESULT:      -5.5      3.542      7.478
REMARK  6 active torsions:
REMARK  status: ('A' for Active; 'I' for Inactive)
REMARK    1  A    between atoms: C_2  and  C_3 
REMARK    2  A    between atoms: C_6  and  C_7 
REMARK    3  A    between atoms: C_7  and  C_8 
REMARK       I    between atoms: C_8  and  N_10 
REMARK    4  A    between atoms: N_10  and  C_11 
REMARK    5  A    between atoms: C_11  and  C_12 
REMARK    6  A    between atoms: C_16  and  O_17 
ROOT
HETATM    1  C   UNL     1     -41.677 -49.831  12.102  1.00  0.00     0.223 C 
HETATM    2  O   UNL     1     -42.047 -49.268  13.131  1.00  0.00    -0.273 OA
HETATM    3  N   UNL     1     -41.225 -49.144  10.996  1.00  0.00    -0.360 N 
HETATM    4  H   UNL     1     -41.013 -49.686  10.158  1.00  0.00     0.162 HD
ENDROOT
BRANCH   1   5
HETATM    5  C   UNL     1     -41.600 -51.346  12.039  1.00  0.00     0.160 C 
BRANCH   5   6
HETATM    6  C   UNL     1     -42.831 -52.050  12.508  1.00  0.00     0.025 A 
HETATM    7  N   UNL     1     -44.024 -51.341  12.593  1.00  0.00    -0.356 N 
HETATM    8  C   UNL     1     -45.004 -52.147  12.948  1.00  0.00     0.050 A 
ATOM      9  HN  UNL     1     -44.126 -50.343  12.407  1.00  0.00     0.166 HD
HETATM   10  S   UNL     1     -44.547 -53.777  13.248  1.00  0.00    -0.087 SA
HETATM   11  C   UNL     1     -42.932 -53.388  12.839  1.00  0.00     0.077 A 
BRANCH   8  12
HETATM   12  C   UNL     1     -46.434 -51.725  13.078  1.00  0.00     0.060 C 
HETATM   13  C   UNL     1     -46.800 -51.415  14.520  1.00  0.00     0.012 C 
ENDBRANCH   8  12
ENDBRANCH   5   6
ENDBRANCH   1   5
BRANCH   3  14
HETATM   14  C   UNL     1     -41.275 -47.701  10.924  1.00  0.00     0.127 C 
BRANCH  14  15
HETATM   15  C   UNL     1     -39.937 -47.024  11.276  1.00  0.00     0.006 C 
HETATM   16  C   UNL     1     -39.763 -46.734  12.779  1.00  0.00     0.006 C 
HETATM   17  C   UNL     1     -40.687 -45.630  13.289  1.00  0.00     0.003 C 
HETATM   18  C   UNL     1     -40.556 -44.353  12.464  1.00  0.00     0.032 C 
HETATM   19  C   UNL     1     -40.732 -44.618  10.969  1.00  0.00     0.118 C 
HETATM   20  C   UNL     1     -39.782 -45.717  10.480  1.00  0.00     0.038 C 
BRANCH  19  21
HETATM   21  O   UNL     1     -40.498 -43.424  10.231  1.00  0.00    -0.396 OA
HETATM   22  H   UNL     1     -41.359 -43.051   9.977  1.00  0.00     0.210 HD
ENDBRANCH  19  21
ENDBRANCH  14  15
ENDBRANCH   3  14
TORSDOF 6
ENDMDL
MODEL 7
REMARK VINA RESULT:      -5.5      3.675      4.378
REMARK  6 active torsions:
REMARK  status: ('A' for Active; 'I' for Inactive)
REMARK    1  A    between atoms: C_2  and  C_3 
REMARK    2  A    between atoms: C_6  and  C_7 
REMARK    3  A    between atoms: C_7  and  C_8 
REMARK       I    between atoms: C_8  and  N_10 
REMARK    4  A    between atoms: N_10  and  C_11 
REMARK    5  A    between atoms: C_11  and  C_12 
REMARK    6  A    between atoms: C_16  and  O_17 
ROOT
HETATM    1  C   UNL     1     -39.404 -51.225  12.323  1.00  0.00     0.223 C 
HETATM    2  O   UNL     1     -38.944 -51.905  13.240  1.00  0.00    -0.273 OA
HETATM    3  N   UNL     1     -40.664 -51.431  11.802  1.00  0.00    -0.360 N 
HETATM    4  H   UNL     1     -40.935 -50.873  10.991  1.00  0.00     0.162 HD
ENDROOT
BRANCH   1   5
HETATM    5  C   UNL     1     -38.631 -50.036  11.784  1.00  0.00     0.160 C 
BRANCH   5   6
HETATM    6  C   UNL     1     -39.243 -48.708  12.089  1.00  0.00     0.025 A 
HETATM    7  N   UNL     1     -39.531 -47.840  11.042  1.00  0.00    -0.356 N 
HETATM    8  C   UNL     1     -40.135 -46.762  11.502  1.00  0.00     0.050 A 
ATOM      9  HN  UNL     1     -39.309 -48.012  10.062  1.00  0.00     0.166 HD
HETATM   10  S   UNL     1     -40.344 -46.704  13.207  1.00  0.00    -0.087 SA
HETATM   11  C   UNL     1     -39.611 -48.244  13.339  1.00  0.00     0.077 A 
BRANCH   8  12
HETATM   12  C   UNL     1     -40.635 -45.647  10.639  1.00  0.00     0.060 C 
HETATM   13  C   UNL     1     -39.495 -44.806  10.090  1.00  0.00     0.012 C 
ENDBRANCH   8  12
ENDBRANCH   5   6
ENDBRANCH   1   5
BRANCH   3  14
HETATM   14  C   UNL     1     -41.485 -52.547  12.213  1.00  0.00     0.127 C 
BRANCH  14  15
HETATM   15  C   UNL     1     -42.364 -52.241  13.441  1.00  0.00     0.006 C 
HETATM   16  C   UNL     1     -42.124 -53.189  14.631  1.00  0.00     0.006 C 
HETATM   17  C   UNL     1     -42.622 -54.610  14.376  1.00  0.00     0.003 C 
HETATM   18  C   UNL     1     -44.085 -54.630  13.944  1.00  0.00     0.032 C 
HETATM   19  C   UNL     1     -44.344 -53.700  12.759  1.00  0.00     0.118 C 
HETATM   20  C   UNL     1     -43.851 -52.277  13.047  1.00  0.00     0.038 C 
BRANCH  19  21
HETATM   21  O   UNL     1     -45.734 -53.669  12.457  1.00  0.00    -0.396 OA
HETATM   22  H   UNL     1     -46.221 -53.977  13.241  1.00  0.00     0.210 HD
ENDBRANCH  19  21
ENDBRANCH  14  15
ENDBRANCH   3  14
TORSDOF 6
ENDMDL
MODEL 8
REMARK VINA RESULT:      -5.3      3.299      6.772
REMARK  6 active torsions:
REMARK  status: ('A' for Active; 'I' for Inactive)
REMARK    1  A    between atoms: C_2  and  C_3 
REMARK    2  A    between atoms: C_6  and  C_7 
REMARK    3  A    between atoms: C_7  and  C_8 
REMARK       I    between atoms: C_8  and  N_10 
REMARK    4  A    between atoms: N_10  and  C_11 
REMARK    5  A    between atoms: C_11  and  C_12 
REMARK    6  A    between atoms: C_16  and  O_17 
ROOT
HETATM    1  C   UNL     1     -41.802 -50.685  12.456  1.00  0.00     0.223 C 
HETATM    2  O   UNL     1     -41.703 -50.143  13.556  1.00  0.00    -0.273 OA
HETATM    3  N   UNL     1     -41.581 -50.016  11.271  1.00  0.00    -0.360 N 
HETATM    4  H   UNL     1     -41.762 -50.521  10.404  1.00  0.00     0.162 HD
ENDROOT
BRANCH   1   5
HETATM    5  C   UNL     1     -42.074 -52.175  12.354  1.00  0.00     0.160 C 
BRANCH   5   6
HETATM    6  C   UNL     1     -43.406 -52.600  12.878  1.00  0.00     0.025 A 
HETATM    7  N   UNL     1     -44.291 -51.631  13.340  1.00  0.00    -0.356 N 
HETATM    8  C   UNL     1     -45.433 -52.191  13.685  1.00  0.00     0.050 A 
ATOM      9  HN  UNL     1     -44.086 -50.634  13.402  1.00  0.00     0.166 HD
HETATM   10  S   UNL     1     -45.495 -53.901  13.526  1.00  0.00    -0.087 SA
HETATM   11  C   UNL     1     -43.896 -53.891  12.918  1.00  0.00     0.077 A 
BRANCH   8  12
HETATM   12  C   UNL     1     -46.627 -51.431  14.171  1.00  0.00     0.060 C 
HETATM   13  C   UNL     1     -46.632 -51.300  15.685  1.00  0.00     0.012 C 
ENDBRANCH   8  12
ENDBRANCH   5   6
ENDBRANCH   1   5
BRANCH   3  14
HETATM   14  C   UNL     1     -41.341 -48.591  11.236  1.00  0.00     0.127 C 
BRANCH  14  15
HETATM   15  C   UNL     1     -42.538 -47.781  10.703  1.00  0.00     0.006 C 
HETATM   16  C   UNL     1     -42.135 -46.558   9.858  1.00  0.00     0.006 C 
HETATM   17  C   UNL     1     -41.490 -45.445  10.681  1.00  0.00     0.003 C 
HETATM   18  C   UNL     1     -42.364 -45.033  11.862  1.00  0.00     0.032 C 
HETATM   19  C   UNL     1     -42.769 -46.232  12.719  1.00  0.00     0.118 C 
HETATM   20  C   UNL     1     -43.430 -47.326  11.872  1.00  0.00     0.038 C 
BRANCH  19  21
HETATM   21  O   UNL     1     -43.666 -45.819  13.744  1.00  0.00    -0.396 OA
HETATM   22  H   UNL     1     -44.563 -45.799  13.371  1.00  0.00     0.210 HD
ENDBRANCH  19  21
ENDBRANCH  14  15
ENDBRANCH   3  14
TORSDOF 6
ENDMDL
MODEL 9
REMARK VINA RESULT:      -5.2      2.534      3.797
REMARK  6 active torsions:
REMARK  status: ('A' for Active; 'I' for Inactive)
REMARK    1  A    between atoms: C_2  and  C_3 
REMARK    2  A    between atoms: C_6  and  C_7 
REMARK    3  A    between atoms: C_7  and  C_8 
REMARK       I    between atoms: C_8  and  N_10 
REMARK    4  A    between atoms: N_10  and  C_11 
REMARK    5  A    between atoms: C_11  and  C_12 
REMARK    6  A    between atoms: C_16  and  O_17 
ROOT
HETATM    1  C   UNL     1     -43.333 -49.978  13.316  1.00  0.00     0.223 C 
HETATM    2  O   UNL     1     -43.201 -50.054  14.538  1.00  0.00    -0.273 OA
HETATM    3  N   UNL     1     -43.699 -51.055  12.537  1.00  0.00    -0.360 N 
HETATM    4  H   UNL     1     -43.708 -50.923  11.525  1.00  0.00     0.162 HD
ENDROOT
BRANCH   1   5
HETATM    5  C   UNL     1     -43.199 -48.642  12.610  1.00  0.00     0.160 C 
BRANCH   5   6
HETATM    6  C   UNL     1     -41.792 -48.174  12.429  1.00  0.00     0.025 A 
HETATM    7  N   UNL     1     -40.749 -48.988  12.857  1.00  0.00    -0.356 N 
HETATM    8  C   UNL     1     -39.592 -48.441  12.542  1.00  0.00     0.050 A 
ATOM      9  HN  UNL     1     -40.862 -49.877  13.343  1.00  0.00     0.166 HD
HETATM   10  S   UNL     1     -39.685 -46.910  11.768  1.00  0.00    -0.087 SA
HETATM   11  C   UNL     1     -41.393 -46.998  11.823  1.00  0.00     0.077 A 
BRANCH   8  12
HETATM   12  C   UNL     1     -38.263 -49.078  12.805  1.00  0.00     0.060 C 
HETATM   13  C   UNL     1     -37.889 -50.070  11.716  1.00  0.00     0.012 C 
ENDBRANCH   8  12
ENDBRANCH   5   6
ENDBRANCH   1   5
BRANCH   3  14
HETATM   14  C   UNL     1     -43.830 -52.384  13.090  1.00  0.00     0.127 C 
BRANCH  14  15
HETATM   15  C   UNL     1     -45.210 -53.019  12.836  1.00  0.00     0.006 C 
HETATM   16  C   UNL     1     -46.371 -52.007  12.842  1.00  0.00     0.006 C 
HETATM   17  C   UNL     1     -46.665 -51.437  14.228  1.00  0.00     0.003 C 
HETATM   18  C   UNL     1     -46.890 -52.538  15.259  1.00  0.00     0.032 C 
HETATM   19  C   UNL     1     -45.745 -53.551  15.274  1.00  0.00     0.118 C 
HETATM   20  C   UNL     1     -45.483 -54.120  13.875  1.00  0.00     0.038 C 
BRANCH  19  21
HETATM   21  O   UNL     1     -46.045 -54.613  16.172  1.00  0.00    -0.396 OA
HETATM   22  H   UNL     1     -46.241 -55.408  15.646  1.00  0.00     0.210 HD
ENDBRANCH  19  21
ENDBRANCH  14  15
ENDBRANCH   3  14
TORSDOF 6
ENDMDL
