MODEL 1
REMARK VINA RESULT:      -6.4      0.000      0.000
REMARK  5 active torsions:
REMARK  status: ('A' for Active; 'I' for Inactive)
REMARK    1  A    between atoms: C_2  and  C_5 
REMARK    2  A    between atoms: C_5  and  C_6 
REMARK    3  A    between atoms: C_5  and  N_14 
REMARK    4  A    between atoms: C_6  and  C_7 
REMARK    5  A    between atoms: N_14  and  C_15 
ROOT
HETATM    1  C   UNL     1     -39.214 -50.186  11.735  1.00  0.00     0.331 C 
ENDROOT
BRANCH   1   2
HETATM    2  C   UNL     1     -37.661 -49.950  11.843  1.00  0.00     0.418 C 
HETATM    3  F   UNL     1     -37.277 -49.101  12.814  1.00  0.00    -0.169 F 
HETATM    4  F   UNL     1     -37.149 -49.491  10.670  1.00  0.00    -0.169 F 
HETATM    5  F   UNL     1     -37.037 -51.132  12.079  1.00  0.00    -0.169 F 
ENDBRANCH   1   2
BRANCH   1   6
HETATM    6  C   UNL     1     -39.817 -50.761  13.041  1.00  0.00     0.083 C 
BRANCH   6   7
HETATM    7  C   UNL     1     -40.809 -51.885  12.865  1.00  0.00    -0.053 A 
HETATM    8  C   UNL     1     -42.122 -51.635  12.449  1.00  0.00     0.024 A 
HETATM    9  C   UNL     1     -43.036 -52.680  12.433  1.00  0.00     0.088 A 
HETATM   10  N   UNL     1     -42.725 -53.947  12.765  1.00  0.00    -0.375 N 
HETATM   11  C   UNL     1     -41.444 -54.186  13.118  1.00  0.00     0.088 A 
ATOM     12  HN  UNL     1     -43.424 -54.690  12.751  1.00  0.00     0.164 HD
HETATM   13  C   UNL     1     -40.463 -53.204  13.169  1.00  0.00     0.024 A 
ENDBRANCH   6   7
ENDBRANCH   1   6
BRANCH   1  14
HETATM   14  N   UNL     1     -39.871 -48.955  11.256  1.00  0.00     0.102 N 
HETATM   15  H   UNL     1     -40.856 -49.178  11.183  1.00  0.00     0.317 HD
BRANCH  14  16
HETATM   16  C   UNL     1     -39.669 -47.648  11.851  1.00  0.00     0.226 C 
HETATM   17  C   UNL     1     -40.170 -47.447  13.280  1.00  0.00     0.062 C 
HETATM   18  C   UNL     1     -41.688 -47.449  13.355  1.00  0.00     0.171 C 
HETATM   19  O   UNL     1     -42.300 -46.527  12.452  1.00  0.00    -0.379 OA
HETATM   20  C   UNL     1     -41.936 -46.655  11.062  1.00  0.00     0.072 C 
HETATM   21  C   UNL     1     -42.600 -47.907  10.432  1.00  0.00     0.049 C 
HETATM   22  C   UNL     1     -42.515 -45.425  10.313  1.00  0.00     0.111 C 
HETATM   23  C   UNL     1     -40.387 -46.625  10.950  1.00  0.00     0.074 C 
HETATM   24  C   UNL     1     -43.962 -47.578   9.866  1.00  0.00     0.077 C 
HETATM   25  S   UNL     1     -43.678 -46.011   9.050  1.00  0.00    -0.166 SA
ENDBRANCH  14  16
ENDBRANCH   1  14
TORSDOF 5
ENDMDL
MODEL 2
REMARK VINA RESULT:      -6.4      4.807      7.426
REMARK  5 active torsions:
REMARK  status: ('A' for Active; 'I' for Inactive)
REMARK    1  A    between atoms: C_2  and  C_5 
REMARK    2  A    between atoms: C_5  and  C_6 
REMARK    3  A    between atoms: C_5  and  N_14 
REMARK    4  A    between atoms: C_6  and  C_7 
REMARK    5  A    between atoms: N_14  and  C_15 
ROOT
HETATM    1  C   UNL     1     -44.507 -51.679  13.287  1.00  0.00     0.331 C 
ENDROOT
BRANCH   1   2
HETATM    2  C   UNL     1     -46.078 -51.620  13.211  1.00  0.00     0.418 C 
HETATM    3  F   UNL     1     -46.577 -51.058  12.096  1.00  0.00    -0.169 F 
HETATM    4  F   UNL     1     -46.598 -50.953  14.276  1.00  0.00    -0.169 F 
HETATM    5  F   UNL     1     -46.584 -52.878  13.283  1.00  0.00    -0.169 F 
ENDBRANCH   1   2
BRANCH   1   6
HETATM    6  C   UNL     1     -43.879 -50.305  13.629  1.00  0.00     0.083 C 
BRANCH   6   7
HETATM    7  C   UNL     1     -42.890 -49.768  12.623  1.00  0.00    -0.053 A 
HETATM    8  C   UNL     1     -43.159 -48.605  11.892  1.00  0.00     0.024 A 
HETATM    9  C   UNL     1     -42.284 -48.224  10.883  1.00  0.00     0.088 A 
HETATM   10  N   UNL     1     -41.157 -48.897  10.580  1.00  0.00    -0.375 N 
HETATM   11  C   UNL     1     -40.883 -49.990  11.324  1.00  0.00     0.088 A 
ATOM     12  HN  UNL     1     -40.541 -48.595   9.826  1.00  0.00     0.164 HD
HETATM   13  C   UNL     1     -41.701 -50.448  12.349  1.00  0.00     0.024 A 
ENDBRANCH   6   7
ENDBRANCH   1   6
BRANCH   1  14
HETATM   14  N   UNL     1     -44.094 -52.774  14.187  1.00  0.00     0.102 N 
HETATM   15  H   UNL     1     -44.830 -52.857  14.876  1.00  0.00     0.317 HD
BRANCH  14  16
HETATM   16  C   UNL     1     -43.653 -54.075  13.724  1.00  0.00     0.226 C 
HETATM   17  C   UNL     1     -43.724 -55.231  14.721  1.00  0.00     0.062 C 
HETATM   18  C   UNL     1     -42.707 -55.080  15.838  1.00  0.00     0.171 C 
HETATM   19  O   UNL     1     -41.373 -54.879  15.366  1.00  0.00    -0.379 OA
HETATM   20  C   UNL     1     -41.177 -53.781  14.452  1.00  0.00     0.072 C 
HETATM   21  C   UNL     1     -41.252 -52.423  15.199  1.00  0.00     0.049 C 
HETATM   22  C   UNL     1     -39.736 -53.895  13.887  1.00  0.00     0.111 C 
HETATM   23  C   UNL     1     -42.186 -53.924  13.279  1.00  0.00     0.074 C 
HETATM   24  C   UNL     1     -39.894 -52.008  15.716  1.00  0.00     0.077 C 
HETATM   25  S   UNL     1     -38.815 -52.399  14.343  1.00  0.00    -0.166 SA
ENDBRANCH  14  16
ENDBRANCH   1  14
TORSDOF 5
ENDMDL
MODEL 3
REMARK VINA RESULT:      -6.3      2.333      3.547
REMARK  5 active torsions:
REMARK  status: ('A' for Active; 'I' for Inactive)
REMARK    1  A    between atoms: C_2  and  C_5 
REMARK    2  A    between atoms: C_5  and  C_6 
REMARK    3  A    between atoms: C_5  and  N_14 
REMARK    4  A    between atoms: C_6  and  C_7 
REMARK    5  A    between atoms: N_14  and  C_15 
ROOT
HETATM    1  C   UNL     1     -41.964 -49.701  11.958  1.00  0.00     0.331 C 
ENDROOT
BRANCH   1   2
HETATM    2  C   UNL     1     -40.508 -49.392  12.472  1.00  0.00     0.418 C 
HETATM    3  F   UNL     1     -39.592 -49.186  11.510  1.00  0.00    -0.169 F 
HETATM    4  F   UNL     1     -40.046 -50.389  13.273  1.00  0.00    -0.169 F 
HETATM    5  F   UNL     1     -40.528 -48.277  13.247  1.00  0.00    -0.169 F 
ENDBRANCH   1   2
BRANCH   1   6
HETATM    6  C   UNL     1     -42.981 -49.855  13.116  1.00  0.00     0.083 C 
BRANCH   6   7
HETATM    7  C   UNL     1     -43.757 -51.149  13.140  1.00  0.00    -0.053 A 
HETATM    8  C   UNL     1     -43.181 -52.348  12.703  1.00  0.00     0.024 A 
HETATM    9  C   UNL     1     -43.973 -53.485  12.614  1.00  0.00     0.088 A 
HETATM   10  N   UNL     1     -45.274 -53.516  12.960  1.00  0.00    -0.375 N 
HETATM   11  C   UNL     1     -45.807 -52.366  13.426  1.00  0.00     0.088 A 
ATOM     12  HN  UNL     1     -45.830 -54.367  12.874  1.00  0.00     0.164 HD
HETATM   13  C   UNL     1     -45.094 -51.179  13.544  1.00  0.00     0.024 A 
ENDBRANCH   6   7
ENDBRANCH   1   6
BRANCH   1  14
HETATM   14  N   UNL     1     -42.352 -48.707  10.939  1.00  0.00     0.102 N 
HETATM   15  H   UNL     1     -42.375 -49.207  10.060  1.00  0.00     0.317 HD
BRANCH  14  16
HETATM   16  C   UNL     1     -43.491 -47.819  11.071  1.00  0.00     0.226 C 
HETATM   17  C   UNL     1     -44.214 -47.416   9.788  1.00  0.00     0.062 C 
HETATM   18  C   UNL     1     -43.367 -46.498   8.923  1.00  0.00     0.171 C 
HETATM   19  O   UNL     1     -42.873 -45.356   9.626  1.00  0.00    -0.379 OA
HETATM   20  C   UNL     1     -42.130 -45.620  10.834  1.00  0.00     0.072 C 
HETATM   21  C   UNL     1     -40.723 -46.182  10.502  1.00  0.00     0.049 C 
HETATM   22  C   UNL     1     -41.905 -44.261  11.549  1.00  0.00     0.111 C 
HETATM   23  C   UNL     1     -42.985 -46.534  11.753  1.00  0.00     0.074 C 
HETATM   24  C   UNL     1     -39.715 -45.069  10.332  1.00  0.00     0.077 C 
HETATM   25  S   UNL     1     -40.120 -43.965  11.681  1.00  0.00    -0.166 SA
ENDBRANCH  14  16
ENDBRANCH   1  14
TORSDOF 5
ENDMDL
MODEL 4
REMARK VINA RESULT:      -6.2      5.231      7.134
REMARK  5 active torsions:
REMARK  status: ('A' for Active; 'I' for Inactive)
REMARK    1  A    between atoms: C_2  and  C_5 
REMARK    2  A    between atoms: C_5  and  C_6 
REMARK    3  A    between atoms: C_5  and  N_14 
REMARK    4  A    between atoms: C_6  and  C_7 
REMARK    5  A    between atoms: N_14  and  C_15 
ROOT
HETATM    1  C   UNL     1     -45.514 -53.132  13.480  1.00  0.00     0.331 C 
ENDROOT
BRANCH   1   2
HETATM    2  C   UNL     1     -45.852 -54.421  14.318  1.00  0.00     0.418 C 
HETATM    3  F   UNL     1     -47.143 -54.552  14.672  1.00  0.00    -0.169 F 
HETATM    4  F   UNL     1     -45.106 -54.482  15.452  1.00  0.00    -0.169 F 
HETATM    5  F   UNL     1     -45.524 -55.527  13.602  1.00  0.00    -0.169 F 
ENDBRANCH   1   2
BRANCH   1   6
HETATM    6  C   UNL     1     -46.473 -51.956  13.792  1.00  0.00     0.083 C 
BRANCH   6   7
HETATM    7  C   UNL     1     -46.456 -51.457  15.216  1.00  0.00    -0.053 A 
HETATM    8  C   UNL     1     -47.585 -51.564  16.036  1.00  0.00     0.024 A 
HETATM    9  C   UNL     1     -47.569 -50.970  17.291  1.00  0.00     0.088 A 
HETATM   10  N   UNL     1     -46.504 -50.315  17.791  1.00  0.00    -0.375 N 
HETATM   11  C   UNL     1     -45.403 -50.259  17.011  1.00  0.00     0.088 A 
ATOM     12  HN  UNL     1     -46.528 -49.882  18.714  1.00  0.00     0.164 HD
HETATM   13  C   UNL     1     -45.329 -50.818  15.742  1.00  0.00     0.024 A 
ENDBRANCH   6   7
ENDBRANCH   1   6
BRANCH   1  14
HETATM   14  N   UNL     1     -44.084 -52.803  13.630  1.00  0.00     0.102 N 
HETATM   15  H   UNL     1     -43.915 -52.755  14.626  1.00  0.00     0.317 HD
BRANCH  14  16
HETATM   16  C   UNL     1     -43.017 -53.509  12.947  1.00  0.00     0.226 C 
HETATM   17  C   UNL     1     -42.002 -54.250  13.815  1.00  0.00     0.062 C 
HETATM   18  C   UNL     1     -41.118 -53.293  14.595  1.00  0.00     0.171 C 
HETATM   19  O   UNL     1     -40.483 -52.311  13.774  1.00  0.00    -0.379 OA
HETATM   20  C   UNL     1     -41.353 -51.515  12.942  1.00  0.00     0.072 C 
HETATM   21  C   UNL     1     -42.134 -50.481  13.794  1.00  0.00     0.049 C 
HETATM   22  C   UNL     1     -40.454 -50.701  11.973  1.00  0.00     0.111 C 
HETATM   23  C   UNL     1     -42.252 -52.468  12.107  1.00  0.00     0.074 C 
HETATM   24  C   UNL     1     -41.363 -49.188  13.926  1.00  0.00     0.077 C 
HETATM   25  S   UNL     1     -40.738 -48.933  12.269  1.00  0.00    -0.166 SA
ENDBRANCH  14  16
ENDBRANCH   1  14
TORSDOF 5
ENDMDL
MODEL 5
REMARK VINA RESULT:      -5.9      2.716      3.812
REMARK  5 active torsions:
REMARK  status: ('A' for Active; 'I' for Inactive)
REMARK    1  A    between atoms: C_2  and  C_5 
REMARK    2  A    between atoms: C_5  and  C_6 
REMARK    3  A    between atoms: C_5  and  N_14 
REMARK    4  A    between atoms: C_6  and  C_7 
REMARK    5  A    between atoms: N_14  and  C_15 
ROOT
HETATM    1  C   UNL     1     -41.253 -52.368  13.458  1.00  0.00     0.331 C 
ENDROOT
BRANCH   1   2
HETATM    2  C   UNL     1     -40.582 -53.784  13.614  1.00  0.00     0.418 C 
HETATM    3  F   UNL     1     -39.243 -53.772  13.739  1.00  0.00    -0.169 F 
HETATM    4  F   UNL     1     -40.890 -54.593  12.566  1.00  0.00    -0.169 F 
HETATM    5  F   UNL     1     -41.079 -54.403  14.715  1.00  0.00    -0.169 F 
ENDBRANCH   1   2
BRANCH   1   6
HETATM    6  C   UNL     1     -42.420 -52.154  14.454  1.00  0.00     0.083 C 
BRANCH   6   7
HETATM    7  C   UNL     1     -43.801 -52.443  13.918  1.00  0.00    -0.053 A 
HETATM    8  C   UNL     1     -44.628 -51.415  13.451  1.00  0.00     0.024 A 
HETATM    9  C   UNL     1     -45.938 -51.710  13.095  1.00  0.00     0.088 A 
HETATM   10  N   UNL     1     -46.460 -52.950  13.139  1.00  0.00    -0.375 N 
HETATM   11  C   UNL     1     -45.639 -53.942  13.545  1.00  0.00     0.088 A 
ATOM     12  HN  UNL     1     -47.430 -53.131  12.879  1.00  0.00     0.164 HD
HETATM   13  C   UNL     1     -44.318 -53.741  13.925  1.00  0.00     0.024 A 
ENDBRANCH   6   7
ENDBRANCH   1   6
BRANCH   1  14
HETATM   14  N   UNL     1     -40.217 -51.319  13.506  1.00  0.00     0.102 N 
HETATM   15  H   UNL     1     -39.627 -51.550  14.296  1.00  0.00     0.317 HD
BRANCH  14  16
HETATM   16  C   UNL     1     -39.429 -50.910  12.360  1.00  0.00     0.226 C 
HETATM   17  C   UNL     1     -38.268 -49.951  12.618  1.00  0.00     0.062 C 
HETATM   18  C   UNL     1     -38.752 -48.566  13.010  1.00  0.00     0.171 C 
HETATM   19  O   UNL     1     -39.692 -48.012  12.087  1.00  0.00    -0.379 OA
HETATM   20  C   UNL     1     -40.857 -48.813  11.803  1.00  0.00     0.072 C 
HETATM   21  C   UNL     1     -41.839 -48.801  13.004  1.00  0.00     0.049 C 
HETATM   22  C   UNL     1     -41.604 -48.147  10.617  1.00  0.00     0.111 C 
HETATM   23  C   UNL     1     -40.393 -50.230  11.369  1.00  0.00     0.074 C 
HETATM   24  C   UNL     1     -42.816 -47.653  12.901  1.00  0.00     0.077 C 
HETATM   25  S   UNL     1     -43.267 -47.678  11.169  1.00  0.00    -0.166 SA
ENDBRANCH  14  16
ENDBRANCH   1  14
TORSDOF 5
ENDMDL
MODEL 6
REMARK VINA RESULT:      -5.9      2.792      4.674
REMARK  5 active torsions:
REMARK  status: ('A' for Active; 'I' for Inactive)
REMARK    1  A    between atoms: C_2  and  C_5 
REMARK    2  A    between atoms: C_5  and  C_6 
REMARK    3  A    between atoms: C_5  and  N_14 
REMARK    4  A    between atoms: C_6  and  C_7 
REMARK    5  A    between atoms: N_14  and  C_15 
ROOT
HETATM    1  C   UNL     1     -41.223 -49.219  11.981  1.00  0.00     0.331 C 
ENDROOT
BRANCH   1   2
HETATM    2  C   UNL     1     -41.625 -50.714  12.272  1.00  0.00     0.418 C 
HETATM    3  F   UNL     1     -41.218 -51.606  11.350  1.00  0.00    -0.169 F 
HETATM    4  F   UNL     1     -42.971 -50.845  12.405  1.00  0.00    -0.169 F 
HETATM    5  F   UNL     1     -41.098 -51.102  13.460  1.00  0.00    -0.169 F 
ENDBRANCH   1   2
BRANCH   1   6
HETATM    6  C   UNL     1     -39.695 -49.043  11.795  1.00  0.00     0.083 C 
BRANCH   6   7
HETATM    7  C   UNL     1     -38.938 -48.558  13.008  1.00  0.00    -0.053 A 
HETATM    8  C   UNL     1     -39.073 -47.244  13.469  1.00  0.00     0.024 A 
HETATM    9  C   UNL     1     -38.257 -46.803  14.502  1.00  0.00     0.088 A 
HETATM   10  N   UNL     1     -37.352 -47.585  15.122  1.00  0.00    -0.375 N 
HETATM   11  C   UNL     1     -37.264 -48.864  14.701  1.00  0.00     0.088 A 
ATOM     12  HN  UNL     1     -36.761 -47.226  15.872  1.00  0.00     0.164 HD
HETATM   13  C   UNL     1     -38.035 -49.392  13.673  1.00  0.00     0.024 A 
ENDBRANCH   6   7
ENDBRANCH   1   6
BRANCH   1  14
HETATM   14  N   UNL     1     -42.033 -48.695  10.865  1.00  0.00     0.102 N 
HETATM   15  H   UNL     1     -42.175 -49.476  10.237  1.00  0.00     0.317 HD
BRANCH  14  16
HETATM   16  C   UNL     1     -43.252 -47.931  11.042  1.00  0.00     0.226 C 
HETATM   17  C   UNL     1     -44.042 -47.577   9.783  1.00  0.00     0.062 C 
HETATM   18  C   UNL     1     -43.313 -46.560   8.922  1.00  0.00     0.171 C 
HETATM   19  O   UNL     1     -42.921 -45.389   9.639  1.00  0.00    -0.379 OA
HETATM   20  C   UNL     1     -42.126 -45.600  10.824  1.00  0.00     0.072 C 
HETATM   21  C   UNL     1     -40.677 -46.009  10.449  1.00  0.00     0.049 C 
HETATM   22  C   UNL     1     -42.023 -44.240  11.565  1.00  0.00     0.111 C 
HETATM   23  C   UNL     1     -42.862 -46.615  11.741  1.00  0.00     0.074 C 
HETATM   24  C   UNL     1     -39.792 -44.796  10.282  1.00  0.00     0.077 C 
HETATM   25  S   UNL     1     -40.274 -43.766  11.664  1.00  0.00    -0.166 SA
ENDBRANCH  14  16
ENDBRANCH   1  14
TORSDOF 5
ENDMDL
MODEL 7
REMARK VINA RESULT:      -5.9      3.907      5.132
REMARK  5 active torsions:
REMARK  status: ('A' for Active; 'I' for Inactive)
REMARK    1  A    between atoms: C_2  and  C_5 
REMARK    2  A    between atoms: C_5  and  C_6 
REMARK    3  A    between atoms: C_5  and  N_14 
REMARK    4  A    between atoms: C_6  and  C_7 
REMARK    5  A    between atoms: N_14  and  C_15 
ROOT
HETATM    1  C   UNL     1     -43.446 -51.617  13.268  1.00  0.00     0.331 C 
ENDROOT
BRANCH   1   2
HETATM    2  C   UNL     1     -44.967 -51.478  13.649  1.00  0.00     0.418 C 
HETATM    3  F   UNL     1     -45.764 -51.018  12.669  1.00  0.00    -0.169 F 
HETATM    4  F   UNL     1     -45.132 -50.668  14.729  1.00  0.00    -0.169 F 
HETATM    5  F   UNL     1     -45.454 -52.689  14.021  1.00  0.00    -0.169 F 
ENDBRANCH   1   2
BRANCH   1   6
HETATM    6  C   UNL     1     -43.085 -53.045  12.785  1.00  0.00     0.083 C 
BRANCH   6   7
HETATM    7  C   UNL     1     -41.983 -53.736  13.551  1.00  0.00    -0.053 A 
HETATM    8  C   UNL     1     -42.216 -54.293  14.814  1.00  0.00     0.024 A 
HETATM    9  C   UNL     1     -41.145 -54.797  15.538  1.00  0.00     0.088 A 
HETATM   10  N   UNL     1     -39.878 -54.815  15.081  1.00  0.00    -0.375 N 
HETATM   11  C   UNL     1     -39.672 -54.319  13.842  1.00  0.00     0.088 A 
ATOM     12  HN  UNL     1     -39.112 -55.185  15.643  1.00  0.00     0.164 HD
HETATM   13  C   UNL     1     -40.681 -53.789  13.047  1.00  0.00     0.024 A 
ENDBRANCH   6   7
ENDBRANCH   1   6
BRANCH   1  14
HETATM   14  N   UNL     1     -43.071 -50.547  12.324  1.00  0.00     0.102 N 
HETATM   15  H   UNL     1     -43.586 -50.736  11.473  1.00  0.00     0.317 HD
BRANCH  14  16
HETATM   16  C   UNL     1     -43.095 -49.136  12.653  1.00  0.00     0.226 C 
HETATM   17  C   UNL     1     -43.202 -48.149  11.492  1.00  0.00     0.062 C 
HETATM   18  C   UNL     1     -41.936 -48.119  10.654  1.00  0.00     0.171 C 
HETATM   19  O   UNL     1     -40.753 -47.893  11.424  1.00  0.00    -0.379 OA
HETATM   20  C   UNL     1     -40.523 -48.798  12.523  1.00  0.00     0.072 C 
HETATM   21  C   UNL     1     -40.072 -50.189  12.005  1.00  0.00     0.049 C 
HETATM   22  C   UNL     1     -39.340 -48.231  13.354  1.00  0.00     0.111 C 
HETATM   23  C   UNL     1     -41.793 -48.827  13.417  1.00  0.00     0.074 C 
HETATM   24  C   UNL     1     -38.569 -50.258  11.860  1.00  0.00     0.077 C 
HETATM   25  S   UNL     1     -37.994 -49.449  13.349  1.00  0.00    -0.166 SA
ENDBRANCH  14  16
ENDBRANCH   1  14
TORSDOF 5
ENDMDL
MODEL 8
REMARK VINA RESULT:      -5.9      2.832      5.596
REMARK  5 active torsions:
REMARK  status: ('A' for Active; 'I' for Inactive)
REMARK    1  A    between atoms: C_2  and  C_5 
REMARK    2  A    between atoms: C_5  and  C_6 
REMARK    3  A    between atoms: C_5  and  N_14 
REMARK    4  A    between atoms: C_6  and  C_7 
REMARK    5  A    between atoms: N_14  and  C_15 
ROOT
HETATM    1  C   UNL     1     -39.391 -50.072  12.303  1.00  0.00     0.331 C 
ENDROOT
BRANCH   1   2
HETATM    2  C   UNL     1     -37.857 -49.799  12.075  1.00  0.00     0.418 C 
HETATM    3  F   UNL     1     -37.534 -49.331  10.855  1.00  0.00    -0.169 F 
HETATM    4  F   UNL     1     -37.119 -50.919  12.295  1.00  0.00    -0.169 F 
HETATM    5  F   UNL     1     -37.419 -48.886  12.979  1.00  0.00    -0.169 F 
ENDBRANCH   1   2
BRANCH   1   6
HETATM    6  C   UNL     1     -40.253 -49.662  11.083  1.00  0.00     0.083 C 
BRANCH   6   7
HETATM    7  C   UNL     1     -41.125 -48.445  11.277  1.00  0.00    -0.053 A 
HETATM    8  C   UNL     1     -42.494 -48.568  11.540  1.00  0.00     0.024 A 
HETATM    9  C   UNL     1     -43.281 -47.424  11.575  1.00  0.00     0.088 A 
HETATM   10  N   UNL     1     -42.796 -46.180  11.401  1.00  0.00    -0.375 N 
HETATM   11  C   UNL     1     -41.466 -46.070  11.195  1.00  0.00     0.088 A 
ATOM     12  HN  UNL     1     -43.404 -45.361  11.424  1.00  0.00     0.164 HD
HETATM   13  C   UNL     1     -40.603 -47.156  11.139  1.00  0.00     0.024 A 
ENDBRANCH   6   7
ENDBRANCH   1   6
BRANCH   1  14
HETATM   14  N   UNL     1     -39.587 -51.467  12.741  1.00  0.00     0.102 N 
HETATM   15  H   UNL     1     -38.957 -52.024  12.178  1.00  0.00     0.317 HD
BRANCH  14  16
HETATM   16  C   UNL     1     -39.568 -51.888  14.128  1.00  0.00     0.226 C 
HETATM   17  C   UNL     1     -39.106 -53.315  14.418  1.00  0.00     0.062 C 
HETATM   18  C   UNL     1     -40.107 -54.347  13.928  1.00  0.00     0.171 C 
HETATM   19  O   UNL     1     -41.434 -54.120  14.408  1.00  0.00    -0.379 OA
HETATM   20  C   UNL     1     -41.994 -52.816  14.147  1.00  0.00     0.072 C 
HETATM   21  C   UNL     1     -42.374 -52.670  12.650  1.00  0.00     0.049 C 
HETATM   22  C   UNL     1     -43.317 -52.708  14.951  1.00  0.00     0.111 C 
HETATM   23  C   UNL     1     -41.004 -51.737  14.666  1.00  0.00     0.074 C 
HETATM   24  C   UNL     1     -43.789 -53.137  12.397  1.00  0.00     0.077 C 
HETATM   25  S   UNL     1     -44.683 -52.449  13.786  1.00  0.00    -0.166 SA
ENDBRANCH  14  16
ENDBRANCH   1  14
TORSDOF 5
ENDMDL
MODEL 9
REMARK VINA RESULT:      -5.7      4.125      6.552
REMARK  5 active torsions:
REMARK  status: ('A' for Active; 'I' for Inactive)
REMARK    1  A    between atoms: C_2  and  C_5 
REMARK    2  A    between atoms: C_5  and  C_6 
REMARK    3  A    between atoms: C_5  and  N_14 
REMARK    4  A    between atoms: C_6  and  C_7 
REMARK    5  A    between atoms: N_14  and  C_15 
ROOT
HETATM    1  C   UNL     1     -43.825 -51.365  13.280  1.00  0.00     0.331 C 
ENDROOT
BRANCH   1   2
HETATM    2  C   UNL     1     -45.216 -52.101  13.317  1.00  0.00     0.418 C 
HETATM    3  F   UNL     1     -46.276 -51.309  13.558  1.00  0.00    -0.169 F 
HETATM    4  F   UNL     1     -45.224 -53.093  14.246  1.00  0.00    -0.169 F 
HETATM    5  F   UNL     1     -45.438 -52.712  12.126  1.00  0.00    -0.169 F 
ENDBRANCH   1   2
BRANCH   1   6
HETATM    6  C   UNL     1     -43.801 -50.099  14.173  1.00  0.00     0.083 C 
BRANCH   6   7
HETATM    7  C   UNL     1     -43.096 -48.899  13.589  1.00  0.00    -0.053 A 
HETATM    8  C   UNL     1     -42.870 -48.788  12.212  1.00  0.00     0.024 A 
HETATM    9  C   UNL     1     -42.100 -47.736  11.736  1.00  0.00     0.088 A 
HETATM   10  N   UNL     1     -41.575 -46.779  12.526  1.00  0.00    -0.375 N 
HETATM   11  C   UNL     1     -41.840 -46.869  13.847  1.00  0.00     0.088 A 
ATOM     12  HN  UNL     1     -41.006 -46.024  12.144  1.00  0.00     0.164 HD
HETATM   13  C   UNL     1     -42.595 -47.888  14.414  1.00  0.00     0.024 A 
ENDBRANCH   6   7
ENDBRANCH   1   6
BRANCH   1  14
HETATM   14  N   UNL     1     -42.745 -52.329  13.567  1.00  0.00     0.102 N 
HETATM   15  H   UNL     1     -43.147 -53.016  14.192  1.00  0.00     0.317 HD
BRANCH  14  16
HETATM   16  C   UNL     1     -41.931 -52.956  12.545  1.00  0.00     0.226 C 
HETATM   17  C   UNL     1     -41.117 -54.182  12.957  1.00  0.00     0.062 C 
HETATM   18  C   UNL     1     -39.981 -53.819  13.898  1.00  0.00     0.171 C 
HETATM   19  O   UNL     1     -39.140 -52.779  13.396  1.00  0.00    -0.379 OA
HETATM   20  C   UNL     1     -39.798 -51.551  13.018  1.00  0.00     0.072 C 
HETATM   21  C   UNL     1     -40.244 -50.758  14.274  1.00  0.00     0.049 C 
HETATM   22  C   UNL     1     -38.752 -50.668  12.286  1.00  0.00     0.111 C 
HETATM   23  C   UNL     1     -40.948 -51.887  12.030  1.00  0.00     0.074 C 
HETATM   24  C   UNL     1     -39.153 -49.825  14.748  1.00  0.00     0.077 C 
HETATM   25  S   UNL     1     -38.545 -49.124  13.217  1.00  0.00    -0.166 SA
ENDBRANCH  14  16
ENDBRANCH   1  14
TORSDOF 5
ENDMDL
