MODEL 1
REMARK VINA RESULT:      -6.7      0.000      0.000
REMARK  5 active torsions:
REMARK  status: ('A' for Active; 'I' for Inactive)
REMARK    1  A    between atoms: N_4  and  C_5 
REMARK    2  A    between atoms: C_5  and  C_6 
REMARK    3  A    between atoms: C_6  and  O_7 
REMARK    4  A    between atoms: C_6  and  C_8 
REMARK    5  A    between atoms: C_8  and  N_9 
ROOT
HETATM    1  C   UNL     1     -40.254 -53.770  13.301  1.00  0.00     0.164 C 
ENDROOT
BRANCH   1   2
HETATM    2  C   UNL     1     -39.815 -52.389  13.858  1.00  0.00     0.305 C 
BRANCH   2   3
HETATM    3  N   UNL     1     -39.420 -51.428  12.800  1.00  0.00     0.096 N 
HETATM    4  C   UNL     1     -38.334 -50.534  13.269  1.00  0.00     0.303 C 
HETATM    5  C   UNL     1     -37.941 -49.470  12.216  1.00  0.00     0.146 C 
HETATM    6  C   UNL     1     -37.213 -50.058  11.008  1.00  0.00     0.041 C 
HETATM    7  O   UNL     1     -39.084 -48.694  11.811  1.00  0.00    -0.378 OA
HETATM    8  C   UNL     1     -40.159 -49.520  11.338  1.00  0.00     0.146 C 
HETATM    9  C   UNL     1     -40.561 -50.569  12.393  1.00  0.00     0.303 C 
HETATM   10  C   UNL     1     -41.343 -48.614  11.018  1.00  0.00     0.041 C 
ENDBRANCH   2   3
ENDBRANCH   1   2
BRANCH   1  11
HETATM   11  O   UNL     1     -39.147 -54.683  13.247  1.00  0.00    -0.392 OA
HETATM   12  H   UNL     1     -38.837 -54.724  12.326  1.00  0.00     0.210 HD
ENDBRANCH   1  11
BRANCH   1  13
HETATM   13  C   UNL     1     -41.363 -54.417  14.153  1.00  0.00     0.166 C 
BRANCH  13  14
HETATM   14  N   UNL     1     -42.693 -54.029  13.680  1.00  0.00    -0.307 N 
HETATM   15  C   UNL     1     -42.842 -53.107  12.683  1.00  0.00     0.186 C 
HETATM   16  N   UNL     1     -43.971 -52.672  12.242  1.00  0.00    -0.355 N 
HETATM   17  C   UNL     1     -45.109 -53.095  12.879  1.00  0.00     0.017 C 
ATOM     18  HN  UNL     1     -44.017 -52.034  11.448  1.00  0.00     0.166 HD
HETATM   19  C   UNL     1     -46.381 -52.459  12.374  1.00  0.00     0.069 C 
HETATM   20  C   UNL     1     -45.114 -53.993  13.882  1.00  0.00     0.028 C 
HETATM   21  C   UNL     1     -46.296 -54.432  14.684  1.00  0.00     0.056 C 
HETATM   22  C   UNL     1     -43.806 -54.588  14.272  1.00  0.00     0.256 C 
HETATM   23  O   UNL     1     -43.754 -55.512  15.079  1.00  0.00    -0.267 OA
ENDBRANCH  13  14
ENDBRANCH   1  13
TORSDOF 5
ENDMDL
MODEL 2
REMARK VINA RESULT:      -6.4      2.271      3.987
REMARK  5 active torsions:
REMARK  status: ('A' for Active; 'I' for Inactive)
REMARK    1  A    between atoms: N_4  and  C_5 
REMARK    2  A    between atoms: C_5  and  C_6 
REMARK    3  A    between atoms: C_6  and  O_7 
REMARK    4  A    between atoms: C_6  and  C_8 
REMARK    5  A    between atoms: C_8  and  N_9 
ROOT
HETATM    1  C   UNL     1     -39.203 -49.969  11.674  1.00  0.00     0.164 C 
ENDROOT
BRANCH   1   2
HETATM    2  C   UNL     1     -39.151 -48.579  12.363  1.00  0.00     0.305 C 
BRANCH   2   3
HETATM    3  N   UNL     1     -39.852 -47.519  11.600  1.00  0.00     0.096 N 
HETATM    4  C   UNL     1     -40.095 -46.325  12.445  1.00  0.00     0.303 C 
HETATM    5  C   UNL     1     -40.887 -45.221  11.704  1.00  0.00     0.146 C 
HETATM    6  C   UNL     1     -40.078 -44.533  10.605  1.00  0.00     0.041 C 
HETATM    7  O   UNL     1     -42.133 -45.731  11.193  1.00  0.00    -0.378 OA
HETATM    8  C   UNL     1     -41.945 -46.885  10.359  1.00  0.00     0.146 C 
HETATM    9  C   UNL     1     -41.170 -47.990  11.103  1.00  0.00     0.303 C 
HETATM   10  C   UNL     1     -43.321 -47.394   9.944  1.00  0.00     0.041 C 
ENDBRANCH   2   3
ENDBRANCH   1   2
BRANCH   1  11
HETATM   11  O   UNL     1     -38.154 -50.105  10.703  1.00  0.00    -0.392 OA
HETATM   12  H   UNL     1     -38.409 -50.813  10.084  1.00  0.00     0.210 HD
ENDBRANCH   1  11
BRANCH   1  13
HETATM   13  C   UNL     1     -39.070 -51.126  12.682  1.00  0.00     0.166 C 
BRANCH  13  14
HETATM   14  N   UNL     1     -40.274 -51.959  12.699  1.00  0.00    -0.307 N 
HETATM   15  C   UNL     1     -41.292 -51.739  11.815  1.00  0.00     0.186 C 
HETATM   16  N   UNL     1     -42.404 -52.389  11.792  1.00  0.00    -0.355 N 
HETATM   17  C   UNL     1     -42.624 -53.310  12.784  1.00  0.00     0.017 C 
ATOM     18  HN  UNL     1     -43.097 -52.223  11.062  1.00  0.00     0.166 HD
HETATM   19  C   UNL     1     -43.990 -53.950  12.750  1.00  0.00     0.069 C 
HETATM   20  C   UNL     1     -41.716 -53.624  13.727  1.00  0.00     0.028 C 
HETATM   21  C   UNL     1     -41.913 -54.542  14.889  1.00  0.00     0.056 C 
HETATM   22  C   UNL     1     -40.385 -52.961  13.640  1.00  0.00     0.256 C 
HETATM   23  O   UNL     1     -39.466 -53.303  14.379  1.00  0.00    -0.267 OA
ENDBRANCH  13  14
ENDBRANCH   1  13
TORSDOF 5
ENDMDL
MODEL 3
REMARK VINA RESULT:      -6.2      1.975      6.327
REMARK  5 active torsions:
REMARK  status: ('A' for Active; 'I' for Inactive)
REMARK    1  A    between atoms: N_4  and  C_5 
REMARK    2  A    between atoms: C_5  and  C_6 
REMARK    3  A    between atoms: C_6  and  O_7 
REMARK    4  A    between atoms: C_6  and  C_8 
REMARK    5  A    between atoms: C_8  and  N_9 
ROOT
HETATM    1  C   UNL     1     -42.730 -53.923  14.386  1.00  0.00     0.164 C 
ENDROOT
BRANCH   1   2
HETATM    2  C   UNL     1     -44.052 -54.634  13.988  1.00  0.00     0.305 C 
BRANCH   2   3
HETATM    3  N   UNL     1     -45.185 -53.697  13.794  1.00  0.00     0.096 N 
HETATM    4  C   UNL     1     -44.747 -52.469  13.088  1.00  0.00     0.303 C 
HETATM    5  C   UNL     1     -45.887 -51.434  12.927  1.00  0.00     0.146 C 
HETATM    6  C   UNL     1     -46.961 -51.871  11.930  1.00  0.00     0.041 C 
HETATM    7  O   UNL     1     -46.465 -51.097  14.202  1.00  0.00    -0.378 OA
HETATM    8  C   UNL     1     -46.913 -52.258  14.918  1.00  0.00     0.146 C 
HETATM    9  C   UNL     1     -45.773 -53.280  15.092  1.00  0.00     0.303 C 
HETATM   10  C   UNL     1     -47.425 -51.802  16.280  1.00  0.00     0.041 C 
ENDBRANCH   2   3
ENDBRANCH   1   2
BRANCH   1  11
HETATM   11  O   UNL     1     -42.272 -54.363  15.674  1.00  0.00    -0.392 OA
HETATM   12  H   UNL     1     -42.865 -55.074  15.975  1.00  0.00     0.210 HD
ENDBRANCH   1  11
BRANCH   1  13
HETATM   13  C   UNL     1     -41.602 -54.179  13.368  1.00  0.00     0.166 C 
BRANCH  13  14
HETATM   14  N   UNL     1     -40.922 -52.935  13.002  1.00  0.00    -0.307 N 
HETATM   15  C   UNL     1     -41.269 -52.253  11.870  1.00  0.00     0.186 C 
HETATM   16  N   UNL     1     -40.692 -51.182  11.447  1.00  0.00    -0.355 N 
HETATM   17  C   UNL     1     -39.589 -50.740  12.131  1.00  0.00     0.017 C 
ATOM     18  HN  UNL     1     -41.043 -50.681  10.631  1.00  0.00     0.166 HD
HETATM   19  C   UNL     1     -38.908 -49.545  11.512  1.00  0.00     0.069 C 
HETATM   20  C   UNL     1     -39.127 -51.318  13.256  1.00  0.00     0.028 C 
HETATM   21  C   UNL     1     -37.884 -50.955  14.003  1.00  0.00     0.056 C 
HETATM   22  C   UNL     1     -39.902 -52.466  13.802  1.00  0.00     0.256 C 
HETATM   23  O   UNL     1     -39.620 -52.948  14.896  1.00  0.00    -0.267 OA
ENDBRANCH  13  14
ENDBRANCH   1  13
TORSDOF 5
ENDMDL
MODEL 4
REMARK VINA RESULT:      -6.2      1.342      1.429
REMARK  5 active torsions:
REMARK  status: ('A' for Active; 'I' for Inactive)
REMARK    1  A    between atoms: N_4  and  C_5 
REMARK    2  A    between atoms: C_5  and  C_6 
REMARK    3  A    between atoms: C_6  and  O_7 
REMARK    4  A    between atoms: C_6  and  C_8 
REMARK    5  A    between atoms: C_8  and  N_9 
ROOT
HETATM    1  C   UNL     1     -41.004 -53.119  13.784  1.00  0.00     0.164 C 
ENDROOT
BRANCH   1   2
HETATM    2  C   UNL     1     -39.862 -52.122  14.118  1.00  0.00     0.305 C 
BRANCH   2   3
HETATM    3  N   UNL     1     -39.481 -51.262  12.971  1.00  0.00     0.096 N 
HETATM    4  C   UNL     1     -38.434 -50.287  13.361  1.00  0.00     0.303 C 
HETATM    5  C   UNL     1     -38.059 -49.323  12.209  1.00  0.00     0.146 C 
HETATM    6  C   UNL     1     -37.290 -50.006  11.079  1.00  0.00     0.041 C 
HETATM    7  O   UNL     1     -39.220 -48.635  11.709  1.00  0.00    -0.378 OA
HETATM    8  C   UNL     1     -40.258 -49.542  11.309  1.00  0.00     0.146 C 
HETATM    9  C   UNL     1     -40.643 -50.491  12.462  1.00  0.00     0.303 C 
HETATM   10  C   UNL     1     -41.466 -48.717  10.881  1.00  0.00     0.041 C 
ENDBRANCH   2   3
ENDBRANCH   1   2
BRANCH   1  11
HETATM   11  O   UNL     1     -40.520 -54.471  13.754  1.00  0.00    -0.392 OA
HETATM   12  H   UNL     1     -40.699 -54.833  12.868  1.00  0.00     0.210 HD
ENDBRANCH   1  11
BRANCH   1  13
HETATM   13  C   UNL     1     -42.156 -53.050  14.805  1.00  0.00     0.166 C 
BRANCH  13  14
HETATM   14  N   UNL     1     -43.440 -52.809  14.144  1.00  0.00    -0.307 N 
HETATM   15  C   UNL     1     -43.564 -52.925  12.789  1.00  0.00     0.186 C 
HETATM   16  N   UNL     1     -44.640 -52.683  12.122  1.00  0.00    -0.355 N 
HETATM   17  C   UNL     1     -45.716 -52.184  12.809  1.00  0.00     0.017 C 
ATOM     18  HN  UNL     1     -44.688 -52.856  11.118  1.00  0.00     0.166 HD
HETATM   19  C   UNL     1     -46.899 -51.827  11.943  1.00  0.00     0.069 C 
HETATM   20  C   UNL     1     -45.734 -52.008  14.144  1.00  0.00     0.028 C 
HETATM   21  C   UNL     1     -46.828 -51.385  14.950  1.00  0.00     0.056 C 
HETATM   22  C   UNL     1     -44.527 -52.434  14.905  1.00  0.00     0.256 C 
HETATM   23  O   UNL     1     -44.529 -52.433  16.133  1.00  0.00    -0.267 OA
ENDBRANCH  13  14
ENDBRANCH   1  13
TORSDOF 5
ENDMDL
MODEL 5
REMARK VINA RESULT:      -6.1      3.280      5.023
REMARK  5 active torsions:
REMARK  status: ('A' for Active; 'I' for Inactive)
REMARK    1  A    between atoms: N_4  and  C_5 
REMARK    2  A    between atoms: C_5  and  C_6 
REMARK    3  A    between atoms: C_6  and  O_7 
REMARK    4  A    between atoms: C_6  and  C_8 
REMARK    5  A    between atoms: C_8  and  N_9 
ROOT
HETATM    1  C   UNL     1     -41.252 -49.396  11.139  1.00  0.00     0.164 C 
ENDROOT
BRANCH   1   2
HETATM    2  C   UNL     1     -41.101 -47.856  11.266  1.00  0.00     0.305 C 
BRANCH   2   3
HETATM    3  N   UNL     1     -42.293 -47.109  10.797  1.00  0.00     0.096 N 
HETATM    4  C   UNL     1     -42.543 -47.352   9.356  1.00  0.00     0.303 C 
HETATM    5  C   UNL     1     -43.739 -46.534   8.811  1.00  0.00     0.146 C 
HETATM    6  C   UNL     1     -45.089 -47.019   9.337  1.00  0.00     0.041 C 
HETATM    7  O   UNL     1     -43.558 -45.127   9.054  1.00  0.00    -0.378 OA
HETATM    8  C   UNL     1     -43.323 -44.842  10.441  1.00  0.00     0.146 C 
HETATM    9  C   UNL     1     -42.122 -45.645  10.979  1.00  0.00     0.303 C 
HETATM   10  C   UNL     1     -43.060 -43.346  10.577  1.00  0.00     0.041 C 
ENDBRANCH   2   3
ENDBRANCH   1   2
BRANCH   1  11
HETATM   11  O   UNL     1     -40.305 -49.935  10.204  1.00  0.00    -0.392 OA
HETATM   12  H   UNL     1     -40.520 -50.875  10.069  1.00  0.00     0.210 HD
ENDBRANCH   1  11
BRANCH   1  13
HETATM   13  C   UNL     1     -41.052 -50.114  12.487  1.00  0.00     0.166 C 
BRANCH  13  14
HETATM   14  N   UNL     1     -42.080 -51.132  12.707  1.00  0.00    -0.307 N 
HETATM   15  C   UNL     1     -41.902 -52.415  12.271  1.00  0.00     0.186 C 
HETATM   16  N   UNL     1     -42.773 -53.359  12.377  1.00  0.00    -0.355 N 
HETATM   17  C   UNL     1     -44.005 -53.035  12.881  1.00  0.00     0.017 C 
ATOM     18  HN  UNL     1     -42.552 -54.313  12.094  1.00  0.00     0.166 HD
HETATM   19  C   UNL     1     -45.002 -54.168  12.874  1.00  0.00     0.069 C 
HETATM   20  C   UNL     1     -44.326 -51.810  13.340  1.00  0.00     0.028 C 
HETATM   21  C   UNL     1     -45.668 -51.356  13.816  1.00  0.00     0.056 C 
HETATM   22  C   UNL     1     -43.253 -50.778  13.339  1.00  0.00     0.256 C 
HETATM   23  O   UNL     1     -43.434 -49.686  13.872  1.00  0.00    -0.267 OA
ENDBRANCH  13  14
ENDBRANCH   1  13
TORSDOF 5
ENDMDL
MODEL 6
REMARK VINA RESULT:      -6.1      2.584      6.017
REMARK  5 active torsions:
REMARK  status: ('A' for Active; 'I' for Inactive)
REMARK    1  A    between atoms: N_4  and  C_5 
REMARK    2  A    between atoms: C_5  and  C_6 
REMARK    3  A    between atoms: C_6  and  O_7 
REMARK    4  A    between atoms: C_6  and  C_8 
REMARK    5  A    between atoms: C_8  and  N_9 
ROOT
HETATM    1  C   UNL     1     -41.191 -52.866  12.629  1.00  0.00     0.164 C 
ENDROOT
BRANCH   1   2
HETATM    2  C   UNL     1     -42.210 -51.706  12.468  1.00  0.00     0.305 C 
BRANCH   2   3
HETATM    3  N   UNL     1     -43.622 -52.153  12.533  1.00  0.00     0.096 N 
HETATM    4  C   UNL     1     -44.438 -51.225  13.352  1.00  0.00     0.303 C 
HETATM    5  C   UNL     1     -45.906 -51.695  13.503  1.00  0.00     0.146 C 
HETATM    6  C   UNL     1     -46.710 -51.584  12.208  1.00  0.00     0.041 C 
HETATM    7  O   UNL     1     -45.970 -53.027  14.045  1.00  0.00    -0.378 OA
HETATM    8  C   UNL     1     -45.201 -53.963  13.276  1.00  0.00     0.146 C 
HETATM    9  C   UNL     1     -43.736 -53.503  13.140  1.00  0.00     0.303 C 
HETATM   10  C   UNL     1     -45.266 -55.315  13.979  1.00  0.00     0.041 C 
ENDBRANCH   2   3
ENDBRANCH   1   2
BRANCH   1  11
HETATM   11  O   UNL     1     -40.634 -53.247  11.361  1.00  0.00    -0.392 OA
HETATM   12  H   UNL     1     -41.370 -53.492  10.773  1.00  0.00     0.210 HD
ENDBRANCH   1  11
BRANCH   1  13
HETATM   13  C   UNL     1     -40.027 -52.493  13.566  1.00  0.00     0.166 C 
BRANCH  13  14
HETATM   14  N   UNL     1     -39.810 -53.523  14.583  1.00  0.00    -0.307 N 
HETATM   15  C   UNL     1     -38.845 -54.477  14.421  1.00  0.00     0.186 C 
HETATM   16  N   UNL     1     -38.621 -55.447  15.239  1.00  0.00    -0.355 N 
HETATM   17  C   UNL     1     -39.470 -55.591  16.305  1.00  0.00     0.017 C 
ATOM     18  HN  UNL     1     -37.839 -56.087  15.097  1.00  0.00     0.166 HD
HETATM   19  C   UNL     1     -39.207 -56.810  17.154  1.00  0.00     0.069 C 
HETATM   20  C   UNL     1     -40.470 -54.733  16.585  1.00  0.00     0.028 C 
HETATM   21  C   UNL     1     -41.491 -54.871  17.668  1.00  0.00     0.056 C 
HETATM   22  C   UNL     1     -40.613 -53.541  15.704  1.00  0.00     0.256 C 
HETATM   23  O   UNL     1     -41.410 -52.649  15.983  1.00  0.00    -0.267 OA
ENDBRANCH  13  14
ENDBRANCH   1  13
TORSDOF 5
ENDMDL
MODEL 7
REMARK VINA RESULT:      -6.1      2.205      3.300
REMARK  5 active torsions:
REMARK  status: ('A' for Active; 'I' for Inactive)
REMARK    1  A    between atoms: N_4  and  C_5 
REMARK    2  A    between atoms: C_5  and  C_6 
REMARK    3  A    between atoms: C_6  and  O_7 
REMARK    4  A    between atoms: C_6  and  C_8 
REMARK    5  A    between atoms: C_8  and  N_9 
ROOT
HETATM    1  C   UNL     1     -40.269 -50.851  12.391  1.00  0.00     0.164 C 
ENDROOT
BRANCH   1   2
HETATM    2  C   UNL     1     -39.774 -49.423  12.746  1.00  0.00     0.305 C 
BRANCH   2   3
HETATM    3  N   UNL     1     -40.658 -48.351  12.229  1.00  0.00     0.096 N 
HETATM    4  C   UNL     1     -41.241 -48.726  10.918  1.00  0.00     0.303 C 
HETATM    5  C   UNL     1     -42.116 -47.602  10.310  1.00  0.00     0.146 C 
HETATM    6  C   UNL     1     -43.428 -47.387  11.063  1.00  0.00     0.041 C 
HETATM    7  O   UNL     1     -41.374 -46.374  10.192  1.00  0.00    -0.378 OA
HETATM    8  C   UNL     1     -40.799 -45.966  11.443  1.00  0.00     0.146 C 
HETATM    9  C   UNL     1     -39.915 -47.079  12.039  1.00  0.00     0.303 C 
HETATM   10  C   UNL     1     -39.969 -44.712  11.192  1.00  0.00     0.041 C 
ENDBRANCH   2   3
ENDBRANCH   1   2
BRANCH   1  11
HETATM   11  O   UNL     1     -39.181 -51.684  11.962  1.00  0.00    -0.392 OA
HETATM   12  H   UNL     1     -38.556 -51.766  12.704  1.00  0.00     0.210 HD
ENDBRANCH   1  11
BRANCH   1  13
HETATM   13  C   UNL     1     -40.957 -51.544  13.582  1.00  0.00     0.166 C 
BRANCH  13  14
HETATM   14  N   UNL     1     -42.380 -51.764  13.322  1.00  0.00    -0.307 N 
HETATM   15  C   UNL     1     -43.234 -50.710  13.154  1.00  0.00     0.186 C 
HETATM   16  N   UNL     1     -44.505 -50.812  12.972  1.00  0.00    -0.355 N 
HETATM   17  C   UNL     1     -45.061 -52.063  13.041  1.00  0.00     0.017 C 
ATOM     18  HN  UNL     1     -45.078 -49.989  12.783  1.00  0.00     0.166 HD
HETATM   19  C   UNL     1     -46.565 -52.086  12.924  1.00  0.00     0.069 C 
HETATM   20  C   UNL     1     -44.344 -53.190  13.211  1.00  0.00     0.028 C 
HETATM   21  C   UNL     1     -44.881 -54.574  13.390  1.00  0.00     0.056 C 
HETATM   22  C   UNL     1     -42.863 -53.055  13.273  1.00  0.00     0.256 C 
HETATM   23  O   UNL     1     -42.143 -54.050  13.285  1.00  0.00    -0.267 OA
ENDBRANCH  13  14
ENDBRANCH   1  13
TORSDOF 5
ENDMDL
MODEL 8
REMARK VINA RESULT:      -6.0      1.937      6.273
REMARK  5 active torsions:
REMARK  status: ('A' for Active; 'I' for Inactive)
REMARK    1  A    between atoms: N_4  and  C_5 
REMARK    2  A    between atoms: C_5  and  C_6 
REMARK    3  A    between atoms: C_6  and  O_7 
REMARK    4  A    between atoms: C_6  and  C_8 
REMARK    5  A    between atoms: C_8  and  N_9 
ROOT
HETATM    1  C   UNL     1     -41.665 -53.659  14.185  1.00  0.00     0.164 C 
ENDROOT
BRANCH   1   2
HETATM    2  C   UNL     1     -43.104 -54.208  13.989  1.00  0.00     0.305 C 
BRANCH   2   3
HETATM    3  N   UNL     1     -44.153 -53.169  14.127  1.00  0.00     0.096 N 
HETATM    4  C   UNL     1     -45.107 -53.514  15.208  1.00  0.00     0.303 C 
HETATM    5  C   UNL     1     -46.259 -52.487  15.338  1.00  0.00     0.146 C 
HETATM    6  C   UNL     1     -45.802 -51.138  15.892  1.00  0.00     0.041 C 
HETATM    7  O   UNL     1     -46.956 -52.330  14.089  1.00  0.00    -0.378 OA
HETATM    8  C   UNL     1     -46.071 -51.985  13.013  1.00  0.00     0.146 C 
HETATM    9  C   UNL     1     -44.934 -53.016  12.874  1.00  0.00     0.303 C 
HETATM   10  C   UNL     1     -46.891 -51.928  11.728  1.00  0.00     0.041 C 
ENDBRANCH   2   3
ENDBRANCH   1   2
BRANCH   1  11
HETATM   11  O   UNL     1     -40.876 -54.548  14.990  1.00  0.00    -0.392 OA
HETATM   12  H   UNL     1     -39.939 -54.375  14.796  1.00  0.00     0.210 HD
ENDBRANCH   1  11
BRANCH   1  13
HETATM   13  C   UNL     1     -40.932 -53.454  12.845  1.00  0.00     0.166 C 
BRANCH  13  14
HETATM   14  N   UNL     1     -40.808 -52.033  12.518  1.00  0.00    -0.307 N 
HETATM   15  C   UNL     1     -41.886 -51.317  12.080  1.00  0.00     0.186 C 
HETATM   16  N   UNL     1     -41.855 -50.079  11.723  1.00  0.00    -0.355 N 
HETATM   17  C   UNL     1     -40.635 -49.456  11.691  1.00  0.00     0.017 C 
ATOM     18  HN  UNL     1     -42.709 -49.582  11.471  1.00  0.00     0.166 HD
HETATM   19  C   UNL     1     -40.668 -48.043  11.161  1.00  0.00     0.069 C 
HETATM   20  C   UNL     1     -39.487 -50.040  12.084  1.00  0.00     0.028 C 
HETATM   21  C   UNL     1     -38.111 -49.462  11.992  1.00  0.00     0.056 C 
HETATM   22  C   UNL     1     -39.576 -51.423  12.630  1.00  0.00     0.256 C 
HETATM   23  O   UNL     1     -38.595 -51.961  13.135  1.00  0.00    -0.267 OA
ENDBRANCH  13  14
ENDBRANCH   1  13
TORSDOF 5
ENDMDL
MODEL 9
REMARK VINA RESULT:      -5.9      2.178      6.567
REMARK  5 active torsions:
REMARK  status: ('A' for Active; 'I' for Inactive)
REMARK    1  A    between atoms: N_4  and  C_5 
REMARK    2  A    between atoms: C_5  and  C_6 
REMARK    3  A    between atoms: C_6  and  O_7 
REMARK    4  A    between atoms: C_6  and  C_8 
REMARK    5  A    between atoms: C_8  and  N_9 
ROOT
HETATM    1  C   UNL     1     -40.868 -52.445  12.590  1.00  0.00     0.164 C 
ENDROOT
BRANCH   1   2
HETATM    2  C   UNL     1     -42.236 -51.711  12.581  1.00  0.00     0.305 C 
BRANCH   2   3
HETATM    3  N   UNL     1     -43.295 -52.437  13.322  1.00  0.00     0.096 N 
HETATM    4  C   UNL     1     -43.830 -53.565  12.522  1.00  0.00     0.303 C 
HETATM    5  C   UNL     1     -44.988 -54.306  13.233  1.00  0.00     0.146 C 
HETATM    6  C   UNL     1     -44.529 -55.115  14.446  1.00  0.00     0.041 C 
HETATM    7  O   UNL     1     -46.048 -53.397  13.582  1.00  0.00    -0.378 OA
HETATM    8  C   UNL     1     -45.578 -52.291  14.368  1.00  0.00     0.146 C 
HETATM    9  C   UNL     1     -44.435 -51.544  13.652  1.00  0.00     0.303 C 
HETATM   10  C   UNL     1     -46.753 -51.351  14.609  1.00  0.00     0.041 C 
ENDBRANCH   2   3
ENDBRANCH   1   2
BRANCH   1  11
HETATM   11  O   UNL     1     -40.639 -53.131  11.349  1.00  0.00    -0.392 OA
HETATM   12  H   UNL     1     -40.991 -52.576  10.631  1.00  0.00     0.210 HD
ENDBRANCH   1  11
BRANCH   1  13
HETATM   13  C   UNL     1     -39.690 -51.479  12.823  1.00  0.00     0.166 C 
BRANCH  13  14
HETATM   14  N   UNL     1     -40.032 -50.114  12.419  1.00  0.00    -0.307 N 
HETATM   15  C   UNL     1     -40.316 -49.819  11.115  1.00  0.00     0.186 C 
HETATM   16  N   UNL     1     -40.576 -48.640  10.665  1.00  0.00    -0.355 N 
HETATM   17  C   UNL     1     -40.473 -47.588  11.537  1.00  0.00     0.017 C 
ATOM     18  HN  UNL     1     -40.849 -48.495   9.693  1.00  0.00     0.166 HD
HETATM   19  C   UNL     1     -40.688 -46.232  10.910  1.00  0.00     0.069 C 
HETATM   20  C   UNL     1     -40.192 -47.728  12.847  1.00  0.00     0.028 C 
HETATM   21  C   UNL     1     -39.971 -46.630  13.837  1.00  0.00     0.056 C 
HETATM   22  C   UNL     1     -40.040 -49.115  13.368  1.00  0.00     0.256 C 
HETATM   23  O   UNL     1     -39.923 -49.321  14.573  1.00  0.00    -0.267 OA
ENDBRANCH  13  14
ENDBRANCH   1  13
TORSDOF 5
ENDMDL
