MODEL 1
REMARK VINA RESULT:      -6.5      0.000      0.000
REMARK  4 active torsions:
REMARK  status: ('A' for Active; 'I' for Inactive)
REMARK       I    between atoms: C_2  and  N_4 
REMARK    1  A    between atoms: N_7  and  C_8 
REMARK    2  A    between atoms: C_8  and  C_9 
REMARK    3  A    between atoms: C_9  and  N_10 
REMARK       I    between atoms: N_10  and  C_11 
REMARK       I    between atoms: C_11  and  N_13 
REMARK    4  A    between atoms: N_13  and  C_14 
ROOT
HETATM    1  N   UNL     1     -40.468 -49.988  10.694  1.00  0.00    -0.341 N 
HETATM    2  C   UNL     1     -41.339 -48.925  10.782  1.00  0.00     0.321 C 
HETATM    3  O   UNL     1     -41.657 -48.423  11.858  1.00  0.00    -0.247 OA
HETATM    4  N   UNL     1     -41.747 -48.493   9.548  1.00  0.00    -0.295 N 
HETATM    5  H   UNL     1     -40.753 -50.683  10.014  1.00  0.00     0.164 HD
HETATM    6  H   UNL     1     -41.020 -48.488   8.846  1.00  0.00     0.172 HD
ENDROOT
BRANCH   1   7
HETATM    7  C   UNL     1     -39.859 -50.454  11.929  1.00  0.00     0.154 C 
BRANCH   7   8
HETATM    8  C   UNL     1     -40.517 -51.725  12.482  1.00  0.00     0.292 C 
BRANCH   8   9
HETATM    9  N   UNL     1     -41.407 -51.488  13.635  1.00  0.00     0.093 N 
HETATM   10  C   UNL     1     -41.213 -52.456  14.742  1.00  0.00     0.292 C 
HETATM   11  C   UNL     1     -41.671 -53.890  14.422  1.00  0.00     0.156 C 
HETATM   12  N   UNL     1     -43.053 -53.913  13.933  1.00  0.00    -0.349 N 
HETATM   13  C   UNL     1     -43.902 -54.910  14.376  1.00  0.00     0.215 C 
HETATM   14  C   UNL     1     -43.354 -52.945  12.872  1.00  0.00     0.156 C 
HETATM   15  C   UNL     1     -45.267 -54.989  13.743  1.00  0.00     0.117 C 
HETATM   16  O   UNL     1     -43.580 -55.724  15.244  1.00  0.00    -0.274 OA
HETATM   17  C   UNL     1     -42.829 -51.535  13.226  1.00  0.00     0.292 C 
ENDBRANCH   8   9
ENDBRANCH   7   8
ENDBRANCH   1   7
BRANCH   4  18
HETATM   18  C   UNL     1     -42.622 -47.410   9.412  1.00  0.00     0.108 A 
HETATM   19  C   UNL     1     -43.907 -47.578   8.906  1.00  0.00     0.049 A 
HETATM   20  C   UNL     1     -44.753 -46.476   8.850  1.00  0.00     0.005 A 
HETATM   21  C   UNL     1     -44.296 -45.251   9.316  1.00  0.00     0.017 A 
HETATM   22  C   UNL     1     -42.992 -45.173   9.777  1.00  0.00     0.089 A 
HETATM   23  N   UNL     1     -42.131 -46.216   9.800  1.00  0.00    -0.352 N 
ATOM     24  HN  UNL     1     -41.161 -46.106  10.096  1.00  0.00     0.166 HD
ENDBRANCH   4  18
TORSDOF 4
ENDMDL
MODEL 2
REMARK VINA RESULT:      -6.4      1.925      2.369
REMARK  4 active torsions:
REMARK  status: ('A' for Active; 'I' for Inactive)
REMARK       I    between atoms: C_2  and  N_4 
REMARK    1  A    between atoms: N_7  and  C_8 
REMARK    2  A    between atoms: C_8  and  C_9 
REMARK    3  A    between atoms: C_9  and  N_10 
REMARK       I    between atoms: N_10  and  C_11 
REMARK       I    between atoms: C_11  and  N_13 
REMARK    4  A    between atoms: N_13  and  C_14 
ROOT
HETATM    1  N   UNL     1     -40.799 -51.361  11.364  1.00  0.00    -0.341 N 
HETATM    2  C   UNL     1     -40.993 -50.019  11.606  1.00  0.00     0.321 C 
HETATM    3  O   UNL     1     -40.938 -49.541  12.737  1.00  0.00    -0.247 OA
HETATM    4  N   UNL     1     -41.200 -49.314  10.450  1.00  0.00    -0.295 N 
HETATM    5  H   UNL     1     -41.443 -51.741  10.680  1.00  0.00     0.164 HD
HETATM    6  H   UNL     1     -40.621 -49.604   9.674  1.00  0.00     0.172 HD
ENDROOT
BRANCH   1   7
HETATM    7  C   UNL     1     -40.438 -52.197  12.496  1.00  0.00     0.154 C 
BRANCH   7   8
HETATM    8  C   UNL     1     -41.463 -53.301  12.781  1.00  0.00     0.292 C 
BRANCH   8   9
HETATM    9  N   UNL     1     -41.910 -53.358  14.187  1.00  0.00     0.093 N 
HETATM   10  C   UNL     1     -42.888 -54.441  14.454  1.00  0.00     0.292 C 
HETATM   11  C   UNL     1     -44.269 -54.225  13.810  1.00  0.00     0.156 C 
HETATM   12  N   UNL     1     -44.822 -52.912  14.159  1.00  0.00    -0.349 N 
HETATM   13  C   UNL     1     -46.165 -52.814  14.469  1.00  0.00     0.215 C 
HETATM   14  C   UNL     1     -43.902 -51.783  13.980  1.00  0.00     0.156 C 
HETATM   15  C   UNL     1     -46.728 -51.433  14.678  1.00  0.00     0.117 C 
HETATM   16  O   UNL     1     -46.901 -53.798  14.566  1.00  0.00    -0.274 OA
HETATM   17  C   UNL     1     -42.518 -52.074  14.603  1.00  0.00     0.292 C 
ENDBRANCH   8   9
ENDBRANCH   7   8
ENDBRANCH   1   7
BRANCH   4  18
HETATM   18  C   UNL     1     -41.402 -47.930  10.472  1.00  0.00     0.108 A 
HETATM   19  C   UNL     1     -42.664 -47.380  10.271  1.00  0.00     0.049 A 
HETATM   20  C   UNL     1     -42.816 -46.001  10.364  1.00  0.00     0.005 A 
HETATM   21  C   UNL     1     -41.710 -45.221  10.670  1.00  0.00     0.017 A 
HETATM   22  C   UNL     1     -40.487 -45.854  10.826  1.00  0.00     0.089 A 
HETATM   23  N   UNL     1     -40.300 -47.187  10.697  1.00  0.00    -0.352 N 
ATOM     24  HN  UNL     1     -39.374 -47.609  10.766  1.00  0.00     0.166 HD
ENDBRANCH   4  18
TORSDOF 4
ENDMDL
MODEL 3
REMARK VINA RESULT:      -6.4      2.325      7.465
REMARK  4 active torsions:
REMARK  status: ('A' for Active; 'I' for Inactive)
REMARK       I    between atoms: C_2  and  N_4 
REMARK    1  A    between atoms: N_7  and  C_8 
REMARK    2  A    between atoms: C_8  and  C_9 
REMARK    3  A    between atoms: C_9  and  N_10 
REMARK       I    between atoms: N_10  and  C_11 
REMARK       I    between atoms: C_11  and  N_13 
REMARK    4  A    between atoms: N_13  and  C_14 
ROOT
HETATM    1  N   UNL     1     -41.337 -52.240  11.439  1.00  0.00    -0.341 N 
HETATM    2  C   UNL     1     -42.338 -52.359  12.377  1.00  0.00     0.321 C 
HETATM    3  O   UNL     1     -42.261 -51.845  13.490  1.00  0.00    -0.247 OA
HETATM    4  N   UNL     1     -43.411 -53.063  11.895  1.00  0.00    -0.295 N 
HETATM    5  H   UNL     1     -41.158 -53.100  10.934  1.00  0.00     0.164 HD
HETATM    6  H   UNL     1     -43.647 -52.859  10.934  1.00  0.00     0.172 HD
ENDROOT
BRANCH   1   7
HETATM    7  C   UNL     1     -40.200 -51.402  11.781  1.00  0.00     0.154 C 
BRANCH   7   8
HETATM    8  C   UNL     1     -40.340 -49.962  11.274  1.00  0.00     0.292 C 
BRANCH   8   9
HETATM    9  N   UNL     1     -41.024 -49.056  12.216  1.00  0.00     0.093 N 
HETATM   10  C   UNL     1     -42.266 -48.457  11.668  1.00  0.00     0.292 C 
HETATM   11  C   UNL     1     -42.037 -47.440  10.537  1.00  0.00     0.156 C 
HETATM   12  N   UNL     1     -41.080 -46.403  10.935  1.00  0.00    -0.349 N 
HETATM   13  C   UNL     1     -41.333 -45.090  10.584  1.00  0.00     0.215 C 
HETATM   14  C   UNL     1     -39.841 -46.901  11.542  1.00  0.00     0.156 C 
HETATM   15  C   UNL     1     -40.260 -44.075  10.881  1.00  0.00     0.117 C 
HETATM   16  O   UNL     1     -42.379 -44.736  10.036  1.00  0.00    -0.274 OA
HETATM   17  C   UNL     1     -40.129 -47.953  12.637  1.00  0.00     0.292 C 
ENDBRANCH   8   9
ENDBRANCH   7   8
ENDBRANCH   1   7
BRANCH   4  18
HETATM   18  C   UNL     1     -44.545 -53.285  12.683  1.00  0.00     0.108 A 
HETATM   19  C   UNL     1     -44.741 -54.492  13.345  1.00  0.00     0.049 A 
HETATM   20  C   UNL     1     -45.856 -54.634  14.163  1.00  0.00     0.005 A 
HETATM   21  C   UNL     1     -46.728 -53.563  14.305  1.00  0.00     0.017 A 
HETATM   22  C   UNL     1     -46.467 -52.408  13.585  1.00  0.00     0.089 A 
HETATM   23  N   UNL     1     -45.416 -52.257  12.747  1.00  0.00    -0.352 N 
ATOM     24  HN  UNL     1     -45.288 -51.411  12.192  1.00  0.00     0.166 HD
ENDBRANCH   4  18
TORSDOF 4
ENDMDL
MODEL 4
REMARK VINA RESULT:      -6.3      2.145      8.022
REMARK  4 active torsions:
REMARK  status: ('A' for Active; 'I' for Inactive)
REMARK       I    between atoms: C_2  and  N_4 
REMARK    1  A    between atoms: N_7  and  C_8 
REMARK    2  A    between atoms: C_8  and  C_9 
REMARK    3  A    between atoms: C_9  and  N_10 
REMARK       I    between atoms: N_10  and  C_11 
REMARK       I    between atoms: C_11  and  N_13 
REMARK    4  A    between atoms: N_13  and  C_14 
ROOT
HETATM    1  N   UNL     1     -40.919 -50.871  11.121  1.00  0.00    -0.341 N 
HETATM    2  C   UNL     1     -41.641 -51.436  12.148  1.00  0.00     0.321 C 
HETATM    3  O   UNL     1     -41.773 -50.886  13.239  1.00  0.00    -0.247 OA
HETATM    4  N   UNL     1     -42.210 -52.627  11.780  1.00  0.00    -0.295 N 
HETATM    5  H   UNL     1     -40.347 -51.540  10.619  1.00  0.00     0.164 HD
HETATM    6  H   UNL     1     -42.581 -52.641  10.840  1.00  0.00     0.172 HD
ENDROOT
BRANCH   1   7
HETATM    7  C   UNL     1     -40.376 -49.541  11.341  1.00  0.00     0.154 C 
BRANCH   7   8
HETATM    8  C   UNL     1     -41.202 -48.435  10.672  1.00  0.00     0.292 C 
BRANCH   8   9
HETATM    9  N   UNL     1     -42.263 -47.875  11.531  1.00  0.00     0.093 N 
HETATM   10  C   UNL     1     -43.347 -47.204  10.772  1.00  0.00     0.292 C 
HETATM   11  C   UNL     1     -42.927 -45.892  10.085  1.00  0.00     0.156 C 
HETATM   12  N   UNL     1     -42.295 -44.971  11.035  1.00  0.00    -0.349 N 
HETATM   13  C   UNL     1     -42.609 -43.626  10.971  1.00  0.00     0.215 C 
HETATM   14  C   UNL     1     -41.246 -45.563  11.873  1.00  0.00     0.156 C 
HETATM   15  C   UNL     1     -41.834 -42.691  11.861  1.00  0.00     0.117 C 
HETATM   16  O   UNL     1     -43.474 -43.179  10.215  1.00  0.00    -0.274 OA
HETATM   17  C   UNL     1     -41.706 -46.900  12.497  1.00  0.00     0.292 C 
ENDBRANCH   8   9
ENDBRANCH   7   8
ENDBRANCH   1   7
BRANCH   4  18
HETATM   18  C   UNL     1     -43.000 -53.359  12.673  1.00  0.00     0.108 A 
HETATM   19  C   UNL     1     -44.375 -53.469  12.497  1.00  0.00     0.049 A 
HETATM   20  C   UNL     1     -45.102 -54.259  13.381  1.00  0.00     0.005 A 
HETATM   21  C   UNL     1     -44.431 -54.924  14.398  1.00  0.00     0.017 A 
HETATM   22  C   UNL     1     -43.063 -54.732  14.512  1.00  0.00     0.089 A 
HETATM   23  N   UNL     1     -42.338 -53.934  13.696  1.00  0.00    -0.352 N 
ATOM     24  HN  UNL     1     -41.341 -53.776  13.846  1.00  0.00     0.166 HD
ENDBRANCH   4  18
TORSDOF 4
ENDMDL
MODEL 5
REMARK VINA RESULT:      -5.9      3.043      8.516
REMARK  4 active torsions:
REMARK  status: ('A' for Active; 'I' for Inactive)
REMARK       I    between atoms: C_2  and  N_4 
REMARK    1  A    between atoms: N_7  and  C_8 
REMARK    2  A    between atoms: C_8  and  C_9 
REMARK    3  A    between atoms: C_9  and  N_10 
REMARK       I    between atoms: N_10  and  C_11 
REMARK       I    between atoms: C_11  and  N_13 
REMARK    4  A    between atoms: N_13  and  C_14 
ROOT
HETATM    1  N   UNL     1     -40.898 -49.420  10.614  1.00  0.00    -0.341 N 
HETATM    2  C   UNL     1     -41.416 -50.277  11.560  1.00  0.00     0.321 C 
HETATM    3  O   UNL     1     -42.302 -49.936  12.340  1.00  0.00    -0.247 OA
HETATM    4  N   UNL     1     -40.858 -51.526  11.480  1.00  0.00    -0.295 N 
HETATM    5  H   UNL     1     -39.892 -49.490  10.518  1.00  0.00     0.164 HD
HETATM    6  H   UNL     1     -40.705 -51.855  10.537  1.00  0.00     0.172 HD
ENDROOT
BRANCH   1   7
HETATM    7  C   UNL     1     -41.502 -48.102  10.507  1.00  0.00     0.154 C 
BRANCH   7   8
HETATM    8  C   UNL     1     -40.611 -46.985  11.065  1.00  0.00     0.292 C 
BRANCH   8   9
HETATM    9  N   UNL     1     -40.868 -45.659  10.472  1.00  0.00     0.093 N 
HETATM   10  C   UNL     1     -39.711 -44.736  10.560  1.00  0.00     0.292 C 
HETATM   11  C   UNL     1     -39.382 -44.261  11.987  1.00  0.00     0.156 C 
HETATM   12  N   UNL     1     -40.562 -43.696  12.648  1.00  0.00    -0.349 N 
HETATM   13  C   UNL     1     -40.418 -42.551  13.409  1.00  0.00     0.215 C 
HETATM   14  C   UNL     1     -41.775 -44.517  12.563  1.00  0.00     0.156 C 
HETATM   15  C   UNL     1     -41.618 -42.084  14.190  1.00  0.00     0.117 C 
HETATM   16  O   UNL     1     -39.360 -41.924  13.475  1.00  0.00    -0.274 OA
HETATM   17  C   UNL     1     -42.030 -45.005  11.118  1.00  0.00     0.292 C 
ENDBRANCH   8   9
ENDBRANCH   7   8
ENDBRANCH   1   7
BRANCH   4  18
HETATM   18  C   UNL     1     -41.256 -52.553  12.342  1.00  0.00     0.108 A 
HETATM   19  C   UNL     1     -40.370 -53.113  13.256  1.00  0.00     0.049 A 
HETATM   20  C   UNL     1     -40.838 -54.089  14.129  1.00  0.00     0.005 A 
HETATM   21  C   UNL     1     -42.174 -54.461  14.071  1.00  0.00     0.017 A 
HETATM   22  C   UNL     1     -42.976 -53.869  13.108  1.00  0.00     0.089 A 
HETATM   23  N   UNL     1     -42.538 -52.951  12.217  1.00  0.00    -0.352 N 
ATOM     24  HN  UNL     1     -43.146 -52.578  11.487  1.00  0.00     0.166 HD
ENDBRANCH   4  18
TORSDOF 4
ENDMDL
MODEL 6
REMARK VINA RESULT:      -5.8      1.828      2.294
REMARK  4 active torsions:
REMARK  status: ('A' for Active; 'I' for Inactive)
REMARK       I    between atoms: C_2  and  N_4 
REMARK    1  A    between atoms: N_7  and  C_8 
REMARK    2  A    between atoms: C_8  and  C_9 
REMARK    3  A    between atoms: C_9  and  N_10 
REMARK       I    between atoms: N_10  and  C_11 
REMARK       I    between atoms: C_11  and  N_13 
REMARK    4  A    between atoms: N_13  and  C_14 
ROOT
HETATM    1  N   UNL     1     -40.999 -49.890  10.924  1.00  0.00    -0.341 N 
HETATM    2  C   UNL     1     -40.856 -48.590  11.355  1.00  0.00     0.321 C 
HETATM    3  O   UNL     1     -40.452 -48.312  12.482  1.00  0.00    -0.247 OA
HETATM    4  N   UNL     1     -41.170 -47.687  10.374  1.00  0.00    -0.295 N 
HETATM    5  H   UNL     1     -41.843 -50.043  10.386  1.00  0.00     0.164 HD
HETATM    6  H   UNL     1     -40.851 -47.946   9.450  1.00  0.00     0.172 HD
ENDROOT
BRANCH   1   7
HETATM    7  C   UNL     1     -40.569 -50.943  11.829  1.00  0.00     0.154 C 
BRANCH   7   8
HETATM    8  C   UNL     1     -41.686 -51.938  12.168  1.00  0.00     0.292 C 
BRANCH   8   9
HETATM    9  N   UNL     1     -41.882 -52.152  13.614  1.00  0.00     0.093 N 
HETATM   10  C   UNL     1     -42.125 -53.570  13.977  1.00  0.00     0.292 C 
HETATM   11  C   UNL     1     -43.480 -54.126  13.503  1.00  0.00     0.156 C 
HETATM   12  N   UNL     1     -44.589 -53.270  13.936  1.00  0.00    -0.349 N 
HETATM   13  C   UNL     1     -45.746 -53.863  14.404  1.00  0.00     0.215 C 
HETATM   14  C   UNL     1     -44.411 -51.838  13.670  1.00  0.00     0.156 C 
HETATM   15  C   UNL     1     -46.916 -52.961  14.701  1.00  0.00     0.117 C 
HETATM   16  O   UNL     1     -45.852 -55.080  14.570  1.00  0.00    -0.274 OA
HETATM   17  C   UNL     1     -43.017 -51.347  14.121  1.00  0.00     0.292 C 
ENDBRANCH   8   9
ENDBRANCH   7   8
ENDBRANCH   1   7
BRANCH   4  18
HETATM   18  C   UNL     1     -41.076 -46.310  10.600  1.00  0.00     0.108 A 
HETATM   19  C   UNL     1     -42.179 -45.567  11.008  1.00  0.00     0.049 A 
HETATM   20  C   UNL     1     -42.012 -44.213  11.276  1.00  0.00     0.005 A 
HETATM   21  C   UNL     1     -40.750 -43.651  11.144  1.00  0.00     0.017 A 
HETATM   22  C   UNL     1     -39.716 -44.462  10.706  1.00  0.00     0.089 A 
HETATM   23  N   UNL     1     -39.858 -45.771  10.394  1.00  0.00    -0.352 N 
ATOM     24  HN  UNL     1     -39.084 -46.321  10.022  1.00  0.00     0.166 HD
ENDBRANCH   4  18
TORSDOF 4
ENDMDL
MODEL 7
REMARK VINA RESULT:      -5.7      1.898      2.756
REMARK  4 active torsions:
REMARK  status: ('A' for Active; 'I' for Inactive)
REMARK       I    between atoms: C_2  and  N_4 
REMARK    1  A    between atoms: N_7  and  C_8 
REMARK    2  A    between atoms: C_8  and  C_9 
REMARK    3  A    between atoms: C_9  and  N_10 
REMARK       I    between atoms: N_10  and  C_11 
REMARK       I    between atoms: C_11  and  N_13 
REMARK    4  A    between atoms: N_13  and  C_14 
ROOT
HETATM    1  N   UNL     1     -41.415 -49.871  11.015  1.00  0.00    -0.341 N 
HETATM    2  C   UNL     1     -41.033 -48.590  11.343  1.00  0.00     0.321 C 
HETATM    3  O   UNL     1     -40.378 -48.337  12.353  1.00  0.00    -0.247 OA
HETATM    4  N   UNL     1     -41.429 -47.678  10.400  1.00  0.00    -0.295 N 
HETATM    5  H   UNL     1     -42.363 -49.928  10.663  1.00  0.00     0.164 HD
HETATM    6  H   UNL     1     -41.338 -47.998   9.446  1.00  0.00     0.172 HD
ENDROOT
BRANCH   1   7
HETATM    7  C   UNL     1     -40.940 -50.947  11.868  1.00  0.00     0.154 C 
BRANCH   7   8
HETATM    8  C   UNL     1     -42.067 -51.643  12.642  1.00  0.00     0.292 C 
BRANCH   8   9
HETATM    9  N   UNL     1     -42.177 -53.090  12.372  1.00  0.00     0.093 N 
HETATM   10  C   UNL     1     -43.346 -53.727  13.026  1.00  0.00     0.292 C 
HETATM   11  C   UNL     1     -43.250 -53.813  14.560  1.00  0.00     0.156 C 
HETATM   12  N   UNL     1     -41.996 -54.444  14.983  1.00  0.00    -0.349 N 
HETATM   13  C   UNL     1     -42.023 -55.349  16.027  1.00  0.00     0.215 C 
HETATM   14  C   UNL     1     -40.787 -53.914  14.343  1.00  0.00     0.156 C 
HETATM   15  C   UNL     1     -40.700 -55.865  16.530  1.00  0.00     0.117 C 
HETATM   16  O   UNL     1     -43.071 -55.727  16.555  1.00  0.00    -0.274 OA
HETATM   17  C   UNL     1     -40.957 -53.806  12.811  1.00  0.00     0.292 C 
ENDBRANCH   8   9
ENDBRANCH   7   8
ENDBRANCH   1   7
BRANCH   4  18
HETATM   18  C   UNL     1     -41.126 -46.319  10.533  1.00  0.00     0.108 A 
HETATM   19  C   UNL     1     -42.078 -45.407  10.978  1.00  0.00     0.049 A 
HETATM   20  C   UNL     1     -41.703 -44.079  11.149  1.00  0.00     0.005 A 
HETATM   21  C   UNL     1     -40.391 -43.710  10.888  1.00  0.00     0.017 A 
HETATM   22  C   UNL     1     -39.520 -44.682  10.422  1.00  0.00     0.089 A 
HETATM   23  N   UNL     1     -39.867 -45.971  10.202  1.00  0.00    -0.352 N 
ATOM     24  HN  UNL     1     -39.211 -46.644   9.807  1.00  0.00     0.166 HD
ENDBRANCH   4  18
TORSDOF 4
ENDMDL
MODEL 8
REMARK VINA RESULT:      -5.6      4.282      5.645
REMARK  4 active torsions:
REMARK  status: ('A' for Active; 'I' for Inactive)
REMARK       I    between atoms: C_2  and  N_4 
REMARK    1  A    between atoms: N_7  and  C_8 
REMARK    2  A    between atoms: C_8  and  C_9 
REMARK    3  A    between atoms: C_9  and  N_10 
REMARK       I    between atoms: N_10  and  C_11 
REMARK       I    between atoms: C_11  and  N_13 
REMARK    4  A    between atoms: N_13  and  C_14 
ROOT
HETATM    1  N   UNL     1     -40.593 -46.586  10.477  1.00  0.00    -0.341 N 
HETATM    2  C   UNL     1     -41.889 -47.045  10.396  1.00  0.00     0.321 C 
HETATM    3  O   UNL     1     -42.486 -47.505  11.366  1.00  0.00    -0.247 OA
HETATM    4  N   UNL     1     -42.414 -46.877   9.141  1.00  0.00    -0.295 N 
HETATM    5  H   UNL     1     -40.025 -46.850   9.682  1.00  0.00     0.164 HD
HETATM    6  H   UNL     1     -42.163 -46.006   8.696  1.00  0.00     0.172 HD
ENDROOT
BRANCH   1   7
HETATM    7  C   UNL     1     -39.969 -46.585  11.789  1.00  0.00     0.154 C 
BRANCH   7   8
HETATM    8  C   UNL     1     -39.433 -47.962  12.202  1.00  0.00     0.292 C 
BRANCH   8   9
HETATM    9  N   UNL     1     -39.795 -48.361  13.575  1.00  0.00     0.093 N 
HETATM   10  C   UNL     1     -39.409 -47.365  14.604  1.00  0.00     0.292 C 
HETATM   11  C   UNL     1     -37.891 -47.232  14.824  1.00  0.00     0.156 C 
HETATM   12  N   UNL     1     -37.274 -48.535  15.089  1.00  0.00    -0.349 N 
HETATM   13  C   UNL     1     -36.303 -48.627  16.069  1.00  0.00     0.215 C 
HETATM   14  C   UNL     1     -37.645 -49.602  14.152  1.00  0.00     0.156 C 
HETATM   15  C   UNL     1     -35.588 -49.945  16.214  1.00  0.00     0.117 C 
HETATM   16  O   UNL     1     -36.003 -47.682  16.802  1.00  0.00    -0.274 OA
HETATM   17  C   UNL     1     -39.174 -49.657  13.933  1.00  0.00     0.292 C 
ENDBRANCH   8   9
ENDBRANCH   7   8
ENDBRANCH   1   7
BRANCH   4  18
HETATM   18  C   UNL     1     -43.727 -47.263   8.848  1.00  0.00     0.108 A 
HETATM   19  C   UNL     1     -44.012 -48.091   7.768  1.00  0.00     0.049 A 
HETATM   20  C   UNL     1     -45.328 -48.490   7.560  1.00  0.00     0.005 A 
HETATM   21  C   UNL     1     -46.309 -48.064   8.445  1.00  0.00     0.017 A 
HETATM   22  C   UNL     1     -45.935 -47.218   9.476  1.00  0.00     0.089 A 
HETATM   23  N   UNL     1     -44.672 -46.776   9.676  1.00  0.00    -0.352 N 
ATOM     24  HN  UNL     1     -44.447 -46.110  10.415  1.00  0.00     0.166 HD
ENDBRANCH   4  18
TORSDOF 4
ENDMDL
MODEL 9
REMARK VINA RESULT:      -5.4      3.228      8.782
REMARK  4 active torsions:
REMARK  status: ('A' for Active; 'I' for Inactive)
REMARK       I    between atoms: C_2  and  N_4 
REMARK    1  A    between atoms: N_7  and  C_8 
REMARK    2  A    between atoms: C_8  and  C_9 
REMARK    3  A    between atoms: C_9  and  N_10 
REMARK       I    between atoms: N_10  and  C_11 
REMARK       I    between atoms: C_11  and  N_13 
REMARK    4  A    between atoms: N_13  and  C_14 
ROOT
HETATM    1  N   UNL     1     -41.382 -47.589  10.185  1.00  0.00    -0.341 N 
HETATM    2  C   UNL     1     -41.486 -48.692  11.002  1.00  0.00     0.321 C 
HETATM    3  O   UNL     1     -42.524 -48.975  11.597  1.00  0.00    -0.247 OA
HETATM    4  N   UNL     1     -40.330 -49.428  11.021  1.00  0.00    -0.295 N 
HETATM    5  H   UNL     1     -40.503 -47.096  10.288  1.00  0.00     0.164 HD
HETATM    6  H   UNL     1     -39.873 -49.511  10.123  1.00  0.00     0.172 HD
ENDROOT
BRANCH   1   7
HETATM    7  C   UNL     1     -42.584 -46.800   9.976  1.00  0.00     0.154 C 
BRANCH   7   8
HETATM    8  C   UNL     1     -42.478 -45.379  10.545  1.00  0.00     0.292 C 
BRANCH   8   9
HETATM    9  N   UNL     1     -41.544 -45.255  11.681  1.00  0.00     0.093 N 
HETATM   10  C   UNL     1     -42.183 -44.753  12.922  1.00  0.00     0.292 C 
HETATM   11  C   UNL     1     -42.626 -43.280  12.860  1.00  0.00     0.156 C 
HETATM   12  N   UNL     1     -41.524 -42.408  12.440  1.00  0.00    -0.349 N 
HETATM   13  C   UNL     1     -41.355 -41.192  13.075  1.00  0.00     0.215 C 
HETATM   14  C   UNL     1     -40.794 -42.857  11.249  1.00  0.00     0.156 C 
HETATM   15  C   UNL     1     -40.308 -40.261  12.522  1.00  0.00     0.117 C 
HETATM   16  O   UNL     1     -42.028 -40.850  14.050  1.00  0.00    -0.274 OA
HETATM   17  C   UNL     1     -40.418 -44.353  11.345  1.00  0.00     0.292 C 
ENDBRANCH   8   9
ENDBRANCH   7   8
ENDBRANCH   1   7
BRANCH   4  18
HETATM   18  C   UNL     1     -40.229 -50.600  11.777  1.00  0.00     0.108 A 
HETATM   19  C   UNL     1     -39.345 -50.696  12.847  1.00  0.00     0.049 A 
HETATM   20  C   UNL     1     -39.332 -51.864  13.601  1.00  0.00     0.005 A 
HETATM   21  C   UNL     1     -40.208 -52.889  13.272  1.00  0.00     0.017 A 
HETATM   22  C   UNL     1     -41.033 -52.715  12.172  1.00  0.00     0.089 A 
HETATM   23  N   UNL     1     -41.036 -51.609  11.393  1.00  0.00    -0.352 N 
ATOM     24  HN  UNL     1     -41.620 -51.541  10.559  1.00  0.00     0.166 HD
ENDBRANCH   4  18
TORSDOF 4
ENDMDL
