MODEL 1
REMARK VINA RESULT:      -6.0      0.000      0.000
REMARK  7 active torsions:
REMARK  status: ('A' for Active; 'I' for Inactive)
REMARK    1  A    between atoms: C_2  and  O_4 
REMARK    2  A    between atoms: O_4  and  C_5 
REMARK    3  A    between atoms: C_5  and  C_6 
REMARK    4  A    between atoms: C_6  and  C_7 
REMARK    5  A    between atoms: C_10  and  C_11 
REMARK    6  A    between atoms: C_11  and  C_12 
REMARK       I    between atoms: C_12  and  N_14 
REMARK    7  A    between atoms: N_14  and  C_15 
ROOT
HETATM    1  C   UNL     1     -44.685 -54.546  13.675  1.00  0.00     0.150 A 
HETATM    2  N   UNL     1     -43.488 -54.626  14.214  1.00  0.00    -0.326 N 
ATOM      3  HN  UNL     1     -43.220 -54.970  15.137  1.00  0.00     0.169 HD
HETATM    4  C   UNL     1     -42.689 -54.125  13.211  1.00  0.00     0.112 A 
HETATM    5  N   UNL     1     -43.352 -53.709  12.125  1.00  0.00    -0.247 N 
ATOM      6  HN  UNL     1     -42.974 -53.281  11.280  1.00  0.00     0.196 HD
HETATM    7  O   UNL     1     -44.681 -54.002  12.424  1.00  0.00    -0.223 OA
ENDROOT
BRANCH   4   8
HETATM    8  C   UNL     1     -41.219 -54.046  13.337  1.00  0.00     0.181 C 
BRANCH   8   9
HETATM    9  C   UNL     1     -40.823 -52.737  13.988  1.00  0.00     0.225 C 
HETATM   10  O   UNL     1     -41.430 -52.257  14.939  1.00  0.00    -0.273 OA
HETATM   11  N   UNL     1     -39.729 -52.123  13.407  1.00  0.00    -0.356 N 
HETATM   12  H   UNL     1     -39.214 -52.635  12.702  1.00  0.00     0.162 HD
BRANCH  11  13
HETATM   13  C   UNL     1     -39.212 -50.832  13.849  1.00  0.00     0.084 C 
HETATM   14  C   UNL     1     -39.811 -49.702  13.005  1.00  0.00     0.025 C 
HETATM   15  C   UNL     1     -39.340 -49.759  11.553  1.00  0.00     0.002 C 
HETATM   16  C   UNL     1     -37.816 -49.759  11.454  1.00  0.00     0.000 C 
HETATM   17  C   UNL     1     -37.156 -50.808  12.347  1.00  0.00     0.002 C 
HETATM   18  C   UNL     1     -37.680 -50.784  13.783  1.00  0.00     0.025 C 
ENDBRANCH  11  13
ENDBRANCH   8   9
ENDBRANCH   4   8
BRANCH   1  19
HETATM   19  C   UNL     1     -45.982 -55.051  14.175  1.00  0.00     0.113 C 
BRANCH  19  20
HETATM   20  C   UNL     1     -46.769 -53.899  14.789  1.00  0.00     0.176 C 
BRANCH  20  21
HETATM   21  O   UNL     1     -45.890 -53.038  15.515  1.00  0.00    -0.386 OA
BRANCH  21  22
HETATM   22  C   UNL     1     -46.264 -51.656  15.440  1.00  0.00     0.113 C 
HETATM   23  C   UNL     1     -46.628 -51.359  13.989  1.00  0.00     0.039 C 
HETATM   24  C   UNL     1     -47.451 -51.341  16.347  1.00  0.00     0.039 C 
ENDBRANCH  21  22
ENDBRANCH  20  21
ENDBRANCH  19  20
ENDBRANCH   1  19
TORSDOF 7
ENDMDL
MODEL 2
REMARK VINA RESULT:      -5.7      3.371      4.381
REMARK  7 active torsions:
REMARK  status: ('A' for Active; 'I' for Inactive)
REMARK    1  A    between atoms: C_2  and  O_4 
REMARK    2  A    between atoms: O_4  and  C_5 
REMARK    3  A    between atoms: C_5  and  C_6 
REMARK    4  A    between atoms: C_6  and  C_7 
REMARK    5  A    between atoms: C_10  and  C_11 
REMARK    6  A    between atoms: C_11  and  C_12 
REMARK       I    between atoms: C_12  and  N_14 
REMARK    7  A    between atoms: N_14  and  C_15 
ROOT
HETATM    1  C   UNL     1     -42.474 -53.400  13.160  1.00  0.00     0.150 A 
HETATM    2  N   UNL     1     -42.439 -52.105  12.930  1.00  0.00    -0.326 N 
ATOM      3  HN  UNL     1     -43.050 -51.372  13.292  1.00  0.00     0.169 HD
HETATM    4  C   UNL     1     -41.366 -51.996  12.074  1.00  0.00     0.112 A 
HETATM    5  N   UNL     1     -40.791 -53.160  11.748  1.00  0.00    -0.247 N 
ATOM      6  HN  UNL     1     -40.009 -53.323  11.114  1.00  0.00     0.196 HD
HETATM    7  O   UNL     1     -41.518 -54.097  12.481  1.00  0.00    -0.223 OA
ENDROOT
BRANCH   4   8
HETATM    8  C   UNL     1     -40.900 -50.694  11.555  1.00  0.00     0.181 C 
BRANCH   8   9
HETATM    9  C   UNL     1     -41.800 -49.583  12.055  1.00  0.00     0.225 C 
HETATM   10  O   UNL     1     -41.952 -49.336  13.246  1.00  0.00    -0.273 OA
HETATM   11  N   UNL     1     -42.448 -48.884  11.053  1.00  0.00    -0.356 N 
HETATM   12  H   UNL     1     -42.185 -49.072  10.094  1.00  0.00     0.162 HD
BRANCH  11  13
HETATM   13  C   UNL     1     -43.397 -47.807  11.318  1.00  0.00     0.084 C 
HETATM   14  C   UNL     1     -44.494 -47.791  10.249  1.00  0.00     0.025 C 
HETATM   15  C   UNL     1     -43.950 -47.412   8.874  1.00  0.00     0.002 C 
HETATM   16  C   UNL     1     -43.210 -46.076   8.909  1.00  0.00     0.000 C 
HETATM   17  C   UNL     1     -42.162 -45.999  10.018  1.00  0.00     0.002 C 
HETATM   18  C   UNL     1     -42.701 -46.442  11.379  1.00  0.00     0.025 C 
ENDBRANCH  11  13
ENDBRANCH   8   9
ENDBRANCH   4   8
BRANCH   1  19
HETATM   19  C   UNL     1     -43.308 -54.169  14.109  1.00  0.00     0.113 C 
BRANCH  19  20
HETATM   20  C   UNL     1     -44.630 -54.530  13.440  1.00  0.00     0.176 C 
BRANCH  20  21
HETATM   21  O   UNL     1     -45.071 -53.451  12.614  1.00  0.00    -0.386 OA
BRANCH  21  22
HETATM   22  C   UNL     1     -46.213 -52.766  13.145  1.00  0.00     0.113 C 
HETATM   23  C   UNL     1     -46.649 -53.509  14.403  1.00  0.00     0.039 C 
HETATM   24  C   UNL     1     -45.895 -51.312  13.486  1.00  0.00     0.039 C 
ENDBRANCH  21  22
ENDBRANCH  20  21
ENDBRANCH  19  20
ENDBRANCH   1  19
TORSDOF 7
ENDMDL
MODEL 3
REMARK VINA RESULT:      -5.7      1.823      6.876
REMARK  7 active torsions:
REMARK  status: ('A' for Active; 'I' for Inactive)
REMARK    1  A    between atoms: C_2  and  O_4 
REMARK    2  A    between atoms: O_4  and  C_5 
REMARK    3  A    between atoms: C_5  and  C_6 
REMARK    4  A    between atoms: C_6  and  C_7 
REMARK    5  A    between atoms: C_10  and  C_11 
REMARK    6  A    between atoms: C_11  and  C_12 
REMARK       I    between atoms: C_12  and  N_14 
REMARK    7  A    between atoms: N_14  and  C_15 
ROOT
HETATM    1  C   UNL     1     -40.805 -52.017  12.493  1.00  0.00     0.150 A 
HETATM    2  N   UNL     1     -41.233 -52.251  13.714  1.00  0.00    -0.326 N 
ATOM      3  HN  UNL     1     -41.390 -51.593  14.478  1.00  0.00     0.169 HD
HETATM    4  C   UNL     1     -41.415 -53.616  13.695  1.00  0.00     0.112 A 
HETATM    5  N   UNL     1     -41.074 -54.209  12.544  1.00  0.00    -0.247 N 
ATOM      6  HN  UNL     1     -41.097 -55.203  12.314  1.00  0.00     0.196 HD
HETATM    7  O   UNL     1     -40.681 -53.144  11.736  1.00  0.00    -0.223 OA
ENDROOT
BRANCH   4   8
HETATM    8  C   UNL     1     -41.936 -54.359  14.861  1.00  0.00     0.181 C 
BRANCH   8   9
HETATM    9  C   UNL     1     -43.382 -54.743  14.629  1.00  0.00     0.225 C 
HETATM   10  O   UNL     1     -43.816 -55.868  14.852  1.00  0.00    -0.273 OA
HETATM   11  N   UNL     1     -44.167 -53.721  14.128  1.00  0.00    -0.356 N 
HETATM   12  H   UNL     1     -43.766 -52.794  14.077  1.00  0.00     0.162 HD
BRANCH  11  13
HETATM   13  C   UNL     1     -45.577 -53.891  13.788  1.00  0.00     0.084 C 
HETATM   14  C   UNL     1     -46.016 -52.814  12.790  1.00  0.00     0.025 C 
HETATM   15  C   UNL     1     -45.999 -51.418  13.408  1.00  0.00     0.002 C 
HETATM   16  C   UNL     1     -46.843 -51.354  14.680  1.00  0.00     0.000 C 
HETATM   17  C   UNL     1     -46.511 -52.463  15.677  1.00  0.00     0.002 C 
HETATM   18  C   UNL     1     -46.468 -53.850  15.035  1.00  0.00     0.025 C 
ENDBRANCH  11  13
ENDBRANCH   8   9
ENDBRANCH   4   8
BRANCH   1  19
HETATM   19  C   UNL     1     -40.553 -50.729  11.812  1.00  0.00     0.113 C 
BRANCH  19  20
HETATM   20  C   UNL     1     -39.079 -50.364  11.951  1.00  0.00     0.176 C 
BRANCH  20  21
HETATM   21  O   UNL     1     -38.418 -51.312  12.791  1.00  0.00    -0.386 OA
BRANCH  21  22
HETATM   22  C   UNL     1     -37.685 -50.702  13.862  1.00  0.00     0.113 C 
HETATM   23  C   UNL     1     -37.736 -49.192  13.648  1.00  0.00     0.039 C 
HETATM   24  C   UNL     1     -38.276 -51.052  15.225  1.00  0.00     0.039 C 
ENDBRANCH  21  22
ENDBRANCH  20  21
ENDBRANCH  19  20
ENDBRANCH   1  19
TORSDOF 7
ENDMDL
MODEL 4
REMARK VINA RESULT:      -5.7      3.724      6.960
REMARK  7 active torsions:
REMARK  status: ('A' for Active; 'I' for Inactive)
REMARK    1  A    between atoms: C_2  and  O_4 
REMARK    2  A    between atoms: O_4  and  C_5 
REMARK    3  A    between atoms: C_5  and  C_6 
REMARK    4  A    between atoms: C_6  and  C_7 
REMARK    5  A    between atoms: C_10  and  C_11 
REMARK    6  A    between atoms: C_11  and  C_12 
REMARK       I    between atoms: C_12  and  N_14 
REMARK    7  A    between atoms: N_14  and  C_15 
ROOT
HETATM    1  C   UNL     1     -41.204 -48.036  11.199  1.00  0.00     0.150 A 
HETATM    2  N   UNL     1     -41.110 -49.242  10.684  1.00  0.00    -0.326 N 
ATOM      3  HN  UNL     1     -41.066 -49.521   9.704  1.00  0.00     0.169 HD
HETATM    4  C   UNL     1     -41.088 -50.032  11.812  1.00  0.00     0.112 A 
HETATM    5  N   UNL     1     -41.211 -49.364  12.965  1.00  0.00    -0.247 N 
ATOM      6  HN  UNL     1     -41.249 -49.740  13.912  1.00  0.00     0.196 HD
HETATM    7  O   UNL     1     -41.273 -48.031  12.562  1.00  0.00    -0.223 OA
ENDROOT
BRANCH   4   8
HETATM    8  C   UNL     1     -40.951 -51.502  11.743  1.00  0.00     0.181 C 
BRANCH   8   9
HETATM    9  C   UNL     1     -41.656 -52.145  12.919  1.00  0.00     0.225 C 
HETATM   10  O   UNL     1     -41.087 -52.411  13.971  1.00  0.00    -0.273 OA
HETATM   11  N   UNL     1     -42.992 -52.422  12.697  1.00  0.00    -0.356 N 
HETATM   12  H   UNL     1     -43.417 -52.071  11.848  1.00  0.00     0.162 HD
BRANCH  11  13
HETATM   13  C   UNL     1     -43.844 -53.084  13.680  1.00  0.00     0.084 C 
HETATM   14  C   UNL     1     -45.110 -53.626  13.008  1.00  0.00     0.025 C 
HETATM   15  C   UNL     1     -46.014 -52.506  12.499  1.00  0.00     0.002 C 
HETATM   16  C   UNL     1     -46.372 -51.522  13.610  1.00  0.00     0.000 C 
HETATM   17  C   UNL     1     -45.153 -51.015  14.379  1.00  0.00     0.002 C 
HETATM   18  C   UNL     1     -44.221 -52.140  14.829  1.00  0.00     0.025 C 
ENDBRANCH  11  13
ENDBRANCH   8   9
ENDBRANCH   4   8
BRANCH   1  19
HETATM   19  C   UNL     1     -41.134 -46.717  10.534  1.00  0.00     0.113 C 
BRANCH  19  20
HETATM   20  C   UNL     1     -42.548 -46.213  10.264  1.00  0.00     0.176 C 
BRANCH  20  21
HETATM   21  O   UNL     1     -43.415 -47.315   9.990  1.00  0.00    -0.386 OA
BRANCH  21  22
HETATM   22  C   UNL     1     -44.183 -47.143   8.791  1.00  0.00     0.113 C 
HETATM   23  C   UNL     1     -43.464 -47.894   7.675  1.00  0.00     0.039 C 
HETATM   24  C   UNL     1     -45.603 -47.681   8.946  1.00  0.00     0.039 C 
ENDBRANCH  21  22
ENDBRANCH  20  21
ENDBRANCH  19  20
ENDBRANCH   1  19
TORSDOF 7
ENDMDL
MODEL 5
REMARK VINA RESULT:      -5.6      1.578      2.240
REMARK  7 active torsions:
REMARK  status: ('A' for Active; 'I' for Inactive)
REMARK    1  A    between atoms: C_2  and  O_4 
REMARK    2  A    between atoms: O_4  and  C_5 
REMARK    3  A    between atoms: C_5  and  C_6 
REMARK    4  A    between atoms: C_6  and  C_7 
REMARK    5  A    between atoms: C_10  and  C_11 
REMARK    6  A    between atoms: C_11  and  C_12 
REMARK       I    between atoms: C_12  and  N_14 
REMARK    7  A    between atoms: N_14  and  C_15 
ROOT
HETATM    1  C   UNL     1     -45.047 -52.415  12.907  1.00  0.00     0.150 A 
HETATM    2  N   UNL     1     -44.027 -51.954  13.595  1.00  0.00    -0.326 N 
ATOM      3  HN  UNL     1     -43.967 -51.113  14.170  1.00  0.00     0.169 HD
HETATM    4  C   UNL     1     -43.058 -52.899  13.338  1.00  0.00     0.112 A 
HETATM    5  N   UNL     1     -43.435 -53.870  12.498  1.00  0.00    -0.247 N 
ATOM      6  HN  UNL     1     -42.882 -54.651  12.146  1.00  0.00     0.196 HD
HETATM    7  O   UNL     1     -44.765 -53.559  12.219  1.00  0.00    -0.223 OA
ENDROOT
BRANCH   4   8
HETATM    8  C   UNL     1     -41.710 -52.831  13.939  1.00  0.00     0.181 C 
BRANCH   8   9
HETATM    9  C   UNL     1     -40.693 -52.436  12.889  1.00  0.00     0.225 C 
HETATM   10  O   UNL     1     -40.571 -53.032  11.824  1.00  0.00    -0.273 OA
HETATM   11  N   UNL     1     -39.903 -51.358  13.241  1.00  0.00    -0.356 N 
HETATM   12  H   UNL     1     -40.139 -50.850  14.084  1.00  0.00     0.162 HD
BRANCH  11  13
HETATM   13  C   UNL     1     -38.830 -50.845  12.396  1.00  0.00     0.084 C 
HETATM   14  C   UNL     1     -37.490 -50.916  13.136  1.00  0.00     0.025 C 
HETATM   15  C   UNL     1     -37.442 -49.966  14.330  1.00  0.00     0.002 C 
HETATM   16  C   UNL     1     -37.757 -48.529  13.920  1.00  0.00     0.000 C 
HETATM   17  C   UNL     1     -39.040 -48.406  13.098  1.00  0.00     0.002 C 
HETATM   18  C   UNL     1     -39.105 -49.406  11.943  1.00  0.00     0.025 C 
ENDBRANCH  11  13
ENDBRANCH   8   9
ENDBRANCH   4   8
BRANCH   1  19
HETATM   19  C   UNL     1     -46.448 -51.943  12.863  1.00  0.00     0.113 C 
BRANCH  19  20
HETATM   20  C   UNL     1     -46.829 -51.365  14.222  1.00  0.00     0.176 C 
BRANCH  20  21
HETATM   21  O   UNL     1     -46.593 -52.332  15.247  1.00  0.00    -0.386 OA
BRANCH  21  22
HETATM   22  C   UNL     1     -46.608 -51.769  16.566  1.00  0.00     0.113 C 
HETATM   23  C   UNL     1     -45.556 -50.666  16.603  1.00  0.00     0.039 C 
HETATM   24  C   UNL     1     -47.976 -51.193  16.922  1.00  0.00     0.039 C 
ENDBRANCH  21  22
ENDBRANCH  20  21
ENDBRANCH  19  20
ENDBRANCH   1  19
TORSDOF 7
ENDMDL
MODEL 6
REMARK VINA RESULT:      -5.5      1.436      2.083
REMARK  7 active torsions:
REMARK  status: ('A' for Active; 'I' for Inactive)
REMARK    1  A    between atoms: C_2  and  O_4 
REMARK    2  A    between atoms: O_4  and  C_5 
REMARK    3  A    between atoms: C_5  and  C_6 
REMARK    4  A    between atoms: C_6  and  C_7 
REMARK    5  A    between atoms: C_10  and  C_11 
REMARK    6  A    between atoms: C_11  and  C_12 
REMARK       I    between atoms: C_12  and  N_14 
REMARK    7  A    between atoms: N_14  and  C_15 
ROOT
HETATM    1  C   UNL     1     -43.970 -54.801  14.263  1.00  0.00     0.150 A 
HETATM    2  N   UNL     1     -43.079 -53.872  13.993  1.00  0.00    -0.326 N 
ATOM      3  HN  UNL     1     -43.126 -53.116  13.310  1.00  0.00     0.169 HD
HETATM    4  C   UNL     1     -42.066 -54.185  14.871  1.00  0.00     0.112 A 
HETATM    5  N   UNL     1     -42.287 -55.276  15.614  1.00  0.00    -0.247 N 
ATOM      6  HN  UNL     1     -41.671 -55.708  16.303  1.00  0.00     0.196 HD
HETATM    7  O   UNL     1     -43.562 -55.682  15.222  1.00  0.00    -0.223 OA
ENDROOT
BRANCH   4   8
HETATM    8  C   UNL     1     -40.831 -53.380  14.971  1.00  0.00     0.181 C 
BRANCH   8   9
HETATM    9  C   UNL     1     -40.395 -52.925  13.594  1.00  0.00     0.225 C 
HETATM   10  O   UNL     1     -40.403 -53.665  12.616  1.00  0.00    -0.273 OA
HETATM   11  N   UNL     1     -39.972 -51.611  13.537  1.00  0.00    -0.356 N 
HETATM   12  H   UNL     1     -40.101 -51.033  14.358  1.00  0.00     0.162 HD
BRANCH  11  13
HETATM   13  C   UNL     1     -39.465 -50.987  12.319  1.00  0.00     0.084 C 
HETATM   14  C   UNL     1     -37.993 -50.599  12.492  1.00  0.00     0.025 C 
HETATM   15  C   UNL     1     -37.811 -49.488  13.524  1.00  0.00     0.002 C 
HETATM   16  C   UNL     1     -38.657 -48.262  13.187  1.00  0.00     0.000 C 
HETATM   17  C   UNL     1     -40.121 -48.600  12.913  1.00  0.00     0.002 C 
HETATM   18  C   UNL     1     -40.292 -49.756  11.927  1.00  0.00     0.025 C 
ENDBRANCH  11  13
ENDBRANCH   8   9
ENDBRANCH   4   8
BRANCH   1  19
HETATM   19  C   UNL     1     -45.354 -54.956  13.767  1.00  0.00     0.113 C 
BRANCH  19  20
HETATM   20  C   UNL     1     -46.271 -54.003  14.526  1.00  0.00     0.176 C 
BRANCH  20  21
HETATM   21  O   UNL     1     -45.499 -52.979  15.156  1.00  0.00    -0.386 OA
BRANCH  21  22
HETATM   22  C   UNL     1     -46.075 -51.673  15.018  1.00  0.00     0.113 C 
HETATM   23  C   UNL     1     -46.509 -51.517  13.564  1.00  0.00     0.039 C 
HETATM   24  C   UNL     1     -47.276 -51.483  15.940  1.00  0.00     0.039 C 
ENDBRANCH  21  22
ENDBRANCH  20  21
ENDBRANCH  19  20
ENDBRANCH   1  19
TORSDOF 7
ENDMDL
MODEL 7
REMARK VINA RESULT:      -5.3      3.662      4.849
REMARK  7 active torsions:
REMARK  status: ('A' for Active; 'I' for Inactive)
REMARK    1  A    between atoms: C_2  and  O_4 
REMARK    2  A    between atoms: O_4  and  C_5 
REMARK    3  A    between atoms: C_5  and  C_6 
REMARK    4  A    between atoms: C_6  and  C_7 
REMARK    5  A    between atoms: C_10  and  C_11 
REMARK    6  A    between atoms: C_11  and  C_12 
REMARK       I    between atoms: C_12  and  N_14 
REMARK    7  A    between atoms: N_14  and  C_15 
ROOT
HETATM    1  C   UNL     1     -42.543 -51.705  12.595  1.00  0.00     0.150 A 
HETATM    2  N   UNL     1     -42.107 -50.464  12.570  1.00  0.00    -0.326 N 
ATOM      3  HN  UNL     1     -42.507 -49.634  13.007  1.00  0.00     0.169 HD
HETATM    4  C   UNL     1     -40.971 -50.577  11.800  1.00  0.00     0.112 A 
HETATM    5  N   UNL     1     -40.735 -51.807  11.329  1.00  0.00    -0.247 N 
ATOM      6  HN  UNL     1     -39.977 -52.116  10.721  1.00  0.00     0.196 HD
HETATM    7  O   UNL     1     -41.773 -52.565  11.869  1.00  0.00    -0.223 OA
ENDROOT
BRANCH   4   8
HETATM    8  C   UNL     1     -40.094 -49.422  11.514  1.00  0.00     0.181 C 
BRANCH   8   9
HETATM    9  C   UNL     1     -40.929 -48.221  11.124  1.00  0.00     0.225 C 
HETATM   10  O   UNL     1     -41.955 -48.312  10.460  1.00  0.00    -0.273 OA
HETATM   11  N   UNL     1     -40.425 -47.012  11.566  1.00  0.00    -0.356 N 
HETATM   12  H   UNL     1     -39.638 -47.028  12.202  1.00  0.00     0.162 HD
BRANCH  11  13
HETATM   13  C   UNL     1     -41.047 -45.728  11.259  1.00  0.00     0.084 C 
HETATM   14  C   UNL     1     -39.976 -44.646  11.087  1.00  0.00     0.025 C 
HETATM   15  C   UNL     1     -39.247 -44.347  12.394  1.00  0.00     0.002 C 
HETATM   16  C   UNL     1     -40.220 -43.971  13.510  1.00  0.00     0.000 C 
HETATM   17  C   UNL     1     -41.365 -44.970  13.669  1.00  0.00     0.002 C 
HETATM   18  C   UNL     1     -42.048 -45.311  12.344  1.00  0.00     0.025 C 
ENDBRANCH  11  13
ENDBRANCH   8   9
ENDBRANCH   4   8
BRANCH   1  19
HETATM   19  C   UNL     1     -43.655 -52.300  13.368  1.00  0.00     0.113 C 
BRANCH  19  20
HETATM   20  C   UNL     1     -44.312 -53.400  12.540  1.00  0.00     0.176 C 
BRANCH  20  21
HETATM   21  O   UNL     1     -45.732 -53.249  12.568  1.00  0.00    -0.386 OA
BRANCH  21  22
HETATM   22  C   UNL     1     -46.152 -51.879  12.626  1.00  0.00     0.113 C 
HETATM   23  C   UNL     1     -47.141 -51.655  11.486  1.00  0.00     0.039 C 
HETATM   24  C   UNL     1     -46.815 -51.545  13.959  1.00  0.00     0.039 C 
ENDBRANCH  21  22
ENDBRANCH  20  21
ENDBRANCH  19  20
ENDBRANCH   1  19
TORSDOF 7
ENDMDL
MODEL 8
REMARK VINA RESULT:      -5.1      3.844      6.626
REMARK  7 active torsions:
REMARK  status: ('A' for Active; 'I' for Inactive)
REMARK    1  A    between atoms: C_2  and  O_4 
REMARK    2  A    between atoms: O_4  and  C_5 
REMARK    3  A    between atoms: C_5  and  C_6 
REMARK    4  A    between atoms: C_6  and  C_7 
REMARK    5  A    between atoms: C_10  and  C_11 
REMARK    6  A    between atoms: C_11  and  C_12 
REMARK       I    between atoms: C_12  and  N_14 
REMARK    7  A    between atoms: N_14  and  C_15 
ROOT
HETATM    1  C   UNL     1     -40.621 -47.656  11.416  1.00  0.00     0.150 A 
HETATM    2  N   UNL     1     -40.110 -48.819  11.077  1.00  0.00    -0.326 N 
ATOM      3  HN  UNL     1     -40.424 -49.475  10.362  1.00  0.00     0.169 HD
HETATM    4  C   UNL     1     -39.038 -48.921  11.936  1.00  0.00     0.112 A 
HETATM    5  N   UNL     1     -38.914 -47.904  12.798  1.00  0.00    -0.247 N 
ATOM      6  HN  UNL     1     -38.221 -47.782  13.536  1.00  0.00     0.196 HD
HETATM    7  O   UNL     1     -39.959 -47.051  12.445  1.00  0.00    -0.223 OA
ENDROOT
BRANCH   4   8
HETATM    8  C   UNL     1     -38.112 -50.071  11.909  1.00  0.00     0.181 C 
BRANCH   8   9
HETATM    9  C   UNL     1     -38.241 -50.873  13.187  1.00  0.00     0.225 C 
HETATM   10  O   UNL     1     -37.424 -50.806  14.099  1.00  0.00    -0.273 OA
HETATM   11  N   UNL     1     -39.349 -51.698  13.230  1.00  0.00    -0.356 N 
HETATM   12  H   UNL     1     -40.035 -51.614  12.490  1.00  0.00     0.162 HD
BRANCH  11  13
HETATM   13  C   UNL     1     -39.636 -52.591  14.348  1.00  0.00     0.084 C 
HETATM   14  C   UNL     1     -39.692 -54.045  13.867  1.00  0.00     0.025 C 
HETATM   15  C   UNL     1     -40.879 -54.297  12.940  1.00  0.00     0.002 C 
HETATM   16  C   UNL     1     -42.200 -53.891  13.591  1.00  0.00     0.000 C 
HETATM   17  C   UNL     1     -42.174 -52.479  14.172  1.00  0.00     0.002 C 
HETATM   18  C   UNL     1     -40.948 -52.216  15.048  1.00  0.00     0.025 C 
ENDBRANCH  11  13
ENDBRANCH   8   9
ENDBRANCH   4   8
BRANCH   1  19
HETATM   19  C   UNL     1     -41.712 -46.883  10.785  1.00  0.00     0.113 C 
BRANCH  19  20
HETATM   20  C   UNL     1     -42.559 -47.816   9.925  1.00  0.00     0.176 C 
BRANCH  20  21
HETATM   21  O   UNL     1     -43.937 -47.449  10.017  1.00  0.00    -0.386 OA
BRANCH  21  22
HETATM   22  C   UNL     1     -44.567 -47.299   8.738  1.00  0.00     0.113 C 
HETATM   23  C   UNL     1     -43.638 -47.914   7.696  1.00  0.00     0.039 C 
HETATM   24  C   UNL     1     -45.927 -47.990   8.692  1.00  0.00     0.039 C 
ENDBRANCH  21  22
ENDBRANCH  20  21
ENDBRANCH  19  20
ENDBRANCH   1  19
TORSDOF 7
ENDMDL
MODEL 9
REMARK VINA RESULT:      -5.1      1.932      6.957
REMARK  7 active torsions:
REMARK  status: ('A' for Active; 'I' for Inactive)
REMARK    1  A    between atoms: C_2  and  O_4 
REMARK    2  A    between atoms: O_4  and  C_5 
REMARK    3  A    between atoms: C_5  and  C_6 
REMARK    4  A    between atoms: C_6  and  C_7 
REMARK    5  A    between atoms: C_10  and  C_11 
REMARK    6  A    between atoms: C_11  and  C_12 
REMARK       I    between atoms: C_12  and  N_14 
REMARK    7  A    between atoms: N_14  and  C_15 
ROOT
HETATM    1  C   UNL     1     -40.927 -53.191  13.216  1.00  0.00     0.150 A 
HETATM    2  N   UNL     1     -42.031 -53.811  13.570  1.00  0.00    -0.326 N 
ATOM      3  HN  UNL     1     -42.189 -54.443  14.355  1.00  0.00     0.169 HD
HETATM    4  C   UNL     1     -42.918 -53.386  12.606  1.00  0.00     0.112 A 
HETATM    5  N   UNL     1     -42.389 -52.585  11.673  1.00  0.00    -0.247 N 
ATOM      6  HN  UNL     1     -42.845 -52.178  10.857  1.00  0.00     0.196 HD
HETATM    7  O   UNL     1     -41.065 -52.441  12.084  1.00  0.00    -0.223 OA
ENDROOT
BRANCH   4   8
HETATM    8  C   UNL     1     -44.337 -53.797  12.604  1.00  0.00     0.181 C 
BRANCH   8   9
HETATM    9  C   UNL     1     -44.765 -54.195  14.001  1.00  0.00     0.225 C 
HETATM   10  O   UNL     1     -44.654 -55.338  14.430  1.00  0.00    -0.273 OA
HETATM   11  N   UNL     1     -45.306 -53.163  14.745  1.00  0.00    -0.356 N 
HETATM   12  H   UNL     1     -45.259 -52.226  14.365  1.00  0.00     0.162 HD
BRANCH  11  13
HETATM   13  C   UNL     1     -45.824 -53.341  16.098  1.00  0.00     0.084 C 
HETATM   14  C   UNL     1     -46.926 -52.315  16.384  1.00  0.00     0.025 C 
HETATM   15  C   UNL     1     -46.383 -50.889  16.432  1.00  0.00     0.002 C 
HETATM   16  C   UNL     1     -45.242 -50.753  17.438  1.00  0.00     0.000 C 
HETATM   17  C   UNL     1     -44.154 -51.810  17.259  1.00  0.00     0.002 C 
HETATM   18  C   UNL     1     -44.713 -53.229  17.149  1.00  0.00     0.025 C 
ENDBRANCH  11  13
ENDBRANCH   8   9
ENDBRANCH   4   8
BRANCH   1  19
HETATM   19  C   UNL     1     -39.625 -53.106  13.913  1.00  0.00     0.113 C 
BRANCH  19  20
HETATM   20  C   UNL     1     -39.062 -51.697  13.760  1.00  0.00     0.176 C 
BRANCH  20  21
HETATM   21  O   UNL     1     -37.965 -51.706  12.844  1.00  0.00    -0.386 OA
BRANCH  21  22
HETATM   22  C   UNL     1     -37.365 -50.415  12.671  1.00  0.00     0.113 C 
HETATM   23  C   UNL     1     -37.366 -50.107  11.178  1.00  0.00     0.039 C 
HETATM   24  C   UNL     1     -38.129 -49.330  13.425  1.00  0.00     0.039 C 
ENDBRANCH  21  22
ENDBRANCH  20  21
ENDBRANCH  19  20
ENDBRANCH   1  19
TORSDOF 7
ENDMDL
