MODEL 1
REMARK VINA RESULT:      -5.3      0.000      0.000
REMARK  6 active torsions:
REMARK  status: ('A' for Active; 'I' for Inactive)
REMARK    1  A    between atoms: C_2  and  C_3 
REMARK       I    between atoms: C_2  and  N_10 
REMARK    2  A    between atoms: C_3  and  C_4 
REMARK    3  A    between atoms: C_4  and  C_5 
REMARK    4  A    between atoms: N_10  and  C_11 
REMARK    5  A    between atoms: C_11  and  C_12 
REMARK    6  A    between atoms: C_12  and  N_13 
ROOT
HETATM    1  O   UNL     1     -41.338 -48.831  13.183  1.00  0.00    -0.274 OA
HETATM    2  C   UNL     1     -41.811 -49.592  12.346  1.00  0.00     0.217 C 
HETATM    3  N   UNL     1     -42.028 -49.222  11.036  1.00  0.00    -0.359 N 
HETATM    4  H   UNL     1     -42.578 -49.832  10.444  1.00  0.00     0.162 HD
ENDROOT
BRANCH   3   5
HETATM    5  C   UNL     1     -41.780 -47.865  10.578  1.00  0.00     0.143 C 
BRANCH   5   6
HETATM    6  C   UNL     1     -43.044 -47.003  10.544  1.00  0.00     0.148 C 
BRANCH   6   7
HETATM    7  N   UNL     1     -43.966 -47.436   9.516  1.00  0.00    -0.350 N 
HETATM    8  C   UNL     1     -45.313 -47.617   9.657  1.00  0.00     0.108 A 
HETATM    9  C   UNL     1     -45.744 -48.036   8.419  1.00  0.00     0.106 A 
HETATM   10  N   UNL     1     -44.694 -48.114   7.540  1.00  0.00    -0.361 N 
HETATM   11  C   UNL     1     -43.634 -47.758   8.231  1.00  0.00     0.182 A 
ATOM     12  HN  UNL     1     -44.729 -48.390   6.559  1.00  0.00     0.166 HD
ENDBRANCH   6   7
ENDBRANCH   5   6
ENDBRANCH   3   5
BRANCH   2  13
HETATM   13  C   UNL     1     -42.157 -51.038  12.648  1.00  0.00     0.103 C 
BRANCH  13  14
HETATM   14  C   UNL     1     -42.886 -51.164  13.985  1.00  0.00     0.014 C 
BRANCH  14  15
HETATM   15  C   UNL     1     -44.377 -50.831  13.879  1.00  0.00    -0.014 C 
HETATM   16  C   UNL     1     -45.083 -50.833  15.243  1.00  0.00     0.004 C 
HETATM   17  C   UNL     1     -46.497 -51.362  14.997  1.00  0.00     0.000 C 
HETATM   18  C   UNL     1     -46.615 -51.562  13.493  1.00  0.00     0.000 C 
HETATM   19  C   UNL     1     -45.186 -51.825  13.045  1.00  0.00     0.004 C 
ENDBRANCH  14  15
ENDBRANCH  13  14
ENDBRANCH   2  13
TORSDOF 6
ENDMDL
MODEL 2
REMARK VINA RESULT:      -5.3      2.910      4.268
REMARK  6 active torsions:
REMARK  status: ('A' for Active; 'I' for Inactive)
REMARK    1  A    between atoms: C_2  and  C_3 
REMARK       I    between atoms: C_2  and  N_10 
REMARK    2  A    between atoms: C_3  and  C_4 
REMARK    3  A    between atoms: C_4  and  C_5 
REMARK    4  A    between atoms: N_10  and  C_11 
REMARK    5  A    between atoms: C_11  and  C_12 
REMARK    6  A    between atoms: C_12  and  N_13 
ROOT
HETATM    1  O   UNL     1     -42.536 -54.333  14.105  1.00  0.00    -0.274 OA
HETATM    2  C   UNL     1     -43.008 -53.837  13.087  1.00  0.00     0.217 C 
HETATM    3  N   UNL     1     -42.265 -53.078  12.210  1.00  0.00    -0.359 N 
HETATM    4  H   UNL     1     -42.748 -52.556  11.489  1.00  0.00     0.162 HD
ENDROOT
BRANCH   3   5
HETATM    5  C   UNL     1     -40.875 -52.746  12.480  1.00  0.00     0.143 C 
BRANCH   5   6
HETATM    6  C   UNL     1     -40.701 -51.368  13.121  1.00  0.00     0.148 C 
BRANCH   6   7
HETATM    7  N   UNL     1     -41.078 -50.300  12.218  1.00  0.00    -0.350 N 
HETATM    8  C   UNL     1     -42.182 -49.503  12.321  1.00  0.00     0.108 A 
HETATM    9  C   UNL     1     -42.108 -48.657  11.237  1.00  0.00     0.106 A 
HETATM   10  N   UNL     1     -40.991 -48.926  10.487  1.00  0.00    -0.361 N 
HETATM   11  C   UNL     1     -40.396 -49.928  11.096  1.00  0.00     0.182 A 
ATOM     12  HN  UNL     1     -40.688 -48.450   9.638  1.00  0.00     0.166 HD
ENDBRANCH   6   7
ENDBRANCH   5   6
ENDBRANCH   3   5
BRANCH   2  13
HETATM   13  C   UNL     1     -44.447 -54.052  12.656  1.00  0.00     0.103 C 
BRANCH  13  14
HETATM   14  C   UNL     1     -45.269 -54.694  13.774  1.00  0.00     0.014 C 
BRANCH  14  15
HETATM   15  C   UNL     1     -46.331 -53.749  14.343  1.00  0.00    -0.014 C 
HETATM   16  C   UNL     1     -46.489 -52.467  13.513  1.00  0.00     0.004 C 
HETATM   17  C   UNL     1     -46.803 -51.346  14.505  1.00  0.00     0.000 C 
HETATM   18  C   UNL     1     -46.917 -52.011  15.869  1.00  0.00     0.000 C 
HETATM   19  C   UNL     1     -46.028 -53.239  15.752  1.00  0.00     0.004 C 
ENDBRANCH  14  15
ENDBRANCH  13  14
ENDBRANCH   2  13
TORSDOF 6
ENDMDL
MODEL 3
REMARK VINA RESULT:      -5.2      3.981      5.327
REMARK  6 active torsions:
REMARK  status: ('A' for Active; 'I' for Inactive)
REMARK    1  A    between atoms: C_2  and  C_3 
REMARK       I    between atoms: C_2  and  N_10 
REMARK    2  A    between atoms: C_3  and  C_4 
REMARK    3  A    between atoms: C_4  and  C_5 
REMARK    4  A    between atoms: N_10  and  C_11 
REMARK    5  A    between atoms: C_11  and  C_12 
REMARK    6  A    between atoms: C_12  and  N_13 
ROOT
HETATM    1  O   UNL     1     -43.288 -53.178  12.566  1.00  0.00    -0.274 OA
HETATM    2  C   UNL     1     -42.971 -53.925  13.485  1.00  0.00     0.217 C 
HETATM    3  N   UNL     1     -41.661 -54.139  13.858  1.00  0.00    -0.359 N 
HETATM    4  H   UNL     1     -41.457 -54.893  14.501  1.00  0.00     0.162 HD
ENDROOT
BRANCH   3   5
HETATM    5  C   UNL     1     -40.556 -53.545  13.124  1.00  0.00     0.143 C 
BRANCH   5   6
HETATM    6  C   UNL     1     -40.071 -52.228  13.731  1.00  0.00     0.148 C 
BRANCH   6   7
HETATM    7  N   UNL     1     -39.667 -51.279  12.714  1.00  0.00    -0.350 N 
HETATM    8  C   UNL     1     -38.420 -50.747  12.549  1.00  0.00     0.108 A 
HETATM    9  C   UNL     1     -38.537 -49.902  11.469  1.00  0.00     0.106 A 
HETATM   10  N   UNL     1     -39.820 -49.910  10.983  1.00  0.00    -0.361 N 
HETATM   11  C   UNL     1     -40.481 -50.740  11.759  1.00  0.00     0.182 A 
ATOM     12  HN  UNL     1     -40.183 -49.385  10.189  1.00  0.00     0.166 HD
ENDBRANCH   6   7
ENDBRANCH   5   6
ENDBRANCH   3   5
BRANCH   2  13
HETATM   13  C   UNL     1     -43.987 -54.652  14.346  1.00  0.00     0.103 C 
BRANCH  13  14
HETATM   14  C   UNL     1     -45.352 -54.708  13.661  1.00  0.00     0.014 C 
BRANCH  14  15
HETATM   15  C   UNL     1     -46.373 -53.762  14.300  1.00  0.00    -0.014 C 
HETATM   16  C   UNL     1     -46.496 -52.429  13.547  1.00  0.00     0.004 C 
HETATM   17  C   UNL     1     -46.758 -51.358  14.608  1.00  0.00     0.000 C 
HETATM   18  C   UNL     1     -46.879 -52.097  15.932  1.00  0.00     0.000 C 
HETATM   19  C   UNL     1     -46.036 -53.347  15.731  1.00  0.00     0.004 C 
ENDBRANCH  14  15
ENDBRANCH  13  14
ENDBRANCH   2  13
TORSDOF 6
ENDMDL
MODEL 4
REMARK VINA RESULT:      -5.0      2.447      3.301
REMARK  6 active torsions:
REMARK  status: ('A' for Active; 'I' for Inactive)
REMARK    1  A    between atoms: C_2  and  C_3 
REMARK       I    between atoms: C_2  and  N_10 
REMARK    2  A    between atoms: C_3  and  C_4 
REMARK    3  A    between atoms: C_4  and  C_5 
REMARK    4  A    between atoms: N_10  and  C_11 
REMARK    5  A    between atoms: C_11  and  C_12 
REMARK    6  A    between atoms: C_12  and  N_13 
ROOT
HETATM    1  O   UNL     1     -39.907 -52.148  12.830  1.00  0.00    -0.274 OA
HETATM    2  C   UNL     1     -40.930 -51.907  12.198  1.00  0.00     0.217 C 
HETATM    3  N   UNL     1     -41.037 -50.851  11.319  1.00  0.00    -0.359 N 
HETATM    4  H   UNL     1     -41.952 -50.604  10.966  1.00  0.00     0.162 HD
ENDROOT
BRANCH   3   5
HETATM    5  C   UNL     1     -39.954 -49.897  11.143  1.00  0.00     0.143 C 
BRANCH   5   6
HETATM    6  C   UNL     1     -40.101 -48.654  12.022  1.00  0.00     0.148 C 
BRANCH   6   7
HETATM    7  N   UNL     1     -40.562 -47.508  11.265  1.00  0.00    -0.350 N 
HETATM    8  C   UNL     1     -39.985 -46.270  11.235  1.00  0.00     0.108 A 
HETATM    9  C   UNL     1     -40.783 -45.530  10.392  1.00  0.00     0.106 A 
HETATM   10  N   UNL     1     -41.823 -46.289   9.918  1.00  0.00    -0.361 N 
HETATM   11  C   UNL     1     -41.671 -47.472  10.470  1.00  0.00     0.182 A 
ATOM     12  HN  UNL     1     -42.558 -45.996   9.275  1.00  0.00     0.166 HD
ENDBRANCH   6   7
ENDBRANCH   5   6
ENDBRANCH   3   5
BRANCH   2  13
HETATM   13  C   UNL     1     -42.171 -52.778  12.275  1.00  0.00     0.103 C 
BRANCH  13  14
HETATM   14  C   UNL     1     -42.657 -52.922  13.716  1.00  0.00     0.014 C 
BRANCH  14  15
HETATM   15  C   UNL     1     -44.178 -52.797  13.842  1.00  0.00    -0.014 C 
HETATM   16  C   UNL     1     -44.914 -53.202  12.556  1.00  0.00     0.004 C 
HETATM   17  C   UNL     1     -46.135 -52.285  12.451  1.00  0.00     0.000 C 
HETATM   18  C   UNL     1     -46.137 -51.441  13.716  1.00  0.00     0.000 C 
HETATM   19  C   UNL     1     -44.671 -51.376  14.116  1.00  0.00     0.004 C 
ENDBRANCH  14  15
ENDBRANCH  13  14
ENDBRANCH   2  13
TORSDOF 6
ENDMDL
MODEL 5
REMARK VINA RESULT:      -4.8      3.701      5.326
REMARK  6 active torsions:
REMARK  status: ('A' for Active; 'I' for Inactive)
REMARK    1  A    between atoms: C_2  and  C_3 
REMARK       I    between atoms: C_2  and  N_10 
REMARK    2  A    between atoms: C_3  and  C_4 
REMARK    3  A    between atoms: C_4  and  C_5 
REMARK    4  A    between atoms: N_10  and  C_11 
REMARK    5  A    between atoms: C_11  and  C_12 
REMARK    6  A    between atoms: C_12  and  N_13 
ROOT
HETATM    1  O   UNL     1     -44.458 -55.104  15.209  1.00  0.00    -0.274 OA
HETATM    2  C   UNL     1     -44.844 -54.334  14.337  1.00  0.00     0.217 C 
HETATM    3  N   UNL     1     -44.004 -53.801  13.384  1.00  0.00    -0.359 N 
HETATM    4  H   UNL     1     -44.344 -53.042  12.806  1.00  0.00     0.162 HD
ENDROOT
BRANCH   3   5
HETATM    5  C   UNL     1     -42.573 -54.060  13.401  1.00  0.00     0.143 C 
BRANCH   5   6
HETATM    6  C   UNL     1     -41.763 -52.913  14.007  1.00  0.00     0.148 C 
BRANCH   6   7
HETATM    7  N   UNL     1     -41.516 -51.859  13.045  1.00  0.00    -0.350 N 
HETATM    8  C   UNL     1     -40.324 -51.574  12.441  1.00  0.00     0.108 A 
HETATM    9  C   UNL     1     -40.590 -50.496  11.629  1.00  0.00     0.106 A 
HETATM   10  N   UNL     1     -41.906 -50.124  11.730  1.00  0.00    -0.361 N 
HETATM   11  C   UNL     1     -42.437 -50.955  12.599  1.00  0.00     0.182 A 
ATOM     12  HN  UNL     1     -42.373 -49.364  11.236  1.00  0.00     0.166 HD
ENDBRANCH   6   7
ENDBRANCH   5   6
ENDBRANCH   3   5
BRANCH   2  13
HETATM   13  C   UNL     1     -46.298 -53.927  14.180  1.00  0.00     0.103 C 
BRANCH  13  14
HETATM   14  C   UNL     1     -46.418 -52.523  13.589  1.00  0.00     0.014 C 
BRANCH  14  15
HETATM   15  C   UNL     1     -46.597 -51.444  14.662  1.00  0.00    -0.014 C 
HETATM   16  C   UNL     1     -45.259 -50.904  15.187  1.00  0.00     0.004 C 
HETATM   17  C   UNL     1     -45.470 -50.599  16.672  1.00  0.00     0.000 C 
HETATM   18  C   UNL     1     -46.939 -50.874  16.953  1.00  0.00     0.000 C 
HETATM   19  C   UNL     1     -47.320 -51.924  15.921  1.00  0.00     0.004 C 
ENDBRANCH  14  15
ENDBRANCH  13  14
ENDBRANCH   2  13
TORSDOF 6
ENDMDL
MODEL 6
REMARK VINA RESULT:      -4.8      1.433      2.178
REMARK  6 active torsions:
REMARK  status: ('A' for Active; 'I' for Inactive)
REMARK    1  A    between atoms: C_2  and  C_3 
REMARK       I    between atoms: C_2  and  N_10 
REMARK    2  A    between atoms: C_3  and  C_4 
REMARK    3  A    between atoms: C_4  and  C_5 
REMARK    4  A    between atoms: N_10  and  C_11 
REMARK    5  A    between atoms: C_11  and  C_12 
REMARK    6  A    between atoms: C_12  and  N_13 
ROOT
HETATM    1  O   UNL     1     -42.872 -49.518  14.428  1.00  0.00    -0.274 OA
HETATM    2  C   UNL     1     -43.458 -49.994  13.462  1.00  0.00     0.217 C 
HETATM    3  N   UNL     1     -43.304 -49.513  12.180  1.00  0.00    -0.359 N 
HETATM    4  H   UNL     1     -43.942 -49.832  11.461  1.00  0.00     0.162 HD
ENDROOT
BRANCH   3   5
HETATM    5  C   UNL     1     -42.486 -48.344  11.900  1.00  0.00     0.143 C 
BRANCH   5   6
HETATM    6  C   UNL     1     -43.289 -47.171  11.335  1.00  0.00     0.148 C 
BRANCH   6   7
HETATM    7  N   UNL     1     -43.768 -47.440   9.995  1.00  0.00    -0.350 N 
HETATM    8  C   UNL     1     -43.000 -47.636   8.883  1.00  0.00     0.108 A 
HETATM    9  C   UNL     1     -43.902 -47.843   7.864  1.00  0.00     0.106 A 
HETATM   10  N   UNL     1     -45.189 -47.774   8.333  1.00  0.00    -0.361 N 
HETATM   11  C   UNL     1     -45.078 -47.519   9.617  1.00  0.00     0.182 A 
ATOM     12  HN  UNL     1     -46.049 -47.895   7.798  1.00  0.00     0.166 HD
ENDBRANCH   6   7
ENDBRANCH   5   6
ENDBRANCH   3   5
BRANCH   2  13
HETATM   13  C   UNL     1     -44.374 -51.200  13.566  1.00  0.00     0.103 C 
BRANCH  13  14
HETATM   14  C   UNL     1     -44.604 -51.595  15.024  1.00  0.00     0.014 C 
BRANCH  14  15
HETATM   15  C   UNL     1     -45.833 -50.915  15.634  1.00  0.00    -0.014 C 
HETATM   16  C   UNL     1     -45.601 -50.462  17.083  1.00  0.00     0.004 C 
HETATM   17  C   UNL     1     -46.935 -50.645  17.810  1.00  0.00     0.000 C 
HETATM   18  C   UNL     1     -47.931 -51.102  16.755  1.00  0.00     0.000 C 
HETATM   19  C   UNL     1     -47.069 -51.810  15.721  1.00  0.00     0.004 C 
ENDBRANCH  14  15
ENDBRANCH  13  14
ENDBRANCH   2  13
TORSDOF 6
ENDMDL
MODEL 7
REMARK VINA RESULT:      -4.7      2.307      2.828
REMARK  6 active torsions:
REMARK  status: ('A' for Active; 'I' for Inactive)
REMARK    1  A    between atoms: C_2  and  C_3 
REMARK       I    between atoms: C_2  and  N_10 
REMARK    2  A    between atoms: C_3  and  C_4 
REMARK    3  A    between atoms: C_4  and  C_5 
REMARK    4  A    between atoms: N_10  and  C_11 
REMARK    5  A    between atoms: C_11  and  C_12 
REMARK    6  A    between atoms: C_12  and  N_13 
ROOT
HETATM    1  O   UNL     1     -40.688 -49.428  13.552  1.00  0.00    -0.274 OA
HETATM    2  C   UNL     1     -40.983 -50.271  12.711  1.00  0.00     0.217 C 
HETATM    3  N   UNL     1     -41.485 -49.945  11.470  1.00  0.00    -0.359 N 
HETATM    4  H   UNL     1     -41.870 -50.683  10.893  1.00  0.00     0.162 HD
ENDROOT
BRANCH   3   5
HETATM    5  C   UNL     1     -41.775 -48.568  11.104  1.00  0.00     0.143 C 
BRANCH   5   6
HETATM    6  C   UNL     1     -43.236 -48.181  11.336  1.00  0.00     0.148 C 
BRANCH   6   7
HETATM    7  N   UNL     1     -43.740 -47.318  10.288  1.00  0.00    -0.350 N 
HETATM    8  C   UNL     1     -43.137 -46.193   9.803  1.00  0.00     0.108 A 
HETATM    9  C   UNL     1     -43.996 -45.721   8.836  1.00  0.00     0.106 A 
HETATM   10  N   UNL     1     -45.097 -46.531   8.728  1.00  0.00    -0.361 N 
HETATM   11  C   UNL     1     -44.922 -47.479   9.623  1.00  0.00     0.182 A 
ATOM     12  HN  UNL     1     -45.885 -46.422   8.090  1.00  0.00     0.166 HD
ENDBRANCH   6   7
ENDBRANCH   5   6
ENDBRANCH   3   5
BRANCH   2  13
HETATM   13  C   UNL     1     -40.775 -51.758  12.926  1.00  0.00     0.103 C 
BRANCH  13  14
HETATM   14  C   UNL     1     -41.896 -52.572  12.280  1.00  0.00     0.014 C 
BRANCH  14  15
HETATM   15  C   UNL     1     -42.230 -53.844  13.065  1.00  0.00    -0.014 C 
HETATM   16  C   UNL     1     -43.741 -54.040  13.259  1.00  0.00     0.004 C 
HETATM   17  C   UNL     1     -43.919 -54.684  14.635  1.00  0.00     0.000 C 
HETATM   18  C   UNL     1     -42.516 -54.936  15.166  1.00  0.00     0.000 C 
HETATM   19  C   UNL     1     -41.670 -53.871  14.487  1.00  0.00     0.004 C 
ENDBRANCH  14  15
ENDBRANCH  13  14
ENDBRANCH   2  13
TORSDOF 6
ENDMDL
MODEL 8
REMARK VINA RESULT:      -4.6      3.094      4.288
REMARK  6 active torsions:
REMARK  status: ('A' for Active; 'I' for Inactive)
REMARK    1  A    between atoms: C_2  and  C_3 
REMARK       I    between atoms: C_2  and  N_10 
REMARK    2  A    between atoms: C_3  and  C_4 
REMARK    3  A    between atoms: C_4  and  C_5 
REMARK    4  A    between atoms: N_10  and  C_11 
REMARK    5  A    between atoms: C_11  and  C_12 
REMARK    6  A    between atoms: C_12  and  N_13 
ROOT
HETATM    1  O   UNL     1     -40.537 -53.203  12.052  1.00  0.00    -0.274 OA
HETATM    2  C   UNL     1     -40.537 -53.133  13.276  1.00  0.00     0.217 C 
HETATM    3  N   UNL     1     -39.837 -52.171  13.972  1.00  0.00    -0.359 N 
HETATM    4  H   UNL     1     -39.736 -52.274  14.974  1.00  0.00     0.162 HD
ENDROOT
BRANCH   3   5
HETATM    5  C   UNL     1     -38.980 -51.214  13.291  1.00  0.00     0.143 C 
BRANCH   5   6
HETATM    6  C   UNL     1     -39.402 -49.762  13.521  1.00  0.00     0.148 C 
BRANCH   6   7
HETATM    7  N   UNL     1     -40.108 -49.216  12.380  1.00  0.00    -0.350 N 
HETATM    8  C   UNL     1     -40.688 -47.983  12.299  1.00  0.00     0.108 A 
HETATM    9  C   UNL     1     -41.235 -47.933  11.037  1.00  0.00     0.106 A 
HETATM   10  N   UNL     1     -41.001 -49.103  10.360  1.00  0.00    -0.361 N 
HETATM   11  C   UNL     1     -40.330 -49.862  11.198  1.00  0.00     0.182 A 
ATOM     12  HN  UNL     1     -41.287 -49.334   9.409  1.00  0.00     0.166 HD
ENDBRANCH   6   7
ENDBRANCH   5   6
ENDBRANCH   3   5
BRANCH   2  13
HETATM   13  C   UNL     1     -41.351 -54.065  14.155  1.00  0.00     0.103 C 
BRANCH  13  14
HETATM   14  C   UNL     1     -42.215 -53.280  15.141  1.00  0.00     0.014 C 
BRANCH  14  15
HETATM   15  C   UNL     1     -43.714 -53.516  14.930  1.00  0.00    -0.014 C 
HETATM   16  C   UNL     1     -44.051 -54.993  14.678  1.00  0.00     0.004 C 
HETATM   17  C   UNL     1     -45.217 -55.005  13.686  1.00  0.00     0.000 C 
HETATM   18  C   UNL     1     -45.594 -53.549  13.462  1.00  0.00     0.000 C 
HETATM   19  C   UNL     1     -44.300 -52.792  13.718  1.00  0.00     0.004 C 
ENDBRANCH  14  15
ENDBRANCH  13  14
ENDBRANCH   2  13
TORSDOF 6
ENDMDL
MODEL 9
REMARK VINA RESULT:      -4.6      2.857      6.359
REMARK  6 active torsions:
REMARK  status: ('A' for Active; 'I' for Inactive)
REMARK    1  A    between atoms: C_2  and  C_3 
REMARK       I    between atoms: C_2  and  N_10 
REMARK    2  A    between atoms: C_3  and  C_4 
REMARK    3  A    between atoms: C_4  and  C_5 
REMARK    4  A    between atoms: N_10  and  C_11 
REMARK    5  A    between atoms: C_11  and  C_12 
REMARK    6  A    between atoms: C_12  and  N_13 
ROOT
HETATM    1  O   UNL     1     -43.252 -49.597  13.882  1.00  0.00    -0.274 OA
HETATM    2  C   UNL     1     -42.782 -49.875  12.784  1.00  0.00     0.217 C 
HETATM    3  N   UNL     1     -42.678 -51.168  12.320  1.00  0.00    -0.359 N 
HETATM    4  H   UNL     1     -42.125 -51.343  11.489  1.00  0.00     0.162 HD
ENDROOT
BRANCH   3   5
HETATM    5  C   UNL     1     -43.050 -52.305  13.146  1.00  0.00     0.143 C 
BRANCH   5   6
HETATM    6  C   UNL     1     -43.984 -53.285  12.433  1.00  0.00     0.148 C 
BRANCH   6   7
HETATM    7  N   UNL     1     -45.106 -53.665  13.265  1.00  0.00    -0.350 N 
HETATM    8  C   UNL     1     -45.287 -54.870  13.882  1.00  0.00     0.108 A 
HETATM    9  C   UNL     1     -46.490 -54.752  14.540  1.00  0.00     0.106 A 
HETATM   10  N   UNL     1     -47.037 -53.511  14.333  1.00  0.00    -0.361 N 
HETATM   11  C   UNL     1     -46.187 -52.882  13.552  1.00  0.00     0.182 A 
ATOM     12  HN  UNL     1     -47.916 -53.153  14.706  1.00  0.00     0.166 HD
ENDBRANCH   6   7
ENDBRANCH   5   6
ENDBRANCH   3   5
BRANCH   2  13
HETATM   13  C   UNL     1     -42.316 -48.822  11.797  1.00  0.00     0.103 C 
BRANCH  13  14
HETATM   14  C   UNL     1     -42.950 -47.464  12.096  1.00  0.00     0.014 C 
BRANCH  14  15
HETATM   15  C   UNL     1     -43.544 -46.802  10.849  1.00  0.00    -0.014 C 
HETATM   16  C   UNL     1     -44.584 -47.687  10.147  1.00  0.00     0.004 C 
HETATM   17  C   UNL     1     -44.437 -47.420   8.648  1.00  0.00     0.000 C 
HETATM   18  C   UNL     1     -43.391 -46.323   8.517  1.00  0.00     0.000 C 
HETATM   19  C   UNL     1     -42.523 -46.495   9.753  1.00  0.00     0.004 C 
ENDBRANCH  14  15
ENDBRANCH  13  14
ENDBRANCH   2  13
TORSDOF 6
ENDMDL
