MODEL 1
REMARK VINA RESULT:      -6.4      0.000      0.000
REMARK  4 active torsions:
REMARK  status: ('A' for Active; 'I' for Inactive)
REMARK    1  A    between atoms: C_2  and  C_3 
REMARK       I    between atoms: C_2  and  N_16 
REMARK    2  A    between atoms: C_3  and  C_4 
REMARK    3  A    between atoms: C_4  and  N_5 
REMARK       I    between atoms: N_5  and  C_6 
REMARK       I    between atoms: C_6  and  N_8 
REMARK    4  A    between atoms: N_8  and  C_9 
ROOT
HETATM    1  N   UNL     1     -41.677 -52.953  12.080  1.00  0.00    -0.342 N 
HETATM    2  C   UNL     1     -41.673 -51.583  12.233  1.00  0.00     0.322 C 
HETATM    3  O   UNL     1     -42.297 -51.038  13.132  1.00  0.00    -0.247 OA
HETATM    4  N   UNL     1     -40.880 -50.978  11.294  1.00  0.00    -0.288 N 
HETATM    5  H   UNL     1     -41.570 -53.322  11.145  1.00  0.00     0.164 HD
HETATM    6  H   UNL     1     -40.198 -51.546  10.814  1.00  0.00     0.172 HD
ENDROOT
BRANCH   1   7
HETATM    7  C   UNL     1     -42.429 -53.799  12.997  1.00  0.00     0.133 C 
BRANCH   7   8
HETATM    8  C   UNL     1     -43.875 -54.023  12.565  1.00  0.00     0.122 C 
BRANCH   8   9
HETATM    9  C   UNL     1     -44.771 -54.296  13.758  1.00  0.00     0.221 C 
HETATM   10  O   UNL     1     -44.686 -55.338  14.408  1.00  0.00    -0.273 OA
HETATM   11  N   UNL     1     -45.704 -53.328  14.056  1.00  0.00    -0.352 N 
HETATM   12  C   UNL     1     -46.689 -53.538  15.104  1.00  0.00     0.126 C 
HETATM   13  C   UNL     1     -45.682 -51.938  13.636  1.00  0.00     0.126 C 
HETATM   14  C   UNL     1     -47.216 -52.150  15.446  1.00  0.00     0.021 C 
HETATM   15  C   UNL     1     -46.162 -51.206  14.878  1.00  0.00     0.021 C 
ENDBRANCH   8   9
ENDBRANCH   7   8
ENDBRANCH   1   7
BRANCH   4  16
HETATM   16  C   UNL     1     -40.651 -49.625  11.204  1.00  0.00     0.168 A 
HETATM   17  N   UNL     1     -41.297 -48.846  10.362  1.00  0.00    -0.279 N 
HETATM   18  N   UNL     1     -40.874 -47.531  10.437  1.00  0.00    -0.303 N 
ATOM     19  HN  UNL     1     -42.025 -49.174   9.727  1.00  0.00     0.189 HD
HETATM   20  C   UNL     1     -39.954 -47.372  11.363  1.00  0.00     0.160 A 
ATOM     21  HN  UNL     1     -41.232 -46.779   9.849  1.00  0.00     0.186 HD
HETATM   22  S   UNL     1     -39.551 -48.799  12.217  1.00  0.00    -0.046 SA
ENDBRANCH   4  16
TORSDOF 4
ENDMDL
MODEL 2
REMARK VINA RESULT:      -6.3      1.928      2.234
REMARK  4 active torsions:
REMARK  status: ('A' for Active; 'I' for Inactive)
REMARK    1  A    between atoms: C_2  and  C_3 
REMARK       I    between atoms: C_2  and  N_16 
REMARK    2  A    between atoms: C_3  and  C_4 
REMARK    3  A    between atoms: C_4  and  N_5 
REMARK       I    between atoms: N_5  and  C_6 
REMARK       I    between atoms: C_6  and  N_8 
REMARK    4  A    between atoms: N_8  and  C_9 
ROOT
HETATM    1  N   UNL     1     -41.944 -51.492  11.762  1.00  0.00    -0.342 N 
HETATM    2  C   UNL     1     -41.218 -50.319  11.748  1.00  0.00     0.322 C 
HETATM    3  O   UNL     1     -40.116 -50.244  12.270  1.00  0.00    -0.247 OA
HETATM    4  N   UNL     1     -41.880 -49.330  11.070  1.00  0.00    -0.288 N 
HETATM    5  H   UNL     1     -42.953 -51.420  11.759  1.00  0.00     0.164 HD
HETATM    6  H   UNL     1     -42.623 -49.602  10.444  1.00  0.00     0.172 HD
ENDROOT
BRANCH   1   7
HETATM    7  C   UNL     1     -41.411 -52.686  12.401  1.00  0.00     0.133 C 
BRANCH   7   8
HETATM    8  C   UNL     1     -42.413 -53.380  13.319  1.00  0.00     0.122 C 
BRANCH   8   9
HETATM    9  C   UNL     1     -43.164 -52.378  14.174  1.00  0.00     0.221 C 
HETATM   10  O   UNL     1     -42.581 -51.634  14.964  1.00  0.00    -0.273 OA
HETATM   11  N   UNL     1     -44.534 -52.364  14.041  1.00  0.00    -0.352 N 
HETATM   12  C   UNL     1     -45.359 -51.526  14.896  1.00  0.00     0.126 C 
HETATM   13  C   UNL     1     -45.306 -52.893  12.930  1.00  0.00     0.126 C 
HETATM   14  C   UNL     1     -46.703 -51.425  14.184  1.00  0.00     0.021 C 
HETATM   15  C   UNL     1     -46.393 -51.846  12.752  1.00  0.00     0.021 C 
ENDBRANCH   8   9
ENDBRANCH   7   8
ENDBRANCH   1   7
BRANCH   4  16
HETATM   16  C   UNL     1     -41.402 -48.058  10.860  1.00  0.00     0.168 A 
HETATM   17  N   UNL     1     -40.116 -47.777  10.817  1.00  0.00    -0.279 N 
HETATM   18  N   UNL     1     -39.883 -46.427  10.624  1.00  0.00    -0.303 N 
ATOM     19  HN  UNL     1     -39.378 -48.473  10.916  1.00  0.00     0.189 HD
HETATM   20  C   UNL     1     -41.007 -45.758  10.490  1.00  0.00     0.160 A 
ATOM     21  HN  UNL     1     -38.956 -46.004  10.589  1.00  0.00     0.186 HD
HETATM   22  S   UNL     1     -42.420 -46.718  10.572  1.00  0.00    -0.046 SA
ENDBRANCH   4  16
TORSDOF 4
ENDMDL
MODEL 3
REMARK VINA RESULT:      -6.2      1.436      2.005
REMARK  4 active torsions:
REMARK  status: ('A' for Active; 'I' for Inactive)
REMARK    1  A    between atoms: C_2  and  C_3 
REMARK       I    between atoms: C_2  and  N_16 
REMARK    2  A    between atoms: C_3  and  C_4 
REMARK    3  A    between atoms: C_4  and  N_5 
REMARK       I    between atoms: N_5  and  C_6 
REMARK       I    between atoms: C_6  and  N_8 
REMARK    4  A    between atoms: N_8  and  C_9 
ROOT
HETATM    1  N   UNL     1     -41.791 -54.276  13.886  1.00  0.00    -0.342 N 
HETATM    2  C   UNL     1     -41.534 -52.946  13.630  1.00  0.00     0.322 C 
HETATM    3  O   UNL     1     -41.977 -52.060  14.346  1.00  0.00    -0.247 OA
HETATM    4  N   UNL     1     -40.725 -52.795  12.534  1.00  0.00    -0.288 N 
HETATM    5  H   UNL     1     -41.825 -54.908  13.098  1.00  0.00     0.164 HD
HETATM    6  H   UNL     1     -40.196 -53.595  12.224  1.00  0.00     0.172 HD
ENDROOT
BRANCH   1   7
HETATM    7  C   UNL     1     -42.602 -54.668  15.030  1.00  0.00     0.133 C 
BRANCH   7   8
HETATM    8  C   UNL     1     -43.987 -55.177  14.643  1.00  0.00     0.122 C 
BRANCH   8   9
HETATM    9  C   UNL     1     -44.665 -54.241  13.660  1.00  0.00     0.221 C 
HETATM   10  O   UNL     1     -44.637 -54.446  12.446  1.00  0.00    -0.273 OA
HETATM   11  N   UNL     1     -45.287 -53.136  14.196  1.00  0.00    -0.352 N 
HETATM   12  C   UNL     1     -45.864 -52.115  13.338  1.00  0.00     0.126 C 
HETATM   13  C   UNL     1     -45.711 -52.958  15.574  1.00  0.00     0.126 C 
HETATM   14  C   UNL     1     -46.820 -51.332  14.231  1.00  0.00     0.021 C 
HETATM   15  C   UNL     1     -47.050 -52.257  15.422  1.00  0.00     0.021 C 
ENDBRANCH   8   9
ENDBRANCH   7   8
ENDBRANCH   1   7
BRANCH   4  16
HETATM   16  C   UNL     1     -40.271 -51.592  12.046  1.00  0.00     0.168 A 
HETATM   17  N   UNL     1     -40.799 -51.005  10.992  1.00  0.00    -0.279 N 
HETATM   18  N   UNL     1     -40.155 -49.822  10.678  1.00  0.00    -0.303 N 
ATOM     19  HN  UNL     1     -41.590 -51.378  10.468  1.00  0.00     0.189 HD
HETATM   20  C   UNL     1     -39.195 -49.552  11.534  1.00  0.00     0.160 A 
ATOM     21  HN  UNL     1     -40.395 -49.232   9.881  1.00  0.00     0.186 HD
HETATM   22  S   UNL     1     -39.018 -50.702  12.788  1.00  0.00    -0.046 SA
ENDBRANCH   4  16
TORSDOF 4
ENDMDL
MODEL 4
REMARK VINA RESULT:      -5.8      3.018      4.402
REMARK  4 active torsions:
REMARK  status: ('A' for Active; 'I' for Inactive)
REMARK    1  A    between atoms: C_2  and  C_3 
REMARK       I    between atoms: C_2  and  N_16 
REMARK    2  A    between atoms: C_3  and  C_4 
REMARK    3  A    between atoms: C_4  and  N_5 
REMARK       I    between atoms: N_5  and  C_6 
REMARK       I    between atoms: C_6  and  N_8 
REMARK    4  A    between atoms: N_8  and  C_9 
ROOT
HETATM    1  N   UNL     1     -42.924 -50.824  12.289  1.00  0.00    -0.342 N 
HETATM    2  C   UNL     1     -42.194 -49.655  12.318  1.00  0.00     0.322 C 
HETATM    3  O   UNL     1     -41.541 -49.334  13.300  1.00  0.00    -0.247 OA
HETATM    4  N   UNL     1     -42.291 -48.976  11.131  1.00  0.00    -0.288 N 
HETATM    5  H   UNL     1     -43.762 -50.842  11.722  1.00  0.00     0.164 HD
HETATM    6  H   UNL     1     -42.605 -49.485  10.320  1.00  0.00     0.172 HD
ENDROOT
BRANCH   1   7
HETATM    7  C   UNL     1     -42.934 -51.721  13.436  1.00  0.00     0.133 C 
BRANCH   7   8
HETATM    8  C   UNL     1     -42.587 -53.163  13.079  1.00  0.00     0.122 C 
BRANCH   8   9
HETATM    9  C   UNL     1     -41.085 -53.378  13.049  1.00  0.00     0.221 C 
HETATM   10  O   UNL     1     -40.372 -52.846  12.199  1.00  0.00    -0.273 OA
HETATM   11  N   UNL     1     -40.568 -54.221  14.007  1.00  0.00    -0.352 N 
HETATM   12  C   UNL     1     -39.162 -54.589  13.997  1.00  0.00     0.126 C 
HETATM   13  C   UNL     1     -41.199 -54.612  15.255  1.00  0.00     0.126 C 
HETATM   14  C   UNL     1     -38.876 -55.124  15.396  1.00  0.00     0.021 C 
HETATM   15  C   UNL     1     -40.037 -54.599  16.234  1.00  0.00     0.021 C 
ENDBRANCH   8   9
ENDBRANCH   7   8
ENDBRANCH   1   7
BRANCH   4  16
HETATM   16  C   UNL     1     -41.654 -47.792  10.844  1.00  0.00     0.168 A 
HETATM   17  N   UNL     1     -40.346 -47.693  10.732  1.00  0.00    -0.279 N 
HETATM   18  N   UNL     1     -39.941 -46.397  10.468  1.00  0.00    -0.303 N 
ATOM     19  HN  UNL     1     -39.705 -48.480  10.830  1.00  0.00     0.189 HD
HETATM   20  C   UNL     1     -40.968 -45.584  10.353  1.00  0.00     0.160 A 
ATOM     21  HN  UNL     1     -38.967 -46.108  10.373  1.00  0.00     0.186 HD
HETATM   22  S   UNL     1     -42.493 -46.336  10.539  1.00  0.00    -0.046 SA
ENDBRANCH   4  16
TORSDOF 4
ENDMDL
MODEL 5
REMARK VINA RESULT:      -5.7      3.417      6.866
REMARK  4 active torsions:
REMARK  status: ('A' for Active; 'I' for Inactive)
REMARK    1  A    between atoms: C_2  and  C_3 
REMARK       I    between atoms: C_2  and  N_16 
REMARK    2  A    between atoms: C_3  and  C_4 
REMARK    3  A    between atoms: C_4  and  N_5 
REMARK       I    between atoms: N_5  and  C_6 
REMARK       I    between atoms: C_6  and  N_8 
REMARK    4  A    between atoms: N_8  and  C_9 
ROOT
HETATM    1  N   UNL     1     -40.888 -51.216  11.442  1.00  0.00    -0.342 N 
HETATM    2  C   UNL     1     -42.051 -51.384  12.165  1.00  0.00     0.322 C 
HETATM    3  O   UNL     1     -42.492 -50.496  12.880  1.00  0.00    -0.247 OA
HETATM    4  N   UNL     1     -42.607 -52.616  11.938  1.00  0.00    -0.288 N 
HETATM    5  H   UNL     1     -40.328 -52.037  11.256  1.00  0.00     0.164 HD
HETATM    6  H   UNL     1     -42.315 -53.122  11.116  1.00  0.00     0.172 HD
ENDROOT
BRANCH   1   7
HETATM    7  C   UNL     1     -40.150 -49.963  11.506  1.00  0.00     0.133 C 
BRANCH   7   8
HETATM    8  C   UNL     1     -38.661 -50.152  11.781  1.00  0.00     0.122 C 
BRANCH   8   9
HETATM    9  C   UNL     1     -38.429 -50.868  13.098  1.00  0.00     0.221 C 
HETATM   10  O   UNL     1     -38.452 -52.096  13.181  1.00  0.00    -0.273 OA
HETATM   11  N   UNL     1     -38.221 -50.070  14.200  1.00  0.00    -0.352 N 
HETATM   12  C   UNL     1     -38.105 -50.648  15.530  1.00  0.00     0.126 C 
HETATM   13  C   UNL     1     -37.810 -48.677  14.202  1.00  0.00     0.126 C 
HETATM   14  C   UNL     1     -37.448 -49.568  16.382  1.00  0.00     0.021 C 
HETATM   15  C   UNL     1     -36.829 -48.621  15.361  1.00  0.00     0.021 C 
ENDBRANCH   8   9
ENDBRANCH   7   8
ENDBRANCH   1   7
BRANCH   4  16
HETATM   16  C   UNL     1     -43.781 -53.067  12.492  1.00  0.00     0.168 A 
HETATM   17  N   UNL     1     -44.962 -52.602  12.141  1.00  0.00    -0.279 N 
HETATM   18  N   UNL     1     -45.989 -53.190  12.857  1.00  0.00    -0.303 N 
ATOM     19  HN  UNL     1     -45.103 -51.891  11.424  1.00  0.00     0.189 HD
HETATM   20  C   UNL     1     -45.537 -54.102  13.689  1.00  0.00     0.160 A 
ATOM     21  HN  UNL     1     -46.974 -52.947  12.752  1.00  0.00     0.186 HD
HETATM   22  S   UNL     1     -43.841 -54.322  13.649  1.00  0.00    -0.046 SA
ENDBRANCH   4  16
TORSDOF 4
ENDMDL
MODEL 6
REMARK VINA RESULT:      -5.6      2.639      7.299
REMARK  4 active torsions:
REMARK  status: ('A' for Active; 'I' for Inactive)
REMARK    1  A    between atoms: C_2  and  C_3 
REMARK       I    between atoms: C_2  and  N_16 
REMARK    2  A    between atoms: C_3  and  C_4 
REMARK    3  A    between atoms: C_4  and  N_5 
REMARK       I    between atoms: N_5  and  C_6 
REMARK       I    between atoms: C_6  and  N_8 
REMARK    4  A    between atoms: N_8  and  C_9 
ROOT
HETATM    1  N   UNL     1     -41.040 -51.673  11.539  1.00  0.00    -0.342 N 
HETATM    2  C   UNL     1     -42.067 -51.887  12.434  1.00  0.00     0.322 C 
HETATM    3  O   UNL     1     -42.103 -51.315  13.514  1.00  0.00    -0.247 OA
HETATM    4  N   UNL     1     -42.993 -52.762  11.931  1.00  0.00    -0.288 N 
HETATM    5  H   UNL     1     -40.786 -52.434  10.923  1.00  0.00     0.164 HD
HETATM    6  H   UNL     1     -43.002 -52.921  10.935  1.00  0.00     0.172 HD
ENDROOT
BRANCH   1   7
HETATM    7  C   UNL     1     -39.961 -50.747  11.856  1.00  0.00     0.133 C 
BRANCH   7   8
HETATM    8  C   UNL     1     -40.200 -49.336  11.327  1.00  0.00     0.122 C 
BRANCH   8   9
HETATM    9  C   UNL     1     -39.568 -48.294  12.230  1.00  0.00     0.221 C 
HETATM   10  O   UNL     1     -38.787 -48.604  13.129  1.00  0.00    -0.273 OA
HETATM   11  N   UNL     1     -39.937 -46.986  12.008  1.00  0.00    -0.352 N 
HETATM   12  C   UNL     1     -39.484 -45.923  12.889  1.00  0.00     0.126 C 
HETATM   13  C   UNL     1     -40.532 -46.443  10.799  1.00  0.00     0.126 C 
HETATM   14  C   UNL     1     -39.693 -44.633  12.103  1.00  0.00     0.021 C 
HETATM   15  C   UNL     1     -39.832 -45.101  10.659  1.00  0.00     0.021 C 
ENDBRANCH   8   9
ENDBRANCH   7   8
ENDBRANCH   1   7
BRANCH   4  16
HETATM   16  C   UNL     1     -44.144 -53.153  12.575  1.00  0.00     0.168 A 
HETATM   17  N   UNL     1     -45.335 -52.697  12.248  1.00  0.00    -0.279 N 
HETATM   18  N   UNL     1     -46.331 -53.214  13.057  1.00  0.00    -0.303 N 
ATOM     19  HN  UNL     1     -45.504 -52.039  11.488  1.00  0.00     0.189 HD
HETATM   20  C   UNL     1     -45.848 -54.067  13.933  1.00  0.00     0.160 A 
ATOM     21  HN  UNL     1     -47.317 -52.964  12.983  1.00  0.00     0.186 HD
HETATM   22  S   UNL     1     -44.159 -54.316  13.825  1.00  0.00    -0.046 SA
ENDBRANCH   4  16
TORSDOF 4
ENDMDL
MODEL 7
REMARK VINA RESULT:      -5.4     14.762     15.304
REMARK  4 active torsions:
REMARK  status: ('A' for Active; 'I' for Inactive)
REMARK    1  A    between atoms: C_2  and  C_3 
REMARK       I    between atoms: C_2  and  N_16 
REMARK    2  A    between atoms: C_3  and  C_4 
REMARK    3  A    between atoms: C_4  and  N_5 
REMARK       I    between atoms: N_5  and  C_6 
REMARK       I    between atoms: C_6  and  N_8 
REMARK    4  A    between atoms: N_8  and  C_9 
ROOT
HETATM    1  N   UNL     1     -46.885 -47.601  -1.448  1.00  0.00    -0.342 N 
HETATM    2  C   UNL     1     -45.692 -47.955  -2.043  1.00  0.00     0.322 C 
HETATM    3  O   UNL     1     -45.646 -48.789  -2.934  1.00  0.00    -0.247 OA
HETATM    4  N   UNL     1     -44.645 -47.239  -1.525  1.00  0.00    -0.288 N 
HETATM    5  H   UNL     1     -46.858 -47.302  -0.482  1.00  0.00     0.164 HD
HETATM    6  H   UNL     1     -44.854 -46.389  -1.024  1.00  0.00     0.172 HD
ENDROOT
BRANCH   1   7
HETATM    7  C   UNL     1     -48.136 -48.213  -1.872  1.00  0.00     0.133 C 
BRANCH   7   8
HETATM    8  C   UNL     1     -48.817 -49.022  -0.772  1.00  0.00     0.122 C 
BRANCH   8   9
HETATM    9  C   UNL     1     -48.368 -50.471  -0.795  1.00  0.00     0.221 C 
HETATM   10  O   UNL     1     -47.226 -50.801  -0.476  1.00  0.00    -0.273 OA
HETATM   11  N   UNL     1     -49.299 -51.394  -1.218  1.00  0.00    -0.352 N 
HETATM   12  C   UNL     1     -48.939 -52.792  -1.390  1.00  0.00     0.126 C 
HETATM   13  C   UNL     1     -50.739 -51.217  -1.268  1.00  0.00     0.126 C 
HETATM   14  C   UNL     1     -50.263 -53.547  -1.413  1.00  0.00     0.021 C 
HETATM   15  C   UNL     1     -51.256 -52.567  -0.799  1.00  0.00     0.021 C 
ENDBRANCH   8   9
ENDBRANCH   7   8
ENDBRANCH   1   7
BRANCH   4  16
HETATM   16  C   UNL     1     -43.336 -47.347  -1.933  1.00  0.00     0.168 A 
HETATM   17  N   UNL     1     -42.892 -48.359  -2.649  1.00  0.00    -0.279 N 
HETATM   18  N   UNL     1     -41.537 -48.258  -2.911  1.00  0.00    -0.303 N 
ATOM     19  HN  UNL     1     -43.478 -49.128  -2.972  1.00  0.00     0.189 HD
HETATM   20  C   UNL     1     -41.030 -47.152  -2.413  1.00  0.00     0.160 A 
ATOM     21  HN  UNL     1     -40.999 -48.955  -3.426  1.00  0.00     0.186 HD
HETATM   22  S   UNL     1     -42.160 -46.151  -1.609  1.00  0.00    -0.046 SA
ENDBRANCH   4  16
TORSDOF 4
ENDMDL
MODEL 8
REMARK VINA RESULT:      -5.3      4.683      5.647
REMARK  4 active torsions:
REMARK  status: ('A' for Active; 'I' for Inactive)
REMARK    1  A    between atoms: C_2  and  C_3 
REMARK       I    between atoms: C_2  and  N_16 
REMARK    2  A    between atoms: C_3  and  C_4 
REMARK    3  A    between atoms: C_4  and  N_5 
REMARK       I    between atoms: N_5  and  C_6 
REMARK       I    between atoms: C_6  and  N_8 
REMARK    4  A    between atoms: N_8  and  C_9 
ROOT
HETATM    1  N   UNL     1     -38.519 -48.539  13.081  1.00  0.00    -0.342 N 
HETATM    2  C   UNL     1     -39.828 -48.374  12.680  1.00  0.00     0.322 C 
HETATM    3  O   UNL     1     -40.760 -48.568  13.445  1.00  0.00    -0.247 OA
HETATM    4  N   UNL     1     -39.901 -47.953  11.378  1.00  0.00    -0.288 N 
HETATM    5  H   UNL     1     -37.845 -48.822  12.383  1.00  0.00     0.164 HD
HETATM    6  H   UNL     1     -39.074 -47.549  10.964  1.00  0.00     0.172 HD
ENDROOT
BRANCH   1   7
HETATM    7  C   UNL     1     -38.208 -48.949  14.443  1.00  0.00     0.133 C 
BRANCH   7   8
HETATM    8  C   UNL     1     -37.471 -50.283  14.520  1.00  0.00     0.122 C 
BRANCH   8   9
HETATM    9  C   UNL     1     -38.174 -51.349  13.702  1.00  0.00     0.221 C 
HETATM   10  O   UNL     1     -38.037 -51.424  12.481  1.00  0.00    -0.273 OA
HETATM   11  N   UNL     1     -38.996 -52.210  14.394  1.00  0.00    -0.352 N 
HETATM   12  C   UNL     1     -39.806 -53.193  13.695  1.00  0.00     0.126 C 
HETATM   13  C   UNL     1     -38.972 -52.477  15.822  1.00  0.00     0.126 C 
HETATM   14  C   UNL     1     -40.200 -54.217  14.753  1.00  0.00     0.021 C 
HETATM   15  C   UNL     1     -39.206 -53.977  15.884  1.00  0.00     0.021 C 
ENDBRANCH   8   9
ENDBRANCH   7   8
ENDBRANCH   1   7
BRANCH   4  16
HETATM   16  C   UNL     1     -41.065 -47.674  10.701  1.00  0.00     0.168 A 
HETATM   17  N   UNL     1     -41.607 -48.508   9.838  1.00  0.00    -0.279 N 
HETATM   18  N   UNL     1     -42.757 -47.994   9.267  1.00  0.00    -0.303 N 
ATOM     19  HN  UNL     1     -41.223 -49.427   9.617  1.00  0.00     0.189 HD
HETATM   20  C   UNL     1     -43.051 -46.810   9.756  1.00  0.00     0.160 A 
ATOM     21  HN  UNL     1     -43.308 -48.474   8.555  1.00  0.00     0.186 HD
HETATM   22  S   UNL     1     -41.967 -46.246  10.952  1.00  0.00    -0.046 SA
ENDBRANCH   4  16
TORSDOF 4
ENDMDL
MODEL 9
REMARK VINA RESULT:      -5.2      5.449      6.829
REMARK  4 active torsions:
REMARK  status: ('A' for Active; 'I' for Inactive)
REMARK    1  A    between atoms: C_2  and  C_3 
REMARK       I    between atoms: C_2  and  N_16 
REMARK    2  A    between atoms: C_3  and  C_4 
REMARK    3  A    between atoms: C_4  and  N_5 
REMARK       I    between atoms: N_5  and  C_6 
REMARK       I    between atoms: C_6  and  N_8 
REMARK    4  A    between atoms: N_8  and  C_9 
ROOT
HETATM    1  N   UNL     1     -41.795 -46.078  12.661  1.00  0.00    -0.342 N 
HETATM    2  C   UNL     1     -41.890 -46.294  11.302  1.00  0.00     0.322 C 
HETATM    3  O   UNL     1     -41.057 -45.851  10.526  1.00  0.00    -0.247 OA
HETATM    4  N   UNL     1     -42.981 -47.064  10.994  1.00  0.00    -0.288 N 
HETATM    5  H   UNL     1     -42.655 -46.035  13.191  1.00  0.00     0.164 HD
HETATM    6  H   UNL     1     -43.403 -47.603  11.734  1.00  0.00     0.172 HD
ENDROOT
BRANCH   1   7
HETATM    7  C   UNL     1     -40.688 -45.313  13.215  1.00  0.00     0.133 C 
BRANCH   7   8
HETATM    8  C   UNL     1     -39.483 -46.173  13.585  1.00  0.00     0.122 C 
BRANCH   8   9
HETATM    9  C   UNL     1     -39.914 -47.529  14.111  1.00  0.00     0.221 C 
HETATM   10  O   UNL     1     -40.541 -47.646  15.163  1.00  0.00    -0.273 OA
HETATM   11  N   UNL     1     -39.541 -48.622  13.363  1.00  0.00    -0.352 N 
HETATM   12  C   UNL     1     -39.799 -49.973  13.834  1.00  0.00     0.126 C 
HETATM   13  C   UNL     1     -39.141 -48.627  11.966  1.00  0.00     0.126 C 
HETATM   14  C   UNL     1     -39.680 -50.860  12.600  1.00  0.00     0.021 C 
HETATM   15  C   UNL     1     -39.806 -49.886  11.434  1.00  0.00     0.021 C 
ENDBRANCH   8   9
ENDBRANCH   7   8
ENDBRANCH   1   7
BRANCH   4  16
HETATM   16  C   UNL     1     -43.327 -47.472   9.727  1.00  0.00     0.168 A 
HETATM   17  N   UNL     1     -42.455 -47.963   8.872  1.00  0.00    -0.279 N 
HETATM   18  N   UNL     1     -43.036 -48.275   7.656  1.00  0.00    -0.303 N 
ATOM     19  HN  UNL     1     -41.466 -48.096   9.081  1.00  0.00     0.189 HD
HETATM   20  C   UNL     1     -44.330 -48.043   7.665  1.00  0.00     0.160 A 
ATOM     21  HN  UNL     1     -42.525 -48.641   6.853  1.00  0.00     0.186 HD
HETATM   22  S   UNL     1     -44.935 -47.446   9.150  1.00  0.00    -0.046 SA
ENDBRANCH   4  16
TORSDOF 4
ENDMDL
