MODEL 1
REMARK VINA RESULT:      -5.8      0.000      0.000
REMARK  5 active torsions:
REMARK  status: ('A' for Active; 'I' for Inactive)
REMARK    1  A    between atoms: C_3  and  N_4 
REMARK    2  A    between atoms: N_4  and  C_5 
REMARK    3  A    between atoms: C_5  and  C_6 
REMARK    4  A    between atoms: C_11  and  C_12 
REMARK    5  A    between atoms: C_12  and  N_13 
ROOT
HETATM    1  C   UNL     1     -40.448 -55.225  15.908  1.00  0.00     0.162 C 
HETATM    2  N   UNL     1     -41.302 -54.636  14.885  1.00  0.00    -0.293 N 
HETATM    3  C   UNL     1     -40.817 -53.729  13.946  1.00  0.00     0.111 A 
HETATM    4  C   UNL     1     -41.694 -53.229  13.047  1.00  0.00     0.133 A 
HETATM    5  C   UNL     1     -43.121 -53.591  13.051  1.00  0.00     0.274 A 
HETATM    6  O   UNL     1     -43.883 -53.123  12.212  1.00  0.00    -0.266 OA
HETATM    7  N   UNL     1     -43.515 -54.452  14.051  1.00  0.00    -0.269 N 
HETATM    8  C   UNL     1     -44.915 -54.832  14.132  1.00  0.00     0.164 C 
HETATM    9  C   UNL     1     -42.652 -55.002  14.983  1.00  0.00     0.332 A 
HETATM   10  O   UNL     1     -43.056 -55.774  15.857  1.00  0.00    -0.246 OA
ENDROOT
BRANCH   3  11
HETATM   11  N   UNL     1     -39.458 -53.351  13.898  1.00  0.00    -0.275 NA
HETATM   12  H   UNL     1     -38.844 -54.129  14.140  1.00  0.00     0.129 HD
BRANCH  11  13
HETATM   13  C   UNL     1     -38.993 -52.154  14.633  1.00  0.00     0.126 C 
BRANCH  13  14
HETATM   14  C   UNL     1     -38.222 -51.132  13.779  1.00  0.00     0.134 C 
HETATM   15  C   UNL     1     -38.865 -49.772  13.567  1.00  0.00     0.035 C 
HETATM   16  C   UNL     1     -38.215 -49.261  12.291  1.00  0.00     0.029 C 
HETATM   17  C   UNL     1     -37.434 -50.447  11.753  1.00  0.00     0.168 C 
HETATM   18  O   UNL     1     -37.942 -51.602  12.447  1.00  0.00    -0.385 OA
ENDBRANCH  13  14
ENDBRANCH  11  13
ENDBRANCH   3  11
BRANCH   4  19
HETATM   19  C   UNL     1     -41.253 -52.270  11.953  1.00  0.00    -0.028 C 
BRANCH  19  20
HETATM   20  N   UNL     1     -40.889 -51.475  11.045  1.00  0.00    -0.365 N 
ATOM     21  HN2 UNL     1     -41.170 -52.133  11.772  1.00  0.00     0.165 HD
ATOM     22  HN1 UNL     1     -40.594 -50.832  10.310  1.00  0.00     0.165 HD
ENDBRANCH  19  20
ENDBRANCH   4  19
TORSDOF 5
ENDMDL
MODEL 2
REMARK VINA RESULT:      -5.3      4.797      7.317
REMARK  5 active torsions:
REMARK  status: ('A' for Active; 'I' for Inactive)
REMARK    1  A    between atoms: C_3  and  N_4 
REMARK    2  A    between atoms: N_4  and  C_5 
REMARK    3  A    between atoms: C_5  and  C_6 
REMARK    4  A    between atoms: C_11  and  C_12 
REMARK    5  A    between atoms: C_12  and  N_13 
ROOT
HETATM    1  C   UNL     1     -40.628 -44.277  12.357  1.00  0.00     0.162 C 
HETATM    2  N   UNL     1     -41.236 -45.315  11.536  1.00  0.00    -0.293 N 
HETATM    3  C   UNL     1     -40.735 -46.614  11.491  1.00  0.00     0.111 A 
HETATM    4  C   UNL     1     -41.364 -47.500  10.687  1.00  0.00     0.133 A 
HETATM    5  C   UNL     1     -42.521 -47.129   9.856  1.00  0.00     0.274 A 
HETATM    6  O   UNL     1     -43.070 -47.966   9.146  1.00  0.00    -0.266 OA
HETATM    7  N   UNL     1     -42.909 -45.809   9.927  1.00  0.00    -0.269 N 
HETATM    8  C   UNL     1     -44.028 -45.367   9.114  1.00  0.00     0.164 C 
HETATM    9  C   UNL     1     -42.308 -44.870  10.748  1.00  0.00     0.332 A 
HETATM   10  O   UNL     1     -42.696 -43.700  10.778  1.00  0.00    -0.246 OA
ENDROOT
BRANCH   3  11
HETATM   11  N   UNL     1     -39.631 -47.021  12.269  1.00  0.00    -0.275 NA
HETATM   12  H   UNL     1     -38.974 -47.581  11.725  1.00  0.00     0.129 HD
BRANCH  11  13
HETATM   13  C   UNL     1     -39.845 -47.699  13.567  1.00  0.00     0.126 C 
BRANCH  13  14
HETATM   14  C   UNL     1     -39.041 -48.997  13.758  1.00  0.00     0.134 C 
HETATM   15  C   UNL     1     -37.845 -49.217  12.848  1.00  0.00     0.035 C 
HETATM   16  C   UNL     1     -37.656 -50.726  12.860  1.00  0.00     0.029 C 
HETATM   17  C   UNL     1     -38.881 -51.263  13.580  1.00  0.00     0.168 C 
HETATM   18  O   UNL     1     -39.836 -50.186  13.590  1.00  0.00    -0.385 OA
ENDBRANCH  13  14
ENDBRANCH  11  13
ENDBRANCH   3  11
BRANCH   4  19
HETATM   19  C   UNL     1     -40.924 -48.953  10.604  1.00  0.00    -0.028 C 
BRANCH  19  20
HETATM   20  N   UNL     1     -40.559 -50.158  10.536  1.00  0.00    -0.365 N 
ATOM     21  HN2 UNL     1     -40.860 -49.184  10.570  1.00  0.00     0.165 HD
ATOM     22  HN1 UNL     1     -40.263 -51.132  10.480  1.00  0.00     0.165 HD
ENDBRANCH  19  20
ENDBRANCH   4  19
TORSDOF 5
ENDMDL
MODEL 3
REMARK VINA RESULT:      -5.2      0.903      2.951
REMARK  5 active torsions:
REMARK  status: ('A' for Active; 'I' for Inactive)
REMARK    1  A    between atoms: C_3  and  N_4 
REMARK    2  A    between atoms: N_4  and  C_5 
REMARK    3  A    between atoms: C_5  and  C_6 
REMARK    4  A    between atoms: C_11  and  C_12 
REMARK    5  A    between atoms: C_12  and  N_13 
ROOT
HETATM    1  C   UNL     1     -41.440 -52.252  11.841  1.00  0.00     0.162 C 
HETATM    2  N   UNL     1     -41.770 -53.165  12.927  1.00  0.00    -0.293 N 
HETATM    3  C   UNL     1     -40.801 -53.673  13.790  1.00  0.00     0.111 A 
HETATM    4  C   UNL     1     -41.209 -54.524  14.758  1.00  0.00     0.133 A 
HETATM    5  C   UNL     1     -42.614 -54.939  14.904  1.00  0.00     0.274 A 
HETATM    6  O   UNL     1     -42.945 -55.707  15.802  1.00  0.00    -0.266 OA
HETATM    7  N   UNL     1     -43.488 -54.427  13.970  1.00  0.00    -0.269 N 
HETATM    8  C   UNL     1     -44.886 -54.815  14.038  1.00  0.00     0.164 C 
HETATM    9  C   UNL     1     -43.121 -53.540  12.972  1.00  0.00     0.332 A 
HETATM   10  O   UNL     1     -43.944 -53.106  12.163  1.00  0.00    -0.246 OA
ENDROOT
BRANCH   3  11
HETATM   11  N   UNL     1     -39.443 -53.305  13.694  1.00  0.00    -0.275 NA
HETATM   12  H   UNL     1     -38.826 -54.096  13.880  1.00  0.00     0.129 HD
BRANCH  11  13
HETATM   13  C   UNL     1     -38.933 -52.139  14.452  1.00  0.00     0.126 C 
BRANCH  13  14
HETATM   14  C   UNL     1     -38.252 -51.059  13.593  1.00  0.00     0.134 C 
HETATM   15  C   UNL     1     -39.067 -49.825  13.249  1.00  0.00     0.035 C 
HETATM   16  C   UNL     1     -38.398 -49.289  11.993  1.00  0.00     0.029 C 
HETATM   17  C   UNL     1     -37.410 -50.371  11.590  1.00  0.00     0.168 C 
HETATM   18  O   UNL     1     -37.800 -51.551  12.317  1.00  0.00    -0.385 OA
ENDBRANCH  13  14
ENDBRANCH  11  13
ENDBRANCH   3  11
BRANCH   4  19
HETATM   19  C   UNL     1     -40.237 -55.095  15.778  1.00  0.00    -0.028 C 
BRANCH  19  20
HETATM   20  N   UNL     1     -39.431 -55.568  16.625  1.00  0.00    -0.365 N 
ATOM     21  HN2 UNL     1     -40.087 -55.168  15.953  1.00  0.00     0.165 HD
ATOM     22  HN1 UNL     1     -38.780 -55.951  17.309  1.00  0.00     0.165 HD
ENDBRANCH  19  20
ENDBRANCH   4  19
TORSDOF 5
ENDMDL
MODEL 4
REMARK VINA RESULT:      -5.1      2.322      6.477
REMARK  5 active torsions:
REMARK  status: ('A' for Active; 'I' for Inactive)
REMARK    1  A    between atoms: C_3  and  N_4 
REMARK    2  A    between atoms: N_4  and  C_5 
REMARK    3  A    between atoms: C_5  and  C_6 
REMARK    4  A    between atoms: C_11  and  C_12 
REMARK    5  A    between atoms: C_12  and  N_13 
ROOT
HETATM    1  C   UNL     1     -41.685 -49.008  11.346  1.00  0.00     0.162 C 
HETATM    2  N   UNL     1     -41.014 -50.137  11.976  1.00  0.00    -0.293 N 
HETATM    3  C   UNL     1     -41.715 -51.230  12.481  1.00  0.00     0.111 A 
HETATM    4  C   UNL     1     -40.999 -52.220  13.059  1.00  0.00     0.133 A 
HETATM    5  C   UNL     1     -39.534 -52.163  13.188  1.00  0.00     0.274 A 
HETATM    6  O   UNL     1     -38.919 -53.087  13.711  1.00  0.00    -0.266 OA
HETATM    7  N   UNL     1     -38.936 -51.018  12.708  1.00  0.00    -0.269 N 
HETATM    8  C   UNL     1     -37.495 -50.882  12.827  1.00  0.00     0.164 C 
HETATM    9  C   UNL     1     -39.624 -49.986  12.094  1.00  0.00     0.332 A 
HETATM   10  O   UNL     1     -39.040 -48.983  11.676  1.00  0.00    -0.246 OA
ENDROOT
BRANCH   3  11
HETATM   11  N   UNL     1     -43.118 -51.334  12.380  1.00  0.00    -0.275 NA
HETATM   12  H   UNL     1     -43.466 -50.894  11.528  1.00  0.00     0.129 HD
BRANCH  11  13
HETATM   13  C   UNL     1     -43.979 -50.901  13.504  1.00  0.00     0.126 C 
BRANCH  13  14
HETATM   14  C   UNL     1     -45.243 -51.753  13.714  1.00  0.00     0.134 C 
HETATM   15  C   UNL     1     -46.264 -51.249  14.719  1.00  0.00     0.035 C 
HETATM   16  C   UNL     1     -47.024 -52.504  15.120  1.00  0.00     0.029 C 
HETATM   17  C   UNL     1     -46.240 -53.646  14.497  1.00  0.00     0.168 C 
HETATM   18  O   UNL     1     -44.957 -53.097  14.143  1.00  0.00    -0.385 OA
ENDBRANCH  13  14
ENDBRANCH  11  13
ENDBRANCH   3  11
BRANCH   4  19
HETATM   19  C   UNL     1     -41.666 -53.476  13.597  1.00  0.00    -0.028 C 
BRANCH  19  20
HETATM   20  N   UNL     1     -42.220 -54.517  14.044  1.00  0.00    -0.365 N 
ATOM     21  HN2 UNL     1     -41.755 -53.678  13.696  1.00  0.00     0.165 HD
ATOM     22  HN1 UNL     1     -42.668 -55.358  14.406  1.00  0.00     0.165 HD
ENDBRANCH  19  20
ENDBRANCH   4  19
TORSDOF 5
ENDMDL
MODEL 5
REMARK VINA RESULT:      -5.0      3.423      4.833
REMARK  5 active torsions:
REMARK  status: ('A' for Active; 'I' for Inactive)
REMARK    1  A    between atoms: C_3  and  N_4 
REMARK    2  A    between atoms: N_4  and  C_5 
REMARK    3  A    between atoms: C_5  and  C_6 
REMARK    4  A    between atoms: C_11  and  C_12 
REMARK    5  A    between atoms: C_12  and  N_13 
ROOT
HETATM    1  C   UNL     1     -43.652 -52.385  12.938  1.00  0.00     0.162 C 
HETATM    2  N   UNL     1     -42.217 -52.136  12.943  1.00  0.00    -0.293 N 
HETATM    3  C   UNL     1     -41.658 -51.006  12.350  1.00  0.00     0.111 A 
HETATM    4  C   UNL     1     -40.313 -50.875  12.397  1.00  0.00     0.133 A 
HETATM    5  C   UNL     1     -39.443 -51.885  13.023  1.00  0.00     0.274 A 
HETATM    6  O   UNL     1     -38.227 -51.724  13.054  1.00  0.00    -0.266 OA
HETATM    7  N   UNL     1     -40.084 -52.992  13.533  1.00  0.00    -0.269 N 
HETATM    8  C   UNL     1     -39.285 -54.041  14.141  1.00  0.00     0.164 C 
HETATM    9  C   UNL     1     -41.458 -53.163  13.522  1.00  0.00     0.332 A 
HETATM   10  O   UNL     1     -41.984 -54.173  13.998  1.00  0.00    -0.246 OA
ENDROOT
BRANCH   3  11
HETATM   11  N   UNL     1     -42.447 -50.009  11.741  1.00  0.00    -0.275 NA
HETATM   12  H   UNL     1     -42.017 -49.662  10.883  1.00  0.00     0.129 HD
BRANCH  11  13
HETATM   13  C   UNL     1     -42.908 -48.842  12.527  1.00  0.00     0.126 C 
BRANCH  13  14
HETATM   14  C   UNL     1     -42.986 -47.523  11.739  1.00  0.00     0.134 C 
HETATM   15  C   UNL     1     -43.838 -47.511  10.481  1.00  0.00     0.035 C 
HETATM   16  C   UNL     1     -43.265 -46.360   9.669  1.00  0.00     0.029 C 
HETATM   17  C   UNL     1     -42.001 -45.957  10.409  1.00  0.00     0.168 C 
HETATM   18  O   UNL     1     -41.700 -47.047  11.299  1.00  0.00    -0.385 OA
ENDBRANCH  13  14
ENDBRANCH  11  13
ENDBRANCH   3  11
BRANCH   4  19
HETATM   19  C   UNL     1     -39.611 -49.656  11.822  1.00  0.00    -0.028 C 
BRANCH  19  20
HETATM   20  N   UNL     1     -39.029 -48.644  11.345  1.00  0.00    -0.365 N 
ATOM     21  HN2 UNL     1     -39.516 -49.459  11.717  1.00  0.00     0.165 HD
ATOM     22  HN1 UNL     1     -38.558 -47.826  10.960  1.00  0.00     0.165 HD
ENDBRANCH  19  20
ENDBRANCH   4  19
TORSDOF 5
ENDMDL
MODEL 6
REMARK VINA RESULT:      -4.9      4.232      7.497
REMARK  5 active torsions:
REMARK  status: ('A' for Active; 'I' for Inactive)
REMARK    1  A    between atoms: C_3  and  N_4 
REMARK    2  A    between atoms: N_4  and  C_5 
REMARK    3  A    between atoms: C_5  and  C_6 
REMARK    4  A    between atoms: C_11  and  C_12 
REMARK    5  A    between atoms: C_12  and  N_13 
ROOT
HETATM    1  C   UNL     1     -42.816 -47.719   9.404  1.00  0.00     0.162 C 
HETATM    2  N   UNL     1     -41.824 -47.165  10.316  1.00  0.00    -0.293 N 
HETATM    3  C   UNL     1     -40.921 -47.970  11.006  1.00  0.00     0.111 A 
HETATM    4  C   UNL     1     -40.048 -47.359  11.839  1.00  0.00     0.133 A 
HETATM    5  C   UNL     1     -40.046 -45.902  12.050  1.00  0.00     0.274 A 
HETATM    6  O   UNL     1     -39.232 -45.385  12.808  1.00  0.00    -0.266 OA
HETATM    7  N   UNL     1     -41.012 -45.198  11.365  1.00  0.00    -0.269 N 
HETATM    8  C   UNL     1     -41.086 -43.759  11.546  1.00  0.00     0.164 C 
HETATM    9  C   UNL     1     -41.915 -45.776  10.489  1.00  0.00     0.332 A 
HETATM   10  O   UNL     1     -42.759 -45.100   9.896  1.00  0.00    -0.246 OA
ENDROOT
BRANCH   3  11
HETATM   11  N   UNL     1     -40.880 -49.370  10.838  1.00  0.00    -0.275 NA
HETATM   12  H   UNL     1     -41.217 -49.647   9.916  1.00  0.00     0.129 HD
BRANCH  11  13
HETATM   13  C   UNL     1     -41.509 -50.258  11.841  1.00  0.00     0.126 C 
BRANCH  13  14
HETATM   14  C   UNL     1     -40.648 -51.459  12.270  1.00  0.00     0.134 C 
HETATM   15  C   UNL     1     -41.331 -52.814  12.351  1.00  0.00     0.035 C 
HETATM   16  C   UNL     1     -40.455 -53.602  13.311  1.00  0.00     0.029 C 
HETATM   17  C   UNL     1     -39.483 -52.580  13.876  1.00  0.00     0.168 C 
HETATM   18  O   UNL     1     -40.042 -51.290  13.565  1.00  0.00    -0.385 OA
ENDBRANCH  13  14
ENDBRANCH  11  13
ENDBRANCH   3  11
BRANCH   4  19
HETATM   19  C   UNL     1     -38.992 -48.143  12.601  1.00  0.00    -0.028 C 
BRANCH  19  20
HETATM   20  N   UNL     1     -38.116 -48.794  13.233  1.00  0.00    -0.365 N 
ATOM     21  HN2 UNL     1     -38.837 -48.286  12.720  1.00  0.00     0.165 HD
ATOM     22  HN1 UNL     1     -37.407 -49.320  13.743  1.00  0.00     0.165 HD
ENDBRANCH  19  20
ENDBRANCH   4  19
TORSDOF 5
ENDMDL
MODEL 7
REMARK VINA RESULT:      -4.9      2.027      2.203
REMARK  5 active torsions:
REMARK  status: ('A' for Active; 'I' for Inactive)
REMARK    1  A    between atoms: C_3  and  N_4 
REMARK    2  A    between atoms: N_4  and  C_5 
REMARK    3  A    between atoms: C_5  and  C_6 
REMARK    4  A    between atoms: C_11  and  C_12 
REMARK    5  A    between atoms: C_12  and  N_13 
ROOT
HETATM    1  C   UNL     1     -43.265 -51.223  16.809  1.00  0.00     0.162 C 
HETATM    2  N   UNL     1     -43.466 -51.990  15.587  1.00  0.00    -0.293 N 
HETATM    3  C   UNL     1     -42.622 -51.865  14.485  1.00  0.00     0.111 A 
HETATM    4  C   UNL     1     -42.902 -52.612  13.393  1.00  0.00     0.133 A 
HETATM    5  C   UNL     1     -44.065 -53.513  13.332  1.00  0.00     0.274 A 
HETATM    6  O   UNL     1     -44.280 -54.181  12.325  1.00  0.00    -0.266 OA
HETATM    7  N   UNL     1     -44.871 -53.527  14.449  1.00  0.00    -0.269 N 
HETATM    8  C   UNL     1     -46.051 -54.373  14.447  1.00  0.00     0.164 C 
HETATM    9  C   UNL     1     -44.615 -52.793  15.595  1.00  0.00     0.332 A 
HETATM   10  O   UNL     1     -45.367 -52.845  16.572  1.00  0.00    -0.246 OA
ENDROOT
BRANCH   3  11
HETATM   11  N   UNL     1     -41.494 -51.019  14.495  1.00  0.00    -0.275 NA
HETATM   12  H   UNL     1     -41.393 -50.518  13.612  1.00  0.00     0.129 HD
BRANCH  11  13
HETATM   13  C   UNL     1     -40.166 -51.553  14.873  1.00  0.00     0.126 C 
BRANCH  13  14
HETATM   14  C   UNL     1     -38.982 -50.948  14.099  1.00  0.00     0.134 C 
HETATM   15  C   UNL     1     -39.022 -49.456  13.817  1.00  0.00     0.035 C 
HETATM   16  C   UNL     1     -38.108 -49.293  12.612  1.00  0.00     0.029 C 
HETATM   17  C   UNL     1     -37.805 -50.712  12.163  1.00  0.00     0.168 C 
HETATM   18  O   UNL     1     -38.785 -51.547  12.805  1.00  0.00    -0.385 OA
ENDBRANCH  13  14
ENDBRANCH  11  13
ENDBRANCH   3  11
BRANCH   4  19
HETATM   19  C   UNL     1     -42.015 -52.583  12.159  1.00  0.00    -0.028 C 
BRANCH  19  20
HETATM   20  N   UNL     1     -41.280 -52.560  11.135  1.00  0.00    -0.365 N 
ATOM     21  HN2 UNL     1     -41.891 -52.571  11.952  1.00  0.00     0.165 HD
ATOM     22  HN1 UNL     1     -40.685 -52.541  10.308  1.00  0.00     0.165 HD
ENDBRANCH  19  20
ENDBRANCH   4  19
TORSDOF 5
ENDMDL
MODEL 8
REMARK VINA RESULT:      -4.8      1.891      5.659
REMARK  5 active torsions:
REMARK  status: ('A' for Active; 'I' for Inactive)
REMARK    1  A    between atoms: C_3  and  N_4 
REMARK    2  A    between atoms: N_4  and  C_5 
REMARK    3  A    between atoms: C_5  and  C_6 
REMARK    4  A    between atoms: C_11  and  C_12 
REMARK    5  A    between atoms: C_12  and  N_13 
ROOT
HETATM    1  C   UNL     1     -38.927 -52.428  16.228  1.00  0.00     0.162 C 
HETATM    2  N   UNL     1     -39.369 -51.938  14.930  1.00  0.00    -0.293 N 
HETATM    3  C   UNL     1     -40.498 -52.445  14.290  1.00  0.00     0.111 A 
HETATM    4  C   UNL     1     -40.817 -51.931  13.081  1.00  0.00     0.133 A 
HETATM    5  C   UNL     1     -40.005 -50.891  12.427  1.00  0.00     0.274 A 
HETATM    6  O   UNL     1     -40.333 -50.443  11.333  1.00  0.00    -0.266 OA
HETATM    7  N   UNL     1     -38.879 -50.493  13.113  1.00  0.00    -0.269 N 
HETATM    8  C   UNL     1     -38.016 -49.489  12.515  1.00  0.00     0.164 C 
HETATM    9  C   UNL     1     -38.521 -50.978  14.360  1.00  0.00     0.332 A 
HETATM   10  O   UNL     1     -37.503 -50.584  14.935  1.00  0.00    -0.246 OA
ENDROOT
BRANCH   3  11
HETATM   11  N   UNL     1     -41.311 -53.439  14.875  1.00  0.00    -0.275 NA
HETATM   12  H   UNL     1     -41.659 -54.097  14.178  1.00  0.00     0.129 HD
BRANCH  11  13
HETATM   13  C   UNL     1     -42.443 -53.054  15.748  1.00  0.00     0.126 C 
BRANCH  13  14
HETATM   14  C   UNL     1     -43.797 -53.673  15.359  1.00  0.00     0.134 C 
HETATM   15  C   UNL     1     -43.770 -54.975  14.577  1.00  0.00     0.035 C 
HETATM   16  C   UNL     1     -45.117 -55.000  13.871  1.00  0.00     0.029 C 
HETATM   17  C   UNL     1     -45.706 -53.621  14.116  1.00  0.00     0.168 C 
HETATM   18  O   UNL     1     -44.612 -52.797  14.558  1.00  0.00    -0.385 OA
ENDBRANCH  13  14
ENDBRANCH  11  13
ENDBRANCH   3  11
BRANCH   4  19
HETATM   19  C   UNL     1     -42.055 -52.383  12.324  1.00  0.00    -0.028 C 
BRANCH  19  20
HETATM   20  N   UNL     1     -43.082 -52.758  11.696  1.00  0.00    -0.365 N 
ATOM     21  HN2 UNL     1     -42.261 -52.435  12.208  1.00  0.00     0.165 HD
ATOM     22  HN1 UNL     1     -43.912 -53.062  11.188  1.00  0.00     0.165 HD
ENDBRANCH  19  20
ENDBRANCH   4  19
TORSDOF 5
ENDMDL
MODEL 9
REMARK VINA RESULT:      -4.8      2.612      5.358
REMARK  5 active torsions:
REMARK  status: ('A' for Active; 'I' for Inactive)
REMARK    1  A    between atoms: C_3  and  N_4 
REMARK    2  A    between atoms: N_4  and  C_5 
REMARK    3  A    between atoms: C_5  and  C_6 
REMARK    4  A    between atoms: C_11  and  C_12 
REMARK    5  A    between atoms: C_12  and  N_13 
ROOT
HETATM    1  C   UNL     1     -43.138 -54.467  16.709  1.00  0.00     0.162 C 
HETATM    2  N   UNL     1     -42.009 -54.339  15.797  1.00  0.00    -0.293 N 
HETATM    3  C   UNL     1     -42.139 -53.775  14.530  1.00  0.00     0.111 A 
HETATM    4  C   UNL     1     -41.033 -53.714  13.755  1.00  0.00     0.133 A 
HETATM    5  C   UNL     1     -39.731 -54.240  14.196  1.00  0.00     0.274 A 
HETATM    6  O   UNL     1     -38.748 -54.158  13.466  1.00  0.00    -0.266 OA
HETATM    7  N   UNL     1     -39.715 -54.828  15.442  1.00  0.00    -0.269 N 
HETATM    8  C   UNL     1     -38.469 -55.392  15.930  1.00  0.00     0.164 C 
HETATM    9  C   UNL     1     -40.816 -54.898  16.278  1.00  0.00     0.332 A 
HETATM   10  O   UNL     1     -40.748 -55.432  17.388  1.00  0.00    -0.246 OA
ENDROOT
BRANCH   3  11
HETATM   11  N   UNL     1     -43.364 -53.254  14.061  1.00  0.00    -0.275 NA
HETATM   12  H   UNL     1     -43.508 -53.465  13.074  1.00  0.00     0.129 HD
BRANCH  11  13
HETATM   13  C   UNL     1     -43.696 -51.828  14.278  1.00  0.00     0.126 C 
BRANCH  13  14
HETATM   14  C   UNL     1     -45.158 -51.560  14.680  1.00  0.00     0.134 C 
HETATM   15  C   UNL     1     -45.398 -50.824  15.987  1.00  0.00     0.035 C 
HETATM   16  C   UNL     1     -46.813 -51.228  16.373  1.00  0.00     0.029 C 
HETATM   17  C   UNL     1     -47.181 -52.328  15.392  1.00  0.00     0.168 C 
HETATM   18  O   UNL     1     -45.942 -52.761  14.801  1.00  0.00    -0.385 OA
ENDBRANCH  13  14
ENDBRANCH  11  13
ENDBRANCH   3  11
BRANCH   4  19
HETATM   19  C   UNL     1     -41.060 -53.074  12.376  1.00  0.00    -0.028 C 
BRANCH  19  20
HETATM   20  N   UNL     1     -41.083 -52.543  11.233  1.00  0.00    -0.365 N 
ATOM     21  HN2 UNL     1     -41.053 -52.956  12.165  1.00  0.00     0.165 HD
ATOM     22  HN1 UNL     1     -41.101 -52.114  10.308  1.00  0.00     0.165 HD
ENDBRANCH  19  20
ENDBRANCH   4  19
TORSDOF 5
ENDMDL
