MODEL 1
REMARK VINA RESULT:      -5.8      0.000      0.000
REMARK  4 active torsions:
REMARK  status: ('A' for Active; 'I' for Inactive)
REMARK    1  A    between atoms: C_2  and  N_4 
REMARK       I    between atoms: N_7  and  C_10 
REMARK       I    between atoms: C_10  and  N_12 
REMARK    2  A    between atoms: N_12  and  C_13 
REMARK    3  A    between atoms: C_13  and  C_14 
REMARK    4  A    between atoms: C_14  and  C_15 
ROOT
HETATM    1  N   UNL     1     -44.761 -52.837  15.166  1.00  0.00     0.095 N 
HETATM    2  C   UNL     1     -44.268 -51.443  15.009  1.00  0.00     0.292 C 
HETATM    3  C   UNL     1     -43.924 -51.022  13.562  1.00  0.00     0.158 C 
HETATM    4  N   UNL     1     -43.031 -51.988  12.909  1.00  0.00    -0.331 N 
HETATM    5  C   UNL     1     -43.431 -53.388  13.067  1.00  0.00     0.158 C 
HETATM    6  C   UNL     1     -43.746 -53.724  14.537  1.00  0.00     0.292 C 
HETATM    7  C   UNL     1     -41.867 -51.704  12.221  1.00  0.00     0.318 C 
HETATM    8  O   UNL     1     -41.099 -52.571  11.813  1.00  0.00    -0.247 OA
HETATM    9  N   UNL     1     -41.616 -50.368  12.028  1.00  0.00    -0.343 N 
HETATM   10  H   UNL     1     -42.448 -49.833  11.836  1.00  0.00     0.164 HD
ENDROOT
BRANCH   9  11
HETATM   11  C   UNL     1     -40.426 -49.956  11.290  1.00  0.00     0.130 C 
BRANCH  11  12
HETATM   12  C   UNL     1     -40.216 -48.446  11.369  1.00  0.00     0.077 C 
BRANCH  12  13
HETATM   13  C   UNL     1     -41.293 -47.671  10.681  1.00  0.00     0.018 A 
HETATM   14  C   UNL     1     -41.769 -46.425  11.040  1.00  0.00     0.076 A 
HETATM   15  S   UNL     1     -43.038 -45.954   9.992  1.00  0.00    -0.087 SA
HETATM   16  C   UNL     1     -42.865 -47.433   9.136  1.00  0.00     0.046 A 
HETATM   17  C   UNL     1     -43.744 -47.741   7.975  1.00  0.00     0.076 C 
HETATM   18  N   UNL     1     -41.927 -48.239   9.587  1.00  0.00    -0.357 N 
ATOM     19  HN  UNL     1     -41.700 -49.150   9.188  1.00  0.00     0.166 HD
ENDBRANCH  12  13
ENDBRANCH  11  12
ENDBRANCH   9  11
BRANCH   1  20
HETATM   20  C   UNL     1     -46.137 -53.055  14.659  1.00  0.00     0.215 C 
HETATM   21  C   UNL     1     -46.575 -54.523  14.826  1.00  0.00     0.042 C 
HETATM   22  C   UNL     1     -47.181 -52.200  15.402  1.00  0.00     0.042 C 
ENDBRANCH   1  20
TORSDOF 4
ENDMDL
MODEL 2
REMARK VINA RESULT:      -5.7      3.632      4.353
REMARK  4 active torsions:
REMARK  status: ('A' for Active; 'I' for Inactive)
REMARK    1  A    between atoms: C_2  and  N_4 
REMARK       I    between atoms: N_7  and  C_10 
REMARK       I    between atoms: C_10  and  N_12 
REMARK    2  A    between atoms: N_12  and  C_13 
REMARK    3  A    between atoms: C_13  and  C_14 
REMARK    4  A    between atoms: C_14  and  C_15 
ROOT
HETATM    1  N   UNL     1     -45.162 -53.104  13.487  1.00  0.00     0.095 N 
HETATM    2  C   UNL     1     -44.500 -53.208  14.814  1.00  0.00     0.292 C 
HETATM    3  C   UNL     1     -43.233 -52.340  14.992  1.00  0.00     0.158 C 
HETATM    4  N   UNL     1     -42.278 -52.535  13.894  1.00  0.00    -0.331 N 
HETATM    5  C   UNL     1     -42.873 -52.494  12.556  1.00  0.00     0.158 C 
HETATM    6  C   UNL     1     -44.121 -53.391  12.465  1.00  0.00     0.292 C 
HETATM    7  C   UNL     1     -40.924 -52.788  14.012  1.00  0.00     0.318 C 
HETATM    8  O   UNL     1     -40.208 -53.071  13.055  1.00  0.00    -0.247 OA
HETATM    9  N   UNL     1     -40.426 -52.709  15.288  1.00  0.00    -0.343 N 
HETATM   10  H   UNL     1     -40.839 -51.966  15.829  1.00  0.00     0.164 HD
ENDROOT
BRANCH   9  11
HETATM   11  C   UNL     1     -39.003 -52.932  15.522  1.00  0.00     0.130 C 
BRANCH  11  12
HETATM   12  C   UNL     1     -38.299 -51.646  15.949  1.00  0.00     0.077 C 
BRANCH  12  13
HETATM   13  C   UNL     1     -38.241 -50.624  14.860  1.00  0.00     0.018 A 
HETATM   14  C   UNL     1     -38.636 -49.303  14.946  1.00  0.00     0.076 A 
HETATM   15  S   UNL     1     -38.433 -48.526  13.435  1.00  0.00    -0.087 SA
HETATM   16  C   UNL     1     -37.832 -49.993  12.774  1.00  0.00     0.046 A 
HETATM   17  C   UNL     1     -37.419 -50.065  11.346  1.00  0.00     0.076 C 
HETATM   18  N   UNL     1     -37.779 -51.009  13.610  1.00  0.00    -0.357 N 
ATOM     19  HN  UNL     1     -37.447 -51.943  13.372  1.00  0.00     0.166 HD
ENDBRANCH  12  13
ENDBRANCH  11  12
ENDBRANCH   9  11
BRANCH   1  20
HETATM   20  C   UNL     1     -45.876 -51.823  13.264  1.00  0.00     0.215 C 
HETATM   21  C   UNL     1     -46.747 -51.875  11.995  1.00  0.00     0.042 C 
HETATM   22  C   UNL     1     -46.817 -51.463  14.428  1.00  0.00     0.042 C 
ENDBRANCH   1  20
TORSDOF 4
ENDMDL
MODEL 3
REMARK VINA RESULT:      -5.6      1.523      1.822
REMARK  4 active torsions:
REMARK  status: ('A' for Active; 'I' for Inactive)
REMARK    1  A    between atoms: C_2  and  N_4 
REMARK       I    between atoms: N_7  and  C_10 
REMARK       I    between atoms: C_10  and  N_12 
REMARK    2  A    between atoms: N_12  and  C_13 
REMARK    3  A    between atoms: C_13  and  C_14 
REMARK    4  A    between atoms: C_14  and  C_15 
ROOT
HETATM    1  N   UNL     1     -44.265 -53.595  15.014  1.00  0.00     0.095 N 
HETATM    2  C   UNL     1     -43.752 -52.200  15.045  1.00  0.00     0.292 C 
HETATM    3  C   UNL     1     -42.919 -51.774  13.815  1.00  0.00     0.158 C 
HETATM    4  N   UNL     1     -41.851 -52.737  13.517  1.00  0.00    -0.331 N 
HETATM    5  C   UNL     1     -42.278 -54.138  13.519  1.00  0.00     0.158 C 
HETATM    6  C   UNL     1     -43.092 -54.479  14.781  1.00  0.00     0.292 C 
HETATM    7  C   UNL     1     -40.519 -52.449  13.286  1.00  0.00     0.318 C 
HETATM    8  O   UNL     1     -39.655 -53.315  13.173  1.00  0.00    -0.247 OA
HETATM    9  N   UNL     1     -40.219 -51.113  13.198  1.00  0.00    -0.343 N 
HETATM   10  H   UNL     1     -40.930 -50.578  12.725  1.00  0.00     0.164 HD
ENDROOT
BRANCH   9  11
HETATM   11  C   UNL     1     -38.846 -50.698  12.930  1.00  0.00     0.130 C 
BRANCH  11  12
HETATM   12  C   UNL     1     -38.738 -49.949  11.604  1.00  0.00     0.077 C 
BRANCH  12  13
HETATM   13  C   UNL     1     -39.743 -48.851  11.471  1.00  0.00     0.018 A 
HETATM   14  C   UNL     1     -39.794 -47.686  12.211  1.00  0.00     0.076 A 
HETATM   15  S   UNL     1     -41.147 -46.748  11.745  1.00  0.00    -0.087 SA
HETATM   16  C   UNL     1     -41.569 -47.950  10.593  1.00  0.00     0.046 A 
HETATM   17  C   UNL     1     -42.775 -47.785   9.735  1.00  0.00     0.076 C 
HETATM   18  N   UNL     1     -40.765 -48.991  10.544  1.00  0.00    -0.357 N 
ATOM     19  HN  UNL     1     -40.878 -49.786   9.915  1.00  0.00     0.166 HD
ENDBRANCH  12  13
ENDBRANCH  11  12
ENDBRANCH   9  11
BRANCH   1  20
HETATM   20  C   UNL     1     -45.373 -53.813  14.053  1.00  0.00     0.215 C 
HETATM   21  C   UNL     1     -45.638 -55.313  13.826  1.00  0.00     0.042 C 
HETATM   22  C   UNL     1     -46.701 -53.201  14.536  1.00  0.00     0.042 C 
ENDBRANCH   1  20
TORSDOF 4
ENDMDL
MODEL 4
REMARK VINA RESULT:      -5.5      3.564      7.312
REMARK  4 active torsions:
REMARK  status: ('A' for Active; 'I' for Inactive)
REMARK    1  A    between atoms: C_2  and  N_4 
REMARK       I    between atoms: N_7  and  C_10 
REMARK       I    between atoms: C_10  and  N_12 
REMARK    2  A    between atoms: N_12  and  C_13 
REMARK    3  A    between atoms: C_13  and  C_14 
REMARK    4  A    between atoms: C_14  and  C_15 
ROOT
HETATM    1  N   UNL     1     -39.542 -50.692  13.390  1.00  0.00     0.095 N 
HETATM    2  C   UNL     1     -39.804 -52.154  13.434  1.00  0.00     0.292 C 
HETATM    3  C   UNL     1     -40.909 -52.658  12.477  1.00  0.00     0.158 C 
HETATM    4  N   UNL     1     -42.147 -51.881  12.614  1.00  0.00    -0.331 N 
HETATM    5  C   UNL     1     -41.956 -50.429  12.628  1.00  0.00     0.158 C 
HETATM    6  C   UNL     1     -40.847 -50.015  13.613  1.00  0.00     0.292 C 
HETATM    7  C   UNL     1     -43.425 -52.385  12.769  1.00  0.00     0.318 C 
HETATM    8  O   UNL     1     -44.401 -51.678  13.011  1.00  0.00    -0.247 OA
HETATM    9  N   UNL     1     -43.534 -53.747  12.642  1.00  0.00    -0.343 N 
HETATM   10  H   UNL     1     -42.936 -54.127  11.925  1.00  0.00     0.164 HD
ENDROOT
BRANCH   9  11
HETATM   11  C   UNL     1     -44.843 -54.381  12.762  1.00  0.00     0.130 C 
BRANCH  11  12
HETATM   12  C   UNL     1     -45.012 -55.059  14.120  1.00  0.00     0.077 C 
BRANCH  12  13
HETATM   13  C   UNL     1     -45.294 -54.091  15.223  1.00  0.00     0.018 A 
HETATM   14  C   UNL     1     -44.639 -54.012  16.437  1.00  0.00     0.076 A 
HETATM   15  S   UNL     1     -45.336 -52.784  17.405  1.00  0.00    -0.087 SA
HETATM   16  C   UNL     1     -46.453 -52.442  16.146  1.00  0.00     0.046 A 
HETATM   17  C   UNL     1     -47.477 -51.374  16.314  1.00  0.00     0.076 C 
HETATM   18  N   UNL     1     -46.331 -53.185  15.066  1.00  0.00    -0.357 N 
ATOM     19  HN  UNL     1     -46.916 -53.105  14.234  1.00  0.00     0.166 HD
ENDBRANCH  12  13
ENDBRANCH  11  12
ENDBRANCH   9  11
BRANCH   1  20
HETATM   20  C   UNL     1     -38.839 -50.238  12.165  1.00  0.00     0.215 C 
HETATM   21  C   UNL     1     -38.779 -48.701  12.085  1.00  0.00     0.042 C 
HETATM   22  C   UNL     1     -37.384 -50.737  12.102  1.00  0.00     0.042 C 
ENDBRANCH   1  20
TORSDOF 4
ENDMDL
MODEL 5
REMARK VINA RESULT:      -5.4      1.967      2.064
REMARK  4 active torsions:
REMARK  status: ('A' for Active; 'I' for Inactive)
REMARK    1  A    between atoms: C_2  and  N_4 
REMARK       I    between atoms: N_7  and  C_10 
REMARK       I    between atoms: C_10  and  N_12 
REMARK    2  A    between atoms: N_12  and  C_13 
REMARK    3  A    between atoms: C_13  and  C_14 
REMARK    4  A    between atoms: C_14  and  C_15 
ROOT
HETATM    1  N   UNL     1     -44.571 -52.679  15.028  1.00  0.00     0.095 N 
HETATM    2  C   UNL     1     -44.079 -51.307  14.738  1.00  0.00     0.292 C 
HETATM    3  C   UNL     1     -43.665 -51.049  13.271  1.00  0.00     0.158 C 
HETATM    4  N   UNL     1     -42.736 -52.073  12.777  1.00  0.00    -0.331 N 
HETATM    5  C   UNL     1     -43.136 -53.450  13.073  1.00  0.00     0.158 C 
HETATM    6  C   UNL     1     -43.522 -53.620  14.554  1.00  0.00     0.292 C 
HETATM    7  C   UNL     1     -41.540 -51.855  12.119  1.00  0.00     0.318 C 
HETATM    8  O   UNL     1     -40.748 -52.755  11.850  1.00  0.00    -0.247 OA
HETATM    9  N   UNL     1     -41.287 -50.548  11.788  1.00  0.00    -0.343 N 
HETATM   10  H   UNL     1     -42.112 -50.047  11.496  1.00  0.00     0.164 HD
ENDROOT
BRANCH   9  11
HETATM   11  C   UNL     1     -40.064 -50.209  11.068  1.00  0.00     0.130 C 
BRANCH  11  12
HETATM   12  C   UNL     1     -39.110 -49.395  11.940  1.00  0.00     0.077 C 
BRANCH  12  13
HETATM   13  C   UNL     1     -39.562 -47.985  12.138  1.00  0.00     0.018 A 
HETATM   14  C   UNL     1     -39.959 -47.406  13.328  1.00  0.00     0.076 A 
HETATM   15  S   UNL     1     -40.439 -45.784  13.065  1.00  0.00    -0.087 SA
HETATM   16  C   UNL     1     -40.083 -45.962  11.394  1.00  0.00     0.046 A 
HETATM   17  C   UNL     1     -40.291 -44.828  10.452  1.00  0.00     0.076 C 
HETATM   18  N   UNL     1     -39.635 -47.147  11.036  1.00  0.00    -0.357 N 
ATOM     19  HN  UNL     1     -39.379 -47.410  10.084  1.00  0.00     0.166 HD
ENDBRANCH  12  13
ENDBRANCH  11  12
ENDBRANCH   9  11
BRANCH   1  20
HETATM   20  C   UNL     1     -45.920 -52.969  14.483  1.00  0.00     0.215 C 
HETATM   21  C   UNL     1     -46.392 -54.384  14.865  1.00  0.00     0.042 C 
HETATM   22  C   UNL     1     -46.989 -51.993  15.007  1.00  0.00     0.042 C 
ENDBRANCH   1  20
TORSDOF 4
ENDMDL
MODEL 6
REMARK VINA RESULT:      -5.3      3.974      5.201
REMARK  4 active torsions:
REMARK  status: ('A' for Active; 'I' for Inactive)
REMARK    1  A    between atoms: C_2  and  N_4 
REMARK       I    between atoms: N_7  and  C_10 
REMARK       I    between atoms: C_10  and  N_12 
REMARK    2  A    between atoms: N_12  and  C_13 
REMARK    3  A    between atoms: C_13  and  C_14 
REMARK    4  A    between atoms: C_14  and  C_15 
ROOT
HETATM    1  N   UNL     1     -43.896 -53.199  14.298  1.00  0.00     0.095 N 
HETATM    2  C   UNL     1     -43.400 -51.829  14.002  1.00  0.00     0.292 C 
HETATM    3  C   UNL     1     -42.295 -51.743  12.925  1.00  0.00     0.158 C 
HETATM    4  N   UNL     1     -41.190 -52.672  13.199  1.00  0.00    -0.331 N 
HETATM    5  C   UNL     1     -41.611 -54.031  13.547  1.00  0.00     0.158 C 
HETATM    6  C   UNL     1     -42.704 -54.024  14.631  1.00  0.00     0.292 C 
HETATM    7  C   UNL     1     -39.840 -52.373  13.199  1.00  0.00     0.318 C 
HETATM    8  O   UNL     1     -38.978 -53.166  13.566  1.00  0.00    -0.247 OA
HETATM    9  N   UNL     1     -39.523 -51.111  12.764  1.00  0.00    -0.343 N 
HETATM   10  H   UNL     1     -40.099 -50.800  11.997  1.00  0.00     0.164 HD
ENDROOT
BRANCH   9  11
HETATM   11  C   UNL     1     -38.125 -50.700  12.699  1.00  0.00     0.130 C 
BRANCH  11  12
HETATM   12  C   UNL     1     -37.965 -49.213  13.010  1.00  0.00     0.077 C 
BRANCH  12  13
HETATM   13  C   UNL     1     -37.348 -48.961  14.347  1.00  0.00     0.018 A 
HETATM   14  C   UNL     1     -37.189 -47.734  14.963  1.00  0.00     0.076 A 
HETATM   15  S   UNL     1     -36.385 -47.926  16.463  1.00  0.00    -0.087 SA
HETATM   16  C   UNL     1     -36.308 -49.620  16.191  1.00  0.00     0.046 A 
HETATM   17  C   UNL     1     -35.666 -50.518  17.191  1.00  0.00     0.076 C 
HETATM   18  N   UNL     1     -36.841 -50.036  15.062  1.00  0.00    -0.357 N 
ATOM     19  HN  UNL     1     -36.877 -51.008  14.756  1.00  0.00     0.166 HD
ENDBRANCH  12  13
ENDBRANCH  11  12
ENDBRANCH   9  11
BRANCH   1  20
HETATM   20  C   UNL     1     -44.742 -53.782  13.229  1.00  0.00     0.215 C 
HETATM   21  C   UNL     1     -45.471 -55.050  13.713  1.00  0.00     0.042 C 
HETATM   22  C   UNL     1     -45.832 -52.809  12.743  1.00  0.00     0.042 C 
ENDBRANCH   1  20
TORSDOF 4
ENDMDL
MODEL 7
REMARK VINA RESULT:      -5.0      3.166      7.274
REMARK  4 active torsions:
REMARK  status: ('A' for Active; 'I' for Inactive)
REMARK    1  A    between atoms: C_2  and  N_4 
REMARK       I    between atoms: N_7  and  C_10 
REMARK       I    between atoms: C_10  and  N_12 
REMARK    2  A    between atoms: N_12  and  C_13 
REMARK    3  A    between atoms: C_13  and  C_14 
REMARK    4  A    between atoms: C_14  and  C_15 
ROOT
HETATM    1  N   UNL     1     -39.959 -47.017  12.785  1.00  0.00     0.095 N 
HETATM    2  C   UNL     1     -39.663 -48.258  12.022  1.00  0.00     0.292 C 
HETATM    3  C   UNL     1     -40.885 -49.156  11.719  1.00  0.00     0.158 C 
HETATM    4  N   UNL     1     -41.670 -49.437  12.928  1.00  0.00    -0.331 N 
HETATM    5  C   UNL     1     -41.955 -48.263  13.755  1.00  0.00     0.158 C 
HETATM    6  C   UNL     1     -40.685 -47.432  14.015  1.00  0.00     0.292 C 
HETATM    7  C   UNL     1     -42.108 -50.676  13.359  1.00  0.00     0.318 C 
HETATM    8  O   UNL     1     -42.647 -50.856  14.448  1.00  0.00    -0.247 OA
HETATM    9  N   UNL     1     -41.892 -51.708  12.480  1.00  0.00    -0.343 N 
HETATM   10  H   UNL     1     -42.026 -51.443  11.517  1.00  0.00     0.164 HD
ENDROOT
BRANCH   9  11
HETATM   11  C   UNL     1     -42.339 -53.054  12.824  1.00  0.00     0.130 C 
BRANCH  11  12
HETATM   12  C   UNL     1     -43.716 -53.351  12.234  1.00  0.00     0.077 C 
BRANCH  12  13
HETATM   13  C   UNL     1     -44.781 -53.475  13.275  1.00  0.00     0.018 A 
HETATM   14  C   UNL     1     -45.312 -54.648  13.775  1.00  0.00     0.076 A 
HETATM   15  S   UNL     1     -46.543 -54.301  14.913  1.00  0.00    -0.087 SA
HETATM   16  C   UNL     1     -46.283 -52.622  14.665  1.00  0.00     0.046 A 
HETATM   17  C   UNL     1     -47.095 -51.614  15.402  1.00  0.00     0.076 C 
HETATM   18  N   UNL     1     -45.344 -52.319  13.794  1.00  0.00    -0.357 N 
ATOM     19  HN  UNL     1     -45.070 -51.370  13.537  1.00  0.00     0.166 HD
ENDBRANCH  12  13
ENDBRANCH  11  12
ENDBRANCH   9  11
BRANCH   1  20
HETATM   20  C   UNL     1     -40.666 -45.976  12.001  1.00  0.00     0.215 C 
HETATM   21  C   UNL     1     -40.731 -44.640  12.764  1.00  0.00     0.042 C 
HETATM   22  C   UNL     1     -39.976 -45.680  10.657  1.00  0.00     0.042 C 
ENDBRANCH   1  20
TORSDOF 4
ENDMDL
MODEL 8
REMARK VINA RESULT:      -4.9      2.900      3.332
REMARK  4 active torsions:
REMARK  status: ('A' for Active; 'I' for Inactive)
REMARK    1  A    between atoms: C_2  and  N_4 
REMARK       I    between atoms: N_7  and  C_10 
REMARK       I    between atoms: C_10  and  N_12 
REMARK    2  A    between atoms: N_12  and  C_13 
REMARK    3  A    between atoms: C_13  and  C_14 
REMARK    4  A    between atoms: C_14  and  C_15 
ROOT
HETATM    1  N   UNL     1     -44.689 -52.702  14.497  1.00  0.00     0.095 N 
HETATM    2  C   UNL     1     -43.602 -52.239  15.399  1.00  0.00     0.292 C 
HETATM    3  C   UNL     1     -42.533 -51.337  14.738  1.00  0.00     0.158 C 
HETATM    4  N   UNL     1     -41.999 -51.933  13.507  1.00  0.00    -0.331 N 
HETATM    5  C   UNL     1     -43.017 -52.456  12.593  1.00  0.00     0.158 C 
HETATM    6  C   UNL     1     -44.033 -53.349  13.330  1.00  0.00     0.292 C 
HETATM    7  C   UNL     1     -40.667 -52.077  13.169  1.00  0.00     0.318 C 
HETATM    8  O   UNL     1     -40.288 -52.703  12.183  1.00  0.00    -0.247 OA
HETATM    9  N   UNL     1     -39.780 -51.471  14.025  1.00  0.00    -0.343 N 
HETATM   10  H   UNL     1     -40.110 -50.585  14.374  1.00  0.00     0.164 HD
ENDROOT
BRANCH   9  11
HETATM   11  C   UNL     1     -38.349 -51.538  13.748  1.00  0.00     0.130 C 
BRANCH  11  12
HETATM   12  C   UNL     1     -37.690 -50.167  13.883  1.00  0.00     0.077 C 
BRANCH  12  13
HETATM   13  C   UNL     1     -38.508 -49.066  13.290  1.00  0.00     0.018 A 
HETATM   14  C   UNL     1     -38.862 -48.926  11.962  1.00  0.00     0.076 A 
HETATM   15  S   UNL     1     -39.759 -47.486  11.740  1.00  0.00    -0.087 SA
HETATM   16  C   UNL     1     -39.618 -47.152  13.418  1.00  0.00     0.046 A 
HETATM   17  C   UNL     1     -40.222 -45.920  13.998  1.00  0.00     0.076 C 
HETATM   18  N   UNL     1     -38.949 -48.044  14.117  1.00  0.00    -0.357 N 
ATOM     19  HN  UNL     1     -38.779 -47.991  15.122  1.00  0.00     0.166 HD
ENDBRANCH  12  13
ENDBRANCH  11  12
ENDBRANCH   9  11
BRANCH   1  20
HETATM   20  C   UNL     1     -45.658 -51.644  14.122  1.00  0.00     0.215 C 
HETATM   21  C   UNL     1     -46.452 -52.027  12.859  1.00  0.00     0.042 C 
HETATM   22  C   UNL     1     -46.696 -51.376  15.228  1.00  0.00     0.042 C 
ENDBRANCH   1  20
TORSDOF 4
ENDMDL
MODEL 9
REMARK VINA RESULT:      -4.9      4.671      6.021
REMARK  4 active torsions:
REMARK  status: ('A' for Active; 'I' for Inactive)
REMARK    1  A    between atoms: C_2  and  N_4 
REMARK       I    between atoms: N_7  and  C_10 
REMARK       I    between atoms: C_10  and  N_12 
REMARK    2  A    between atoms: N_12  and  C_13 
REMARK    3  A    between atoms: C_13  and  C_14 
REMARK    4  A    between atoms: C_14  and  C_15 
ROOT
HETATM    1  N   UNL     1     -39.197 -55.609  18.235  1.00  0.00     0.095 N 
HETATM    2  C   UNL     1     -40.503 -55.138  17.703  1.00  0.00     0.292 C 
HETATM    3  C   UNL     1     -40.749 -55.424  16.204  1.00  0.00     0.158 C 
HETATM    4  N   UNL     1     -39.629 -54.971  15.370  1.00  0.00    -0.331 N 
HETATM    5  C   UNL     1     -38.306 -55.359  15.864  1.00  0.00     0.158 C 
HETATM    6  C   UNL     1     -38.143 -55.031  17.359  1.00  0.00     0.292 C 
HETATM    7  C   UNL     1     -39.710 -54.201  14.224  1.00  0.00     0.318 C 
HETATM    8  O   UNL     1     -38.725 -53.748  13.649  1.00  0.00    -0.247 OA
HETATM    9  N   UNL     1     -40.984 -53.966  13.770  1.00  0.00    -0.343 N 
HETATM   10  H   UNL     1     -41.595 -54.761  13.877  1.00  0.00     0.164 HD
ENDROOT
BRANCH   9  11
HETATM   11  C   UNL     1     -41.184 -53.186  12.553  1.00  0.00     0.130 C 
BRANCH  11  12
HETATM   12  C   UNL     1     -41.707 -51.786  12.867  1.00  0.00     0.077 C 
BRANCH  12  13
HETATM   13  C   UNL     1     -40.756 -50.706  12.465  1.00  0.00     0.018 A 
HETATM   14  C   UNL     1     -41.022 -49.351  12.413  1.00  0.00     0.076 A 
HETATM   15  S   UNL     1     -39.648 -48.500  11.849  1.00  0.00    -0.087 SA
HETATM   16  C   UNL     1     -38.797 -49.986  11.718  1.00  0.00     0.046 A 
HETATM   17  C   UNL     1     -37.390 -50.011  11.230  1.00  0.00     0.076 C 
HETATM   18  N   UNL     1     -39.475 -51.058  12.067  1.00  0.00    -0.357 N 
ATOM     19  HN  UNL     1     -39.112 -52.011  12.046  1.00  0.00     0.166 HD
ENDBRANCH  12  13
ENDBRANCH  11  12
ENDBRANCH   9  11
BRANCH   1  20
HETATM   20  C   UNL     1     -39.100 -57.081  18.388  1.00  0.00     0.215 C 
HETATM   21  C   UNL     1     -37.710 -57.506  18.899  1.00  0.00     0.042 C 
HETATM   22  C   UNL     1     -40.125 -57.637  19.394  1.00  0.00     0.042 C 
ENDBRANCH   1  20
TORSDOF 4
ENDMDL
