MODEL 1
REMARK VINA RESULT:      -6.3      0.000      0.000
REMARK  4 active torsions:
REMARK  status: ('A' for Active; 'I' for Inactive)
REMARK    1  A    between atoms: C_5  and  N_6 
REMARK       I    between atoms: N_6  and  C_7 
REMARK       I    between atoms: C_7  and  N_9 
REMARK    2  A    between atoms: N_9  and  C_10 
REMARK    3  A    between atoms: C_11  and  C_12 
REMARK    4  A    between atoms: C_12  and  O_13 
ROOT
HETATM    1  N   UNL     1     -39.298 -49.808  11.661  1.00  0.00    -0.289 N 
HETATM    2  C   UNL     1     -39.458 -50.965  12.368  1.00  0.00     0.322 C 
HETATM    3  O   UNL     1     -38.490 -51.687  12.584  1.00  0.00    -0.247 OA
HETATM    4  N   UNL     1     -40.702 -51.222  12.856  1.00  0.00    -0.337 N 
HETATM    5  H   UNL     1     -38.353 -49.580  11.398  1.00  0.00     0.172 HD
HETATM    6  H   UNL     1     -41.355 -50.450  12.749  1.00  0.00     0.164 HD
ENDROOT
BRANCH   1   7
HETATM    7  C   UNL     1     -40.283 -48.908  11.365  1.00  0.00     0.153 A 
HETATM    8  N   UNL     1     -41.184 -48.985  10.417  1.00  0.00    -0.339 N 
HETATM    9  C   UNL     1     -41.998 -47.863  10.458  1.00  0.00     0.020 A 
ATOM     10  HN  UNL     1     -41.273 -49.751   9.751  1.00  0.00     0.168 HD
HETATM   11  C   UNL     1     -43.020 -47.686   9.394  1.00  0.00     0.069 C 
HETATM   12  C   UNL     1     -41.768 -47.022  11.537  1.00  0.00     0.004 A 
HETATM   13  S   UNL     1     -40.373 -47.552  12.389  1.00  0.00    -0.057 SA
HETATM   14  C   UNL     1     -42.532 -45.818  11.964  1.00  0.00     0.058 C 
ENDBRANCH   1   7
BRANCH   4  15
HETATM   15  C   UNL     1     -40.997 -52.208  13.876  1.00  0.00     0.096 C 
HETATM   16  C   UNL     1     -40.925 -53.698  13.436  1.00  0.00     0.036 C 
HETATM   17  C   UNL     1     -42.325 -54.235  13.853  1.00  0.00    -0.006 C 
HETATM   18  C   UNL     1     -43.375 -53.720  12.856  1.00  0.00     0.005 C 
HETATM   19  C   UNL     1     -42.659 -53.400  15.091  1.00  0.00     0.012 C 
HETATM   20  C   UNL     1     -43.441 -52.223  13.175  1.00  0.00     0.007 C 
HETATM   21  C   UNL     1     -42.462 -52.076  14.360  1.00  0.00     0.009 C 
BRANCH  16  22
HETATM   22  C   UNL     1     -39.796 -54.455  14.148  1.00  0.00     0.171 C 
BRANCH  22  23
HETATM   23  O   UNL     1     -38.626 -54.510  13.340  1.00  0.00    -0.400 OA
HETATM   24  H   UNL     1     -38.601 -53.709  12.794  1.00  0.00     0.209 HD
ENDBRANCH  22  23
ENDBRANCH  16  22
ENDBRANCH   4  15
TORSDOF 4
ENDMDL
MODEL 2
REMARK VINA RESULT:      -6.1      2.703      5.341
REMARK  4 active torsions:
REMARK  status: ('A' for Active; 'I' for Inactive)
REMARK    1  A    between atoms: C_5  and  N_6 
REMARK       I    between atoms: N_6  and  C_7 
REMARK       I    between atoms: C_7  and  N_9 
REMARK    2  A    between atoms: N_9  and  C_10 
REMARK    3  A    between atoms: C_11  and  C_12 
REMARK    4  A    between atoms: C_12  and  O_13 
ROOT
HETATM    1  N   UNL     1     -42.624 -53.258  12.605  1.00  0.00    -0.289 N 
HETATM    2  C   UNL     1     -41.519 -52.486  12.388  1.00  0.00     0.322 C 
HETATM    3  O   UNL     1     -40.438 -53.018  12.160  1.00  0.00    -0.247 OA
HETATM    4  N   UNL     1     -41.702 -51.137  12.379  1.00  0.00    -0.337 N 
HETATM    5  H   UNL     1     -42.494 -54.252  12.505  1.00  0.00     0.172 HD
HETATM    6  H   UNL     1     -42.678 -50.853  12.405  1.00  0.00     0.164 HD
ENDROOT
BRANCH   1   7
HETATM    7  C   UNL     1     -43.887 -52.798  12.853  1.00  0.00     0.153 A 
HETATM    8  N   UNL     1     -44.862 -52.624  11.996  1.00  0.00    -0.339 N 
HETATM    9  C   UNL     1     -45.981 -52.142  12.657  1.00  0.00     0.020 A 
ATOM     10  HN  UNL     1     -44.807 -52.813  10.996  1.00  0.00     0.168 HD
HETATM   11  C   UNL     1     -47.173 -51.761  11.855  1.00  0.00     0.069 C 
HETATM   12  C   UNL     1     -45.859 -52.092  14.038  1.00  0.00     0.004 A 
HETATM   13  S   UNL     1     -44.241 -52.464  14.484  1.00  0.00    -0.057 SA
HETATM   14  C   UNL     1     -46.891 -51.761  15.057  1.00  0.00     0.058 C 
ENDBRANCH   1   7
BRANCH   4  15
HETATM   15  C   UNL     1     -40.743 -50.182  11.861  1.00  0.00     0.096 C 
HETATM   16  C   UNL     1     -39.701 -49.632  12.876  1.00  0.00     0.036 C 
HETATM   17  C   UNL     1     -39.884 -48.092  12.737  1.00  0.00    -0.006 C 
HETATM   18  C   UNL     1     -41.183 -47.677  13.447  1.00  0.00     0.005 C 
HETATM   19  C   UNL     1     -40.283 -47.925  11.269  1.00  0.00     0.012 C 
HETATM   20  C   UNL     1     -42.269 -48.263  12.539  1.00  0.00     0.007 C 
HETATM   21  C   UNL     1     -41.456 -48.892  11.386  1.00  0.00     0.009 C 
BRANCH  16  22
HETATM   22  C   UNL     1     -38.272 -50.064  12.525  1.00  0.00     0.171 C 
BRANCH  22  23
HETATM   23  O   UNL     1     -38.273 -51.247  11.735  1.00  0.00    -0.400 OA
HETATM   24  H   UNL     1     -38.233 -52.008  12.335  1.00  0.00     0.209 HD
ENDBRANCH  22  23
ENDBRANCH  16  22
ENDBRANCH   4  15
TORSDOF 4
ENDMDL
MODEL 3
REMARK VINA RESULT:      -6.0      2.521      3.497
REMARK  4 active torsions:
REMARK  status: ('A' for Active; 'I' for Inactive)
REMARK    1  A    between atoms: C_5  and  N_6 
REMARK       I    between atoms: N_6  and  C_7 
REMARK       I    between atoms: C_7  and  N_9 
REMARK    2  A    between atoms: N_9  and  C_10 
REMARK    3  A    between atoms: C_11  and  C_12 
REMARK    4  A    between atoms: C_12  and  O_13 
ROOT
HETATM    1  N   UNL     1     -40.776 -52.623  12.426  1.00  0.00    -0.289 N 
HETATM    2  C   UNL     1     -41.861 -53.272  12.940  1.00  0.00     0.322 C 
HETATM    3  O   UNL     1     -41.807 -54.480  13.149  1.00  0.00    -0.247 OA
HETATM    4  N   UNL     1     -42.944 -52.510  13.254  1.00  0.00    -0.337 N 
HETATM    5  H   UNL     1     -39.947 -53.182  12.298  1.00  0.00     0.172 HD
HETATM    6  H   UNL     1     -42.776 -51.509  13.192  1.00  0.00     0.164 HD
ENDROOT
BRANCH   1   7
HETATM    7  C   UNL     1     -40.694 -51.284  12.161  1.00  0.00     0.153 A 
HETATM    8  N   UNL     1     -41.450 -50.576  11.358  1.00  0.00    -0.339 N 
HETATM    9  C   UNL     1     -41.035 -49.254  11.376  1.00  0.00     0.020 A 
ATOM     10  HN  UNL     1     -42.224 -50.942  10.805  1.00  0.00     0.168 HD
HETATM   11  C   UNL     1     -41.680 -48.292  10.445  1.00  0.00     0.069 C 
HETATM   12  C   UNL     1     -40.047 -48.971  12.309  1.00  0.00     0.004 A 
HETATM   13  S   UNL     1     -39.497 -50.435  13.022  1.00  0.00    -0.057 SA
HETATM   14  C   UNL     1     -39.470 -47.654  12.690  1.00  0.00     0.058 C 
ENDBRANCH   1   7
BRANCH   4  15
HETATM   15  C   UNL     1     -44.044 -52.951  14.087  1.00  0.00     0.096 C 
HETATM   16  C   UNL     1     -45.184 -53.729  13.369  1.00  0.00     0.036 C 
HETATM   17  C   UNL     1     -46.448 -52.914  13.771  1.00  0.00    -0.006 C 
HETATM   18  C   UNL     1     -46.477 -51.607  12.963  1.00  0.00     0.005 C 
HETATM   19  C   UNL     1     -46.090 -52.393  15.165  1.00  0.00     0.012 C 
HETATM   20  C   UNL     1     -45.314 -50.810  13.564  1.00  0.00     0.007 C 
HETATM   21  C   UNL     1     -44.799 -51.738  14.686  1.00  0.00     0.009 C 
BRANCH  16  22
HETATM   22  C   UNL     1     -45.276 -55.184  13.845  1.00  0.00     0.171 C 
BRANCH  22  23
HETATM   23  O   UNL     1     -44.191 -55.512  14.706  1.00  0.00    -0.400 OA
HETATM   24  H   UNL     1     -44.219 -56.467  14.873  1.00  0.00     0.209 HD
ENDBRANCH  22  23
ENDBRANCH  16  22
ENDBRANCH   4  15
TORSDOF 4
ENDMDL
MODEL 4
REMARK VINA RESULT:      -6.0      2.369      3.103
REMARK  4 active torsions:
REMARK  status: ('A' for Active; 'I' for Inactive)
REMARK    1  A    between atoms: C_5  and  N_6 
REMARK       I    between atoms: N_6  and  C_7 
REMARK       I    between atoms: C_7  and  N_9 
REMARK    2  A    between atoms: N_9  and  C_10 
REMARK    3  A    between atoms: C_11  and  C_12 
REMARK    4  A    between atoms: C_12  and  O_13 
ROOT
HETATM    1  N   UNL     1     -40.419 -50.811  11.278  1.00  0.00    -0.289 N 
HETATM    2  C   UNL     1     -41.186 -51.796  11.831  1.00  0.00     0.322 C 
HETATM    3  O   UNL     1     -40.747 -52.939  11.908  1.00  0.00    -0.247 OA
HETATM    4  N   UNL     1     -42.397 -51.428  12.331  1.00  0.00    -0.337 N 
HETATM    5  H   UNL     1     -39.486 -51.078  11.008  1.00  0.00     0.172 HD
HETATM    6  H   UNL     1     -42.544 -50.422  12.354  1.00  0.00     0.164 HD
ENDROOT
BRANCH   1   7
HETATM    7  C   UNL     1     -40.776 -49.498  11.145  1.00  0.00     0.153 A 
HETATM    8  N   UNL     1     -41.747 -48.998  10.421  1.00  0.00    -0.339 N 
HETATM    9  C   UNL     1     -41.771 -47.620  10.565  1.00  0.00     0.020 A 
ATOM     10  HN  UNL     1     -42.386 -49.540   9.840  1.00  0.00     0.168 HD
HETATM   11  C   UNL     1     -42.723 -46.834   9.738  1.00  0.00     0.069 C 
HETATM   12  C   UNL     1     -40.888 -47.123  11.513  1.00  0.00     0.004 A 
HETATM   13  S   UNL     1     -39.877 -48.393  12.076  1.00  0.00    -0.057 SA
HETATM   14  C   UNL     1     -40.744 -45.730  12.017  1.00  0.00     0.058 C 
ENDBRANCH   1   7
BRANCH   4  15
HETATM   15  C   UNL     1     -43.199 -52.241  13.222  1.00  0.00     0.096 C 
HETATM   16  C   UNL     1     -44.711 -51.883  13.309  1.00  0.00     0.036 C 
HETATM   17  C   UNL     1     -44.917 -51.683  14.839  1.00  0.00    -0.006 C 
HETATM   18  C   UNL     1     -44.307 -50.335  15.253  1.00  0.00     0.005 C 
HETATM   19  C   UNL     1     -43.914 -52.663  15.451  1.00  0.00     0.012 C 
HETATM   20  C   UNL     1     -42.802 -50.585  15.111  1.00  0.00     0.007 C 
HETATM   21  C   UNL     1     -42.733 -52.069  14.689  1.00  0.00     0.009 C 
BRANCH  16  22
HETATM   22  C   UNL     1     -45.600 -53.007  12.762  1.00  0.00     0.171 C 
BRANCH  22  23
HETATM   23  O   UNL     1     -46.368 -52.559  11.650  1.00  0.00    -0.400 OA
HETATM   24  H   UNL     1     -45.943 -51.764  11.293  1.00  0.00     0.209 HD
ENDBRANCH  22  23
ENDBRANCH  16  22
ENDBRANCH   4  15
TORSDOF 4
ENDMDL
MODEL 5
REMARK VINA RESULT:      -5.8      2.486      4.195
REMARK  4 active torsions:
REMARK  status: ('A' for Active; 'I' for Inactive)
REMARK    1  A    between atoms: C_5  and  N_6 
REMARK       I    between atoms: N_6  and  C_7 
REMARK       I    between atoms: C_7  and  N_9 
REMARK    2  A    between atoms: N_9  and  C_10 
REMARK    3  A    between atoms: C_11  and  C_12 
REMARK    4  A    between atoms: C_12  and  O_13 
ROOT
HETATM    1  N   UNL     1     -42.013 -47.805  11.322  1.00  0.00    -0.289 N 
HETATM    2  C   UNL     1     -41.467 -48.977  11.760  1.00  0.00     0.322 C 
HETATM    3  O   UNL     1     -42.176 -49.969  11.893  1.00  0.00    -0.247 OA
HETATM    4  N   UNL     1     -40.122 -48.990  11.969  1.00  0.00    -0.337 N 
HETATM    5  H   UNL     1     -42.988 -47.840  11.072  1.00  0.00     0.172 HD
HETATM    6  H   UNL     1     -39.647 -48.151  11.648  1.00  0.00     0.164 HD
ENDROOT
BRANCH   1   7
HETATM    7  C   UNL     1     -41.338 -46.634  11.116  1.00  0.00     0.153 A 
HETATM    8  N   UNL     1     -40.484 -46.356  10.161  1.00  0.00    -0.339 N 
HETATM    9  C   UNL     1     -40.028 -45.056  10.311  1.00  0.00     0.020 A 
ATOM     10  HN  UNL     1     -40.199 -46.998   9.422  1.00  0.00     0.168 HD
HETATM   11  C   UNL     1     -38.959 -44.568   9.402  1.00  0.00     0.069 C 
HETATM   12  C   UNL     1     -40.661 -44.334  11.312  1.00  0.00     0.004 A 
HETATM   13  S   UNL     1     -41.696 -45.376  12.204  1.00  0.00    -0.057 SA
HETATM   14  C   UNL     1     -40.522 -42.893  11.657  1.00  0.00     0.058 C 
ENDBRANCH   1   7
BRANCH   4  15
HETATM   15  C   UNL     1     -39.326 -50.191  12.120  1.00  0.00     0.096 C 
HETATM   16  C   UNL     1     -39.553 -51.009  13.424  1.00  0.00     0.036 C 
HETATM   17  C   UNL     1     -38.111 -51.120  14.001  1.00  0.00    -0.006 C 
HETATM   18  C   UNL     1     -37.712 -49.766  14.610  1.00  0.00     0.005 C 
HETATM   19  C   UNL     1     -37.239 -51.147  12.744  1.00  0.00     0.012 C 
HETATM   20  C   UNL     1     -37.550 -48.873  13.376  1.00  0.00     0.007 C 
HETATM   21  C   UNL     1     -37.819 -49.844  12.205  1.00  0.00     0.009 C 
BRANCH  16  22
HETATM   22  C   UNL     1     -40.153 -52.392  13.139  1.00  0.00     0.171 C 
BRANCH  22  23
HETATM   23  O   UNL     1     -40.448 -52.548  11.755  1.00  0.00    -0.400 OA
HETATM   24  H   UNL     1     -40.044 -51.808  11.277  1.00  0.00     0.209 HD
ENDBRANCH  22  23
ENDBRANCH  16  22
ENDBRANCH   4  15
TORSDOF 4
ENDMDL
MODEL 6
REMARK VINA RESULT:      -5.8      3.545      5.058
REMARK  4 active torsions:
REMARK  status: ('A' for Active; 'I' for Inactive)
REMARK    1  A    between atoms: C_5  and  N_6 
REMARK       I    between atoms: N_6  and  C_7 
REMARK       I    between atoms: C_7  and  N_9 
REMARK    2  A    between atoms: N_9  and  C_10 
REMARK    3  A    between atoms: C_11  and  C_12 
REMARK    4  A    between atoms: C_12  and  O_13 
ROOT
HETATM    1  N   UNL     1     -42.750 -52.813  11.747  1.00  0.00    -0.289 N 
HETATM    2  C   UNL     1     -43.820 -52.956  12.583  1.00  0.00     0.322 C 
HETATM    3  O   UNL     1     -44.765 -53.664  12.248  1.00  0.00    -0.247 OA
HETATM    4  N   UNL     1     -43.744 -52.338  13.793  1.00  0.00    -0.337 N 
HETATM    5  H   UNL     1     -42.775 -53.360  10.902  1.00  0.00     0.172 HD
HETATM    6  H   UNL     1     -42.832 -51.939  13.996  1.00  0.00     0.164 HD
ENDROOT
BRANCH   1   7
HETATM    7  C   UNL     1     -41.630 -52.072  12.000  1.00  0.00     0.153 A 
HETATM    8  N   UNL     1     -41.375 -50.844  11.620  1.00  0.00    -0.339 N 
HETATM    9  C   UNL     1     -40.127 -50.463  12.087  1.00  0.00     0.020 A 
ATOM     10  HN  UNL     1     -41.999 -50.259  11.066  1.00  0.00     0.168 HD
HETATM   11  C   UNL     1     -39.584 -49.143  11.673  1.00  0.00     0.069 C 
HETATM   12  C   UNL     1     -39.522 -51.381  12.933  1.00  0.00     0.004 A 
HETATM   13  S   UNL     1     -40.452 -52.826  12.970  1.00  0.00    -0.057 SA
HETATM   14  C   UNL     1     -38.262 -51.246  13.713  1.00  0.00     0.058 C 
ENDBRANCH   1   7
BRANCH   4  15
HETATM   15  C   UNL     1     -44.612 -52.626  14.917  1.00  0.00     0.096 C 
HETATM   16  C   UNL     1     -45.885 -51.741  15.050  1.00  0.00     0.036 C 
HETATM   17  C   UNL     1     -45.759 -51.195  16.503  1.00  0.00    -0.006 C 
HETATM   18  C   UNL     1     -44.678 -50.102  16.533  1.00  0.00     0.005 C 
HETATM   19  C   UNL     1     -45.048 -52.334  17.237  1.00  0.00     0.012 C 
HETATM   20  C   UNL     1     -43.385 -50.896  16.322  1.00  0.00     0.007 C 
HETATM   21  C   UNL     1     -43.881 -52.358  16.256  1.00  0.00     0.009 C 
BRANCH  16  22
HETATM   22  C   UNL     1     -47.172 -52.553  14.863  1.00  0.00     0.171 C 
BRANCH  22  23
HETATM   23  O   UNL     1     -46.903 -53.807  14.245  1.00  0.00    -0.400 OA
HETATM   24  H   UNL     1     -46.915 -54.489  14.934  1.00  0.00     0.209 HD
ENDBRANCH  22  23
ENDBRANCH  16  22
ENDBRANCH   4  15
TORSDOF 4
ENDMDL
MODEL 7
REMARK VINA RESULT:      -5.7      3.434      7.376
REMARK  4 active torsions:
REMARK  status: ('A' for Active; 'I' for Inactive)
REMARK    1  A    between atoms: C_5  and  N_6 
REMARK       I    between atoms: N_6  and  C_7 
REMARK       I    between atoms: C_7  and  N_9 
REMARK    2  A    between atoms: N_9  and  C_10 
REMARK    3  A    between atoms: C_11  and  C_12 
REMARK    4  A    between atoms: C_12  and  O_13 
ROOT
HETATM    1  N   UNL     1     -41.268 -48.961  10.395  1.00  0.00    -0.289 N 
HETATM    2  C   UNL     1     -41.537 -47.642  10.621  1.00  0.00     0.322 C 
HETATM    3  O   UNL     1     -42.323 -47.045   9.891  1.00  0.00    -0.247 OA
HETATM    4  N   UNL     1     -40.950 -47.070  11.707  1.00  0.00    -0.337 N 
HETATM    5  H   UNL     1     -41.791 -49.396   9.651  1.00  0.00     0.172 HD
HETATM    6  H   UNL     1     -40.472 -47.731  12.313  1.00  0.00     0.164 HD
ENDROOT
BRANCH   1   7
HETATM    7  C   UNL     1     -40.431 -49.746  11.136  1.00  0.00     0.153 A 
HETATM    8  N   UNL     1     -39.120 -49.741  11.143  1.00  0.00    -0.339 N 
HETATM    9  C   UNL     1     -38.658 -50.692  12.039  1.00  0.00     0.020 A 
ATOM     10  HN  UNL     1     -38.532 -49.132  10.576  1.00  0.00     0.168 HD
HETATM   11  C   UNL     1     -37.195 -50.940  12.122  1.00  0.00     0.069 C 
HETATM   12  C   UNL     1     -39.648 -51.305  12.793  1.00  0.00     0.004 A 
HETATM   13  S   UNL     1     -41.191 -50.819  12.216  1.00  0.00    -0.057 SA
HETATM   14  C   UNL     1     -39.505 -52.260  13.926  1.00  0.00     0.058 C 
ENDBRANCH   1   7
BRANCH   4  15
HETATM   15  C   UNL     1     -41.352 -45.804  12.287  1.00  0.00     0.096 C 
HETATM   16  C   UNL     1     -40.734 -44.527  11.649  1.00  0.00     0.036 C 
HETATM   17  C   UNL     1     -40.106 -43.811  12.881  1.00  0.00    -0.006 C 
HETATM   18  C   UNL     1     -38.819 -44.549  13.283  1.00  0.00     0.005 C 
HETATM   19  C   UNL     1     -41.044 -44.208  14.023  1.00  0.00     0.012 C 
HETATM   20  C   UNL     1     -39.348 -45.870  13.851  1.00  0.00     0.007 C 
HETATM   21  C   UNL     1     -40.880 -45.701  13.758  1.00  0.00     0.009 C 
BRANCH  16  22
HETATM   22  C   UNL     1     -41.796 -43.652  10.970  1.00  0.00     0.171 C 
BRANCH  22  23
HETATM   23  O   UNL     1     -41.233 -42.432  10.501  1.00  0.00    -0.400 OA
HETATM   24  H   UNL     1     -40.605 -42.644   9.794  1.00  0.00     0.209 HD
ENDBRANCH  22  23
ENDBRANCH  16  22
ENDBRANCH   4  15
TORSDOF 4
ENDMDL
MODEL 8
REMARK VINA RESULT:      -5.7      2.278      3.971
REMARK  4 active torsions:
REMARK  status: ('A' for Active; 'I' for Inactive)
REMARK    1  A    between atoms: C_5  and  N_6 
REMARK       I    between atoms: N_6  and  C_7 
REMARK       I    between atoms: C_7  and  N_9 
REMARK    2  A    between atoms: N_9  and  C_10 
REMARK    3  A    between atoms: C_11  and  C_12 
REMARK    4  A    between atoms: C_12  and  O_13 
ROOT
HETATM    1  N   UNL     1     -43.089 -49.925  12.187  1.00  0.00    -0.289 N 
HETATM    2  C   UNL     1     -42.071 -50.811  12.392  1.00  0.00     0.322 C 
HETATM    3  O   UNL     1     -42.283 -52.017  12.303  1.00  0.00    -0.247 OA
HETATM    4  N   UNL     1     -40.837 -50.289  12.629  1.00  0.00    -0.337 N 
HETATM    5  H   UNL     1     -43.971 -50.324  11.909  1.00  0.00     0.172 HD
HETATM    6  H   UNL     1     -40.783 -49.282  12.497  1.00  0.00     0.164 HD
ENDROOT
BRANCH   1   7
HETATM    7  C   UNL     1     -42.988 -48.563  12.239  1.00  0.00     0.153 A 
HETATM    8  N   UNL     1     -43.013 -47.795  13.300  1.00  0.00    -0.339 N 
HETATM    9  C   UNL     1     -42.879 -46.470  12.917  1.00  0.00     0.020 A 
ATOM     10  HN  UNL     1     -43.117 -48.122  14.260  1.00  0.00     0.168 HD
HETATM   11  C   UNL     1     -42.999 -45.413  13.955  1.00  0.00     0.069 C 
HETATM   12  C   UNL     1     -42.618 -46.282  11.567  1.00  0.00     0.004 A 
HETATM   13  S   UNL     1     -42.748 -47.785  10.744  1.00  0.00    -0.057 SA
HETATM   14  C   UNL     1     -42.288 -45.024  10.844  1.00  0.00     0.058 C 
ENDBRANCH   1   7
BRANCH   4  15
HETATM   15  C   UNL     1     -39.599 -51.038  12.555  1.00  0.00     0.096 C 
HETATM   16  C   UNL     1     -39.012 -51.537  13.907  1.00  0.00     0.036 C 
HETATM   17  C   UNL     1     -37.564 -50.966  13.870  1.00  0.00    -0.006 C 
HETATM   18  C   UNL     1     -37.616 -49.455  14.150  1.00  0.00     0.005 C 
HETATM   19  C   UNL     1     -37.228 -50.979  12.377  1.00  0.00     0.012 C 
HETATM   20  C   UNL     1     -38.267 -48.897  12.881  1.00  0.00     0.007 C 
HETATM   21  C   UNL     1     -38.454 -50.153  12.003  1.00  0.00     0.009 C 
BRANCH  16  22
HETATM   22  C   UNL     1     -39.013 -53.067  14.005  1.00  0.00     0.171 C 
BRANCH  22  23
HETATM   23  O   UNL     1     -39.752 -53.650  12.937  1.00  0.00    -0.400 OA
HETATM   24  H   UNL     1     -40.451 -54.201  13.322  1.00  0.00     0.209 HD
ENDBRANCH  22  23
ENDBRANCH  16  22
ENDBRANCH   4  15
TORSDOF 4
ENDMDL
MODEL 9
REMARK VINA RESULT:      -5.6      2.875      3.623
REMARK  4 active torsions:
REMARK  status: ('A' for Active; 'I' for Inactive)
REMARK    1  A    between atoms: C_5  and  N_6 
REMARK       I    between atoms: N_6  and  C_7 
REMARK       I    between atoms: C_7  and  N_9 
REMARK    2  A    between atoms: N_9  and  C_10 
REMARK    3  A    between atoms: C_11  and  C_12 
REMARK    4  A    between atoms: C_12  and  O_13 
ROOT
HETATM    1  N   UNL     1     -41.362 -52.024  12.726  1.00  0.00    -0.289 N 
HETATM    2  C   UNL     1     -42.253 -52.917  13.248  1.00  0.00     0.322 C 
HETATM    3  O   UNL     1     -41.956 -54.106  13.317  1.00  0.00    -0.247 OA
HETATM    4  N   UNL     1     -43.422 -52.413  13.729  1.00  0.00    -0.337 N 
HETATM    5  H   UNL     1     -40.461 -52.397  12.471  1.00  0.00     0.172 HD
HETATM    6  H   UNL     1     -43.449 -51.397  13.764  1.00  0.00     0.164 HD
ENDROOT
BRANCH   1   7
HETATM    7  C   UNL     1     -41.556 -50.676  12.605  1.00  0.00     0.153 A 
HETATM    8  N   UNL     1     -42.229 -50.041  11.677  1.00  0.00    -0.339 N 
HETATM    9  C   UNL     1     -42.182 -48.677  11.922  1.00  0.00     0.020 A 
ATOM     10  HN  UNL     1     -42.711 -50.482  10.895  1.00  0.00     0.168 HD
HETATM   11  C   UNL     1     -42.783 -47.754  10.925  1.00  0.00     0.069 C 
HETATM   12  C   UNL     1     -41.579 -48.326  13.121  1.00  0.00     0.004 A 
HETATM   13  S   UNL     1     -40.884 -49.722  13.843  1.00  0.00    -0.057 SA
HETATM   14  C   UNL     1     -41.477 -46.986  13.759  1.00  0.00     0.058 C 
ENDBRANCH   1   7
BRANCH   4  15
HETATM   15  C   UNL     1     -44.335 -53.135  14.591  1.00  0.00     0.096 C 
HETATM   16  C   UNL     1     -45.634 -53.672  13.924  1.00  0.00     0.036 C 
HETATM   17  C   UNL     1     -46.746 -53.073  14.834  1.00  0.00    -0.006 C 
HETATM   18  C   UNL     1     -46.893 -51.575  14.522  1.00  0.00     0.005 C 
HETATM   19  C   UNL     1     -46.075 -53.024  16.209  1.00  0.00     0.012 C 
HETATM   20  C   UNL     1     -45.596 -50.982  15.081  1.00  0.00     0.007 C 
HETATM   21  C   UNL     1     -44.890 -52.208  15.700  1.00  0.00     0.009 C 
BRANCH  16  22
HETATM   22  C   UNL     1     -45.682 -55.205  13.910  1.00  0.00     0.171 C 
BRANCH  22  23
HETATM   23  O   UNL     1     -44.489 -55.761  14.451  1.00  0.00    -0.400 OA
HETATM   24  H   UNL     1     -43.801 -55.079  14.422  1.00  0.00     0.209 HD
ENDBRANCH  22  23
ENDBRANCH  16  22
ENDBRANCH   4  15
TORSDOF 4
ENDMDL
