MODEL 1
REMARK VINA RESULT:      -5.8      0.000      0.000
REMARK  2 active torsions:
REMARK  status: ('A' for Active; 'I' for Inactive)
REMARK    1  A    between atoms: C_2  and  C_5 
REMARK    2  A    between atoms: C_8  and  C_11 
ROOT
HETATM    1  C   UNL     1     -45.176 -47.678   9.384  1.00  0.00     0.123 A 
HETATM    2  C   UNL     1     -44.428 -46.683   8.781  1.00  0.00     0.085 A 
HETATM    3  S   UNL     1     -43.025 -46.350   9.697  1.00  0.00    -0.086 SA
HETATM    4  C   UNL     1     -43.468 -47.560  10.836  1.00  0.00     0.057 A 
HETATM    5  N   UNL     1     -44.605 -48.173  10.562  1.00  0.00    -0.349 N 
ATOM      6  HN  UNL     1     -45.014 -48.911  11.134  1.00  0.00     0.166 HD
ENDROOT
BRANCH   4   7
HETATM    7  C   UNL     1     -42.632 -47.929  12.049  1.00  0.00     0.071 C 
HETATM    8  C   UNL     1     -41.129 -47.864  11.729  1.00  0.00     0.015 C 
HETATM    9  C   UNL     1     -40.647 -49.128  11.021  1.00  0.00     0.031 C 
HETATM   10  C   UNL     1     -41.027 -50.380  11.805  1.00  0.00     0.269 C 
HETATM   11  N   UNL     1     -42.468 -50.452  12.037  1.00  0.00     0.084 N 
HETATM   12  C   UNL     1     -42.973 -49.264  12.738  1.00  0.00     0.280 C 
HETATM   13  H   UNL     1     -42.682 -51.287  12.585  1.00  0.00     0.315 HD
ENDBRANCH   4   7
BRANCH   1  14
HETATM   14  C   UNL     1     -46.477 -48.226   8.874  1.00  0.00     0.433 C 
HETATM   15  F   UNL     1     -46.896 -49.300   9.601  1.00  0.00    -0.165 F 
HETATM   16  F   UNL     1     -46.389 -48.645   7.585  1.00  0.00    -0.165 F 
HETATM   17  F   UNL     1     -47.480 -47.312   8.928  1.00  0.00    -0.165 F 
ENDBRANCH   1  14
TORSDOF 2
ENDMDL
MODEL 2
REMARK VINA RESULT:      -5.7      1.486      2.328
REMARK  2 active torsions:
REMARK  status: ('A' for Active; 'I' for Inactive)
REMARK    1  A    between atoms: C_2  and  C_5 
REMARK    2  A    between atoms: C_8  and  C_11 
ROOT
HETATM    1  C   UNL     1     -45.280 -47.587   9.334  1.00  0.00     0.123 A 
HETATM    2  C   UNL     1     -44.759 -46.427   8.791  1.00  0.00     0.085 A 
HETATM    3  S   UNL     1     -43.287 -46.014   9.554  1.00  0.00    -0.086 SA
HETATM    4  C   UNL     1     -43.403 -47.410  10.553  1.00  0.00     0.057 A 
HETATM    5  N   UNL     1     -44.484 -48.139  10.344  1.00  0.00    -0.349 N 
ATOM      6  HN  UNL     1     -44.708 -48.995  10.851  1.00  0.00     0.166 HD
ENDROOT
BRANCH   4   7
HETATM    7  C   UNL     1     -42.357 -47.806  11.581  1.00  0.00     0.071 C 
HETATM    8  C   UNL     1     -42.260 -46.764  12.707  1.00  0.00     0.015 C 
HETATM    9  C   UNL     1     -41.398 -45.571  12.300  1.00  0.00     0.031 C 
HETATM   10  C   UNL     1     -40.030 -46.023  11.798  1.00  0.00     0.269 C 
HETATM   11  N   UNL     1     -40.149 -46.961  10.684  1.00  0.00     0.084 N 
HETATM   12  C   UNL     1     -40.953 -48.137  11.039  1.00  0.00     0.280 C 
HETATM   13  H   UNL     1     -39.217 -47.261  10.393  1.00  0.00     0.315 HD
ENDBRANCH   4   7
BRANCH   1  14
HETATM   14  C   UNL     1     -46.564 -48.246   8.925  1.00  0.00     0.433 C 
HETATM   15  F   UNL     1     -46.520 -48.691   7.638  1.00  0.00    -0.165 F 
HETATM   16  F   UNL     1     -47.625 -47.400   9.002  1.00  0.00    -0.165 F 
HETATM   17  F   UNL     1     -46.860 -49.326   9.694  1.00  0.00    -0.165 F 
ENDBRANCH   1  14
TORSDOF 2
ENDMDL
MODEL 3
REMARK VINA RESULT:      -5.3      2.306      2.991
REMARK  2 active torsions:
REMARK  status: ('A' for Active; 'I' for Inactive)
REMARK    1  A    between atoms: C_2  and  C_5 
REMARK    2  A    between atoms: C_8  and  C_11 
ROOT
HETATM    1  C   UNL     1     -42.949 -47.449   9.676  1.00  0.00     0.123 A 
HETATM    2  C   UNL     1     -43.046 -46.373  10.540  1.00  0.00     0.085 A 
HETATM    3  S   UNL     1     -42.365 -46.760  12.059  1.00  0.00    -0.086 SA
HETATM    4  C   UNL     1     -41.954 -48.329  11.486  1.00  0.00     0.057 A 
HETATM    5  N   UNL     1     -42.313 -48.562  10.237  1.00  0.00    -0.349 N 
ATOM      6  HN  UNL     1     -42.149 -49.440   9.745  1.00  0.00     0.166 HD
ENDROOT
BRANCH   4   7
HETATM    7  C   UNL     1     -41.219 -49.368  12.315  1.00  0.00     0.071 C 
HETATM    8  C   UNL     1     -40.269 -48.703  13.325  1.00  0.00     0.015 C 
HETATM    9  C   UNL     1     -38.948 -48.298  12.676  1.00  0.00     0.031 C 
HETATM   10  C   UNL     1     -38.305 -49.476  11.951  1.00  0.00     0.269 C 
HETATM   11  N   UNL     1     -39.203 -50.047  10.950  1.00  0.00     0.084 N 
HETATM   12  C   UNL     1     -40.481 -50.472  11.536  1.00  0.00     0.280 C 
HETATM   13  H   UNL     1     -38.750 -50.847  10.505  1.00  0.00     0.315 HD
ENDBRANCH   4   7
BRANCH   1  14
HETATM   14  C   UNL     1     -43.447 -47.484   8.261  1.00  0.00     0.433 C 
HETATM   15  F   UNL     1     -43.204 -46.314   7.607  1.00  0.00    -0.165 F 
HETATM   16  F   UNL     1     -44.789 -47.690   8.194  1.00  0.00    -0.165 F 
HETATM   17  F   UNL     1     -42.856 -48.463   7.528  1.00  0.00    -0.165 F 
ENDBRANCH   1  14
TORSDOF 2
ENDMDL
MODEL 4
REMARK VINA RESULT:      -5.2      3.393      4.718
REMARK  2 active torsions:
REMARK  status: ('A' for Active; 'I' for Inactive)
REMARK    1  A    between atoms: C_2  and  C_5 
REMARK    2  A    between atoms: C_8  and  C_11 
ROOT
HETATM    1  C   UNL     1     -44.898 -51.827  13.015  1.00  0.00     0.123 A 
HETATM    2  C   UNL     1     -43.994 -52.850  12.790  1.00  0.00     0.085 A 
HETATM    3  S   UNL     1     -42.416 -52.224  12.595  1.00  0.00    -0.086 SA
HETATM    4  C   UNL     1     -43.008 -50.628  12.841  1.00  0.00     0.057 A 
HETATM    5  N   UNL     1     -44.310 -50.557  13.045  1.00  0.00    -0.349 N 
ATOM      6  HN  UNL     1     -44.822 -49.689  13.205  1.00  0.00     0.166 HD
ENDROOT
BRANCH   4   7
HETATM    7  C   UNL     1     -42.127 -49.390  12.853  1.00  0.00     0.071 C 
HETATM    8  C   UNL     1     -42.940 -48.127  12.522  1.00  0.00     0.015 C 
HETATM    9  C   UNL     1     -43.140 -47.961  11.018  1.00  0.00     0.031 C 
HETATM   10  C   UNL     1     -41.810 -48.016  10.274  1.00  0.00     0.269 C 
HETATM   11  N   UNL     1     -41.088 -49.256  10.552  1.00  0.00     0.084 N 
HETATM   12  C   UNL     1     -40.853 -49.445  11.989  1.00  0.00     0.280 C 
HETATM   13  H   UNL     1     -40.194 -49.245  10.059  1.00  0.00     0.315 HD
ENDBRANCH   4   7
BRANCH   1  14
HETATM   14  C   UNL     1     -46.375 -51.993  13.222  1.00  0.00     0.433 C 
HETATM   15  F   UNL     1     -46.893 -51.006  14.006  1.00  0.00    -0.165 F 
HETATM   16  F   UNL     1     -46.680 -53.168  13.831  1.00  0.00    -0.165 F 
HETATM   17  F   UNL     1     -47.068 -51.957  12.054  1.00  0.00    -0.165 F 
ENDBRANCH   1  14
TORSDOF 2
ENDMDL
MODEL 5
REMARK VINA RESULT:      -5.2      1.279      1.631
REMARK  2 active torsions:
REMARK  status: ('A' for Active; 'I' for Inactive)
REMARK    1  A    between atoms: C_2  and  C_5 
REMARK    2  A    between atoms: C_8  and  C_11 
ROOT
HETATM    1  C   UNL     1     -43.908 -47.397   9.836  1.00  0.00     0.123 A 
HETATM    2  C   UNL     1     -42.895 -46.481   9.619  1.00  0.00     0.085 A 
HETATM    3  S   UNL     1     -41.649 -46.679  10.771  1.00  0.00    -0.086 SA
HETATM    4  C   UNL     1     -42.507 -47.987  11.487  1.00  0.00     0.057 A 
HETATM    5  N   UNL     1     -43.664 -48.257  10.912  1.00  0.00    -0.349 N 
ATOM      6  HN  UNL     1     -44.298 -48.997  11.214  1.00  0.00     0.166 HD
ENDROOT
BRANCH   4   7
HETATM    7  C   UNL     1     -41.991 -48.795  12.666  1.00  0.00     0.071 C 
HETATM    8  C   UNL     1     -40.463 -48.960  12.600  1.00  0.00     0.015 C 
HETATM    9  C   UNL     1     -40.056 -50.089  11.657  1.00  0.00     0.031 C 
HETATM   10  C   UNL     1     -40.774 -51.389  12.010  1.00  0.00     0.269 C 
HETATM   11  N   UNL     1     -42.225 -51.222  12.000  1.00  0.00     0.084 N 
HETATM   12  C   UNL     1     -42.664 -50.158  12.912  1.00  0.00     0.280 C 
HETATM   13  H   UNL     1     -42.670 -52.103  12.265  1.00  0.00     0.315 HD
ENDBRANCH   4   7
BRANCH   1  14
HETATM   14  C   UNL     1     -45.169 -47.516   9.031  1.00  0.00     0.433 C 
HETATM   15  F   UNL     1     -44.956 -48.150   7.844  1.00  0.00    -0.165 F 
HETATM   16  F   UNL     1     -45.703 -46.304   8.728  1.00  0.00    -0.165 F 
HETATM   17  F   UNL     1     -46.131 -48.225   9.677  1.00  0.00    -0.165 F 
ENDBRANCH   1  14
TORSDOF 2
ENDMDL
MODEL 6
REMARK VINA RESULT:      -5.1      3.248      4.249
REMARK  2 active torsions:
REMARK  status: ('A' for Active; 'I' for Inactive)
REMARK    1  A    between atoms: C_2  and  C_5 
REMARK    2  A    between atoms: C_8  and  C_11 
ROOT
HETATM    1  C   UNL     1     -42.994 -47.270   9.844  1.00  0.00     0.123 A 
HETATM    2  C   UNL     1     -43.133 -47.982  11.022  1.00  0.00     0.085 A 
HETATM    3  S   UNL     1     -41.805 -47.695  12.058  1.00  0.00    -0.086 SA
HETATM    4  C   UNL     1     -41.122 -46.620  10.901  1.00  0.00     0.057 A 
HETATM    5  N   UNL     1     -41.833 -46.489   9.796  1.00  0.00    -0.349 N 
ATOM      6  HN  UNL     1     -41.571 -45.896   9.009  1.00  0.00     0.166 HD
ENDROOT
BRANCH   4   7
HETATM    7  C   UNL     1     -39.827 -45.856  11.114  1.00  0.00     0.071 C 
HETATM    8  C   UNL     1     -39.607 -45.539  12.603  1.00  0.00     0.015 C 
HETATM    9  C   UNL     1     -40.397 -44.308  13.041  1.00  0.00     0.031 C 
HETATM   10  C   UNL     1     -40.106 -43.115  12.137  1.00  0.00     0.269 C 
HETATM   11  N   UNL     1     -40.387 -43.420  10.736  1.00  0.00     0.084 N 
HETATM   12  C   UNL     1     -39.630 -44.587  10.265  1.00  0.00     0.280 C 
HETATM   13  H   UNL     1     -40.157 -42.609  10.159  1.00  0.00     0.315 HD
ENDBRANCH   4   7
BRANCH   1  14
HETATM   14  C   UNL     1     -43.957 -47.282   8.694  1.00  0.00     0.433 C 
HETATM   15  F   UNL     1     -45.063 -48.030   8.965  1.00  0.00    -0.165 F 
HETATM   16  F   UNL     1     -43.407 -47.804   7.567  1.00  0.00    -0.165 F 
HETATM   17  F   UNL     1     -44.403 -46.038   8.380  1.00  0.00    -0.165 F 
ENDBRANCH   1  14
TORSDOF 2
ENDMDL
MODEL 7
REMARK VINA RESULT:      -4.9      1.989      2.688
REMARK  2 active torsions:
REMARK  status: ('A' for Active; 'I' for Inactive)
REMARK    1  A    between atoms: C_2  and  C_5 
REMARK    2  A    between atoms: C_8  and  C_11 
ROOT
HETATM    1  C   UNL     1     -43.212 -47.230   9.765  1.00  0.00     0.123 A 
HETATM    2  C   UNL     1     -42.497 -46.077  10.036  1.00  0.00     0.085 A 
HETATM    3  S   UNL     1     -41.032 -46.453  10.832  1.00  0.00    -0.086 SA
HETATM    4  C   UNL     1     -41.409 -48.129  10.755  1.00  0.00     0.057 A 
HETATM    5  N   UNL     1     -42.567 -48.400  10.182  1.00  0.00    -0.349 N 
ATOM      6  HN  UNL     1     -42.943 -49.340  10.059  1.00  0.00     0.166 HD
ENDROOT
BRANCH   4   7
HETATM    7  C   UNL     1     -40.496 -49.227  11.274  1.00  0.00     0.071 C 
HETATM    8  C   UNL     1     -41.300 -50.331  11.980  1.00  0.00     0.015 C 
HETATM    9  C   UNL     1     -41.644 -49.949  13.418  1.00  0.00     0.031 C 
HETATM   10  C   UNL     1     -40.395 -49.543  14.194  1.00  0.00     0.269 C 
HETATM   11  N   UNL     1     -39.686 -48.447  13.538  1.00  0.00     0.084 N 
HETATM   12  C   UNL     1     -39.316 -48.780  12.156  1.00  0.00     0.280 C 
HETATM   13  H   UNL     1     -38.845 -48.220  14.070  1.00  0.00     0.315 HD
ENDBRANCH   4   7
BRANCH   1  14
HETATM   14  C   UNL     1     -44.549 -47.293   9.086  1.00  0.00     0.433 C 
HETATM   15  F   UNL     1     -44.524 -48.096   7.986  1.00  0.00    -0.165 F 
HETATM   16  F   UNL     1     -44.967 -46.072   8.661  1.00  0.00    -0.165 F 
HETATM   17  F   UNL     1     -45.519 -47.785   9.899  1.00  0.00    -0.165 F 
ENDBRANCH   1  14
TORSDOF 2
ENDMDL
MODEL 8
REMARK VINA RESULT:      -4.9      5.006      6.026
REMARK  2 active torsions:
REMARK  status: ('A' for Active; 'I' for Inactive)
REMARK    1  A    between atoms: C_2  and  C_5 
REMARK    2  A    between atoms: C_8  and  C_11 
ROOT
HETATM    1  C   UNL     1     -45.460 -52.413  14.322  1.00  0.00     0.123 A 
HETATM    2  C   UNL     1     -45.652 -53.523  13.519  1.00  0.00     0.085 A 
HETATM    3  S   UNL     1     -44.158 -54.099  12.922  1.00  0.00    -0.086 SA
HETATM    4  C   UNL     1     -43.328 -52.860  13.778  1.00  0.00     0.057 A 
HETATM    5  N   UNL     1     -44.116 -52.050  14.462  1.00  0.00    -0.349 N 
ATOM      6  HN  UNL     1     -43.787 -51.263  15.021  1.00  0.00     0.166 HD
ENDROOT
BRANCH   4   7
HETATM    7  C   UNL     1     -41.817 -52.700  13.785  1.00  0.00     0.071 C 
HETATM    8  C   UNL     1     -41.413 -51.243  14.064  1.00  0.00     0.015 C 
HETATM    9  C   UNL     1     -41.491 -50.384  12.804  1.00  0.00     0.031 C 
HETATM   10  C   UNL     1     -40.695 -51.006  11.661  1.00  0.00     0.269 C 
HETATM   11  N   UNL     1     -41.143 -52.366  11.371  1.00  0.00     0.084 N 
HETATM   12  C   UNL     1     -41.065 -53.235  12.552  1.00  0.00     0.280 C 
HETATM   13  H   UNL     1     -40.573 -52.759  10.621  1.00  0.00     0.315 HD
ENDBRANCH   4   7
BRANCH   1  14
HETATM   14  C   UNL     1     -46.540 -51.632  15.011  1.00  0.00     0.433 C 
HETATM   15  F   UNL     1     -46.030 -50.714  15.877  1.00  0.00    -0.165 F 
HETATM   16  F   UNL     1     -47.367 -52.429  15.738  1.00  0.00    -0.165 F 
HETATM   17  F   UNL     1     -47.319 -50.943  14.136  1.00  0.00    -0.165 F 
ENDBRANCH   1  14
TORSDOF 2
ENDMDL
MODEL 9
REMARK VINA RESULT:      -4.9      5.016      6.607
REMARK  2 active torsions:
REMARK  status: ('A' for Active; 'I' for Inactive)
REMARK    1  A    between atoms: C_2  and  C_5 
REMARK    2  A    between atoms: C_8  and  C_11 
ROOT
HETATM    1  C   UNL     1     -42.112 -51.535  12.534  1.00  0.00     0.123 A 
HETATM    2  C   UNL     1     -41.505 -52.647  13.089  1.00  0.00     0.085 A 
HETATM    3  S   UNL     1     -42.672 -53.829  13.491  1.00  0.00    -0.086 SA
HETATM    4  C   UNL     1     -43.922 -52.815  12.886  1.00  0.00     0.057 A 
HETATM    5  N   UNL     1     -43.502 -51.653  12.421  1.00  0.00    -0.349 N 
ATOM      6  HN  UNL     1     -44.111 -50.934  12.030  1.00  0.00     0.166 HD
ENDROOT
BRANCH   4   7
HETATM    7  C   UNL     1     -45.390 -53.206  12.854  1.00  0.00     0.071 C 
HETATM    8  C   UNL     1     -46.297 -51.965  12.897  1.00  0.00     0.015 C 
HETATM    9  C   UNL     1     -46.474 -51.443  14.321  1.00  0.00     0.031 C 
HETATM   10  C   UNL     1     -46.946 -52.550  15.259  1.00  0.00     0.269 C 
HETATM   11  N   UNL     1     -46.032 -53.690  15.251  1.00  0.00     0.084 N 
HETATM   12  C   UNL     1     -45.849 -54.238  13.901  1.00  0.00     0.280 C 
HETATM   13  H   UNL     1     -46.392 -54.419  15.868  1.00  0.00     0.315 HD
ENDBRANCH   4   7
BRANCH   1  14
HETATM   14  C   UNL     1     -41.408 -50.293  12.070  1.00  0.00     0.433 C 
HETATM   15  F   UNL     1     -40.714 -49.695  13.078  1.00  0.00    -0.165 F 
HETATM   16  F   UNL     1     -42.273 -49.360  11.593  1.00  0.00    -0.165 F 
HETATM   17  F   UNL     1     -40.510 -50.546  11.082  1.00  0.00    -0.165 F 
ENDBRANCH   1  14
TORSDOF 2
ENDMDL
