MODEL 1
REMARK VINA RESULT:      -5.3      0.000      0.000
REMARK  4 active torsions:
REMARK  status: ('A' for Active; 'I' for Inactive)
REMARK    1  A    between atoms: N_2  and  C_3 
REMARK    2  A    between atoms: N_15  and  C_16 
REMARK    3  A    between atoms: C_16  and  C_17 
REMARK    4  A    between atoms: C_17  and  O_18 
ROOT
HETATM    1  C   UNL     1     -42.232 -52.643  12.157  1.00  0.00     0.682 A 
HETATM    2  N   UNL     1     -43.459 -52.161  12.146  1.00  0.00    -0.174 N 
ATOM      3  HN  UNL     1     -43.818 -51.395  11.575  1.00  0.00     0.186 HD
HETATM    4  C   UNL     1     -44.142 -52.899  13.057  1.00  0.00     0.160 A 
HETATM    5  N   UNL     1     -45.455 -52.717  13.439  1.00  0.00    -0.287 N 
HETATM    6  C   UNL     1     -46.275 -51.649  12.907  1.00  0.00     0.163 C 
HETATM    7  C   UNL     1     -46.001 -53.567  14.391  1.00  0.00     0.330 A 
HETATM    8  O   UNL     1     -47.156 -53.480  14.804  1.00  0.00    -0.246 OA
HETATM    9  N   UNL     1     -45.180 -54.557  14.896  1.00  0.00    -0.273 N 
HETATM   10  C   UNL     1     -43.852 -54.765  14.602  1.00  0.00     0.280 A 
HETATM   11  O   UNL     1     -43.196 -55.631  15.168  1.00  0.00    -0.265 OA
HETATM   12  C   UNL     1     -43.360 -53.875  13.606  1.00  0.00     0.164 A 
HETATM   13  N   UNL     1     -42.138 -53.741  12.997  1.00  0.00    -0.172 N 
HETATM   14  H   UNL     1     -45.589 -55.155  15.598  1.00  0.00     0.173 HD
ENDROOT
BRANCH  13  15
HETATM   15  C   UNL     1     -40.969 -54.570  13.217  1.00  0.00     0.174 C 
BRANCH  15  16
HETATM   16  C   UNL     1     -40.000 -54.032  14.267  1.00  0.00     0.187 C 
BRANCH  16  17
HETATM   17  O   UNL     1     -39.045 -53.180  13.626  1.00  0.00    -0.394 OA
HETATM   18  C   UNL     1     -38.769 -52.028  14.416  1.00  0.00     0.201 C 
ENDBRANCH  16  17
ENDBRANCH  15  16
ENDBRANCH  13  15
BRANCH   1  19
HETATM   19  N   UNL     1     -41.166 -52.162  11.477  1.00  0.00    -0.230 N 
HETATM   20  C   UNL     1     -40.808 -50.769  11.667  1.00  0.00     0.165 C 
HETATM   21  H   UNL     1     -40.363 -52.765  11.341  1.00  0.00     0.177 HD
ENDBRANCH   1  19
TORSDOF 4
ENDMDL
MODEL 2
REMARK VINA RESULT:      -5.3      1.405      4.757
REMARK  4 active torsions:
REMARK  status: ('A' for Active; 'I' for Inactive)
REMARK    1  A    between atoms: N_2  and  C_3 
REMARK    2  A    between atoms: N_15  and  C_16 
REMARK    3  A    between atoms: C_16  and  C_17 
REMARK    4  A    between atoms: C_17  and  O_18 
ROOT
HETATM    1  C   UNL     1     -44.834 -53.001  12.568  1.00  0.00     0.682 A 
HETATM    2  N   UNL     1     -43.678 -52.465  12.232  1.00  0.00    -0.174 N 
ATOM      3  HN  UNL     1     -43.515 -51.713  11.562  1.00  0.00     0.186 HD
HETATM    4  C   UNL     1     -42.748 -53.128  12.967  1.00  0.00     0.160 A 
HETATM    5  N   UNL     1     -41.381 -52.955  12.905  1.00  0.00    -0.287 N 
HETATM    6  C   UNL     1     -40.759 -52.027  11.986  1.00  0.00     0.163 C 
HETATM    7  C   UNL     1     -40.571 -53.721  13.732  1.00  0.00     0.330 A 
HETATM    8  O   UNL     1     -39.344 -53.649  13.744  1.00  0.00    -0.246 OA
HETATM    9  N   UNL     1     -41.200 -54.617  14.576  1.00  0.00    -0.273 N 
HETATM   10  C   UNL     1     -42.547 -54.878  14.654  1.00  0.00     0.280 A 
HETATM   11  O   UNL     1     -42.991 -55.752  15.390  1.00  0.00    -0.265 OA
HETATM   12  C   UNL     1     -43.323 -54.047  13.798  1.00  0.00     0.164 A 
HETATM   13  N   UNL     1     -44.673 -53.939  13.575  1.00  0.00    -0.172 N 
HETATM   14  H   UNL     1     -40.594 -55.175  15.158  1.00  0.00     0.173 HD
ENDROOT
BRANCH  13  15
HETATM   15  C   UNL     1     -45.720 -54.686  14.243  1.00  0.00     0.174 C 
BRANCH  15  16
HETATM   16  C   UNL     1     -46.348 -53.969  15.435  1.00  0.00     0.187 C 
BRANCH  16  17
HETATM   17  O   UNL     1     -45.832 -54.536  16.644  1.00  0.00    -0.394 OA
HETATM   18  C   UNL     1     -45.007 -53.606  17.339  1.00  0.00     0.201 C 
ENDBRANCH  16  17
ENDBRANCH  15  16
ENDBRANCH  13  15
BRANCH   1  19
HETATM   19  N   UNL     1     -46.042 -52.727  12.025  1.00  0.00    -0.230 N 
HETATM   20  C   UNL     1     -46.736 -51.533  12.471  1.00  0.00     0.165 C 
HETATM   21  H   UNL     1     -46.193 -52.933  11.044  1.00  0.00     0.177 HD
ENDBRANCH   1  19
TORSDOF 4
ENDMDL
MODEL 3
REMARK VINA RESULT:      -5.0      4.454      7.090
REMARK  4 active torsions:
REMARK  status: ('A' for Active; 'I' for Inactive)
REMARK    1  A    between atoms: N_2  and  C_3 
REMARK    2  A    between atoms: N_15  and  C_16 
REMARK    3  A    between atoms: C_16  and  C_17 
REMARK    4  A    between atoms: C_17  and  O_18 
ROOT
HETATM    1  C   UNL     1     -40.742 -47.011  10.835  1.00  0.00     0.682 A 
HETATM    2  N   UNL     1     -39.640 -47.717  10.993  1.00  0.00    -0.174 N 
ATOM      3  HN  UNL     1     -38.694 -47.458  10.715  1.00  0.00     0.186 HD
HETATM    4  C   UNL     1     -40.034 -48.862  11.607  1.00  0.00     0.160 A 
HETATM    5  N   UNL     1     -39.231 -49.940  11.920  1.00  0.00    -0.287 N 
HETATM    6  C   UNL     1     -37.824 -49.979  11.587  1.00  0.00     0.163 C 
HETATM    7  C   UNL     1     -39.799 -51.038  12.550  1.00  0.00     0.330 A 
HETATM    8  O   UNL     1     -39.171 -52.049  12.861  1.00  0.00    -0.246 OA
HETATM    9  N   UNL     1     -41.151 -50.975  12.828  1.00  0.00    -0.273 N 
HETATM   10  C   UNL     1     -42.020 -49.961  12.500  1.00  0.00     0.280 A 
HETATM   11  O   UNL     1     -43.221 -50.044  12.730  1.00  0.00    -0.265 OA
HETATM   12  C   UNL     1     -41.373 -48.858  11.876  1.00  0.00     0.164 A 
HETATM   13  N   UNL     1     -41.827 -47.647  11.418  1.00  0.00    -0.172 N 
HETATM   14  H   UNL     1     -41.549 -51.789  13.272  1.00  0.00     0.173 HD
ENDROOT
BRANCH  13  15
HETATM   15  C   UNL     1     -43.186 -47.148  11.501  1.00  0.00     0.174 C 
BRANCH  15  16
HETATM   16  C   UNL     1     -44.076 -47.537  10.325  1.00  0.00     0.187 C 
BRANCH  16  17
HETATM   17  O   UNL     1     -43.672 -46.795   9.169  1.00  0.00    -0.394 OA
HETATM   18  C   UNL     1     -43.559 -47.638   8.028  1.00  0.00     0.201 C 
ENDBRANCH  16  17
ENDBRANCH  15  16
ENDBRANCH  13  15
BRANCH   1  19
HETATM   19  N   UNL     1     -40.863 -45.832  10.184  1.00  0.00    -0.230 N 
HETATM   20  C   UNL     1     -40.166 -44.680  10.724  1.00  0.00     0.165 C 
HETATM   21  H   UNL     1     -40.899 -45.836   9.171  1.00  0.00     0.177 HD
ENDBRANCH   1  19
TORSDOF 4
ENDMDL
MODEL 4
REMARK VINA RESULT:      -5.0      5.230      7.272
REMARK  4 active torsions:
REMARK  status: ('A' for Active; 'I' for Inactive)
REMARK    1  A    between atoms: N_2  and  C_3 
REMARK    2  A    between atoms: N_15  and  C_16 
REMARK    3  A    between atoms: C_16  and  C_17 
REMARK    4  A    between atoms: C_17  and  O_18 
ROOT
HETATM    1  C   UNL     1     -40.746 -49.047  10.980  1.00  0.00     0.682 A 
HETATM    2  N   UNL     1     -41.734 -48.856  10.129  1.00  0.00    -0.174 N 
ATOM      3  HN  UNL     1     -42.183 -49.554   9.535  1.00  0.00     0.186 HD
HETATM    4  C   UNL     1     -42.028 -47.533  10.212  1.00  0.00     0.160 A 
HETATM    5  N   UNL     1     -42.959 -46.854   9.453  1.00  0.00    -0.287 N 
HETATM    6  C   UNL     1     -43.738 -47.501   8.420  1.00  0.00     0.163 C 
HETATM    7  C   UNL     1     -43.133 -45.493   9.667  1.00  0.00     0.330 A 
HETATM    8  O   UNL     1     -43.929 -44.799   9.038  1.00  0.00    -0.246 OA
HETATM    9  N   UNL     1     -42.352 -44.904  10.643  1.00  0.00    -0.273 N 
HETATM   10  C   UNL     1     -41.372 -45.505  11.398  1.00  0.00     0.280 A 
HETATM   11  O   UNL     1     -40.685 -44.867  12.186  1.00  0.00    -0.265 OA
HETATM   12  C   UNL     1     -41.258 -46.902  11.146  1.00  0.00     0.164 A 
HETATM   13  N   UNL     1     -40.458 -47.883  11.676  1.00  0.00    -0.172 N 
HETATM   14  H   UNL     1     -42.482 -43.912  10.774  1.00  0.00     0.173 HD
ENDROOT
BRANCH  13  15
HETATM   15  C   UNL     1     -39.481 -47.721  12.734  1.00  0.00     0.174 C 
BRANCH  15  16
HETATM   16  C   UNL     1     -39.911 -48.283  14.085  1.00  0.00     0.187 C 
BRANCH  16  17
HETATM   17  O   UNL     1     -39.171 -49.480  14.349  1.00  0.00    -0.394 OA
HETATM   18  C   UNL     1     -37.822 -49.360  13.906  1.00  0.00     0.201 C 
ENDBRANCH  16  17
ENDBRANCH  15  16
ENDBRANCH  13  15
BRANCH   1  19
HETATM   19  N   UNL     1     -40.056 -50.193  11.178  1.00  0.00    -0.230 N 
HETATM   20  C   UNL     1     -40.725 -51.284  11.861  1.00  0.00     0.165 C 
HETATM   21  H   UNL     1     -39.417 -50.507  10.456  1.00  0.00     0.177 HD
ENDBRANCH   1  19
TORSDOF 4
ENDMDL
MODEL 5
REMARK VINA RESULT:      -5.0      1.905      3.076
REMARK  4 active torsions:
REMARK  status: ('A' for Active; 'I' for Inactive)
REMARK    1  A    between atoms: N_2  and  C_3 
REMARK    2  A    between atoms: N_15  and  C_16 
REMARK    3  A    between atoms: C_16  and  C_17 
REMARK    4  A    between atoms: C_17  and  O_18 
ROOT
HETATM    1  C   UNL     1     -41.127 -51.593  11.842  1.00  0.00     0.682 A 
HETATM    2  N   UNL     1     -42.240 -52.299  11.848  1.00  0.00    -0.174 N 
ATOM      3  HN  UNL     1     -43.006 -52.253  11.175  1.00  0.00     0.186 HD
HETATM    4  C   UNL     1     -42.151 -53.100  12.940  1.00  0.00     0.160 A 
HETATM    5  N   UNL     1     -43.117 -53.974  13.395  1.00  0.00    -0.287 N 
HETATM    6  C   UNL     1     -44.401 -54.115  12.743  1.00  0.00     0.163 C 
HETATM    7  C   UNL     1     -42.861 -54.721  14.536  1.00  0.00     0.330 A 
HETATM    8  O   UNL     1     -43.660 -55.518  15.025  1.00  0.00    -0.246 OA
HETATM    9  N   UNL     1     -41.635 -54.539  15.146  1.00  0.00    -0.273 N 
HETATM   10  C   UNL     1     -40.649 -53.652  14.781  1.00  0.00     0.280 A 
HETATM   11  O   UNL     1     -39.626 -53.520  15.443  1.00  0.00    -0.265 OA
HETATM   12  C   UNL     1     -40.963 -52.932  13.594  1.00  0.00     0.164 A 
HETATM   13  N   UNL     1     -40.281 -51.991  12.865  1.00  0.00    -0.172 N 
HETATM   14  H   UNL     1     -41.473 -55.079  15.983  1.00  0.00     0.173 HD
ENDROOT
BRANCH  13  15
HETATM   15  C   UNL     1     -38.947 -51.491  13.136  1.00  0.00     0.174 C 
BRANCH  15  16
HETATM   16  C   UNL     1     -38.904 -50.252  14.026  1.00  0.00     0.187 C 
BRANCH  16  17
HETATM   17  O   UNL     1     -38.304 -49.176  13.297  1.00  0.00    -0.394 OA
HETATM   18  C   UNL     1     -37.614 -49.654  12.146  1.00  0.00     0.201 C 
ENDBRANCH  16  17
ENDBRANCH  15  16
ENDBRANCH  13  15
BRANCH   1  19
HETATM   19  N   UNL     1     -40.807 -50.591  10.992  1.00  0.00    -0.230 N 
HETATM   20  C   UNL     1     -41.292 -49.257  11.295  1.00  0.00     0.165 C 
HETATM   21  H   UNL     1     -39.889 -50.592  10.561  1.00  0.00     0.177 HD
ENDBRANCH   1  19
TORSDOF 4
ENDMDL
MODEL 6
REMARK VINA RESULT:      -4.8      2.072      4.643
REMARK  4 active torsions:
REMARK  status: ('A' for Active; 'I' for Inactive)
REMARK    1  A    between atoms: N_2  and  C_3 
REMARK    2  A    between atoms: N_15  and  C_16 
REMARK    3  A    between atoms: C_16  and  C_17 
REMARK    4  A    between atoms: C_17  and  O_18 
ROOT
HETATM    1  C   UNL     1     -41.333 -53.101  12.616  1.00  0.00     0.682 A 
HETATM    2  N   UNL     1     -40.349 -53.473  13.411  1.00  0.00    -0.174 N 
ATOM      3  HN  UNL     1     -39.362 -53.224  13.333  1.00  0.00     0.186 HD
HETATM    4  C   UNL     1     -40.927 -54.258  14.355  1.00  0.00     0.160 A 
HETATM    5  N   UNL     1     -40.278 -54.932  15.369  1.00  0.00    -0.287 N 
HETATM    6  C   UNL     1     -38.841 -54.897  15.525  1.00  0.00     0.163 C 
HETATM    7  C   UNL     1     -41.028 -55.697  16.252  1.00  0.00     0.330 A 
HETATM    8  O   UNL     1     -40.542 -56.341  17.180  1.00  0.00    -0.246 OA
HETATM    9  N   UNL     1     -42.395 -55.728  16.055  1.00  0.00    -0.273 N 
HETATM   10  C   UNL     1     -43.102 -55.127  15.039  1.00  0.00     0.280 A 
HETATM   11  O   UNL     1     -44.311 -55.284  14.917  1.00  0.00    -0.265 OA
HETATM   12  C   UNL     1     -42.280 -54.343  14.182  1.00  0.00     0.164 A 
HETATM   13  N   UNL     1     -42.552 -53.563  13.086  1.00  0.00    -0.172 N 
HETATM   14  H   UNL     1     -42.921 -56.302  16.697  1.00  0.00     0.173 HD
ENDROOT
BRANCH  13  15
HETATM   15  C   UNL     1     -43.859 -53.303  12.516  1.00  0.00     0.174 C 
BRANCH  15  16
HETATM   16  C   UNL     1     -44.586 -52.104  13.119  1.00  0.00     0.187 C 
BRANCH  16  17
HETATM   17  O   UNL     1     -45.958 -52.451  13.334  1.00  0.00    -0.394 OA
HETATM   18  C   UNL     1     -46.609 -51.492  14.161  1.00  0.00     0.201 C 
ENDBRANCH  16  17
ENDBRANCH  15  16
ENDBRANCH  13  15
BRANCH   1  19
HETATM   19  N   UNL     1     -41.226 -52.384  11.475  1.00  0.00    -0.230 N 
HETATM   20  C   UNL     1     -40.943 -50.965  11.583  1.00  0.00     0.165 C 
HETATM   21  H   UNL     1     -40.790 -52.816  10.667  1.00  0.00     0.177 HD
ENDBRANCH   1  19
TORSDOF 4
ENDMDL
MODEL 7
REMARK VINA RESULT:      -4.8      4.210      6.999
REMARK  4 active torsions:
REMARK  status: ('A' for Active; 'I' for Inactive)
REMARK    1  A    between atoms: N_2  and  C_3 
REMARK    2  A    between atoms: N_15  and  C_16 
REMARK    3  A    between atoms: C_16  and  C_17 
REMARK    4  A    between atoms: C_17  and  O_18 
ROOT
HETATM    1  C   UNL     1     -41.951 -48.284  11.226  1.00  0.00     0.682 A 
HETATM    2  N   UNL     1     -41.932 -49.601  11.243  1.00  0.00    -0.174 N 
ATOM      3  HN  UNL     1     -42.604 -50.236  10.811  1.00  0.00     0.186 HD
HETATM    4  C   UNL     1     -40.826 -49.935  11.957  1.00  0.00     0.160 A 
HETATM    5  N   UNL     1     -40.425 -51.210  12.296  1.00  0.00    -0.287 N 
HETATM    6  C   UNL     1     -41.192 -52.384  11.937  1.00  0.00     0.163 C 
HETATM    7  C   UNL     1     -39.262 -51.373  13.036  1.00  0.00     0.330 A 
HETATM    8  O   UNL     1     -38.828 -52.465  13.396  1.00  0.00    -0.246 OA
HETATM    9  N   UNL     1     -38.572 -50.227  13.384  1.00  0.00    -0.273 N 
HETATM   10  C   UNL     1     -38.938 -48.927  13.127  1.00  0.00     0.280 A 
HETATM   11  O   UNL     1     -38.286 -47.980  13.550  1.00  0.00    -0.265 OA
HETATM   12  C   UNL     1     -40.126 -48.829  12.348  1.00  0.00     0.164 A 
HETATM   13  N   UNL     1     -40.825 -47.763  11.843  1.00  0.00    -0.172 N 
HETATM   14  H   UNL     1     -37.738 -50.364  13.935  1.00  0.00     0.173 HD
ENDROOT
BRANCH  13  15
HETATM   15  C   UNL     1     -40.467 -46.363  11.962  1.00  0.00     0.174 C 
BRANCH  15  16
HETATM   16  C   UNL     1     -39.965 -45.725  10.670  1.00  0.00     0.187 C 
BRANCH  16  17
HETATM   17  O   UNL     1     -41.002 -44.905  10.122  1.00  0.00    -0.394 OA
HETATM   18  C   UNL     1     -41.655 -44.151  11.138  1.00  0.00     0.201 C 
ENDBRANCH  16  17
ENDBRANCH  15  16
ENDBRANCH  13  15
BRANCH   1  19
HETATM   19  N   UNL     1     -42.920 -47.494  10.710  1.00  0.00    -0.230 N 
HETATM   20  C   UNL     1     -43.179 -47.574   9.285  1.00  0.00     0.165 C 
HETATM   21  H   UNL     1     -43.757 -47.328  11.258  1.00  0.00     0.177 HD
ENDBRANCH   1  19
TORSDOF 4
ENDMDL
MODEL 8
REMARK VINA RESULT:      -4.8      2.442      5.880
REMARK  4 active torsions:
REMARK  status: ('A' for Active; 'I' for Inactive)
REMARK    1  A    between atoms: N_2  and  C_3 
REMARK    2  A    between atoms: N_15  and  C_16 
REMARK    3  A    between atoms: C_16  and  C_17 
REMARK    4  A    between atoms: C_17  and  O_18 
ROOT
HETATM    1  C   UNL     1     -43.233 -54.310  15.630  1.00  0.00     0.682 A 
HETATM    2  N   UNL     1     -42.446 -55.074  16.360  1.00  0.00    -0.174 N 
ATOM      3  HN  UNL     1     -42.696 -55.597  17.200  1.00  0.00     0.186 HD
HETATM    4  C   UNL     1     -41.231 -55.018  15.756  1.00  0.00     0.160 A 
HETATM    5  N   UNL     1     -40.068 -55.613  16.200  1.00  0.00    -0.287 N 
HETATM    6  C   UNL     1     -40.008 -56.372  17.431  1.00  0.00     0.163 C 
HETATM    7  C   UNL     1     -38.907 -55.453  15.457  1.00  0.00     0.330 A 
HETATM    8  O   UNL     1     -37.821 -55.933  15.774  1.00  0.00    -0.246 OA
HETATM    9  N   UNL     1     -38.997 -54.699  14.303  1.00  0.00    -0.273 N 
HETATM   10  C   UNL     1     -40.105 -54.036  13.828  1.00  0.00     0.280 A 
HETATM   11  O   UNL     1     -40.052 -53.331  12.827  1.00  0.00    -0.265 OA
HETATM   12  C   UNL     1     -41.265 -54.258  14.622  1.00  0.00     0.164 A 
HETATM   13  N   UNL     1     -42.565 -53.833  14.513  1.00  0.00    -0.172 N 
HETATM   14  H   UNL     1     -38.140 -54.580  13.784  1.00  0.00     0.173 HD
ENDROOT
BRANCH  13  15
HETATM   15  C   UNL     1     -43.120 -53.016  13.451  1.00  0.00     0.174 C 
BRANCH  15  16
HETATM   16  C   UNL     1     -43.894 -53.796  12.392  1.00  0.00     0.187 C 
BRANCH  16  17
HETATM   17  O   UNL     1     -45.264 -53.897  12.797  1.00  0.00    -0.394 OA
HETATM   18  C   UNL     1     -45.900 -52.623  12.788  1.00  0.00     0.201 C 
ENDBRANCH  16  17
ENDBRANCH  15  16
ENDBRANCH  13  15
BRANCH   1  19
HETATM   19  N   UNL     1     -44.518 -53.983  15.894  1.00  0.00    -0.230 N 
HETATM   20  C   UNL     1     -44.769 -52.889  16.814  1.00  0.00     0.165 C 
HETATM   21  H   UNL     1     -45.199 -54.037  15.145  1.00  0.00     0.177 HD
ENDBRANCH   1  19
TORSDOF 4
ENDMDL
MODEL 9
REMARK VINA RESULT:      -4.7      1.904      4.985
REMARK  4 active torsions:
REMARK  status: ('A' for Active; 'I' for Inactive)
REMARK    1  A    between atoms: N_2  and  C_3 
REMARK    2  A    between atoms: N_15  and  C_16 
REMARK    3  A    between atoms: C_16  and  C_17 
REMARK    4  A    between atoms: C_17  and  O_18 
ROOT
HETATM    1  C   UNL     1     -44.499 -51.947  13.184  1.00  0.00     0.682 A 
HETATM    2  N   UNL     1     -44.110 -50.717  12.912  1.00  0.00    -0.174 N 
ATOM      3  HN  UNL     1     -44.669 -49.865  12.966  1.00  0.00     0.186 HD
HETATM    4  C   UNL     1     -42.808 -50.826  12.543  1.00  0.00     0.160 A 
HETATM    5  N   UNL     1     -41.994 -49.802  12.104  1.00  0.00    -0.287 N 
HETATM    6  C   UNL     1     -42.470 -48.445  11.953  1.00  0.00     0.163 C 
HETATM    7  C   UNL     1     -40.679 -50.091  11.765  1.00  0.00     0.330 A 
HETATM    8  O   UNL     1     -39.880 -49.252  11.354  1.00  0.00    -0.246 OA
HETATM    9  N   UNL     1     -40.268 -51.403  11.895  1.00  0.00    -0.273 N 
HETATM   10  C   UNL     1     -41.036 -52.480  12.275  1.00  0.00     0.280 A 
HETATM   11  O   UNL     1     -40.584 -53.619  12.284  1.00  0.00    -0.265 OA
HETATM   12  C   UNL     1     -42.365 -52.115  12.629  1.00  0.00     0.164 A 
HETATM   13  N   UNL     1     -43.441 -52.836  13.083  1.00  0.00    -0.172 N 
HETATM   14  H   UNL     1     -39.314 -51.596  11.629  1.00  0.00     0.173 HD
ENDROOT
BRANCH  13  15
HETATM   15  C   UNL     1     -43.468 -54.257  13.369  1.00  0.00     0.174 C 
BRANCH  15  16
HETATM   16  C   UNL     1     -43.337 -54.608  14.848  1.00  0.00     0.187 C 
BRANCH  16  17
HETATM   17  O   UNL     1     -44.645 -54.699  15.422  1.00  0.00    -0.394 OA
HETATM   18  C   UNL     1     -44.740 -53.928  16.616  1.00  0.00     0.201 C 
ENDBRANCH  16  17
ENDBRANCH  15  16
ENDBRANCH  13  15
BRANCH   1  19
HETATM   19  N   UNL     1     -45.749 -52.349  13.505  1.00  0.00    -0.230 N 
HETATM   20  C   UNL     1     -46.572 -51.454  14.297  1.00  0.00     0.165 C 
HETATM   21  H   UNL     1     -46.280 -52.880  12.824  1.00  0.00     0.177 HD
ENDBRANCH   1  19
TORSDOF 4
ENDMDL
