MODEL 1
REMARK VINA RESULT:      -5.4      0.000      0.000
REMARK  6 active torsions:
REMARK  status: ('A' for Active; 'I' for Inactive)
REMARK    1  A    between atoms: C_4  and  O_5 
REMARK    2  A    between atoms: C_4  and  C_10 
REMARK    3  A    between atoms: O_5  and  C_6 
REMARK    4  A    between atoms: C_6  and  C_7 
REMARK       I    between atoms: C_10  and  N_12 
REMARK    5  A    between atoms: N_12  and  C_13 
REMARK    6  A    between atoms: C_16  and  N_17 
ROOT
HETATM    1  C   UNL     2     -43.922 -53.777  13.296  1.00  0.00     0.250 C 
HETATM    2  O   UNL     2     -44.445 -53.555  12.209  1.00  0.00    -0.270 OA
HETATM    3  N   UNL     2     -42.880 -53.006  13.721  1.00  0.00    -0.324 N 
HETATM    4  H   UNL     2     -42.390 -53.255  14.594  1.00  0.00     0.169 HD
ENDROOT
BRANCH   3   5
HETATM    5  C   UNL     2     -42.367 -51.916  12.962  1.00  0.00     0.050 A 
HETATM    6  C   UNL     2     -42.886 -50.615  13.087  1.00  0.00     0.035 A 
HETATM    7  C   UNL     2     -42.381 -49.592  12.295  1.00  0.00     0.050 A 
HETATM    8  C   UNL     2     -41.378 -49.872  11.361  1.00  0.00     0.098 A 
HETATM    9  N   UNL     2     -40.875 -51.135  11.266  1.00  0.00    -0.351 N 
HETATM   10  C   UNL     2     -41.332 -52.146  12.050  1.00  0.00     0.119 A 
ATOM     11  HN  UNL     2     -40.138 -51.326  10.587  1.00  0.00     0.166 HD
BRANCH   8  12
HETATM   12  N   UNL     2     -40.894 -48.855  10.510  1.00  0.00    -0.385 N 
HETATM   13  H   UNL     2     -39.908 -48.841  10.212  1.00  0.00     0.157 HD
HETATM   14  H   UNL     2     -41.517 -48.091  10.212  1.00  0.00     0.157 HD
ENDBRANCH   8  12
ENDBRANCH   3   5
BRANCH   1  15
HETATM   15  C   UNL     2     -44.398 -54.962  14.119  1.00  0.00     0.209 C 
HETATM   16  C   UNL     2     -43.490 -55.123  15.345  1.00  0.00     0.050 C 
BRANCH  15  17
HETATM   17  O   UNL     2     -45.736 -54.788  14.577  1.00  0.00    -0.376 OA
BRANCH  17  18
HETATM   18  C   UNL     2     -45.842 -53.705  15.481  1.00  0.00     0.173 C 
BRANCH  18  19
HETATM   19  C   UNL     2     -46.998 -52.789  15.060  1.00  0.00     0.009 A 
HETATM   20  C   UNL     2     -46.453 -51.510  14.441  1.00  0.00     0.007 A 
HETATM   21  C   UNL     2     -47.183 -51.463  15.783  1.00  0.00     0.007 A 
ENDBRANCH  18  19
ENDBRANCH  17  18
ENDBRANCH  15  17
ENDBRANCH   1  15
TORSDOF 6
ENDMDL
MODEL 2
REMARK VINA RESULT:      -5.2      2.911      6.845
REMARK  6 active torsions:
REMARK  status: ('A' for Active; 'I' for Inactive)
REMARK    1  A    between atoms: C_4  and  O_5 
REMARK    2  A    between atoms: C_4  and  C_10 
REMARK    3  A    between atoms: O_5  and  C_6 
REMARK    4  A    between atoms: C_6  and  C_7 
REMARK       I    between atoms: C_10  and  N_12 
REMARK    5  A    between atoms: N_12  and  C_13 
REMARK    6  A    between atoms: C_16  and  N_17 
ROOT
HETATM    1  C   UNL     2     -42.182 -51.426  12.460  1.00  0.00     0.250 C 
HETATM    2  O   UNL     2     -42.528 -50.924  13.523  1.00  0.00    -0.270 OA
HETATM    3  N   UNL     2     -42.783 -52.569  12.018  1.00  0.00    -0.324 N 
HETATM    4  H   UNL     2     -42.425 -53.033  11.169  1.00  0.00     0.169 HD
ENDROOT
BRANCH   3   5
HETATM    5  C   UNL     2     -43.831 -53.214  12.733  1.00  0.00     0.050 A 
HETATM    6  C   UNL     2     -43.580 -54.279  13.617  1.00  0.00     0.035 A 
HETATM    7  C   UNL     2     -44.639 -54.906  14.260  1.00  0.00     0.050 A 
HETATM    8  C   UNL     2     -45.949 -54.488  14.003  1.00  0.00     0.098 A 
HETATM    9  N   UNL     2     -46.172 -53.444  13.157  1.00  0.00    -0.351 N 
HETATM   10  C   UNL     2     -45.151 -52.795  12.538  1.00  0.00     0.119 A 
ATOM     11  HN  UNL     2     -47.131 -53.142  12.983  1.00  0.00     0.166 HD
BRANCH   8  12
HETATM   12  N   UNL     2     -47.040 -55.152  14.606  1.00  0.00    -0.385 N 
HETATM   13  H   UNL     2     -47.150 -55.164  15.630  1.00  0.00     0.157 HD
HETATM   14  H   UNL     2     -47.714 -55.669  14.024  1.00  0.00     0.157 HD
ENDBRANCH   8  12
ENDBRANCH   3   5
BRANCH   1  15
HETATM   15  C   UNL     2     -41.030 -50.806  11.686  1.00  0.00     0.209 C 
HETATM   16  C   UNL     2     -41.301 -49.309  11.488  1.00  0.00     0.050 C 
BRANCH  15  17
HETATM   17  O   UNL     2     -39.791 -50.947  12.374  1.00  0.00    -0.376 OA
BRANCH  17  18
HETATM   18  C   UNL     2     -39.276 -49.695  12.784  1.00  0.00     0.173 C 
BRANCH  18  19
HETATM   19  C   UNL     2     -37.750 -49.687  12.636  1.00  0.00     0.009 A 
HETATM   20  C   UNL     2     -37.362 -50.008  11.200  1.00  0.00     0.007 A 
HETATM   21  C   UNL     2     -37.038 -50.995  12.322  1.00  0.00     0.007 A 
ENDBRANCH  18  19
ENDBRANCH  17  18
ENDBRANCH  15  17
ENDBRANCH   1  15
TORSDOF 6
ENDMDL
MODEL 3
REMARK VINA RESULT:      -5.1      1.542      1.776
REMARK  6 active torsions:
REMARK  status: ('A' for Active; 'I' for Inactive)
REMARK    1  A    between atoms: C_4  and  O_5 
REMARK    2  A    between atoms: C_4  and  C_10 
REMARK    3  A    between atoms: O_5  and  C_6 
REMARK    4  A    between atoms: C_6  and  C_7 
REMARK       I    between atoms: C_10  and  N_12 
REMARK    5  A    between atoms: N_12  and  C_13 
REMARK    6  A    between atoms: C_16  and  N_17 
ROOT
HETATM    1  C   UNL     2     -43.296 -53.331  12.988  1.00  0.00     0.250 C 
HETATM    2  O   UNL     2     -42.468 -53.717  13.806  1.00  0.00    -0.270 OA
HETATM    3  N   UNL     2     -43.097 -52.159  12.319  1.00  0.00    -0.324 N 
HETATM    4  H   UNL     2     -43.840 -51.799  11.700  1.00  0.00     0.169 HD
ENDROOT
BRANCH   3   5
HETATM    5  C   UNL     2     -41.942 -51.349  12.507  1.00  0.00     0.050 A 
HETATM    6  C   UNL     2     -41.937 -50.262  13.399  1.00  0.00     0.035 A 
HETATM    7  C   UNL     2     -40.799 -49.474  13.519  1.00  0.00     0.050 A 
HETATM    8  C   UNL     2     -39.678 -49.754  12.732  1.00  0.00     0.098 A 
HETATM    9  N   UNL     2     -39.696 -50.822  11.885  1.00  0.00    -0.351 N 
HETATM   10  C   UNL     2     -40.786 -51.626  11.772  1.00  0.00     0.119 A 
ATOM     11  HN  UNL     2     -38.870 -51.022  11.321  1.00  0.00     0.166 HD
BRANCH   8  12
HETATM   12  N   UNL     2     -38.535 -48.928  12.800  1.00  0.00    -0.385 N 
HETATM   13  H   UNL     2     -37.613 -49.323  13.036  1.00  0.00     0.157 HD
HETATM   14  H   UNL     2     -38.623 -47.912  12.657  1.00  0.00     0.157 HD
ENDBRANCH   8  12
ENDBRANCH   3   5
BRANCH   1  15
HETATM   15  C   UNL     2     -44.572 -54.132  12.790  1.00  0.00     0.209 C 
HETATM   16  C   UNL     2     -44.830 -54.990  14.036  1.00  0.00     0.050 C 
BRANCH  15  17
HETATM   17  O   UNL     2     -45.702 -53.289  12.589  1.00  0.00    -0.376 OA
BRANCH  17  18
HETATM   18  C   UNL     2     -46.454 -53.131  13.778  1.00  0.00     0.173 C 
BRANCH  18  19
HETATM   19  C   UNL     2     -46.580 -51.641  14.117  1.00  0.00     0.009 A 
HETATM   20  C   UNL     2     -45.528 -51.246  15.143  1.00  0.00     0.007 A 
HETATM   21  C   UNL     2     -47.009 -51.242  15.521  1.00  0.00     0.007 A 
ENDBRANCH  18  19
ENDBRANCH  17  18
ENDBRANCH  15  17
ENDBRANCH   1  15
TORSDOF 6
ENDMDL
MODEL 4
REMARK VINA RESULT:      -4.9      4.123      6.262
REMARK  6 active torsions:
REMARK  status: ('A' for Active; 'I' for Inactive)
REMARK    1  A    between atoms: C_4  and  O_5 
REMARK    2  A    between atoms: C_4  and  C_10 
REMARK    3  A    between atoms: O_5  and  C_6 
REMARK    4  A    between atoms: C_6  and  C_7 
REMARK       I    between atoms: C_10  and  N_12 
REMARK    5  A    between atoms: N_12  and  C_13 
REMARK    6  A    between atoms: C_16  and  N_17 
ROOT
HETATM    1  C   UNL     2     -41.265 -50.138  12.637  1.00  0.00     0.250 C 
HETATM    2  O   UNL     2     -41.488 -49.431  13.613  1.00  0.00    -0.270 OA
HETATM    3  N   UNL     2     -41.408 -49.628  11.379  1.00  0.00    -0.324 N 
HETATM    4  H   UNL     2     -41.306 -50.254  10.565  1.00  0.00     0.169 HD
ENDROOT
BRANCH   3   5
HETATM    5  C   UNL     2     -41.792 -48.280  11.133  1.00  0.00     0.050 A 
HETATM    6  C   UNL     2     -40.841 -47.255  10.979  1.00  0.00     0.035 A 
HETATM    7  C   UNL     2     -41.264 -45.946  10.781  1.00  0.00     0.050 A 
HETATM    8  C   UNL     2     -42.632 -45.657  10.763  1.00  0.00     0.098 A 
HETATM    9  N   UNL     2     -43.539 -46.665  10.897  1.00  0.00    -0.351 N 
HETATM   10  C   UNL     2     -43.151 -47.958  11.061  1.00  0.00     0.119 A 
ATOM     11  HN  UNL     2     -44.534 -46.444  10.873  1.00  0.00     0.166 HD
BRANCH   8  12
HETATM   12  N   UNL     2     -43.076 -44.325  10.620  1.00  0.00    -0.385 N 
HETATM   13  H   UNL     2     -43.399 -43.971   9.707  1.00  0.00     0.157 HD
HETATM   14  H   UNL     2     -43.040 -43.680  11.422  1.00  0.00     0.157 HD
ENDBRANCH   8  12
ENDBRANCH   3   5
BRANCH   1  15
HETATM   15  C   UNL     2     -40.906 -51.599  12.845  1.00  0.00     0.209 C 
HETATM   16  C   UNL     2     -41.844 -52.477  12.006  1.00  0.00     0.050 C 
BRANCH  15  17
HETATM   17  O   UNL     2     -39.566 -51.879  12.451  1.00  0.00    -0.376 OA
BRANCH  17  18
HETATM   18  C   UNL     2     -38.637 -51.484  13.442  1.00  0.00     0.173 C 
BRANCH  18  19
HETATM   19  C   UNL     2     -37.480 -50.715  12.792  1.00  0.00     0.009 A 
HETATM   20  C   UNL     2     -37.792 -49.226  12.765  1.00  0.00     0.007 A 
HETATM   21  C   UNL     2     -37.719 -50.020  11.460  1.00  0.00     0.007 A 
ENDBRANCH  18  19
ENDBRANCH  17  18
ENDBRANCH  15  17
ENDBRANCH   1  15
TORSDOF 6
ENDMDL
MODEL 5
REMARK VINA RESULT:      -4.8      1.678      2.377
REMARK  6 active torsions:
REMARK  status: ('A' for Active; 'I' for Inactive)
REMARK    1  A    between atoms: C_4  and  O_5 
REMARK    2  A    between atoms: C_4  and  C_10 
REMARK    3  A    between atoms: O_5  and  C_6 
REMARK    4  A    between atoms: C_6  and  C_7 
REMARK       I    between atoms: C_10  and  N_12 
REMARK    5  A    between atoms: N_12  and  C_13 
REMARK    6  A    between atoms: C_16  and  N_17 
ROOT
HETATM    1  C   UNL     2     -42.467 -52.021  12.928  1.00  0.00     0.250 C 
HETATM    2  O   UNL     2     -42.321 -51.459  14.008  1.00  0.00    -0.270 OA
HETATM    3  N   UNL     2     -42.123 -51.379  11.774  1.00  0.00    -0.324 N 
HETATM    4  H   UNL     2     -42.332 -51.824  10.867  1.00  0.00     0.169 HD
ENDROOT
BRANCH   3   5
HETATM    5  C   UNL     2     -41.570 -50.068  11.756  1.00  0.00     0.050 A 
HETATM    6  C   UNL     2     -42.366 -48.925  11.953  1.00  0.00     0.035 A 
HETATM    7  C   UNL     2     -41.789 -47.663  11.885  1.00  0.00     0.050 A 
HETATM    8  C   UNL     2     -40.426 -47.541  11.595  1.00  0.00     0.098 A 
HETATM    9  N   UNL     2     -39.668 -48.659  11.423  1.00  0.00    -0.351 N 
HETATM   10  C   UNL     2     -40.202 -49.906  11.514  1.00  0.00     0.119 A 
ATOM     11  HN  UNL     2     -38.673 -48.559  11.220  1.00  0.00     0.166 HD
BRANCH   8  12
HETATM   12  N   UNL     2     -39.837 -46.264  11.466  1.00  0.00    -0.385 N 
HETATM   13  H   UNL     2     -40.259 -45.440  11.920  1.00  0.00     0.157 HD
HETATM   14  H   UNL     2     -39.001 -46.138  10.879  1.00  0.00     0.157 HD
ENDBRANCH   8  12
ENDBRANCH   3   5
BRANCH   1  15
HETATM   15  C   UNL     2     -43.104 -53.400  12.889  1.00  0.00     0.209 C 
HETATM   16  C   UNL     2     -43.020 -54.036  14.283  1.00  0.00     0.050 C 
BRANCH  15  17
HETATM   17  O   UNL     2     -44.475 -53.341  12.509  1.00  0.00    -0.376 OA
BRANCH  17  18
HETATM   18  C   UNL     2     -45.326 -53.769  13.555  1.00  0.00     0.173 C 
BRANCH  18  19
HETATM   19  C   UNL     2     -46.472 -52.766  13.735  1.00  0.00     0.009 A 
HETATM   20  C   UNL     2     -46.284 -51.582  12.797  1.00  0.00     0.007 A 
HETATM   21  C   UNL     2     -46.159 -51.391  14.308  1.00  0.00     0.007 A 
ENDBRANCH  18  19
ENDBRANCH  17  18
ENDBRANCH  15  17
ENDBRANCH   1  15
TORSDOF 6
ENDMDL
MODEL 6
REMARK VINA RESULT:      -4.7      2.306      3.614
REMARK  6 active torsions:
REMARK  status: ('A' for Active; 'I' for Inactive)
REMARK    1  A    between atoms: C_4  and  O_5 
REMARK    2  A    between atoms: C_4  and  C_10 
REMARK    3  A    between atoms: O_5  and  C_6 
REMARK    4  A    between atoms: C_6  and  C_7 
REMARK       I    between atoms: C_10  and  N_12 
REMARK    5  A    between atoms: N_12  and  C_13 
REMARK    6  A    between atoms: C_16  and  N_17 
ROOT
HETATM    1  C   UNL     2     -43.443 -50.096  13.603  1.00  0.00     0.250 C 
HETATM    2  O   UNL     2     -43.160 -49.200  14.389  1.00  0.00    -0.270 OA
HETATM    3  N   UNL     2     -43.078 -49.994  12.292  1.00  0.00    -0.324 N 
HETATM    4  H   UNL     2     -43.397 -50.709  11.621  1.00  0.00     0.169 HD
ENDROOT
BRANCH   3   5
HETATM    5  C   UNL     2     -42.351 -48.883  11.779  1.00  0.00     0.050 A 
HETATM    6  C   UNL     2     -42.996 -47.708  11.352  1.00  0.00     0.035 A 
HETATM    7  C   UNL     2     -42.247 -46.666  10.819  1.00  0.00     0.050 A 
HETATM    8  C   UNL     2     -40.862 -46.806  10.687  1.00  0.00     0.098 A 
HETATM    9  N   UNL     2     -40.253 -47.945  11.121  1.00  0.00    -0.351 N 
HETATM   10  C   UNL     2     -40.959 -48.966  11.674  1.00  0.00     0.119 A 
ATOM     11  HN  UNL     2     -39.241 -48.034  11.028  1.00  0.00     0.166 HD
BRANCH   8  12
HETATM   12  N   UNL     2     -40.095 -45.779  10.095  1.00  0.00    -0.385 N 
HETATM   13  H   UNL     2     -40.155 -45.593   9.083  1.00  0.00     0.157 HD
HETATM   14  H   UNL     2     -39.435 -45.233  10.666  1.00  0.00     0.157 HD
ENDBRANCH   8  12
ENDBRANCH   3   5
BRANCH   1  15
HETATM   15  C   UNL     2     -44.265 -51.277  14.089  1.00  0.00     0.209 C 
HETATM   16  C   UNL     2     -45.030 -50.875  15.357  1.00  0.00     0.050 C 
BRANCH  15  17
HETATM   17  O   UNL     2     -45.214 -51.702  13.115  1.00  0.00    -0.376 OA
BRANCH  17  18
HETATM   18  C   UNL     2     -45.854 -52.904  13.498  1.00  0.00     0.173 C 
BRANCH  18  19
HETATM   19  C   UNL     2     -44.922 -54.094  13.239  1.00  0.00     0.009 A 
HETATM   20  C   UNL     2     -45.548 -55.374  13.773  1.00  0.00     0.007 A 
HETATM   21  C   UNL     2     -44.291 -54.803  14.428  1.00  0.00     0.007 A 
ENDBRANCH  18  19
ENDBRANCH  17  18
ENDBRANCH  15  17
ENDBRANCH   1  15
TORSDOF 6
ENDMDL
MODEL 7
REMARK VINA RESULT:      -4.5      2.446      3.611
REMARK  6 active torsions:
REMARK  status: ('A' for Active; 'I' for Inactive)
REMARK    1  A    between atoms: C_4  and  O_5 
REMARK    2  A    between atoms: C_4  and  C_10 
REMARK    3  A    between atoms: O_5  and  C_6 
REMARK    4  A    between atoms: C_6  and  C_7 
REMARK       I    between atoms: C_10  and  N_12 
REMARK    5  A    between atoms: N_12  and  C_13 
REMARK    6  A    between atoms: C_16  and  N_17 
ROOT
HETATM    1  C   UNL     2     -43.032 -49.934  12.963  1.00  0.00     0.250 C 
HETATM    2  O   UNL     2     -43.182 -48.925  13.642  1.00  0.00    -0.270 OA
HETATM    3  N   UNL     2     -42.277 -49.885  11.828  1.00  0.00    -0.324 N 
HETATM    4  H   UNL     2     -42.229 -50.714  11.216  1.00  0.00     0.169 HD
ENDROOT
BRANCH   3   5
HETATM    5  C   UNL     2     -41.621 -48.700  11.388  1.00  0.00     0.050 A 
HETATM    6  C   UNL     2     -40.400 -48.279  11.944  1.00  0.00     0.035 A 
HETATM    7  C   UNL     2     -39.818 -47.094  11.512  1.00  0.00     0.050 A 
HETATM    8  C   UNL     2     -40.466 -46.317  10.547  1.00  0.00     0.098 A 
HETATM    9  N   UNL     2     -41.641 -46.749  10.008  1.00  0.00    -0.351 N 
HETATM   10  C   UNL     2     -42.215 -47.920  10.392  1.00  0.00     0.119 A 
ATOM     11  HN  UNL     2     -42.101 -46.179   9.298  1.00  0.00     0.166 HD
BRANCH   8  12
HETATM   12  N   UNL     2     -39.916 -45.082  10.139  1.00  0.00    -0.385 N 
HETATM   13  H   UNL     2     -39.388 -45.005   9.258  1.00  0.00     0.157 HD
HETATM   14  H   UNL     2     -40.003 -44.253  10.744  1.00  0.00     0.157 HD
ENDBRANCH   8  12
ENDBRANCH   3   5
BRANCH   1  15
HETATM   15  C   UNL     2     -43.755 -51.210  13.360  1.00  0.00     0.209 C 
HETATM   16  C   UNL     2     -42.819 -52.079  14.210  1.00  0.00     0.050 C 
BRANCH  15  17
HETATM   17  O   UNL     2     -44.927 -50.941  14.123  1.00  0.00    -0.376 OA
BRANCH  17  18
HETATM   18  C   UNL     2     -46.072 -51.546  13.552  1.00  0.00     0.173 C 
BRANCH  18  19
HETATM   19  C   UNL     2     -46.927 -52.182  14.655  1.00  0.00     0.009 A 
HETATM   20  C   UNL     2     -47.014 -51.249  15.854  1.00  0.00     0.007 A 
HETATM   21  C   UNL     2     -46.260 -52.574  15.965  1.00  0.00     0.007 A 
ENDBRANCH  18  19
ENDBRANCH  17  18
ENDBRANCH  15  17
ENDBRANCH   1  15
TORSDOF 6
ENDMDL
MODEL 8
REMARK VINA RESULT:      -4.5      3.803      5.918
REMARK  6 active torsions:
REMARK  status: ('A' for Active; 'I' for Inactive)
REMARK    1  A    between atoms: C_4  and  O_5 
REMARK    2  A    between atoms: C_4  and  C_10 
REMARK    3  A    between atoms: O_5  and  C_6 
REMARK    4  A    between atoms: C_6  and  C_7 
REMARK       I    between atoms: C_10  and  N_12 
REMARK    5  A    between atoms: N_12  and  C_13 
REMARK    6  A    between atoms: C_16  and  N_17 
ROOT
HETATM    1  C   UNL     2     -40.094 -49.392  12.165  1.00  0.00     0.250 C 
HETATM    2  O   UNL     2     -40.407 -48.860  13.224  1.00  0.00    -0.270 OA
HETATM    3  N   UNL     2     -40.394 -48.782  10.982  1.00  0.00    -0.324 N 
HETATM    4  H   UNL     2     -40.207 -49.277  10.096  1.00  0.00     0.169 HD
ENDROOT
BRANCH   3   5
HETATM    5  C   UNL     2     -41.050 -47.521  10.909  1.00  0.00     0.050 A 
HETATM    6  C   UNL     2     -40.331 -46.312  10.887  1.00  0.00     0.035 A 
HETATM    7  C   UNL     2     -41.016 -45.103  10.857  1.00  0.00     0.050 A 
HETATM    8  C   UNL     2     -42.414 -45.100  10.876  1.00  0.00     0.098 A 
HETATM    9  N   UNL     2     -43.093 -46.282  10.880  1.00  0.00    -0.351 N 
HETATM   10  C   UNL     2     -42.447 -47.477  10.879  1.00  0.00     0.119 A 
ATOM     11  HN  UNL     2     -44.113 -46.268  10.885  1.00  0.00     0.166 HD
BRANCH   8  12
HETATM   12  N   UNL     2     -43.123 -43.880  10.903  1.00  0.00    -0.385 N 
HETATM   13  H   UNL     2     -44.055 -43.821  11.340  1.00  0.00     0.157 HD
HETATM   14  H   UNL     2     -42.731 -43.044  10.447  1.00  0.00     0.157 HD
ENDBRANCH   8  12
ENDBRANCH   3   5
BRANCH   1  15
HETATM   15  C   UNL     2     -39.441 -50.764  12.187  1.00  0.00     0.209 C 
HETATM   16  C   UNL     2     -38.023 -50.641  12.759  1.00  0.00     0.050 C 
BRANCH  15  17
HETATM   17  O   UNL     2     -40.168 -51.685  12.995  1.00  0.00    -0.376 OA
BRANCH  17  18
HETATM   18  C   UNL     2     -41.011 -52.511  12.216  1.00  0.00     0.173 C 
BRANCH  18  19
HETATM   19  C   UNL     2     -40.967 -53.948  12.749  1.00  0.00     0.009 A 
HETATM   20  C   UNL     2     -42.108 -54.178  13.730  1.00  0.00     0.007 A 
HETATM   21  C   UNL     2     -40.661 -54.174  14.223  1.00  0.00     0.007 A 
ENDBRANCH  18  19
ENDBRANCH  17  18
ENDBRANCH  15  17
ENDBRANCH   1  15
TORSDOF 6
ENDMDL
MODEL 9
REMARK VINA RESULT:      -4.5      1.800      3.128
REMARK  6 active torsions:
REMARK  status: ('A' for Active; 'I' for Inactive)
REMARK    1  A    between atoms: C_4  and  O_5 
REMARK    2  A    between atoms: C_4  and  C_10 
REMARK    3  A    between atoms: O_5  and  C_6 
REMARK    4  A    between atoms: C_6  and  C_7 
REMARK       I    between atoms: C_10  and  N_12 
REMARK    5  A    between atoms: N_12  and  C_13 
REMARK    6  A    between atoms: C_16  and  N_17 
ROOT
HETATM    1  C   UNL     2     -44.002 -50.824  14.135  1.00  0.00     0.250 C 
HETATM    2  O   UNL     2     -43.210 -50.396  14.967  1.00  0.00    -0.270 OA
HETATM    3  N   UNL     2     -43.628 -50.925  12.827  1.00  0.00    -0.324 N 
HETATM    4  H   UNL     2     -44.328 -51.200  12.120  1.00  0.00     0.169 HD
ENDROOT
BRANCH   3   5
HETATM    5  C   UNL     2     -42.328 -50.571  12.367  1.00  0.00     0.050 A 
HETATM    6  C   UNL     2     -42.021 -49.266  11.944  1.00  0.00     0.035 A 
HETATM    7  C   UNL     2     -40.749 -48.978  11.464  1.00  0.00     0.050 A 
HETATM    8  C   UNL     2     -39.795 -49.997  11.381  1.00  0.00     0.098 A 
HETATM    9  N   UNL     2     -40.106 -51.252  11.810  1.00  0.00    -0.351 N 
HETATM   10  C   UNL     2     -41.332 -51.552  12.312  1.00  0.00     0.119 A 
ATOM     11  HN  UNL     2     -39.399 -51.986  11.753  1.00  0.00     0.166 HD
BRANCH   8  12
HETATM   12  N   UNL     2     -38.517 -49.733  10.842  1.00  0.00    -0.385 N 
HETATM   13  H   UNL     2     -38.235 -50.130   9.933  1.00  0.00     0.157 HD
HETATM   14  H   UNL     2     -37.836 -49.174  11.376  1.00  0.00     0.157 HD
ENDBRANCH   8  12
ENDBRANCH   3   5
BRANCH   1  15
HETATM   15  C   UNL     2     -45.419 -51.163  14.565  1.00  0.00     0.209 C 
HETATM   16  C   UNL     2     -46.247 -51.541  13.330  1.00  0.00     0.050 C 
BRANCH  15  17
HETATM   17  O   UNL     2     -45.451 -52.259  15.474  1.00  0.00    -0.376 OA
BRANCH  17  18
HETATM   18  C   UNL     2     -45.099 -53.474  14.839  1.00  0.00     0.173 C 
BRANCH  18  19
HETATM   19  C   UNL     2     -43.907 -54.111  15.562  1.00  0.00     0.009 A 
HETATM   20  C   UNL     2     -42.669 -54.057  14.679  1.00  0.00     0.007 A 
HETATM   21  C   UNL     2     -43.318 -55.401  15.009  1.00  0.00     0.007 A 
ENDBRANCH  18  19
ENDBRANCH  17  18
ENDBRANCH  15  17
ENDBRANCH   1  15
TORSDOF 6
ENDMDL
