MODEL 1
REMARK VINA RESULT:      -6.7      0.000      0.000
REMARK  5 active torsions:
REMARK  status: ('A' for Active; 'I' for Inactive)
REMARK    1  A    between atoms: C_2  and  C_5 
REMARK    2  A    between atoms: N_10  and  C_11 
REMARK    3  A    between atoms: C_11  and  C_12 
REMARK       I    between atoms: C_12  and  N_14 
REMARK    4  A    between atoms: N_14  and  C_15 
REMARK    5  A    between atoms: C_15  and  C_16 
ROOT
HETATM    1  C   UNL     1     -42.918 -47.892  12.446  1.00  0.00     0.234 C 
ENDROOT
BRANCH   1   2
HETATM    2  N   UNL     1     -43.387 -47.486  11.123  1.00  0.00    -0.315 N 
HETATM    3  C   UNL     1     -42.548 -46.714  10.330  1.00  0.00     0.247 A 
HETATM    4  C   UNL     1     -43.101 -46.300   9.015  1.00  0.00     0.075 A 
HETATM    5  O   UNL     1     -41.406 -46.386  10.643  1.00  0.00    -0.268 OA
HETATM    6  C   UNL     1     -44.302 -46.741   8.618  1.00  0.00     0.023 A 
HETATM    7  C   UNL     1     -45.093 -47.623   9.460  1.00  0.00     0.063 A 
HETATM    8  C   UNL     1     -44.619 -47.943  10.675  1.00  0.00     0.110 A 
BRANCH   7   9
HETATM    9  C   UNL     1     -46.401 -48.165   8.952  1.00  0.00     0.418 C 
HETATM   10  F   UNL     1     -46.845 -49.231   9.667  1.00  0.00    -0.166 F 
HETATM   11  F   UNL     1     -46.309 -48.569   7.660  1.00  0.00    -0.166 F 
HETATM   12  F   UNL     1     -47.381 -47.227   9.001  1.00  0.00    -0.166 F 
ENDBRANCH   7   9
ENDBRANCH   1   2
BRANCH   1  13
HETATM   13  C   UNL     1     -42.761 -49.406  12.559  1.00  0.00     0.235 C 
HETATM   14  O   UNL     1     -41.945 -50.007  11.858  1.00  0.00    -0.272 OA
HETATM   15  N   UNL     1     -43.623 -50.038  13.430  1.00  0.00    -0.359 N 
HETATM   16  H   UNL     1     -44.352 -49.488  13.879  1.00  0.00     0.162 HD
BRANCH  15  17
HETATM   17  C   UNL     1     -43.690 -51.487  13.499  1.00  0.00     0.127 C 
BRANCH  17  18
HETATM   18  C   UNL     1     -44.901 -52.104  12.769  1.00  0.00     0.003 C 
HETATM   19  C   UNL     1     -46.233 -51.390  13.050  1.00  0.00     0.006 C 
HETATM   20  C   UNL     1     -46.724 -51.586  14.482  1.00  0.00     0.000 C 
HETATM   21  C   UNL     1     -46.803 -53.061  14.868  1.00  0.00     0.000 C 
HETATM   22  C   UNL     1     -45.509 -53.814  14.572  1.00  0.00     0.000 C 
HETATM   23  C   UNL     1     -45.040 -53.597  13.131  1.00  0.00     0.006 C 
ENDBRANCH  17  18
ENDBRANCH  15  17
ENDBRANCH   1  13
TORSDOF 5
ENDMDL
MODEL 2
REMARK VINA RESULT:      -6.4      1.949      2.525
REMARK  5 active torsions:
REMARK  status: ('A' for Active; 'I' for Inactive)
REMARK    1  A    between atoms: C_2  and  C_5 
REMARK    2  A    between atoms: N_10  and  C_11 
REMARK    3  A    between atoms: C_11  and  C_12 
REMARK       I    between atoms: C_12  and  N_14 
REMARK    4  A    between atoms: N_14  and  C_15 
REMARK    5  A    between atoms: C_15  and  C_16 
ROOT
HETATM    1  C   UNL     1     -41.082 -49.894  11.455  1.00  0.00     0.234 C 
ENDROOT
BRANCH   1   2
HETATM    2  N   UNL     1     -41.216 -48.477  11.122  1.00  0.00    -0.315 N 
HETATM    3  C   UNL     1     -40.208 -47.606  11.512  1.00  0.00     0.247 A 
HETATM    4  C   UNL     1     -40.425 -46.175  11.180  1.00  0.00     0.075 A 
HETATM    5  O   UNL     1     -39.174 -47.952  12.078  1.00  0.00    -0.268 OA
HETATM    6  C   UNL     1     -41.497 -45.802  10.468  1.00  0.00     0.023 A 
HETATM    7  C   UNL     1     -42.471 -46.778  10.013  1.00  0.00     0.063 A 
HETATM    8  C   UNL     1     -42.306 -48.062  10.370  1.00  0.00     0.110 A 
BRANCH   7   9
HETATM    9  C   UNL     1     -43.621 -46.337   9.148  1.00  0.00     0.418 C 
HETATM   10  F   UNL     1     -43.397 -46.547   7.824  1.00  0.00    -0.166 F 
HETATM   11  F   UNL     1     -43.883 -45.015   9.297  1.00  0.00    -0.166 F 
HETATM   12  F   UNL     1     -44.762 -47.002   9.460  1.00  0.00    -0.166 F 
ENDBRANCH   7   9
ENDBRANCH   1   2
BRANCH   1  13
HETATM   13  C   UNL     1     -42.065 -50.323  12.540  1.00  0.00     0.235 C 
HETATM   14  O   UNL     1     -42.075 -49.762  13.637  1.00  0.00    -0.272 OA
HETATM   15  N   UNL     1     -42.871 -51.400  12.233  1.00  0.00    -0.359 N 
HETATM   16  H   UNL     1     -42.716 -51.887  11.353  1.00  0.00     0.162 HD
BRANCH  15  17
HETATM   17  C   UNL     1     -43.723 -52.010  13.238  1.00  0.00     0.127 C 
BRANCH  17  18
HETATM   18  C   UNL     1     -45.053 -52.569  12.691  1.00  0.00     0.003 C 
HETATM   19  C   UNL     1     -46.243 -51.607  12.837  1.00  0.00     0.006 C 
HETATM   20  C   UNL     1     -46.674 -51.408  14.288  1.00  0.00     0.000 C 
HETATM   21  C   UNL     1     -46.952 -52.732  14.994  1.00  0.00     0.000 C 
HETATM   22  C   UNL     1     -45.807 -53.729  14.843  1.00  0.00     0.000 C 
HETATM   23  C   UNL     1     -45.395 -53.906  13.379  1.00  0.00     0.006 C 
ENDBRANCH  17  18
ENDBRANCH  15  17
ENDBRANCH   1  13
TORSDOF 5
ENDMDL
MODEL 3
REMARK VINA RESULT:      -6.3      1.985      2.643
REMARK  5 active torsions:
REMARK  status: ('A' for Active; 'I' for Inactive)
REMARK    1  A    between atoms: C_2  and  C_5 
REMARK    2  A    between atoms: N_10  and  C_11 
REMARK    3  A    between atoms: C_11  and  C_12 
REMARK       I    between atoms: C_12  and  N_14 
REMARK    4  A    between atoms: N_14  and  C_15 
REMARK    5  A    between atoms: C_15  and  C_16 
ROOT
HETATM    1  C   UNL     1     -40.879 -49.095  11.390  1.00  0.00     0.234 C 
ENDROOT
BRANCH   1   2
HETATM    2  N   UNL     1     -41.534 -47.885  10.900  1.00  0.00    -0.315 N 
HETATM    3  C   UNL     1     -40.853 -46.679  10.993  1.00  0.00     0.247 A 
HETATM    4  C   UNL     1     -41.591 -45.481  10.516  1.00  0.00     0.075 A 
HETATM    5  O   UNL     1     -39.707 -46.561  11.417  1.00  0.00    -0.268 OA
HETATM    6  C   UNL     1     -42.800 -45.612   9.953  1.00  0.00     0.023 A 
HETATM    7  C   UNL     1     -43.419 -46.917   9.803  1.00  0.00     0.063 A 
HETATM    8  C   UNL     1     -42.778 -47.991  10.294  1.00  0.00     0.110 A 
BRANCH   7   9
HETATM    9  C   UNL     1     -44.741 -47.039   9.094  1.00  0.00     0.418 C 
HETATM   10  F   UNL     1     -45.241 -45.840   8.699  1.00  0.00    -0.166 F 
HETATM   11  F   UNL     1     -45.681 -47.617   9.883  1.00  0.00    -0.166 F 
HETATM   12  F   UNL     1     -44.639 -47.805   7.978  1.00  0.00    -0.166 F 
ENDBRANCH   7   9
ENDBRANCH   1   2
BRANCH   1  13
HETATM   13  C   UNL     1     -41.735 -49.837  12.413  1.00  0.00     0.235 C 
HETATM   14  O   UNL     1     -41.913 -49.369  13.539  1.00  0.00    -0.272 OA
HETATM   15  N   UNL     1     -42.222 -51.064  12.016  1.00  0.00    -0.359 N 
HETATM   16  H   UNL     1     -41.927 -51.437  11.116  1.00  0.00     0.162 HD
BRANCH  15  17
HETATM   17  C   UNL     1     -42.902 -51.940  12.954  1.00  0.00     0.127 C 
BRANCH  17  18
HETATM   18  C   UNL     1     -42.923 -53.425  12.537  1.00  0.00     0.003 C 
HETATM   19  C   UNL     1     -44.206 -54.171  12.940  1.00  0.00     0.006 C 
HETATM   20  C   UNL     1     -44.331 -54.369  14.448  1.00  0.00     0.000 C 
HETATM   21  C   UNL     1     -43.098 -55.042  15.046  1.00  0.00     0.000 C 
HETATM   22  C   UNL     1     -41.799 -54.352  14.640  1.00  0.00     0.000 C 
HETATM   23  C   UNL     1     -41.703 -54.163  13.124  1.00  0.00     0.006 C 
ENDBRANCH  17  18
ENDBRANCH  15  17
ENDBRANCH   1  13
TORSDOF 5
ENDMDL
MODEL 4
REMARK VINA RESULT:      -6.2      3.380      4.384
REMARK  5 active torsions:
REMARK  status: ('A' for Active; 'I' for Inactive)
REMARK    1  A    between atoms: C_2  and  C_5 
REMARK    2  A    between atoms: N_10  and  C_11 
REMARK    3  A    between atoms: C_11  and  C_12 
REMARK       I    between atoms: C_12  and  N_14 
REMARK    4  A    between atoms: N_14  and  C_15 
REMARK    5  A    between atoms: C_15  and  C_16 
ROOT
HETATM    1  C   UNL     1     -40.829 -52.467  12.076  1.00  0.00     0.234 C 
ENDROOT
BRANCH   1   2
HETATM    2  N   UNL     1     -40.340 -51.091  12.027  1.00  0.00    -0.315 N 
HETATM    3  C   UNL     1     -39.057 -50.828  12.488  1.00  0.00     0.247 A 
HETATM    4  C   UNL     1     -38.636 -49.404  12.451  1.00  0.00     0.075 A 
HETATM    5  O   UNL     1     -38.275 -51.685  12.891  1.00  0.00    -0.268 OA
HETATM    6  C   UNL     1     -39.439 -48.476  11.914  1.00  0.00     0.023 A 
HETATM    7  C   UNL     1     -40.736 -48.833  11.365  1.00  0.00     0.063 A 
HETATM    8  C   UNL     1     -41.141 -50.111  11.460  1.00  0.00     0.110 A 
BRANCH   7   9
HETATM    9  C   UNL     1     -41.580 -47.782  10.698  1.00  0.00     0.418 C 
HETATM   10  F   UNL     1     -42.130 -48.208   9.531  1.00  0.00    -0.166 F 
HETATM   11  F   UNL     1     -40.860 -46.669  10.409  1.00  0.00    -0.166 F 
HETATM   12  F   UNL     1     -42.608 -47.390  11.492  1.00  0.00    -0.166 F 
ENDBRANCH   7   9
ENDBRANCH   1   2
BRANCH   1  13
HETATM   13  C   UNL     1     -41.880 -52.664  13.164  1.00  0.00     0.235 C 
HETATM   14  O   UNL     1     -41.736 -52.152  14.275  1.00  0.00    -0.272 OA
HETATM   15  N   UNL     1     -42.936 -53.490  12.841  1.00  0.00    -0.359 N 
HETATM   16  H   UNL     1     -42.919 -53.975  11.947  1.00  0.00     0.162 HD
BRANCH  15  17
HETATM   17  C   UNL     1     -43.907 -53.893  13.843  1.00  0.00     0.127 C 
BRANCH  17  18
HETATM   18  C   UNL     1     -45.363 -53.937  13.338  1.00  0.00     0.003 C 
HETATM   19  C   UNL     1     -45.777 -52.707  12.513  1.00  0.00     0.006 C 
HETATM   20  C   UNL     1     -45.879 -51.435  13.351  1.00  0.00     0.000 C 
HETATM   21  C   UNL     1     -46.791 -51.613  14.562  1.00  0.00     0.000 C 
HETATM   22  C   UNL     1     -46.434 -52.846  15.389  1.00  0.00     0.000 C 
HETATM   23  C   UNL     1     -46.336 -54.104  14.522  1.00  0.00     0.006 C 
ENDBRANCH  17  18
ENDBRANCH  15  17
ENDBRANCH   1  13
TORSDOF 5
ENDMDL
MODEL 5
REMARK VINA RESULT:      -6.2      3.080      6.567
REMARK  5 active torsions:
REMARK  status: ('A' for Active; 'I' for Inactive)
REMARK    1  A    between atoms: C_2  and  C_5 
REMARK    2  A    between atoms: N_10  and  C_11 
REMARK    3  A    between atoms: C_11  and  C_12 
REMARK       I    between atoms: C_12  and  N_14 
REMARK    4  A    between atoms: N_14  and  C_15 
REMARK    5  A    between atoms: C_15  and  C_16 
ROOT
HETATM    1  C   UNL     1     -41.192 -52.724  11.914  1.00  0.00     0.234 C 
ENDROOT
BRANCH   1   2
HETATM    2  N   UNL     1     -42.308 -53.191  12.733  1.00  0.00    -0.315 N 
HETATM    3  C   UNL     1     -42.049 -54.098  13.751  1.00  0.00     0.247 A 
HETATM    4  C   UNL     1     -43.232 -54.565  14.519  1.00  0.00     0.075 A 
HETATM    5  O   UNL     1     -40.929 -54.504  14.050  1.00  0.00    -0.268 OA
HETATM    6  C   UNL     1     -44.443 -54.049  14.272  1.00  0.00     0.023 A 
HETATM    7  C   UNL     1     -44.632 -53.033  13.251  1.00  0.00     0.063 A 
HETATM    8  C   UNL     1     -43.572 -52.661  12.515  1.00  0.00     0.110 A 
BRANCH   7   9
HETATM    9  C   UNL     1     -45.989 -52.415  13.054  1.00  0.00     0.418 C 
HETATM   10  F   UNL     1     -46.029 -51.103  13.402  1.00  0.00    -0.166 F 
HETATM   11  F   UNL     1     -46.939 -53.046  13.790  1.00  0.00    -0.166 F 
HETATM   12  F   UNL     1     -46.386 -52.486  11.757  1.00  0.00    -0.166 F 
ENDBRANCH   7   9
ENDBRANCH   1   2
BRANCH   1  13
HETATM   13  C   UNL     1     -40.847 -51.264  12.192  1.00  0.00     0.235 C 
HETATM   14  O   UNL     1     -40.690 -50.866  13.348  1.00  0.00    -0.272 OA
HETATM   15  N   UNL     1     -40.794 -50.436  11.091  1.00  0.00    -0.359 N 
HETATM   16  H   UNL     1     -41.058 -50.814  10.184  1.00  0.00     0.162 HD
BRANCH  15  17
HETATM   17  C   UNL     1     -40.646 -48.999  11.239  1.00  0.00     0.127 C 
BRANCH  17  18
HETATM   18  C   UNL     1     -41.847 -48.179  10.726  1.00  0.00     0.003 C 
HETATM   19  C   UNL     1     -41.566 -46.673  10.591  1.00  0.00     0.006 C 
HETATM   20  C   UNL     1     -41.391 -45.977  11.938  1.00  0.00     0.000 C 
HETATM   21  C   UNL     1     -42.568 -46.231  12.877  1.00  0.00     0.000 C 
HETATM   22  C   UNL     1     -42.902 -47.714  13.010  1.00  0.00     0.000 C 
HETATM   23  C   UNL     1     -43.068 -48.386  11.645  1.00  0.00     0.006 C 
ENDBRANCH  17  18
ENDBRANCH  15  17
ENDBRANCH   1  13
TORSDOF 5
ENDMDL
MODEL 6
REMARK VINA RESULT:      -6.0      2.095      2.885
REMARK  5 active torsions:
REMARK  status: ('A' for Active; 'I' for Inactive)
REMARK    1  A    between atoms: C_2  and  C_5 
REMARK    2  A    between atoms: N_10  and  C_11 
REMARK    3  A    between atoms: C_11  and  C_12 
REMARK       I    between atoms: C_12  and  N_14 
REMARK    4  A    between atoms: N_14  and  C_15 
REMARK    5  A    between atoms: C_15  and  C_16 
ROOT
HETATM    1  C   UNL     1     -40.152 -49.823  11.321  1.00  0.00     0.234 C 
ENDROOT
BRANCH   1   2
HETATM    2  N   UNL     1     -41.156 -48.762  11.274  1.00  0.00    -0.315 N 
HETATM    3  C   UNL     1     -41.317 -47.953  12.391  1.00  0.00     0.247 A 
HETATM    4  C   UNL     1     -42.382 -46.922  12.294  1.00  0.00     0.075 A 
HETATM    5  O   UNL     1     -40.634 -48.031  13.409  1.00  0.00    -0.268 OA
HETATM    6  C   UNL     1     -43.060 -46.757  11.150  1.00  0.00     0.023 A 
HETATM    7  C   UNL     1     -42.780 -47.580   9.987  1.00  0.00     0.063 A 
HETATM    8  C   UNL     1     -41.861 -48.554  10.098  1.00  0.00     0.110 A 
BRANCH   7   9
HETATM    9  C   UNL     1     -43.502 -47.316   8.694  1.00  0.00     0.418 C 
HETATM   10  F   UNL     1     -44.846 -47.488   8.794  1.00  0.00    -0.166 F 
HETATM   11  F   UNL     1     -43.074 -48.138   7.703  1.00  0.00    -0.166 F 
HETATM   12  F   UNL     1     -43.304 -46.044   8.263  1.00  0.00    -0.166 F 
ENDBRANCH   7   9
ENDBRANCH   1   2
BRANCH   1  13
HETATM   13  C   UNL     1     -40.696 -51.101  11.953  1.00  0.00     0.235 C 
HETATM   14  O   UNL     1     -39.929 -51.965  12.381  1.00  0.00    -0.272 OA
HETATM   15  N   UNL     1     -42.068 -51.241  11.945  1.00  0.00    -0.359 N 
HETATM   16  H   UNL     1     -42.626 -50.542  11.461  1.00  0.00     0.162 HD
BRANCH  15  17
HETATM   17  C   UNL     1     -42.697 -52.483  12.358  1.00  0.00     0.127 C 
BRANCH  17  18
HETATM   18  C   UNL     1     -43.286 -52.456  13.783  1.00  0.00     0.003 C 
HETATM   19  C   UNL     1     -44.014 -53.749  14.185  1.00  0.00     0.006 C 
HETATM   20  C   UNL     1     -45.318 -53.961  13.419  1.00  0.00     0.000 C 
HETATM   21  C   UNL     1     -46.249 -52.756  13.519  1.00  0.00     0.000 C 
HETATM   22  C   UNL     1     -45.552 -51.445  13.161  1.00  0.00     0.000 C 
HETATM   23  C   UNL     1     -44.249 -51.262  13.942  1.00  0.00     0.006 C 
ENDBRANCH  17  18
ENDBRANCH  15  17
ENDBRANCH   1  13
TORSDOF 5
ENDMDL
MODEL 7
REMARK VINA RESULT:      -6.0      4.240      7.226
REMARK  5 active torsions:
REMARK  status: ('A' for Active; 'I' for Inactive)
REMARK    1  A    between atoms: C_2  and  C_5 
REMARK    2  A    between atoms: N_10  and  C_11 
REMARK    3  A    between atoms: C_11  and  C_12 
REMARK       I    between atoms: C_12  and  N_14 
REMARK    4  A    between atoms: N_14  and  C_15 
REMARK    5  A    between atoms: C_15  and  C_16 
ROOT
HETATM    1  C   UNL     1     -42.032 -54.056  13.281  1.00  0.00     0.234 C 
ENDROOT
BRANCH   1   2
HETATM    2  N   UNL     1     -43.448 -53.950  13.626  1.00  0.00    -0.315 N 
HETATM    3  C   UNL     1     -43.979 -54.861  14.529  1.00  0.00     0.247 A 
HETATM    4  C   UNL     1     -45.432 -54.726  14.805  1.00  0.00     0.075 A 
HETATM    5  O   UNL     1     -43.327 -55.728  15.105  1.00  0.00    -0.268 OA
HETATM    6  C   UNL     1     -46.131 -53.718  14.266  1.00  0.00     0.023 A 
HETATM    7  C   UNL     1     -45.493 -52.743  13.399  1.00  0.00     0.063 A 
HETATM    8  C   UNL     1     -44.193 -52.905  13.099  1.00  0.00     0.110 A 
BRANCH   7   9
HETATM    9  C   UNL     1     -46.287 -51.577  12.874  1.00  0.00     0.418 C 
HETATM   10  F   UNL     1     -47.046 -51.898  11.795  1.00  0.00    -0.166 F 
HETATM   11  F   UNL     1     -45.483 -50.551  12.498  1.00  0.00    -0.166 F 
HETATM   12  F   UNL     1     -47.134 -51.088  13.815  1.00  0.00    -0.166 F 
ENDBRANCH   7   9
ENDBRANCH   1   2
BRANCH   1  13
HETATM   13  C   UNL     1     -41.280 -52.753  13.535  1.00  0.00     0.235 C 
HETATM   14  O   UNL     1     -41.152 -52.316  14.680  1.00  0.00    -0.272 OA
HETATM   15  N   UNL     1     -40.830 -52.087  12.415  1.00  0.00    -0.359 N 
HETATM   16  H   UNL     1     -41.084 -52.449  11.499  1.00  0.00     0.162 HD
BRANCH  15  17
HETATM   17  C   UNL     1     -40.255 -50.757  12.513  1.00  0.00     0.127 C 
BRANCH  17  18
HETATM   18  C   UNL     1     -38.733 -50.701  12.270  1.00  0.00     0.003 C 
HETATM   19  C   UNL     1     -37.894 -51.321  13.399  1.00  0.00     0.006 C 
HETATM   20  C   UNL     1     -37.935 -50.504  14.688  1.00  0.00     0.000 C 
HETATM   21  C   UNL     1     -37.549 -49.045  14.459  1.00  0.00     0.000 C 
HETATM   22  C   UNL     1     -38.336 -48.403  13.320  1.00  0.00     0.000 C 
HETATM   23  C   UNL     1     -38.280 -49.245  12.043  1.00  0.00     0.006 C 
ENDBRANCH  17  18
ENDBRANCH  15  17
ENDBRANCH   1  13
TORSDOF 5
ENDMDL
MODEL 8
REMARK VINA RESULT:      -6.0      5.140      6.902
REMARK  5 active torsions:
REMARK  status: ('A' for Active; 'I' for Inactive)
REMARK    1  A    between atoms: C_2  and  C_5 
REMARK    2  A    between atoms: N_10  and  C_11 
REMARK    3  A    between atoms: C_11  and  C_12 
REMARK       I    between atoms: C_12  and  N_14 
REMARK    4  A    between atoms: N_14  and  C_15 
REMARK    5  A    between atoms: C_15  and  C_16 
ROOT
HETATM    1  C   UNL     1     -44.213 -54.714  14.595  1.00  0.00     0.234 C 
ENDROOT
BRANCH   1   2
HETATM    2  N   UNL     1     -45.090 -53.555  14.446  1.00  0.00    -0.315 N 
HETATM    3  C   UNL     1     -45.396 -53.115  13.165  1.00  0.00     0.247 A 
HETATM    4  C   UNL     1     -46.257 -51.907  13.085  1.00  0.00     0.075 A 
HETATM    5  O   UNL     1     -45.020 -53.666  12.135  1.00  0.00    -0.268 OA
HETATM    6  C   UNL     1     -46.761 -51.361  14.200  1.00  0.00     0.023 A 
HETATM    7  C   UNL     1     -46.474 -51.926  15.507  1.00  0.00     0.063 A 
HETATM    8  C   UNL     1     -45.643 -52.978  15.581  1.00  0.00     0.110 A 
BRANCH   7   9
HETATM    9  C   UNL     1     -47.120 -51.338  16.732  1.00  0.00     0.418 C 
HETATM   10  F   UNL     1     -48.376 -50.877  16.499  1.00  0.00    -0.166 F 
HETATM   11  F   UNL     1     -46.404 -50.295  17.225  1.00  0.00    -0.166 F 
HETATM   12  F   UNL     1     -47.219 -52.252  17.730  1.00  0.00    -0.166 F 
ENDBRANCH   7   9
ENDBRANCH   1   2
BRANCH   1  13
HETATM   13  C   UNL     1     -42.739 -54.321  14.600  1.00  0.00     0.235 C 
HETATM   14  O   UNL     1     -42.136 -54.163  15.663  1.00  0.00    -0.272 OA
HETATM   15  N   UNL     1     -42.169 -54.097  13.365  1.00  0.00    -0.359 N 
HETATM   16  H   UNL     1     -42.766 -54.126  12.541  1.00  0.00     0.162 HD
BRANCH  15  17
HETATM   17  C   UNL     1     -40.828 -53.553  13.245  1.00  0.00     0.127 C 
BRANCH  17  18
HETATM   18  C   UNL     1     -40.724 -52.309  12.340  1.00  0.00     0.003 C 
HETATM   19  C   UNL     1     -39.598 -51.339  12.735  1.00  0.00     0.006 C 
HETATM   20  C   UNL     1     -39.867 -50.622  14.056  1.00  0.00     0.000 C 
HETATM   21  C   UNL     1     -41.222 -49.919  14.066  1.00  0.00     0.000 C 
HETATM   22  C   UNL     1     -42.363 -50.840  13.644  1.00  0.00     0.000 C 
HETATM   23  C   UNL     1     -42.065 -51.547  12.320  1.00  0.00     0.006 C 
ENDBRANCH  17  18
ENDBRANCH  15  17
ENDBRANCH   1  13
TORSDOF 5
ENDMDL
MODEL 9
REMARK VINA RESULT:      -5.8      4.718      5.677
REMARK  5 active torsions:
REMARK  status: ('A' for Active; 'I' for Inactive)
REMARK    1  A    between atoms: C_2  and  C_5 
REMARK    2  A    between atoms: N_10  and  C_11 
REMARK    3  A    between atoms: C_11  and  C_12 
REMARK       I    between atoms: C_12  and  N_14 
REMARK    4  A    between atoms: N_14  and  C_15 
REMARK    5  A    between atoms: C_15  and  C_16 
ROOT
HETATM    1  C   UNL     1     -42.208 -49.484  12.071  1.00  0.00     0.234 C 
ENDROOT
BRANCH   1   2
HETATM    2  N   UNL     1     -40.877 -49.111  12.544  1.00  0.00    -0.315 N 
HETATM    3  C   UNL     1     -40.657 -47.799  12.941  1.00  0.00     0.247 A 
HETATM    4  C   UNL     1     -39.273 -47.476  13.371  1.00  0.00     0.075 A 
HETATM    5  O   UNL     1     -41.525 -46.930  12.972  1.00  0.00    -0.268 OA
HETATM    6  C   UNL     1     -38.346 -48.440  13.444  1.00  0.00     0.023 A 
HETATM    7  C   UNL     1     -38.665 -49.815  13.099  1.00  0.00     0.063 A 
HETATM    8  C   UNL     1     -39.900 -50.092  12.648  1.00  0.00     0.110 A 
BRANCH   7   9
HETATM    9  C   UNL     1     -37.625 -50.888  13.268  1.00  0.00     0.418 C 
HETATM   10  F   UNL     1     -36.729 -50.607  14.250  1.00  0.00    -0.166 F 
HETATM   11  F   UNL     1     -36.912 -51.080  12.130  1.00  0.00    -0.166 F 
HETATM   12  F   UNL     1     -38.187 -52.082  13.585  1.00  0.00    -0.166 F 
ENDBRANCH   7   9
ENDBRANCH   1   2
BRANCH   1  13
HETATM   13  C   UNL     1     -42.895 -50.471  13.009  1.00  0.00     0.235 C 
HETATM   14  O   UNL     1     -43.043 -50.204  14.203  1.00  0.00    -0.272 OA
HETATM   15  N   UNL     1     -43.264 -51.677  12.451  1.00  0.00    -0.359 N 
HETATM   16  H   UNL     1     -42.995 -51.871  11.489  1.00  0.00     0.162 HD
BRANCH  15  17
HETATM   17  C   UNL     1     -43.767 -52.762  13.274  1.00  0.00     0.127 C 
BRANCH  17  18
HETATM   18  C   UNL     1     -45.193 -53.227  12.914  1.00  0.00     0.003 C 
HETATM   19  C   UNL     1     -46.207 -52.082  12.762  1.00  0.00     0.006 C 
HETATM   20  C   UNL     1     -46.534 -51.397  14.088  1.00  0.00     0.000 C 
HETATM   21  C   UNL     1     -46.987 -52.391  15.154  1.00  0.00     0.000 C 
HETATM   22  C   UNL     1     -46.023 -53.564  15.309  1.00  0.00     0.000 C 
HETATM   23  C   UNL     1     -45.712 -54.228  13.966  1.00  0.00     0.006 C 
ENDBRANCH  17  18
ENDBRANCH  15  17
ENDBRANCH   1  13
TORSDOF 5
ENDMDL
