MODEL 1
REMARK VINA RESULT:      -6.4      0.000      0.000
REMARK  6 active torsions:
REMARK  status: ('A' for Active; 'I' for Inactive)
REMARK    1  A    between atoms: O_2  and  C_3 
REMARK    2  A    between atoms: C_3  and  C_4 
REMARK    3  A    between atoms: C_4  and  N_5 
REMARK    4  A    between atoms: C_8  and  C_13 
REMARK       I    between atoms: C_13  and  N_15 
REMARK    5  A    between atoms: N_19  and  C_20 
REMARK    6  A    between atoms: C_20  and  C_21 
REMARK       I    between atoms: C_21  and  N_23 
ROOT
HETATM    1  C   UNL     1     -40.635 -48.028  13.736  1.00  0.00     0.271 C 
HETATM    2  O   UNL     1     -40.445 -47.440  14.799  1.00  0.00    -0.266 OA
HETATM    3  N   UNL     1     -41.722 -47.777  12.891  1.00  0.00    -0.345 N 
HETATM    4  C   UNL     1     -42.539 -46.593  13.153  1.00  0.00     0.128 C 
HETATM    5  C   UNL     1     -42.080 -45.414  12.301  1.00  0.00     0.050 C 
HETATM    6  C   UNL     1     -42.671 -45.381  10.884  1.00  0.00     0.274 C 
HETATM    7  N   UNL     1     -42.797 -46.649  10.155  1.00  0.00     0.098 N 
HETATM    8  C   UNL     1     -41.713 -47.615  10.371  1.00  0.00     0.292 C 
HETATM    9  C   UNL     1     -41.997 -48.468  11.629  1.00  0.00     0.156 C 
ENDROOT
BRANCH   1  10
HETATM   10  C   UNL     1     -39.602 -49.091  13.354  1.00  0.00     0.116 A 
HETATM   11  N   UNL     1     -39.714 -50.287  13.845  1.00  0.00    -0.290 N 
HETATM   12  N   UNL     1     -38.757 -51.215  13.498  1.00  0.00    -0.255 N 
ATOM     13  HN  UNL     1     -40.485 -50.533  14.466  1.00  0.00     0.187 HD
HETATM   14  C   UNL     1     -37.734 -50.973  12.589  1.00  0.00     0.262 A 
HETATM   15  C   UNL     1     -37.676 -49.608  12.025  1.00  0.00     0.078 A 
HETATM   16  O   UNL     1     -36.892 -51.795  12.242  1.00  0.00    -0.267 OA
HETATM   17  C   UNL     1     -38.558 -48.675  12.387  1.00  0.00     0.042 A 
BRANCH  12  18
HETATM   18  C   UNL     1     -38.931 -52.546  14.072  1.00  0.00     0.178 C 
BRANCH  18  19
HETATM   19  C   UNL     1     -40.135 -53.311  13.521  1.00  0.00     0.189 C 
BRANCH  19  20
HETATM   20  O   UNL     1     -40.449 -52.789  12.225  1.00  0.00    -0.394 OA
HETATM   21  C   UNL     1     -41.829 -52.476  12.101  1.00  0.00     0.201 C 
ENDBRANCH  19  20
ENDBRANCH  18  19
ENDBRANCH  12  18
ENDBRANCH   1  10
BRANCH   7  22
HETATM   22  C   UNL     1     -43.151 -46.441   8.735  1.00  0.00     0.374 C 
BRANCH  22  23
HETATM   23  C   UNL     1     -43.782 -47.664   8.064  1.00  0.00     0.243 C 
HETATM   24  O   UNL     1     -44.930 -48.040   8.278  1.00  0.00    -0.272 OA
HETATM   25  N   UNL     1     -42.990 -48.337   7.179  1.00  0.00    -0.369 N 
HETATM   26  H   UNL     1     -42.015 -48.120   7.030  1.00  0.00     0.159 HD
HETATM   27  H   UNL     1     -43.383 -49.153   6.729  1.00  0.00     0.159 HD
ENDBRANCH  22  23
ENDBRANCH   7  22
TORSDOF 6
ENDMDL
MODEL 2
REMARK VINA RESULT:      -5.9      2.877      5.478
REMARK  6 active torsions:
REMARK  status: ('A' for Active; 'I' for Inactive)
REMARK    1  A    between atoms: O_2  and  C_3 
REMARK    2  A    between atoms: C_3  and  C_4 
REMARK    3  A    between atoms: C_4  and  N_5 
REMARK    4  A    between atoms: C_8  and  C_13 
REMARK       I    between atoms: C_13  and  N_15 
REMARK    5  A    between atoms: N_19  and  C_20 
REMARK    6  A    between atoms: C_20  and  C_21 
REMARK       I    between atoms: C_21  and  N_23 
ROOT
HETATM    1  C   UNL     1     -39.586 -53.023  13.918  1.00  0.00     0.271 C 
HETATM    2  O   UNL     1     -38.676 -53.799  13.634  1.00  0.00    -0.266 OA
HETATM    3  N   UNL     1     -39.421 -51.637  14.030  1.00  0.00    -0.345 N 
HETATM    4  C   UNL     1     -38.172 -51.051  13.546  1.00  0.00     0.128 C 
HETATM    5  C   UNL     1     -38.325 -50.545  12.115  1.00  0.00     0.050 C 
HETATM    6  C   UNL     1     -38.913 -49.132  11.997  1.00  0.00     0.274 C 
HETATM    7  N   UNL     1     -40.012 -48.759  12.897  1.00  0.00     0.098 N 
HETATM    8  C   UNL     1     -40.973 -49.826  13.199  1.00  0.00     0.292 C 
HETATM    9  C   UNL     1     -40.472 -50.681  14.386  1.00  0.00     0.156 C 
ENDROOT
BRANCH   1  10
HETATM   10  C   UNL     1     -40.961 -53.649  14.161  1.00  0.00     0.116 A 
HETATM   11  N   UNL     1     -41.906 -53.459  13.292  1.00  0.00    -0.290 N 
HETATM   12  N   UNL     1     -43.138 -54.018  13.550  1.00  0.00    -0.255 N 
ATOM     13  HN  UNL     1     -41.742 -52.914  12.445  1.00  0.00     0.187 HD
HETATM   14  C   UNL     1     -43.403 -54.843  14.637  1.00  0.00     0.262 A 
HETATM   15  C   UNL     1     -42.282 -55.064  15.574  1.00  0.00     0.078 A 
HETATM   16  O   UNL     1     -44.484 -55.377  14.868  1.00  0.00    -0.267 OA
HETATM   17  C   UNL     1     -41.095 -54.488  15.376  1.00  0.00     0.042 A 
BRANCH  12  18
HETATM   18  C   UNL     1     -44.164 -53.780  12.540  1.00  0.00     0.178 C 
BRANCH  18  19
HETATM   19  C   UNL     1     -45.046 -52.562  12.821  1.00  0.00     0.189 C 
BRANCH  19  20
HETATM   20  O   UNL     1     -44.198 -51.450  13.127  1.00  0.00    -0.394 OA
HETATM   21  C   UNL     1     -44.536 -50.855  14.373  1.00  0.00     0.201 C 
ENDBRANCH  19  20
ENDBRANCH  18  19
ENDBRANCH  12  18
ENDBRANCH   1  10
BRANCH   7  22
HETATM   22  C   UNL     1     -40.633 -47.474  12.514  1.00  0.00     0.374 C 
BRANCH  22  23
HETATM   23  C   UNL     1     -40.905 -47.333  11.014  1.00  0.00     0.243 C 
HETATM   24  O   UNL     1     -41.682 -48.052  10.394  1.00  0.00    -0.272 OA
HETATM   25  N   UNL     1     -40.229 -46.335  10.373  1.00  0.00    -0.369 N 
HETATM   26  H   UNL     1     -39.517 -45.773  10.818  1.00  0.00     0.159 HD
HETATM   27  H   UNL     1     -40.387 -46.229   9.380  1.00  0.00     0.159 HD
ENDBRANCH  22  23
ENDBRANCH   7  22
TORSDOF 6
ENDMDL
MODEL 3
REMARK VINA RESULT:      -5.9      3.249      7.059
REMARK  6 active torsions:
REMARK  status: ('A' for Active; 'I' for Inactive)
REMARK    1  A    between atoms: O_2  and  C_3 
REMARK    2  A    between atoms: C_3  and  C_4 
REMARK    3  A    between atoms: C_4  and  N_5 
REMARK    4  A    between atoms: C_8  and  C_13 
REMARK       I    between atoms: C_13  and  N_15 
REMARK    5  A    between atoms: N_19  and  C_20 
REMARK    6  A    between atoms: C_20  and  C_21 
REMARK       I    between atoms: C_21  and  N_23 
ROOT
HETATM    1  C   UNL     1     -40.580 -51.260  12.224  1.00  0.00     0.271 C 
HETATM    2  O   UNL     1     -39.364 -51.391  12.096  1.00  0.00    -0.266 OA
HETATM    3  N   UNL     1     -41.461 -52.327  12.434  1.00  0.00    -0.345 N 
HETATM    4  C   UNL     1     -40.893 -53.632  12.767  1.00  0.00     0.128 C 
HETATM    5  C   UNL     1     -40.861 -53.844  14.278  1.00  0.00     0.050 C 
HETATM    6  C   UNL     1     -42.171 -54.377  14.876  1.00  0.00     0.274 C 
HETATM    7  N   UNL     1     -43.437 -53.842  14.361  1.00  0.00     0.098 N 
HETATM    8  C   UNL     1     -43.429 -52.415  14.015  1.00  0.00     0.292 C 
HETATM    9  C   UNL     1     -42.915 -52.217  12.569  1.00  0.00     0.156 C 
ENDROOT
BRANCH   1  10
HETATM   10  C   UNL     1     -41.121 -49.831  12.135  1.00  0.00     0.116 A 
HETATM   11  N   UNL     1     -41.684 -49.434  11.035  1.00  0.00    -0.290 N 
HETATM   12  N   UNL     1     -42.142 -48.137  10.979  1.00  0.00    -0.255 N 
ATOM     13  HN  UNL     1     -41.784 -50.063  10.237  1.00  0.00     0.187 HD
HETATM   14  C   UNL     1     -42.118 -47.259  12.057  1.00  0.00     0.262 A 
HETATM   15  C   UNL     1     -41.507 -47.772  13.300  1.00  0.00     0.078 A 
HETATM   16  O   UNL     1     -42.550 -46.110  12.038  1.00  0.00    -0.267 OA
HETATM   17  C   UNL     1     -41.005 -49.007  13.363  1.00  0.00     0.042 A 
BRANCH  12  18
HETATM   18  C   UNL     1     -42.771 -47.742   9.723  1.00  0.00     0.178 C 
BRANCH  18  19
HETATM   19  C   UNL     1     -44.280 -47.517   9.824  1.00  0.00     0.189 C 
BRANCH  19  20
HETATM   20  O   UNL     1     -44.866 -47.797   8.548  1.00  0.00    -0.394 OA
HETATM   21  C   UNL     1     -46.243 -48.130   8.660  1.00  0.00     0.201 C 
ENDBRANCH  19  20
ENDBRANCH  18  19
ENDBRANCH  12  18
ENDBRANCH   1  10
BRANCH   7  22
HETATM   22  C   UNL     1     -44.593 -54.259  15.183  1.00  0.00     0.374 C 
BRANCH  22  23
HETATM   23  C   UNL     1     -45.780 -54.783  14.370  1.00  0.00     0.243 C 
HETATM   24  O   UNL     1     -45.789 -55.873  13.806  1.00  0.00    -0.272 OA
HETATM   25  N   UNL     1     -46.870 -53.964  14.304  1.00  0.00    -0.369 N 
HETATM   26  H   UNL     1     -46.882 -53.026  14.678  1.00  0.00     0.159 HD
HETATM   27  H   UNL     1     -47.663 -54.286  13.766  1.00  0.00     0.159 HD
ENDBRANCH  22  23
ENDBRANCH   7  22
TORSDOF 6
ENDMDL
MODEL 4
REMARK VINA RESULT:      -5.8      3.395      5.358
REMARK  6 active torsions:
REMARK  status: ('A' for Active; 'I' for Inactive)
REMARK    1  A    between atoms: O_2  and  C_3 
REMARK    2  A    between atoms: C_3  and  C_4 
REMARK    3  A    between atoms: C_4  and  N_5 
REMARK    4  A    between atoms: C_8  and  C_13 
REMARK       I    between atoms: C_13  and  N_15 
REMARK    5  A    between atoms: N_19  and  C_20 
REMARK    6  A    between atoms: C_20  and  C_21 
REMARK       I    between atoms: C_21  and  N_23 
ROOT
HETATM    1  C   UNL     1     -41.060 -52.330  12.962  1.00  0.00     0.271 C 
HETATM    2  O   UNL     1     -40.123 -53.013  12.553  1.00  0.00    -0.266 OA
HETATM    3  N   UNL     1     -41.017 -50.935  13.071  1.00  0.00    -0.345 N 
HETATM    4  C   UNL     1     -39.902 -50.229  12.441  1.00  0.00     0.128 C 
HETATM    5  C   UNL     1     -40.286 -49.738  11.049  1.00  0.00     0.050 C 
HETATM    6  C   UNL     1     -41.018 -48.388  11.026  1.00  0.00     0.274 C 
HETATM    7  N   UNL     1     -42.022 -48.126  12.064  1.00  0.00     0.098 N 
HETATM    8  C   UNL     1     -42.830 -49.282  12.471  1.00  0.00     0.292 C 
HETATM    9  C   UNL     1     -42.100 -50.086  13.573  1.00  0.00     0.156 C 
ENDROOT
BRANCH   1  10
HETATM   10  C   UNL     1     -42.326 -53.087  13.369  1.00  0.00     0.116 A 
HETATM   11  N   UNL     1     -43.461 -52.758  12.834  1.00  0.00    -0.290 N 
HETATM   12  N   UNL     1     -44.584 -53.444  13.237  1.00  0.00    -0.255 N 
ATOM     13  HN  UNL     1     -43.520 -52.015  12.137  1.00  0.00     0.187 HD
HETATM   14  C   UNL     1     -44.562 -54.523  14.114  1.00  0.00     0.262 A 
HETATM   15  C   UNL     1     -43.239 -54.887  14.662  1.00  0.00     0.078 A 
HETATM   16  O   UNL     1     -45.546 -55.168  14.461  1.00  0.00    -0.267 OA
HETATM   17  C   UNL     1     -42.143 -54.202  14.330  1.00  0.00     0.042 A 
BRANCH  12  18
HETATM   18  C   UNL     1     -45.834 -53.039  12.602  1.00  0.00     0.178 C 
BRANCH  18  19
HETATM   19  C   UNL     1     -46.205 -51.574  12.832  1.00  0.00     0.189 C 
BRANCH  19  20
HETATM   20  O   UNL     1     -45.801 -51.206  14.155  1.00  0.00    -0.394 OA
HETATM   21  C   UNL     1     -46.846 -51.396  15.099  1.00  0.00     0.201 C 
ENDBRANCH  19  20
ENDBRANCH  18  19
ENDBRANCH  12  18
ENDBRANCH   1  10
BRANCH   7  22
HETATM   22  C   UNL     1     -42.808 -46.907  11.783  1.00  0.00     0.374 C 
BRANCH  22  23
HETATM   23  C   UNL     1     -43.220 -46.754  10.316  1.00  0.00     0.243 C 
HETATM   24  O   UNL     1     -42.719 -45.935   9.551  1.00  0.00    -0.272 OA
HETATM   25  N   UNL     1     -44.195 -47.601   9.876  1.00  0.00    -0.369 N 
HETATM   26  H   UNL     1     -44.697 -48.233  10.484  1.00  0.00     0.159 HD
HETATM   27  H   UNL     1     -44.489 -47.513   8.912  1.00  0.00     0.159 HD
ENDBRANCH  22  23
ENDBRANCH   7  22
TORSDOF 6
ENDMDL
MODEL 5
REMARK VINA RESULT:      -5.7      2.996      6.033
REMARK  6 active torsions:
REMARK  status: ('A' for Active; 'I' for Inactive)
REMARK    1  A    between atoms: O_2  and  C_3 
REMARK    2  A    between atoms: C_3  and  C_4 
REMARK    3  A    between atoms: C_4  and  N_5 
REMARK    4  A    between atoms: C_8  and  C_13 
REMARK       I    between atoms: C_13  and  N_15 
REMARK    5  A    between atoms: N_19  and  C_20 
REMARK    6  A    between atoms: C_20  and  C_21 
REMARK       I    between atoms: C_21  and  N_23 
ROOT
HETATM    1  C   UNL     1     -39.479 -50.631  12.330  1.00  0.00     0.271 C 
HETATM    2  O   UNL     1     -38.382 -51.180  12.251  1.00  0.00    -0.266 OA
HETATM    3  N   UNL     1     -40.699 -51.305  12.199  1.00  0.00    -0.345 N 
HETATM    4  C   UNL     1     -40.683 -52.767  12.216  1.00  0.00     0.128 C 
HETATM    5  C   UNL     1     -40.963 -53.299  13.617  1.00  0.00     0.050 C 
HETATM    6  C   UNL     1     -42.453 -53.415  13.971  1.00  0.00     0.274 C 
HETATM    7  N   UNL     1     -43.355 -52.343  13.533  1.00  0.00     0.098 N 
HETATM    8  C   UNL     1     -42.795 -50.987  13.572  1.00  0.00     0.292 C 
HETATM    9  C   UNL     1     -42.025 -50.686  12.264  1.00  0.00     0.156 C 
ENDROOT
BRANCH   1  10
HETATM   10  C   UNL     1     -39.466 -49.121  12.582  1.00  0.00     0.116 A 
HETATM   11  N   UNL     1     -39.714 -48.313  11.598  1.00  0.00    -0.290 N 
HETATM   12  N   UNL     1     -39.674 -46.960  11.853  1.00  0.00    -0.255 N 
ATOM     13  HN  UNL     1     -39.932 -48.667  10.667  1.00  0.00     0.187 HD
HETATM   14  C   UNL     1     -39.473 -46.414  13.115  1.00  0.00     0.262 A 
HETATM   15  C   UNL     1     -39.239 -47.377  14.211  1.00  0.00     0.078 A 
HETATM   16  O   UNL     1     -39.465 -45.213  13.369  1.00  0.00    -0.267 OA
HETATM   17  C   UNL     1     -39.217 -48.691  13.980  1.00  0.00     0.042 A 
BRANCH  12  18
HETATM   18  C   UNL     1     -39.965 -46.094  10.715  1.00  0.00     0.178 C 
BRANCH  18  19
HETATM   19  C   UNL     1     -41.456 -45.848  10.482  1.00  0.00     0.189 C 
BRANCH  19  20
HETATM   20  O   UNL     1     -42.175 -47.025  10.869  1.00  0.00    -0.394 OA
HETATM   21  C   UNL     1     -42.728 -47.699   9.747  1.00  0.00     0.201 C 
ENDBRANCH  19  20
ENDBRANCH  18  19
ENDBRANCH  12  18
ENDBRANCH   1  10
BRANCH   7  22
HETATM   22  C   UNL     1     -44.697 -52.462  14.142  1.00  0.00     0.374 C 
BRANCH  22  23
HETATM   23  C   UNL     1     -45.703 -53.238  13.289  1.00  0.00     0.243 C 
HETATM   24  O   UNL     1     -46.034 -52.905  12.155  1.00  0.00    -0.272 OA
HETATM   25  N   UNL     1     -46.230 -54.362  13.857  1.00  0.00    -0.369 N 
HETATM   26  H   UNL     1     -46.056 -54.633  14.815  1.00  0.00     0.159 HD
HETATM   27  H   UNL     1     -46.903 -54.887  13.315  1.00  0.00     0.159 HD
ENDBRANCH  22  23
ENDBRANCH   7  22
TORSDOF 6
ENDMDL
MODEL 6
REMARK VINA RESULT:      -5.7      1.954      2.527
REMARK  6 active torsions:
REMARK  status: ('A' for Active; 'I' for Inactive)
REMARK    1  A    between atoms: O_2  and  C_3 
REMARK    2  A    between atoms: C_3  and  C_4 
REMARK    3  A    between atoms: C_4  and  N_5 
REMARK    4  A    between atoms: C_8  and  C_13 
REMARK       I    between atoms: C_13  and  N_15 
REMARK    5  A    between atoms: N_19  and  C_20 
REMARK    6  A    between atoms: C_20  and  C_21 
REMARK       I    between atoms: C_21  and  N_23 
ROOT
HETATM    1  C   UNL     1     -41.954 -48.768  14.132  1.00  0.00     0.271 C 
HETATM    2  O   UNL     1     -41.571 -48.302  15.203  1.00  0.00    -0.266 OA
HETATM    3  N   UNL     1     -42.758 -48.072  13.223  1.00  0.00    -0.345 N 
HETATM    4  C   UNL     1     -42.951 -46.638  13.433  1.00  0.00     0.128 C 
HETATM    5  C   UNL     1     -41.957 -45.827  12.607  1.00  0.00     0.050 C 
HETATM    6  C   UNL     1     -42.392 -45.568  11.158  1.00  0.00     0.274 C 
HETATM    7  N   UNL     1     -43.049 -46.657  10.425  1.00  0.00     0.098 N 
HETATM    8  C   UNL     1     -42.544 -48.006  10.707  1.00  0.00     0.292 C 
HETATM    9  C   UNL     1     -43.253 -48.596  11.948  1.00  0.00     0.156 C 
ENDROOT
BRANCH   1  10
HETATM   10  C   UNL     1     -41.507 -50.197  13.815  1.00  0.00     0.116 A 
HETATM   11  N   UNL     1     -42.381 -51.157  13.854  1.00  0.00    -0.290 N 
HETATM   12  N   UNL     1     -41.943 -52.434  13.584  1.00  0.00    -0.255 N 
ATOM     13  HN  UNL     1     -43.359 -50.971  14.075  1.00  0.00     0.187 HD
HETATM   14  C   UNL     1     -40.647 -52.743  13.189  1.00  0.00     0.262 A 
HETATM   15  C   UNL     1     -39.701 -51.610  13.118  1.00  0.00     0.078 A 
HETATM   16  O   UNL     1     -40.245 -53.870  12.913  1.00  0.00    -0.267 OA
HETATM   17  C   UNL     1     -40.086 -50.371  13.428  1.00  0.00     0.042 A 
BRANCH  12  18
HETATM   18  C   UNL     1     -42.964 -53.475  13.635  1.00  0.00     0.178 C 
BRANCH  18  19
HETATM   19  C   UNL     1     -43.894 -53.498  12.421  1.00  0.00     0.189 C 
BRANCH  19  20
HETATM   20  O   UNL     1     -45.041 -54.291  12.744  1.00  0.00    -0.394 OA
HETATM   21  C   UNL     1     -44.926 -54.889  14.028  1.00  0.00     0.201 C 
ENDBRANCH  19  20
ENDBRANCH  18  19
ENDBRANCH  12  18
ENDBRANCH   1  10
BRANCH   7  22
HETATM   22  C   UNL     1     -43.192 -46.352   8.985  1.00  0.00     0.374 C 
BRANCH  22  23
HETATM   23  C   UNL     1     -43.800 -47.492   8.164  1.00  0.00     0.243 C 
HETATM   24  O   UNL     1     -44.930 -47.934   8.347  1.00  0.00    -0.272 OA
HETATM   25  N   UNL     1     -43.010 -48.009   7.178  1.00  0.00    -0.369 N 
HETATM   26  H   UNL     1     -42.045 -47.740   7.042  1.00  0.00     0.159 HD
HETATM   27  H   UNL     1     -43.388 -48.768   6.627  1.00  0.00     0.159 HD
ENDBRANCH  22  23
ENDBRANCH   7  22
TORSDOF 6
ENDMDL
MODEL 7
REMARK VINA RESULT:      -5.3      4.680      7.041
REMARK  6 active torsions:
REMARK  status: ('A' for Active; 'I' for Inactive)
REMARK    1  A    between atoms: O_2  and  C_3 
REMARK    2  A    between atoms: C_3  and  C_4 
REMARK    3  A    between atoms: C_4  and  N_5 
REMARK    4  A    between atoms: C_8  and  C_13 
REMARK       I    between atoms: C_13  and  N_15 
REMARK    5  A    between atoms: N_19  and  C_20 
REMARK    6  A    between atoms: C_20  and  C_21 
REMARK       I    between atoms: C_21  and  N_23 
ROOT
HETATM    1  C   UNL     1     -44.842 -52.436  13.024  1.00  0.00     0.271 C 
HETATM    2  O   UNL     1     -45.513 -53.098  12.235  1.00  0.00    -0.266 OA
HETATM    3  N   UNL     1     -45.381 -51.485  13.898  1.00  0.00    -0.345 N 
HETATM    4  C   UNL     1     -46.834 -51.447  14.063  1.00  0.00     0.128 C 
HETATM    5  C   UNL     1     -47.266 -52.264  15.276  1.00  0.00     0.050 C 
HETATM    6  C   UNL     1     -47.199 -51.510  16.612  1.00  0.00     0.274 C 
HETATM    7  N   UNL     1     -46.054 -50.622  16.850  1.00  0.00     0.098 N 
HETATM    8  C   UNL     1     -44.769 -51.086  16.315  1.00  0.00     0.292 C 
HETATM    9  C   UNL     1     -44.617 -50.660  14.836  1.00  0.00     0.156 C 
ENDROOT
BRANCH   1  10
HETATM   10  C   UNL     1     -43.333 -52.693  13.014  1.00  0.00     0.116 A 
HETATM   11  N   UNL     1     -42.544 -51.812  12.479  1.00  0.00    -0.290 N 
HETATM   12  N   UNL     1     -41.194 -52.083  12.468  1.00  0.00    -0.255 N 
ATOM     13  HN  UNL     1     -42.912 -50.948  12.080  1.00  0.00     0.187 HD
HETATM   14  C   UNL     1     -40.620 -53.196  13.071  1.00  0.00     0.262 A 
HETATM   15  C   UNL     1     -41.557 -54.146  13.706  1.00  0.00     0.078 A 
HETATM   16  O   UNL     1     -39.418 -53.439  13.101  1.00  0.00    -0.267 OA
HETATM   17  C   UNL     1     -42.874 -53.935  13.682  1.00  0.00     0.042 A 
BRANCH  12  18
HETATM   18  C   UNL     1     -40.350 -51.060  11.859  1.00  0.00     0.178 C 
BRANCH  18  19
HETATM   19  C   UNL     1     -40.754 -49.627  12.210  1.00  0.00     0.189 C 
BRANCH  19  20
HETATM   20  O   UNL     1     -41.564 -49.111  11.148  1.00  0.00    -0.394 OA
HETATM   21  C   UNL     1     -42.649 -48.337  11.639  1.00  0.00     0.201 C 
ENDBRANCH  19  20
ENDBRANCH  18  19
ENDBRANCH  12  18
ENDBRANCH   1  10
BRANCH   7  22
HETATM   22  C   UNL     1     -45.994 -50.155  18.251  1.00  0.00     0.374 C 
BRANCH  22  23
HETATM   23  C   UNL     1     -46.047 -48.632  18.405  1.00  0.00     0.243 C 
HETATM   24  O   UNL     1     -45.216 -47.871  17.921  1.00  0.00    -0.272 OA
HETATM   25  N   UNL     1     -47.099 -48.138  19.121  1.00  0.00    -0.369 N 
HETATM   26  H   UNL     1     -47.761 -48.724  19.610  1.00  0.00     0.159 HD
HETATM   27  H   UNL     1     -47.150 -47.136  19.242  1.00  0.00     0.159 HD
ENDBRANCH  22  23
ENDBRANCH   7  22
TORSDOF 6
ENDMDL
MODEL 8
REMARK VINA RESULT:      -5.3      6.546      8.646
REMARK  6 active torsions:
REMARK  status: ('A' for Active; 'I' for Inactive)
REMARK    1  A    between atoms: O_2  and  C_3 
REMARK    2  A    between atoms: C_3  and  C_4 
REMARK    3  A    between atoms: C_4  and  N_5 
REMARK    4  A    between atoms: C_8  and  C_13 
REMARK       I    between atoms: C_13  and  N_15 
REMARK    5  A    between atoms: N_19  and  C_20 
REMARK    6  A    between atoms: C_20  and  C_21 
REMARK       I    between atoms: C_21  and  N_23 
ROOT
HETATM    1  C   UNL     1     -45.516 -53.781  15.685  1.00  0.00     0.271 C 
HETATM    2  O   UNL     1     -46.045 -54.870  15.470  1.00  0.00    -0.266 OA
HETATM    3  N   UNL     1     -44.272 -53.405  15.166  1.00  0.00    -0.345 N 
HETATM    4  C   UNL     1     -43.681 -54.239  14.121  1.00  0.00     0.128 C 
HETATM    5  C   UNL     1     -44.009 -53.691  12.736  1.00  0.00     0.050 C 
HETATM    6  C   UNL     1     -43.063 -52.586  12.245  1.00  0.00     0.274 C 
HETATM    7  N   UNL     1     -42.616 -51.575  13.211  1.00  0.00     0.098 N 
HETATM    8  C   UNL     1     -43.614 -51.164  14.205  1.00  0.00     0.292 C 
HETATM    9  C   UNL     1     -43.597 -52.129  15.414  1.00  0.00     0.156 C 
ENDROOT
BRANCH   1  10
HETATM   10  C   UNL     1     -46.293 -52.813  16.580  1.00  0.00     0.116 A 
HETATM   11  N   UNL     1     -46.080 -52.823  17.860  1.00  0.00    -0.290 N 
HETATM   12  N   UNL     1     -46.810 -51.954  18.639  1.00  0.00    -0.255 N 
ATOM     13  HN  UNL     1     -45.394 -53.454  18.275  1.00  0.00     0.187 HD
HETATM   14  C   UNL     1     -47.694 -51.010  18.130  1.00  0.00     0.262 A 
HETATM   15  C   UNL     1     -47.869 -51.008  16.663  1.00  0.00     0.078 A 
HETATM   16  O   UNL     1     -48.330 -50.205  18.804  1.00  0.00    -0.267 OA
HETATM   17  C   UNL     1     -47.215 -51.878  15.890  1.00  0.00     0.042 A 
BRANCH  12  18
HETATM   18  C   UNL     1     -46.529 -52.002  20.071  1.00  0.00     0.178 C 
BRANCH  18  19
HETATM   19  C   UNL     1     -47.406 -52.985  20.847  1.00  0.00     0.189 C 
BRANCH  19  20
HETATM   20  O   UNL     1     -47.812 -54.031  19.957  1.00  0.00    -0.394 OA
HETATM   21  C   UNL     1     -47.274 -55.289  20.338  1.00  0.00     0.201 C 
ENDBRANCH  19  20
ENDBRANCH  18  19
ENDBRANCH  12  18
ENDBRANCH   1  10
BRANCH   7  22
HETATM   22  C   UNL     1     -41.914 -50.451  12.556  1.00  0.00     0.374 C 
BRANCH  22  23
HETATM   23  C   UNL     1     -40.620 -50.854  11.844  1.00  0.00     0.243 C 
HETATM   24  O   UNL     1     -39.815 -51.661  12.300  1.00  0.00    -0.272 OA
HETATM   25  N   UNL     1     -40.392 -50.264  10.634  1.00  0.00    -0.369 N 
HETATM   26  H   UNL     1     -40.977 -49.532  10.255  1.00  0.00     0.159 HD
HETATM   27  H   UNL     1     -39.540 -50.508  10.149  1.00  0.00     0.159 HD
ENDBRANCH  22  23
ENDBRANCH   7  22
TORSDOF 6
ENDMDL
MODEL 9
REMARK VINA RESULT:      -5.2      3.828      5.922
REMARK  6 active torsions:
REMARK  status: ('A' for Active; 'I' for Inactive)
REMARK    1  A    between atoms: O_2  and  C_3 
REMARK    2  A    between atoms: C_3  and  C_4 
REMARK    3  A    between atoms: C_4  and  N_5 
REMARK    4  A    between atoms: C_8  and  C_13 
REMARK       I    between atoms: C_13  and  N_15 
REMARK    5  A    between atoms: N_19  and  C_20 
REMARK    6  A    between atoms: C_20  and  C_21 
REMARK       I    between atoms: C_21  and  N_23 
ROOT
HETATM    1  C   UNL     1     -44.140 -50.131  15.466  1.00  0.00     0.271 C 
HETATM    2  O   UNL     1     -44.201 -49.664  16.602  1.00  0.00    -0.266 OA
HETATM    3  N   UNL     1     -43.507 -49.490  14.395  1.00  0.00    -0.345 N 
HETATM    4  C   UNL     1     -42.664 -48.332  14.686  1.00  0.00     0.128 C 
HETATM    5  C   UNL     1     -41.201 -48.742  14.822  1.00  0.00     0.050 C 
HETATM    6  C   UNL     1     -40.436 -48.834  13.494  1.00  0.00     0.274 C 
HETATM    7  N   UNL     1     -41.127 -49.412  12.334  1.00  0.00     0.098 N 
HETATM    8  C   UNL     1     -42.032 -50.529  12.627  1.00  0.00     0.292 C 
HETATM    9  C   UNL     1     -43.430 -49.999  13.023  1.00  0.00     0.156 C 
ENDROOT
BRANCH   1  10
HETATM   10  C   UNL     1     -44.812 -51.489  15.252  1.00  0.00     0.116 A 
HETATM   11  N   UNL     1     -44.076 -52.556  15.183  1.00  0.00    -0.290 N 
HETATM   12  N   UNL     1     -44.710 -53.760  14.969  1.00  0.00    -0.255 N 
ATOM     13  HN  UNL     1     -43.063 -52.505  15.285  1.00  0.00     0.187 HD
HETATM   14  C   UNL     1     -46.090 -53.911  14.911  1.00  0.00     0.262 A 
HETATM   15  C   UNL     1     -46.886 -52.672  15.039  1.00  0.00     0.078 A 
HETATM   16  O   UNL     1     -46.675 -54.978  14.754  1.00  0.00    -0.267 OA
HETATM   17  C   UNL     1     -46.294 -51.486  15.191  1.00  0.00     0.042 A 
BRANCH  12  18
HETATM   18  C   UNL     1     -43.839 -54.929  14.905  1.00  0.00     0.178 C 
BRANCH  18  19
HETATM   19  C   UNL     1     -42.362 -54.596  14.690  1.00  0.00     0.189 C 
BRANCH  19  20
HETATM   20  O   UNL     1     -42.208 -54.050  13.375  1.00  0.00    -0.394 OA
HETATM   21  C   UNL     1     -40.854 -54.084  12.944  1.00  0.00     0.201 C 
ENDBRANCH  19  20
ENDBRANCH  18  19
ENDBRANCH  12  18
ENDBRANCH   1  10
BRANCH   7  22
HETATM   22  C   UNL     1     -40.207 -49.657  11.204  1.00  0.00     0.374 C 
BRANCH  22  23
HETATM   23  C   UNL     1     -38.848 -50.228  11.618  1.00  0.00     0.243 C 
HETATM   24  O   UNL     1     -38.714 -51.253  12.279  1.00  0.00    -0.272 OA
HETATM   25  N   UNL     1     -37.752 -49.530  11.200  1.00  0.00    -0.369 N 
HETATM   26  H   UNL     1     -37.809 -48.639  10.728  1.00  0.00     0.159 HD
HETATM   27  H   UNL     1     -36.844 -49.884  11.468  1.00  0.00     0.159 HD
ENDBRANCH  22  23
ENDBRANCH   7  22
TORSDOF 6
ENDMDL
