MODEL 1
REMARK VINA RESULT:      -7.4      0.000      0.000
REMARK  4 active torsions:
REMARK  status: ('A' for Active; 'I' for Inactive)
REMARK    1  A    between atoms: N_1  and  C_14 
REMARK    2  A    between atoms: N_2  and  C_15 
REMARK    3  A    between atoms: C_9  and  C_14 
REMARK    4  A    between atoms: C_10  and  C_17 
ROOT
HETATM    1  C   UNL     1     -39.051 -50.894  12.419  1.00  0.00     0.223 C 
ENDROOT
BRANCH   1   2
HETATM    2  N   UNL     1     -39.841 -51.545  13.463  1.00  0.00    -0.256 N 
HETATM    3  C   UNL     1     -40.655 -52.616  13.097  1.00  0.00     0.334 C 
HETATM    4  N   UNL     1     -41.509 -53.094  14.091  1.00  0.00    -0.279 N 
HETATM    5  O   UNL     1     -40.631 -53.117  11.975  1.00  0.00    -0.246 OA
HETATM    6  C   UNL     1     -41.330 -52.772  15.419  1.00  0.00     0.146 C 
HETATM    7  C   UNL     1     -40.383 -51.921  15.798  1.00  0.00     0.200 C 
HETATM    8  C   UNL     1     -39.539 -51.250  14.786  1.00  0.00     0.292 C 
HETATM    9  F   UNL     1     -40.164 -51.617  17.093  1.00  0.00    -0.199 F 
HETATM   10  O   UNL     1     -38.619 -50.512  15.132  1.00  0.00    -0.264 OA
BRANCH   4  11
HETATM   11  C   UNL     1     -42.632 -53.902  13.651  1.00  0.00     0.232 C 
HETATM   12  O   UNL     1     -43.640 -53.086  13.028  1.00  0.00    -0.366 OA
HETATM   13  C   UNL     1     -44.891 -53.785  13.148  1.00  0.00     0.170 C 
HETATM   14  C   UNL     1     -44.632 -55.037  13.969  1.00  0.00     0.031 C 
HETATM   15  C   UNL     1     -43.369 -54.682  14.724  1.00  0.00     0.056 C 
ENDBRANCH   4  11
ENDBRANCH   1   2
BRANCH   1  16
HETATM   16  C   UNL     1     -39.851 -49.928  11.608  1.00  0.00     0.159 A 
HETATM   17  O   UNL     1     -39.899 -48.622  12.032  1.00  0.00    -0.276 OA
HETATM   18  C   UNL     1     -40.696 -48.038  11.079  1.00  0.00     0.174 A 
HETATM   19  N   UNL     1     -41.135 -48.913  10.195  1.00  0.00    -0.277 N 
HETATM   20  N   UNL     1     -40.587 -50.136  10.535  1.00  0.00    -0.280 N 
ATOM     21  HN  UNL     1     -41.758 -48.723   9.410  1.00  0.00     0.189 HD
ATOM     22  HN  UNL     1     -40.725 -51.024  10.051  1.00  0.00     0.189 HD
BRANCH  18  23
HETATM   23  C   UNL     1     -40.910 -46.594  11.163  1.00  0.00     0.017 A 
HETATM   24  C   UNL     1     -42.076 -46.043  11.719  1.00  0.00     0.017 A 
HETATM   25  C   UNL     1     -42.241 -44.654  11.813  1.00  0.00     0.020 A 
HETATM   26  C   UNL     1     -41.239 -43.804  11.353  1.00  0.00     0.011 A 
HETATM   27  C   UNL     1     -40.077 -44.327  10.793  1.00  0.00     0.020 A 
HETATM   28 BR   UNL     1     -41.454 -41.931  11.498  1.00  0.00    -0.051 Br
HETATM   29  C   UNL     1     -39.916 -45.715  10.698  1.00  0.00     0.017 A 
ENDBRANCH  18  23
ENDBRANCH   1  16
TORSDOF 4
ENDMDL
MODEL 2
REMARK VINA RESULT:      -7.2      3.797      6.575
REMARK  4 active torsions:
REMARK  status: ('A' for Active; 'I' for Inactive)
REMARK    1  A    between atoms: N_1  and  C_14 
REMARK    2  A    between atoms: N_2  and  C_15 
REMARK    3  A    between atoms: C_9  and  C_14 
REMARK    4  A    between atoms: C_10  and  C_17 
ROOT
HETATM    1  C   UNL     1     -40.080 -50.085  11.229  1.00  0.00     0.223 C 
ENDROOT
BRANCH   1   2
HETATM    2  N   UNL     1     -39.442 -49.403  12.354  1.00  0.00    -0.256 N 
HETATM    3  C   UNL     1     -38.438 -50.078  13.046  1.00  0.00     0.334 C 
HETATM    4  N   UNL     1     -37.977 -49.454  14.206  1.00  0.00    -0.279 N 
HETATM    5  O   UNL     1     -37.977 -51.153  12.668  1.00  0.00    -0.246 OA
HETATM    6  C   UNL     1     -38.239 -48.127  14.470  1.00  0.00     0.146 C 
HETATM    7  C   UNL     1     -39.016 -47.408  13.668  1.00  0.00     0.200 C 
HETATM    8  C   UNL     1     -39.670 -48.041  12.502  1.00  0.00     0.292 C 
HETATM    9  F   UNL     1     -39.259 -46.100  13.884  1.00  0.00    -0.199 F 
HETATM   10  O   UNL     1     -40.337 -47.367  11.720  1.00  0.00    -0.264 OA
BRANCH   4  11
HETATM   11  C   UNL     1     -37.256 -50.288  15.151  1.00  0.00     0.232 C 
HETATM   12  O   UNL     1     -38.163 -50.937  16.060  1.00  0.00    -0.366 OA
HETATM   13  C   UNL     1     -37.424 -51.242  17.255  1.00  0.00     0.170 C 
HETATM   14  C   UNL     1     -36.031 -50.660  17.088  1.00  0.00     0.031 C 
HETATM   15  C   UNL     1     -36.245 -49.588  16.040  1.00  0.00     0.056 C 
ENDBRANCH   4  11
ENDBRANCH   1   2
BRANCH   1  16
HETATM   16  C   UNL     1     -41.163 -51.019  11.662  1.00  0.00     0.159 A 
HETATM   17  O   UNL     1     -42.054 -50.572  12.607  1.00  0.00    -0.276 OA
HETATM   18  C   UNL     1     -42.883 -51.656  12.757  1.00  0.00     0.174 A 
HETATM   19  N   UNL     1     -42.503 -52.679  12.017  1.00  0.00    -0.277 N 
HETATM   20  N   UNL     1     -41.391 -52.267  11.306  1.00  0.00    -0.280 N 
ATOM     21  HN  UNL     1     -42.944 -53.597  11.977  1.00  0.00     0.189 HD
ATOM     22  HN  UNL     1     -40.853 -52.820  10.637  1.00  0.00     0.189 HD
BRANCH  18  23
HETATM   23  C   UNL     1     -44.031 -51.515  13.652  1.00  0.00     0.017 A 
HETATM   24  C   UNL     1     -45.354 -51.596  13.188  1.00  0.00     0.017 A 
HETATM   25  C   UNL     1     -46.436 -51.487  14.073  1.00  0.00     0.020 A 
HETATM   26  C   UNL     1     -46.203 -51.298  15.432  1.00  0.00     0.011 A 
HETATM   27  C   UNL     1     -44.900 -51.210  15.916  1.00  0.00     0.020 A 
HETATM   28 BR   UNL     1     -47.661 -51.172  16.629  1.00  0.00    -0.051 Br
HETATM   29  C   UNL     1     -43.822 -51.316  15.028  1.00  0.00     0.017 A 
ENDBRANCH  18  23
ENDBRANCH   1  16
TORSDOF 4
ENDMDL
MODEL 3
REMARK VINA RESULT:      -7.0      3.367      7.074
REMARK  4 active torsions:
REMARK  status: ('A' for Active; 'I' for Inactive)
REMARK    1  A    between atoms: N_1  and  C_14 
REMARK    2  A    between atoms: N_2  and  C_15 
REMARK    3  A    between atoms: C_9  and  C_14 
REMARK    4  A    between atoms: C_10  and  C_17 
ROOT
HETATM    1  C   UNL     1     -39.558 -50.847  12.129  1.00  0.00     0.223 C 
ENDROOT
BRANCH   1   2
HETATM    2  N   UNL     1     -39.549 -49.501  12.699  1.00  0.00    -0.256 N 
HETATM    3  C   UNL     1     -40.237 -48.497  12.019  1.00  0.00     0.334 C 
HETATM    4  N   UNL     1     -40.062 -47.203  12.512  1.00  0.00    -0.279 N 
HETATM    5  O   UNL     1     -40.955 -48.723  11.048  1.00  0.00    -0.246 OA
HETATM    6  C   UNL     1     -39.536 -46.968  13.764  1.00  0.00     0.146 C 
HETATM    7  C   UNL     1     -39.094 -47.966  14.521  1.00  0.00     0.200 C 
HETATM    8  C   UNL     1     -39.099 -49.351  14.005  1.00  0.00     0.292 C 
HETATM    9  F   UNL     1     -38.608 -47.766  15.763  1.00  0.00    -0.199 F 
HETATM   10  O   UNL     1     -38.753 -50.285  14.723  1.00  0.00    -0.264 OA
BRANCH   4  11
HETATM   11  C   UNL     1     -40.408 -46.114  11.617  1.00  0.00     0.232 C 
HETATM   12  O   UNL     1     -39.492 -46.047  10.510  1.00  0.00    -0.366 OA
HETATM   13  C   UNL     1     -39.509 -44.694  10.022  1.00  0.00     0.170 C 
HETATM   14  C   UNL     1     -40.409 -43.891  10.945  1.00  0.00     0.031 C 
HETATM   15  C   UNL     1     -40.403 -44.718  12.214  1.00  0.00     0.056 C 
ENDBRANCH   4  11
ENDBRANCH   1   2
BRANCH   1  16
HETATM   16  C   UNL     1     -40.918 -51.466  12.134  1.00  0.00     0.159 A 
HETATM   17  O   UNL     1     -41.740 -51.197  13.202  1.00  0.00    -0.276 OA
HETATM   18  C   UNL     1     -42.871 -51.906  12.882  1.00  0.00     0.174 A 
HETATM   19  N   UNL     1     -42.732 -52.581  11.758  1.00  0.00    -0.277 N 
HETATM   20  N   UNL     1     -41.469 -52.295  11.272  1.00  0.00    -0.280 N 
ATOM     21  HN  UNL     1     -43.423 -53.196  11.329  1.00  0.00     0.189 HD
ATOM     22  HN  UNL     1     -41.048 -52.656  10.415  1.00  0.00     0.189 HD
BRANCH  18  23
HETATM   23  C   UNL     1     -44.022 -51.790  13.776  1.00  0.00     0.017 A 
HETATM   24  C   UNL     1     -43.893 -51.868  15.173  1.00  0.00     0.017 A 
HETATM   25  C   UNL     1     -45.009 -51.725  16.008  1.00  0.00     0.020 A 
HETATM   26  C   UNL     1     -46.266 -51.500  15.452  1.00  0.00     0.011 A 
HETATM   27  C   UNL     1     -46.419 -51.423  14.070  1.00  0.00     0.020 A 
HETATM   28 BR   UNL     1     -47.769 -51.286  16.579  1.00  0.00    -0.051 Br
HETATM   29  C   UNL     1     -45.302 -51.570  13.239  1.00  0.00     0.017 A 
ENDBRANCH  18  23
ENDBRANCH   1  16
TORSDOF 4
ENDMDL
MODEL 4
REMARK VINA RESULT:      -6.9      4.126      8.052
REMARK  4 active torsions:
REMARK  status: ('A' for Active; 'I' for Inactive)
REMARK    1  A    between atoms: N_1  and  C_14 
REMARK    2  A    between atoms: N_2  and  C_15 
REMARK    3  A    between atoms: C_9  and  C_14 
REMARK    4  A    between atoms: C_10  and  C_17 
ROOT
HETATM    1  C   UNL     1     -40.402 -48.819  11.464  1.00  0.00     0.223 C 
ENDROOT
BRANCH   1   2
HETATM    2  N   UNL     1     -41.062 -47.516  11.401  1.00  0.00    -0.256 N 
HETATM    3  C   UNL     1     -40.554 -46.486  12.191  1.00  0.00     0.334 C 
HETATM    4  N   UNL     1     -41.313 -45.316  12.221  1.00  0.00    -0.279 N 
HETATM    5  O   UNL     1     -39.505 -46.587  12.823  1.00  0.00    -0.246 OA
HETATM    6  C   UNL     1     -42.298 -45.064  11.290  1.00  0.00     0.146 C 
HETATM    7  C   UNL     1     -42.623 -45.969  10.373  1.00  0.00     0.200 C 
HETATM    8  C   UNL     1     -41.971 -47.296  10.374  1.00  0.00     0.292 C 
HETATM    9  F   UNL     1     -43.557 -45.735   9.430  1.00  0.00    -0.199 F 
HETATM   10  O   UNL     1     -42.219 -48.113   9.491  1.00  0.00    -0.264 OA
BRANCH   4  11
HETATM   11  C   UNL     1     -41.055 -44.400  13.318  1.00  0.00     0.232 C 
HETATM   12  O   UNL     1     -42.284 -43.957  13.919  1.00  0.00    -0.366 OA
HETATM   13  C   UNL     1     -42.021 -42.690  14.547  1.00  0.00     0.170 C 
HETATM   14  C   UNL     1     -40.586 -42.314  14.222  1.00  0.00     0.031 C 
HETATM   15  C   UNL     1     -40.305 -43.126  12.976  1.00  0.00     0.056 C 
ENDBRANCH   4  11
ENDBRANCH   1   2
BRANCH   1  16
HETATM   16  C   UNL     1     -41.342 -49.925  11.820  1.00  0.00     0.159 A 
HETATM   17  O   UNL     1     -42.282 -49.678  12.791  1.00  0.00    -0.276 OA
HETATM   18  C   UNL     1     -42.951 -50.874  12.857  1.00  0.00     0.174 A 
HETATM   19  N   UNL     1     -42.435 -51.776  12.045  1.00  0.00    -0.277 N 
HETATM   20  N   UNL     1     -41.395 -51.162  11.371  1.00  0.00    -0.280 N 
ATOM     21  HN  UNL     1     -42.745 -52.742  11.934  1.00  0.00     0.189 HD
ATOM     22  HN  UNL     1     -40.789 -51.584  10.667  1.00  0.00     0.189 HD
BRANCH  18  23
HETATM   23  C   UNL     1     -44.102 -50.962  13.753  1.00  0.00     0.017 A 
HETATM   24  C   UNL     1     -45.366 -51.382  13.307  1.00  0.00     0.017 A 
HETATM   25  C   UNL     1     -46.446 -51.485  14.195  1.00  0.00     0.020 A 
HETATM   26  C   UNL     1     -46.270 -51.169  15.540  1.00  0.00     0.011 A 
HETATM   27  C   UNL     1     -45.027 -50.745  16.004  1.00  0.00     0.020 A 
HETATM   28 BR   UNL     1     -47.721 -51.328  16.741  1.00  0.00    -0.051 Br
HETATM   29  C   UNL     1     -43.952 -50.641  15.114  1.00  0.00     0.017 A 
ENDBRANCH  18  23
ENDBRANCH   1  16
TORSDOF 4
ENDMDL
MODEL 5
REMARK VINA RESULT:      -6.8      3.773      7.909
REMARK  4 active torsions:
REMARK  status: ('A' for Active; 'I' for Inactive)
REMARK    1  A    between atoms: N_1  and  C_14 
REMARK    2  A    between atoms: N_2  and  C_15 
REMARK    3  A    between atoms: C_9  and  C_14 
REMARK    4  A    between atoms: C_10  and  C_17 
ROOT
HETATM    1  C   UNL     1     -38.653 -49.175  11.668  1.00  0.00     0.223 C 
ENDROOT
BRANCH   1   2
HETATM    2  N   UNL     1     -39.102 -47.999  12.412  1.00  0.00    -0.256 N 
HETATM    3  C   UNL     1     -40.135 -47.235  11.870  1.00  0.00     0.334 C 
HETATM    4  N   UNL     1     -40.414 -46.039  12.532  1.00  0.00    -0.279 N 
HETATM    5  O   UNL     1     -40.768 -47.583  10.876  1.00  0.00    -0.246 OA
HETATM    6  C   UNL     1     -39.950 -45.788  13.806  1.00  0.00     0.146 C 
HETATM    7  C   UNL     1     -39.145 -46.644  14.424  1.00  0.00     0.200 C 
HETATM    8  C   UNL     1     -38.677 -47.861  13.727  1.00  0.00     0.292 C 
HETATM    9  F   UNL     1     -38.706 -46.439  15.682  1.00  0.00    -0.199 F 
HETATM   10  O   UNL     1     -37.985 -48.689  14.315  1.00  0.00    -0.264 OA
BRANCH   4  11
HETATM   11  C   UNL     1     -41.169 -45.046  11.789  1.00  0.00     0.232 C 
HETATM   12  O   UNL     1     -40.337 -43.926  11.436  1.00  0.00    -0.366 OA
HETATM   13  C   UNL     1     -41.202 -42.793  11.251  1.00  0.00     0.170 C 
HETATM   14  C   UNL     1     -42.611 -43.236  11.606  1.00  0.00     0.031 C 
HETATM   15  C   UNL     1     -42.366 -44.436  12.496  1.00  0.00     0.056 C 
ENDBRANCH   4  11
ENDBRANCH   1   2
BRANCH   1  16
HETATM   16  C   UNL     1     -39.633 -50.301  11.725  1.00  0.00     0.159 A 
HETATM   17  O   UNL     1     -39.570 -51.151  12.802  1.00  0.00    -0.276 OA
HETATM   18  C   UNL     1     -40.584 -52.035  12.532  1.00  0.00     0.174 A 
HETATM   19  N   UNL     1     -41.171 -51.781  11.379  1.00  0.00    -0.277 N 
HETATM   20  N   UNL     1     -40.558 -50.657  10.856  1.00  0.00    -0.280 N 
ATOM     21  HN  UNL     1     -41.932 -52.311  10.954  1.00  0.00     0.189 HD
ATOM     22  HN  UNL     1     -40.778 -50.196   9.973  1.00  0.00     0.189 HD
BRANCH  18  23
HETATM   23  C   UNL     1     -40.873 -53.064  13.530  1.00  0.00     0.017 A 
HETATM   24  C   UNL     1     -39.910 -53.495  14.458  1.00  0.00     0.017 A 
HETATM   25  C   UNL     1     -40.224 -54.463  15.423  1.00  0.00     0.020 A 
HETATM   26  C   UNL     1     -41.505 -55.006  15.469  1.00  0.00     0.011 A 
HETATM   27  C   UNL     1     -42.474 -54.598  14.557  1.00  0.00     0.020 A 
HETATM   28 BR   UNL     1     -41.933 -56.296  16.784  1.00  0.00    -0.051 Br
HETATM   29  C   UNL     1     -42.157 -53.634  13.593  1.00  0.00     0.017 A 
ENDBRANCH  18  23
ENDBRANCH   1  16
TORSDOF 4
ENDMDL
MODEL 6
REMARK VINA RESULT:      -6.7      3.566      4.976
REMARK  4 active torsions:
REMARK  status: ('A' for Active; 'I' for Inactive)
REMARK    1  A    between atoms: N_1  and  C_14 
REMARK    2  A    between atoms: N_2  and  C_15 
REMARK    3  A    between atoms: C_9  and  C_14 
REMARK    4  A    between atoms: C_10  and  C_17 
ROOT
HETATM    1  C   UNL     1     -42.827 -53.253  14.097  1.00  0.00     0.223 C 
ENDROOT
BRANCH   1   2
HETATM    2  N   UNL     1     -44.204 -52.770  14.179  1.00  0.00    -0.256 N 
HETATM    3  C   UNL     1     -44.580 -52.051  15.313  1.00  0.00     0.334 C 
HETATM    4  N   UNL     1     -45.940 -51.756  15.418  1.00  0.00    -0.279 N 
HETATM    5  O   UNL     1     -43.776 -51.691  16.169  1.00  0.00    -0.246 OA
HETATM    6  C   UNL     1     -46.793 -51.861  14.341  1.00  0.00     0.146 C 
HETATM    7  C   UNL     1     -46.368 -52.331  13.173  1.00  0.00     0.200 C 
HETATM    8  C   UNL     1     -44.977 -52.812  13.026  1.00  0.00     0.292 C 
HETATM    9  F   UNL     1     -47.171 -52.411  12.094  1.00  0.00    -0.199 F 
HETATM   10  O   UNL     1     -44.560 -53.187  11.933  1.00  0.00    -0.264 OA
BRANCH   4  11
HETATM   11  C   UNL     1     -46.425 -51.388  16.737  1.00  0.00     0.232 C 
HETATM   12  O   UNL     1     -46.317 -52.493  17.651  1.00  0.00    -0.366 OA
HETATM   13  C   UNL     1     -47.291 -52.286  18.689  1.00  0.00     0.170 C 
HETATM   14  C   UNL     1     -48.084 -51.044  18.323  1.00  0.00     0.031 C 
HETATM   15  C   UNL     1     -47.874 -50.945  16.827  1.00  0.00     0.056 C 
ENDBRANCH   4  11
ENDBRANCH   1   2
BRANCH   1  16
HETATM   16  C   UNL     1     -42.042 -52.575  13.021  1.00  0.00     0.159 A 
HETATM   17  O   UNL     1     -42.029 -51.201  13.007  1.00  0.00    -0.276 OA
HETATM   18  C   UNL     1     -41.236 -50.932  11.920  1.00  0.00     0.174 A 
HETATM   19  N   UNL     1     -40.850 -52.030  11.302  1.00  0.00    -0.277 N 
HETATM   20  N   UNL     1     -41.369 -53.095  12.015  1.00  0.00    -0.280 N 
ATOM     21  HN  UNL     1     -40.277 -52.085  10.460  1.00  0.00     0.189 HD
ATOM     22  HN  UNL     1     -41.254 -54.087  11.804  1.00  0.00     0.189 HD
BRANCH  18  23
HETATM   23  C   UNL     1     -40.925 -49.531  11.635  1.00  0.00     0.017 A 
HETATM   24  C   UNL     1     -41.823 -48.690  10.957  1.00  0.00     0.017 A 
HETATM   25  C   UNL     1     -41.511 -47.344  10.724  1.00  0.00     0.020 A 
HETATM   26  C   UNL     1     -40.298 -46.826  11.169  1.00  0.00     0.011 A 
HETATM   27  C   UNL     1     -39.391 -47.641  11.840  1.00  0.00     0.020 A 
HETATM   28 BR   UNL     1     -39.887 -45.004  10.873  1.00  0.00    -0.051 Br
HETATM   29  C   UNL     1     -39.704 -48.987  12.069  1.00  0.00     0.017 A 
ENDBRANCH  18  23
ENDBRANCH   1  16
TORSDOF 4
ENDMDL
MODEL 7
REMARK VINA RESULT:      -6.6      2.258      2.745
REMARK  4 active torsions:
REMARK  status: ('A' for Active; 'I' for Inactive)
REMARK    1  A    between atoms: N_1  and  C_14 
REMARK    2  A    between atoms: N_2  and  C_15 
REMARK    3  A    between atoms: C_9  and  C_14 
REMARK    4  A    between atoms: C_10  and  C_17 
ROOT
HETATM    1  C   UNL     1     -39.901 -50.293  14.342  1.00  0.00     0.223 C 
ENDROOT
BRANCH   1   2
HETATM    2  N   UNL     1     -40.913 -51.302  14.033  1.00  0.00    -0.256 N 
HETATM    3  C   UNL     1     -42.255 -50.947  14.168  1.00  0.00     0.334 C 
HETATM    4  N   UNL     1     -43.173 -51.987  14.021  1.00  0.00    -0.279 N 
HETATM    5  O   UNL     1     -42.618 -49.796  14.399  1.00  0.00    -0.246 OA
HETATM    6  C   UNL     1     -42.822 -53.193  13.454  1.00  0.00     0.146 C 
HETATM    7  C   UNL     1     -41.566 -53.444  13.100  1.00  0.00     0.200 C 
HETATM    8  C   UNL     1     -40.504 -52.451  13.369  1.00  0.00     0.292 C 
HETATM    9  F   UNL     1     -41.202 -54.601  12.512  1.00  0.00    -0.199 F 
HETATM   10  O   UNL     1     -39.354 -52.650  12.986  1.00  0.00    -0.264 OA
BRANCH   4  11
HETATM   11  C   UNL     1     -44.506 -51.756  14.549  1.00  0.00     0.232 C 
HETATM   12  O   UNL     1     -45.028 -52.947  15.165  1.00  0.00    -0.366 OA
HETATM   13  C   UNL     1     -46.463 -52.852  15.131  1.00  0.00     0.170 C 
HETATM   14  C   UNL     1     -46.815 -51.584  14.372  1.00  0.00     0.031 C 
HETATM   15  C   UNL     1     -45.568 -51.335  13.550  1.00  0.00     0.056 C 
ENDBRANCH   4  11
ENDBRANCH   1   2
BRANCH   1  16
HETATM   16  C   UNL     1     -39.723 -49.299  13.240  1.00  0.00     0.159 A 
HETATM   17  O   UNL     1     -40.037 -47.988  13.505  1.00  0.00    -0.276 OA
HETATM   18  C   UNL     1     -39.760 -47.378  12.307  1.00  0.00     0.174 A 
HETATM   19  N   UNL     1     -39.368 -48.240  11.389  1.00  0.00    -0.277 N 
HETATM   20  N   UNL     1     -39.342 -49.484  11.993  1.00  0.00    -0.280 N 
ATOM     21  HN  UNL     1     -39.130 -48.030  10.420  1.00  0.00     0.189 HD
ATOM     22  HN  UNL     1     -39.079 -50.369  11.558  1.00  0.00     0.189 HD
BRANCH  18  23
HETATM   23  C   UNL     1     -39.905 -45.925  12.234  1.00  0.00     0.017 A 
HETATM   24  C   UNL     1     -40.381 -45.279  11.081  1.00  0.00     0.017 A 
HETATM   25  C   UNL     1     -40.538 -43.886  11.050  1.00  0.00     0.020 A 
HETATM   26  C   UNL     1     -40.222 -43.127  12.173  1.00  0.00     0.011 A 
HETATM   27  C   UNL     1     -39.744 -43.745  13.326  1.00  0.00     0.020 A 
HETATM   28 BR   UNL     1     -40.453 -41.251  12.138  1.00  0.00    -0.051 Br
HETATM   29  C   UNL     1     -39.586 -45.136  13.353  1.00  0.00     0.017 A 
ENDBRANCH  18  23
ENDBRANCH   1  16
TORSDOF 4
ENDMDL
MODEL 8
REMARK VINA RESULT:      -6.5      4.577      6.544
REMARK  4 active torsions:
REMARK  status: ('A' for Active; 'I' for Inactive)
REMARK    1  A    between atoms: N_1  and  C_14 
REMARK    2  A    between atoms: N_2  and  C_15 
REMARK    3  A    between atoms: C_9  and  C_14 
REMARK    4  A    between atoms: C_10  and  C_17 
ROOT
HETATM    1  C   UNL     1     -41.619 -52.070  12.105  1.00  0.00     0.223 C 
ENDROOT
BRANCH   1   2
HETATM    2  N   UNL     1     -40.619 -52.277  13.151  1.00  0.00    -0.256 N 
HETATM    3  C   UNL     1     -40.356 -53.585  13.557  1.00  0.00     0.334 C 
HETATM    4  N   UNL     1     -39.519 -53.718  14.665  1.00  0.00    -0.279 N 
HETATM    5  O   UNL     1     -40.822 -54.566  12.982  1.00  0.00    -0.246 OA
HETATM    6  C   UNL     1     -38.742 -52.674  15.118  1.00  0.00     0.146 C 
HETATM    7  C   UNL     1     -38.821 -51.469  14.565  1.00  0.00     0.200 C 
HETATM    8  C   UNL     1     -39.799 -51.208  13.488  1.00  0.00     0.292 C 
HETATM    9  F   UNL     1     -38.047 -50.441  14.965  1.00  0.00    -0.199 F 
HETATM   10  O   UNL     1     -39.833 -50.115  12.928  1.00  0.00    -0.264 OA
BRANCH   4  11
HETATM   11  C   UNL     1     -39.552 -54.995  15.356  1.00  0.00     0.232 C 
HETATM   12  O   UNL     1     -40.571 -55.005  16.371  1.00  0.00    -0.366 OA
HETATM   13  C   UNL     1     -40.189 -55.985  17.351  1.00  0.00     0.170 C 
HETATM   14  C   UNL     1     -38.826 -56.520  16.948  1.00  0.00     0.031 C 
HETATM   15  C   UNL     1     -38.281 -55.411  16.073  1.00  0.00     0.056 C 
ENDBRANCH   4  11
ENDBRANCH   1   2
BRANCH   1  16
HETATM   16  C   UNL     1     -42.983 -52.524  12.513  1.00  0.00     0.159 A 
HETATM   17  O   UNL     1     -43.452 -52.118  13.739  1.00  0.00    -0.276 OA
HETATM   18  C   UNL     1     -44.694 -52.701  13.780  1.00  0.00     0.174 A 
HETATM   19  N   UNL     1     -44.934 -53.434  12.711  1.00  0.00    -0.277 N 
HETATM   20  N   UNL     1     -43.829 -53.318  11.889  1.00  0.00    -0.280 N 
ATOM     21  HN  UNL     1     -45.775 -53.980  12.525  1.00  0.00     0.189 HD
ATOM     22  HN  UNL     1     -43.694 -53.760  10.978  1.00  0.00     0.189 HD
BRANCH  18  23
HETATM   23  C   UNL     1     -45.541 -52.416  14.937  1.00  0.00     0.017 A 
HETATM   24  C   UNL     1     -45.266 -52.938  16.212  1.00  0.00     0.017 A 
HETATM   25  C   UNL     1     -46.079 -52.624  17.309  1.00  0.00     0.020 A 
HETATM   26  C   UNL     1     -47.175 -51.781  17.142  1.00  0.00     0.011 A 
HETATM   27  C   UNL     1     -47.470 -51.255  15.887  1.00  0.00     0.020 A 
HETATM   28 BR   UNL     1     -48.259 -51.340  18.626  1.00  0.00    -0.051 Br
HETATM   29  C   UNL     1     -46.658 -51.573  14.792  1.00  0.00     0.017 A 
ENDBRANCH  18  23
ENDBRANCH   1  16
TORSDOF 4
ENDMDL
MODEL 9
REMARK VINA RESULT:      -6.5      1.981      2.486
REMARK  4 active torsions:
REMARK  status: ('A' for Active; 'I' for Inactive)
REMARK    1  A    between atoms: N_1  and  C_14 
REMARK    2  A    between atoms: N_2  and  C_15 
REMARK    3  A    between atoms: C_9  and  C_14 
REMARK    4  A    between atoms: C_10  and  C_17 
ROOT
HETATM    1  C   UNL     1     -40.666 -52.212  11.860  1.00  0.00     0.223 C 
ENDROOT
BRANCH   1   2
HETATM    2  N   UNL     1     -41.213 -53.035  12.937  1.00  0.00    -0.256 N 
HETATM    3  C   UNL     1     -42.592 -53.237  12.972  1.00  0.00     0.334 C 
HETATM    4  N   UNL     1     -43.079 -53.889  14.105  1.00  0.00    -0.279 N 
HETATM    5  O   UNL     1     -43.341 -52.873  12.068  1.00  0.00    -0.246 OA
HETATM    6  C   UNL     1     -42.248 -54.581  14.960  1.00  0.00     0.146 C 
HETATM    7  C   UNL     1     -40.931 -54.584  14.783  1.00  0.00     0.200 C 
HETATM    8  C   UNL     1     -40.325 -53.786  13.696  1.00  0.00     0.292 C 
HETATM    9  F   UNL     1     -40.099 -55.280  15.583  1.00  0.00    -0.199 F 
HETATM   10  O   UNL     1     -39.115 -53.836  13.487  1.00  0.00    -0.264 OA
BRANCH   4  11
HETATM   11  C   UNL     1     -44.500 -53.754  14.373  1.00  0.00     0.232 C 
HETATM   12  O   UNL     1     -44.741 -53.533  15.773  1.00  0.00    -0.366 OA
HETATM   13  C   UNL     1     -46.079 -53.978  16.053  1.00  0.00     0.170 C 
HETATM   14  C   UNL     1     -46.631 -54.584  14.774  1.00  0.00     0.031 C 
HETATM   15  C   UNL     1     -45.374 -54.940  14.008  1.00  0.00     0.056 C 
ENDBRANCH   4  11
ENDBRANCH   1   2
BRANCH   1  16
HETATM   16  C   UNL     1     -40.019 -50.962  12.362  1.00  0.00     0.159 A 
HETATM   17  O   UNL     1     -40.420 -49.768  11.813  1.00  0.00    -0.276 OA
HETATM   18  C   UNL     1     -39.642 -48.863  12.490  1.00  0.00     0.174 A 
HETATM   19  N   UNL     1     -38.812 -49.451  13.329  1.00  0.00    -0.277 N 
HETATM   20  N   UNL     1     -39.056 -50.810  13.248  1.00  0.00    -0.280 N 
ATOM     21  HN  UNL     1     -38.122 -48.992  13.923  1.00  0.00     0.189 HD
ATOM     22  HN  UNL     1     -38.584 -51.548  13.772  1.00  0.00     0.189 HD
BRANCH  18  23
HETATM   23  C   UNL     1     -39.858 -47.443  12.217  1.00  0.00     0.017 A 
HETATM   24  C   UNL     1     -40.423 -46.991  11.013  1.00  0.00     0.017 A 
HETATM   25  C   UNL     1     -40.645 -45.625  10.790  1.00  0.00     0.020 A 
HETATM   26  C   UNL     1     -40.306 -44.698  11.772  1.00  0.00     0.011 A 
HETATM   27  C   UNL     1     -39.740 -45.122  12.972  1.00  0.00     0.020 A 
HETATM   28 BR   UNL     1     -40.625 -42.858  11.479  1.00  0.00    -0.051 Br
HETATM   29  C   UNL     1     -39.516 -46.486  13.190  1.00  0.00     0.017 A 
ENDBRANCH  18  23
ENDBRANCH   1  16
TORSDOF 4
ENDMDL
