MODEL 1
REMARK VINA RESULT:      -5.1      0.000      0.000
REMARK  4 active torsions:
REMARK  status: ('A' for Active; 'I' for Inactive)
REMARK    1  A    between atoms: C_5  and  N_9 
REMARK    2  A    between atoms: N_9  and  C_10 
REMARK    3  A    between atoms: C_10  and  C_11 
REMARK    4  A    between atoms: C_11  and  C_12 
ROOT
HETATM    1  N   UNL     1     -43.961 -54.348  15.435  1.00  0.00     0.088 N 
HETATM    2  H   UNL     1     -44.284 -54.458  16.396  1.00  0.00     0.316 HD
ENDROOT
BRANCH   1   3
HETATM    3  C   UNL     1     -45.107 -54.439  14.511  1.00  0.00     0.220 C 
HETATM    4  C   UNL     1     -44.652 -54.009  13.105  1.00  0.00     0.036 C 
HETATM    5  C   UNL     1     -44.414 -52.501  12.982  1.00  0.00     0.007 C 
HETATM    6  C   UNL     1     -45.616 -51.661  13.452  1.00  0.00    -0.015 C 
HETATM    7  C   UNL     1     -46.750 -51.719  12.419  1.00  0.00     0.010 C 
HETATM    8  C   UNL     1     -46.049 -52.092  14.875  1.00  0.00    -0.013 C 
HETATM    9  C   UNL     1     -46.328 -53.603  14.938  1.00  0.00     0.040 C 
HETATM   10  C   UNL     1     -47.245 -51.303  15.410  1.00  0.00     0.010 C 
ENDBRANCH   1   3
BRANCH   1  11
HETATM   11  C   UNL     1     -42.897 -55.326  15.192  1.00  0.00     0.276 C 
BRANCH  11  12
HETATM   12  C   UNL     1     -41.476 -54.756  15.328  1.00  0.00     0.089 C 
BRANCH  12  13
HETATM   13  C   UNL     1     -41.187 -53.782  14.238  1.00  0.00     0.031 A 
HETATM   14  C   UNL     1     -40.941 -53.995  12.897  1.00  0.00     0.045 A 
HETATM   15  C   UNL     1     -40.685 -52.719  12.371  1.00  0.00     0.109 A 
HETATM   16  N   UNL     1     -40.774 -51.762  13.294  1.00  0.00    -0.310 N 
HETATM   17  N   UNL     1     -41.091 -52.426  14.421  1.00  0.00    -0.301 N 
ATOM     18  HN  UNL     1     -40.634 -50.759  13.175  1.00  0.00     0.186 HD
HETATM   19  C   UNL     1     -41.280 -51.693  15.651  1.00  0.00     0.177 C 
ENDBRANCH  12  13
ENDBRANCH  11  12
ENDBRANCH   1  11
TORSDOF 4
ENDMDL
MODEL 2
REMARK VINA RESULT:      -5.1      4.032      5.257
REMARK  4 active torsions:
REMARK  status: ('A' for Active; 'I' for Inactive)
REMARK    1  A    between atoms: C_5  and  N_9 
REMARK    2  A    between atoms: N_9  and  C_10 
REMARK    3  A    between atoms: C_10  and  C_11 
REMARK    4  A    between atoms: C_11  and  C_12 
ROOT
HETATM    1  N   UNL     1     -42.775 -50.802  12.128  1.00  0.00     0.088 N 
HETATM    2  H   UNL     1     -43.682 -50.414  11.872  1.00  0.00     0.316 HD
ENDROOT
BRANCH   1   3
HETATM    3  C   UNL     1     -42.897 -51.567  13.384  1.00  0.00     0.220 C 
HETATM    4  C   UNL     1     -42.807 -53.070  13.065  1.00  0.00     0.036 C 
HETATM    5  C   UNL     1     -44.059 -53.617  12.374  1.00  0.00     0.007 C 
HETATM    6  C   UNL     1     -45.358 -53.292  13.135  1.00  0.00    -0.015 C 
HETATM    7  C   UNL     1     -45.481 -54.172  14.387  1.00  0.00     0.010 C 
HETATM    8  C   UNL     1     -45.444 -51.775  13.431  1.00  0.00    -0.013 C 
HETATM    9  C   UNL     1     -44.189 -51.281  14.171  1.00  0.00     0.040 C 
HETATM   10  C   UNL     1     -46.708 -51.375  14.192  1.00  0.00     0.010 C 
ENDBRANCH   1   3
BRANCH   1  11
HETATM   11  C   UNL     1     -41.800 -49.708  12.168  1.00  0.00     0.276 C 
BRANCH  11  12
HETATM   12  C   UNL     1     -42.417 -48.327  12.439  1.00  0.00     0.089 C 
BRANCH  12  13
HETATM   13  C   UNL     1     -42.698 -47.610  11.162  1.00  0.00     0.031 A 
HETATM   14  C   UNL     1     -43.838 -47.592  10.385  1.00  0.00     0.045 A 
HETATM   15  C   UNL     1     -43.508 -46.790   9.281  1.00  0.00     0.109 A 
HETATM   16  N   UNL     1     -42.263 -46.320   9.349  1.00  0.00    -0.310 N 
HETATM   17  N   UNL     1     -41.790 -46.820  10.506  1.00  0.00    -0.301 N 
ATOM     18  HN  UNL     1     -41.781 -45.721   8.680  1.00  0.00     0.186 HD
HETATM   19  C   UNL     1     -40.442 -46.505  10.920  1.00  0.00     0.177 C 
ENDBRANCH  12  13
ENDBRANCH  11  12
ENDBRANCH   1  11
TORSDOF 4
ENDMDL
MODEL 3
REMARK VINA RESULT:      -5.1      4.020      5.922
REMARK  4 active torsions:
REMARK  status: ('A' for Active; 'I' for Inactive)
REMARK    1  A    between atoms: C_5  and  N_9 
REMARK    2  A    between atoms: N_9  and  C_10 
REMARK    3  A    between atoms: C_10  and  C_11 
REMARK    4  A    between atoms: C_11  and  C_12 
ROOT
HETATM    1  N   UNL     1     -40.842 -51.120  11.411  1.00  0.00     0.088 N 
HETATM    2  H   UNL     1     -41.658 -51.166  10.801  1.00  0.00     0.316 HD
ENDROOT
BRANCH   1   3
HETATM    3  C   UNL     1     -41.261 -51.274  12.816  1.00  0.00     0.220 C 
HETATM    4  C   UNL     1     -40.418 -52.383  13.471  1.00  0.00     0.036 C 
HETATM    5  C   UNL     1     -40.794 -53.789  12.994  1.00  0.00     0.007 C 
HETATM    6  C   UNL     1     -42.298 -54.089  13.129  1.00  0.00    -0.015 C 
HETATM    7  C   UNL     1     -42.670 -54.325  14.600  1.00  0.00     0.010 C 
HETATM    8  C   UNL     1     -43.132 -52.976  12.448  1.00  0.00    -0.013 C 
HETATM    9  C   UNL     1     -42.758 -51.588  12.995  1.00  0.00     0.040 C 
HETATM   10  C   UNL     1     -44.641 -53.202  12.545  1.00  0.00     0.010 C 
ENDBRANCH   1   3
BRANCH   1  11
HETATM   11  C   UNL     1     -40.118 -49.879  11.118  1.00  0.00     0.276 C 
BRANCH  11  12
HETATM   12  C   UNL     1     -40.639 -48.653  11.882  1.00  0.00     0.089 C 
BRANCH  12  13
HETATM   13  C   UNL     1     -41.504 -47.809  11.008  1.00  0.00     0.031 A 
HETATM   14  C   UNL     1     -42.769 -48.047  10.513  1.00  0.00     0.045 A 
HETATM   15  C   UNL     1     -43.058 -46.930   9.713  1.00  0.00     0.109 A 
HETATM   16  N   UNL     1     -42.065 -46.041   9.705  1.00  0.00    -0.310 N 
HETATM   17  N   UNL     1     -41.133 -46.587  10.508  1.00  0.00    -0.301 N 
ATOM     18  HN  UNL     1     -42.022 -45.152   9.206  1.00  0.00     0.186 HD
HETATM   19  C   UNL     1     -39.895 -45.881  10.745  1.00  0.00     0.177 C 
ENDBRANCH  12  13
ENDBRANCH  11  12
ENDBRANCH   1  11
TORSDOF 4
ENDMDL
MODEL 4
REMARK VINA RESULT:      -5.0      2.543      3.820
REMARK  4 active torsions:
REMARK  status: ('A' for Active; 'I' for Inactive)
REMARK    1  A    between atoms: C_5  and  N_9 
REMARK    2  A    between atoms: N_9  and  C_10 
REMARK    3  A    between atoms: C_10  and  C_11 
REMARK    4  A    between atoms: C_11  and  C_12 
ROOT
HETATM    1  N   UNL     1     -42.631 -52.710  12.008  1.00  0.00     0.088 N 
HETATM    2  H   UNL     1     -43.209 -52.090  11.442  1.00  0.00     0.316 HD
ENDROOT
BRANCH   1   3
HETATM    3  C   UNL     1     -43.019 -52.595  13.426  1.00  0.00     0.220 C 
HETATM    4  C   UNL     1     -43.224 -54.006  14.005  1.00  0.00     0.036 C 
HETATM    5  C   UNL     1     -44.499 -54.688  13.501  1.00  0.00     0.007 C 
HETATM    6  C   UNL     1     -45.760 -53.825  13.697  1.00  0.00    -0.015 C 
HETATM    7  C   UNL     1     -46.174 -53.805  15.175  1.00  0.00     0.010 C 
HETATM    8  C   UNL     1     -45.547 -52.416  13.092  1.00  0.00    -0.013 C 
HETATM    9  C   UNL     1     -44.285 -51.750  13.665  1.00  0.00     0.040 C 
HETATM   10  C   UNL     1     -46.759 -51.497  13.252  1.00  0.00     0.010 C 
ENDBRANCH   1   3
BRANCH   1  11
HETATM   11  C   UNL     1     -41.223 -52.407  11.731  1.00  0.00     0.276 C 
BRANCH  11  12
HETATM   12  C   UNL     1     -40.623 -51.325  12.640  1.00  0.00     0.089 C 
BRANCH  12  13
HETATM   13  C   UNL     1     -40.723 -49.980  12.005  1.00  0.00     0.031 A 
HETATM   14  C   UNL     1     -41.835 -49.226  11.690  1.00  0.00     0.045 A 
HETATM   15  C   UNL     1     -41.324 -48.077  11.065  1.00  0.00     0.109 A 
HETATM   16  N   UNL     1     -39.994 -48.084  10.997  1.00  0.00    -0.310 N 
HETATM   17  N   UNL     1     -39.645 -49.244  11.583  1.00  0.00    -0.301 N 
ATOM     18  HN  UNL     1     -39.382 -47.376  10.593  1.00  0.00     0.186 HD
HETATM   19  C   UNL     1     -38.248 -49.593  11.699  1.00  0.00     0.177 C 
ENDBRANCH  12  13
ENDBRANCH  11  12
ENDBRANCH   1  11
TORSDOF 4
ENDMDL
MODEL 5
REMARK VINA RESULT:      -5.0      2.364      3.605
REMARK  4 active torsions:
REMARK  status: ('A' for Active; 'I' for Inactive)
REMARK    1  A    between atoms: C_5  and  N_9 
REMARK    2  A    between atoms: N_9  and  C_10 
REMARK    3  A    between atoms: C_10  and  C_11 
REMARK    4  A    between atoms: C_11  and  C_12 
ROOT
HETATM    1  N   UNL     1     -41.766 -52.642  14.008  1.00  0.00     0.088 N 
HETATM    2  H   UNL     1     -41.903 -53.565  14.418  1.00  0.00     0.316 HD
ENDROOT
BRANCH   1   3
HETATM    3  C   UNL     1     -42.749 -52.424  12.931  1.00  0.00     0.220 C 
HETATM    4  C   UNL     1     -43.498 -51.106  13.195  1.00  0.00     0.036 C 
HETATM    5  C   UNL     1     -44.491 -51.197  14.358  1.00  0.00     0.007 C 
HETATM    6  C   UNL     1     -45.477 -52.372  14.217  1.00  0.00    -0.015 C 
HETATM    7  C   UNL     1     -46.530 -52.063  13.144  1.00  0.00     0.010 C 
HETATM    8  C   UNL     1     -44.708 -53.694  13.972  1.00  0.00    -0.013 C 
HETATM    9  C   UNL     1     -43.763 -53.571  12.764  1.00  0.00     0.040 C 
HETATM   10  C   UNL     1     -45.624 -54.908  13.816  1.00  0.00     0.010 C 
ENDBRANCH   1   3
BRANCH   1  11
HETATM   11  C   UNL     1     -40.364 -52.526  13.594  1.00  0.00     0.276 C 
BRANCH  11  12
HETATM   12  C   UNL     1     -39.744 -51.145  13.857  1.00  0.00     0.089 C 
BRANCH  12  13
HETATM   13  C   UNL     1     -38.866 -50.731  12.725  1.00  0.00     0.031 A 
HETATM   14  C   UNL     1     -37.505 -50.880  12.555  1.00  0.00     0.045 A 
HETATM   15  C   UNL     1     -37.226 -50.257  11.328  1.00  0.00     0.109 A 
HETATM   16  N   UNL     1     -38.319 -49.761  10.750  1.00  0.00    -0.310 N 
HETATM   17  N   UNL     1     -39.309 -50.069  11.609  1.00  0.00    -0.301 N 
ATOM     18  HN  UNL     1     -38.390 -49.264   9.863  1.00  0.00     0.186 HD
HETATM   19  C   UNL     1     -40.667 -49.686  11.298  1.00  0.00     0.177 C 
ENDBRANCH  12  13
ENDBRANCH  11  12
ENDBRANCH   1  11
TORSDOF 4
ENDMDL
MODEL 6
REMARK VINA RESULT:      -4.9      1.911      2.865
REMARK  4 active torsions:
REMARK  status: ('A' for Active; 'I' for Inactive)
REMARK    1  A    between atoms: C_5  and  N_9 
REMARK    2  A    between atoms: N_9  and  C_10 
REMARK    3  A    between atoms: C_10  and  C_11 
REMARK    4  A    between atoms: C_11  and  C_12 
ROOT
HETATM    1  N   UNL     1     -43.513 -51.417  12.513  1.00  0.00     0.088 N 
HETATM    2  H   UNL     1     -44.057 -50.557  12.581  1.00  0.00     0.316 HD
ENDROOT
BRANCH   1   3
HETATM    3  C   UNL     1     -44.105 -52.451  13.382  1.00  0.00     0.220 C 
HETATM    4  C   UNL     1     -45.543 -52.736  12.911  1.00  0.00     0.036 C 
HETATM    5  C   UNL     1     -46.523 -51.607  13.244  1.00  0.00     0.007 C 
HETATM    6  C   UNL     1     -46.500 -51.208  14.731  1.00  0.00    -0.015 C 
HETATM    7  C   UNL     1     -47.203 -52.274  15.584  1.00  0.00     0.010 C 
HETATM    8  C   UNL     1     -45.051 -50.905  15.185  1.00  0.00    -0.013 C 
HETATM    9  C   UNL     1     -44.114 -52.086  14.878  1.00  0.00     0.040 C 
HETATM   10  C   UNL     1     -44.947 -50.506  16.657  1.00  0.00     0.010 C 
ENDBRANCH   1   3
BRANCH   1  11
HETATM   11  C   UNL     1     -42.112 -51.099  12.806  1.00  0.00     0.276 C 
BRANCH  11  12
HETATM   12  C   UNL     1     -41.099 -51.995  12.078  1.00  0.00     0.089 C 
BRANCH  12  13
HETATM   13  C   UNL     1     -40.442 -52.937  13.029  1.00  0.00     0.031 A 
HETATM   14  C   UNL     1     -40.814 -54.205  13.425  1.00  0.00     0.045 A 
HETATM   15  C   UNL     1     -39.849 -54.584  14.371  1.00  0.00     0.109 A 
HETATM   16  N   UNL     1     -38.924 -53.644  14.558  1.00  0.00    -0.310 N 
HETATM   17  N   UNL     1     -39.295 -52.654  13.725  1.00  0.00    -0.301 N 
ATOM     18  HN  UNL     1     -38.121 -53.669  15.186  1.00  0.00     0.186 HD
HETATM   19  C   UNL     1     -38.501 -51.449  13.653  1.00  0.00     0.177 C 
ENDBRANCH  12  13
ENDBRANCH  11  12
ENDBRANCH   1  11
TORSDOF 4
ENDMDL
MODEL 7
REMARK VINA RESULT:      -4.8      2.695      3.698
REMARK  4 active torsions:
REMARK  status: ('A' for Active; 'I' for Inactive)
REMARK    1  A    between atoms: C_5  and  N_9 
REMARK    2  A    between atoms: N_9  and  C_10 
REMARK    3  A    between atoms: C_10  and  C_11 
REMARK    4  A    between atoms: C_11  and  C_12 
ROOT
HETATM    1  N   UNL     1     -43.598 -52.081  12.278  1.00  0.00     0.088 N 
HETATM    2  H   UNL     1     -44.155 -51.239  12.131  1.00  0.00     0.316 HD
ENDROOT
BRANCH   1   3
HETATM    3  C   UNL     1     -44.215 -52.908  13.332  1.00  0.00     0.220 C 
HETATM    4  C   UNL     1     -45.695 -53.145  12.980  1.00  0.00     0.036 C 
HETATM    5  C   UNL     1     -46.568 -51.900  13.163  1.00  0.00     0.007 C 
HETATM    6  C   UNL     1     -46.429 -51.269  14.561  1.00  0.00    -0.015 C 
HETATM    7  C   UNL     1     -47.159 -52.120  15.610  1.00  0.00     0.010 C 
HETATM    8  C   UNL     1     -44.938 -51.018  14.894  1.00  0.00    -0.013 C 
HETATM    9  C   UNL     1     -44.111 -52.306  14.746  1.00  0.00     0.040 C 
HETATM   10  C   UNL     1     -44.720 -50.395  16.273  1.00  0.00     0.010 C 
ENDBRANCH   1   3
BRANCH   1  11
HETATM   11  C   UNL     1     -42.215 -51.677  12.546  1.00  0.00     0.276 C 
BRANCH  11  12
HETATM   12  C   UNL     1     -41.964 -50.167  12.410  1.00  0.00     0.089 C 
BRANCH  12  13
HETATM   13  C   UNL     1     -40.543 -49.895  12.051  1.00  0.00     0.031 A 
HETATM   14  C   UNL     1     -39.424 -50.692  12.180  1.00  0.00     0.045 A 
HETATM   15  C   UNL     1     -38.361 -49.895  11.728  1.00  0.00     0.109 A 
HETATM   16  N   UNL     1     -38.764 -48.690  11.327  1.00  0.00    -0.310 N 
HETATM   17  N   UNL     1     -40.095 -48.712  11.520  1.00  0.00    -0.301 N 
ATOM     18  HN  UNL     1     -38.195 -47.928  10.958  1.00  0.00     0.186 HD
HETATM   19  C   UNL     1     -40.884 -47.551  11.180  1.00  0.00     0.177 C 
ENDBRANCH  12  13
ENDBRANCH  11  12
ENDBRANCH   1  11
TORSDOF 4
ENDMDL
MODEL 8
REMARK VINA RESULT:      -4.8      3.099      4.289
REMARK  4 active torsions:
REMARK  status: ('A' for Active; 'I' for Inactive)
REMARK    1  A    between atoms: C_5  and  N_9 
REMARK    2  A    between atoms: N_9  and  C_10 
REMARK    3  A    between atoms: C_10  and  C_11 
REMARK    4  A    between atoms: C_11  and  C_12 
ROOT
HETATM    1  N   UNL     1     -44.015 -50.196  12.662  1.00  0.00     0.088 N 
HETATM    2  H   UNL     1     -44.985 -49.881  12.693  1.00  0.00     0.316 HD
ENDROOT
BRANCH   1   3
HETATM    3  C   UNL     1     -43.805 -51.258  13.662  1.00  0.00     0.220 C 
HETATM    4  C   UNL     1     -43.923 -52.628  12.970  1.00  0.00     0.036 C 
HETATM    5  C   UNL     1     -45.362 -52.991  12.590  1.00  0.00     0.007 C 
HETATM    6  C   UNL     1     -46.342 -52.886  13.773  1.00  0.00    -0.015 C 
HETATM    7  C   UNL     1     -46.143 -54.060  14.742  1.00  0.00     0.010 C 
HETATM    8  C   UNL     1     -46.226 -51.497  14.447  1.00  0.00    -0.013 C 
HETATM    9  C   UNL     1     -44.775 -51.198  14.858  1.00  0.00     0.040 C 
HETATM   10  C   UNL     1     -47.169 -51.319  15.637  1.00  0.00     0.010 C 
ENDBRANCH   1   3
BRANCH   1  11
HETATM   11  C   UNL     1     -43.146 -49.025  12.817  1.00  0.00     0.276 C 
BRANCH  11  12
HETATM   12  C   UNL     1     -42.469 -48.569  11.516  1.00  0.00     0.089 C 
BRANCH  12  13
HETATM   13  C   UNL     1     -41.030 -48.959  11.501  1.00  0.00     0.031 A 
HETATM   14  C   UNL     1     -40.446 -50.206  11.580  1.00  0.00     0.045 A 
HETATM   15  C   UNL     1     -39.064 -49.957  11.569  1.00  0.00     0.109 A 
HETATM   16  N   UNL     1     -38.783 -48.658  11.475  1.00  0.00    -0.310 N 
HETATM   17  N   UNL     1     -39.991 -48.067  11.424  1.00  0.00    -0.301 N 
ATOM     18  HN  UNL     1     -37.865 -48.215  11.449  1.00  0.00     0.186 HD
HETATM   19  C   UNL     1     -40.077 -46.630  11.309  1.00  0.00     0.177 C 
ENDBRANCH  12  13
ENDBRANCH  11  12
ENDBRANCH   1  11
TORSDOF 4
ENDMDL
MODEL 9
REMARK VINA RESULT:      -4.8      1.571      5.425
REMARK  4 active torsions:
REMARK  status: ('A' for Active; 'I' for Inactive)
REMARK    1  A    between atoms: C_5  and  N_9 
REMARK    2  A    between atoms: N_9  and  C_10 
REMARK    3  A    between atoms: C_10  and  C_11 
REMARK    4  A    between atoms: C_11  and  C_12 
ROOT
HETATM    1  N   UNL     1     -43.799 -51.758  12.727  1.00  0.00     0.088 N 
HETATM    2  H   UNL     1     -44.060 -52.742  12.675  1.00  0.00     0.316 HD
ENDROOT
BRANCH   1   3
HETATM    3  C   UNL     1     -42.612 -51.603  13.587  1.00  0.00     0.220 C 
HETATM    4  C   UNL     1     -41.347 -51.677  12.713  1.00  0.00     0.036 C 
HETATM    5  C   UNL     1     -41.045 -53.091  12.206  1.00  0.00     0.007 C 
HETATM    6  C   UNL     1     -40.997 -54.138  13.334  1.00  0.00    -0.015 C 
HETATM    7  C   UNL     1     -39.703 -53.992  14.148  1.00  0.00     0.010 C 
HETATM    8  C   UNL     1     -42.283 -54.065  14.192  1.00  0.00    -0.013 C 
HETATM    9  C   UNL     1     -42.517 -52.640  14.722  1.00  0.00     0.040 C 
HETATM   10  C   UNL     1     -42.306 -55.075  15.339  1.00  0.00     0.010 C 
ENDBRANCH   1   3
BRANCH   1  11
HETATM   11  C   UNL     1     -44.973 -50.993  13.157  1.00  0.00     0.276 C 
BRANCH  11  12
HETATM   12  C   UNL     1     -46.224 -51.849  13.405  1.00  0.00     0.089 C 
BRANCH  12  13
HETATM   13  C   UNL     1     -46.198 -52.445  14.772  1.00  0.00     0.031 A 
HETATM   14  C   UNL     1     -46.329 -51.844  16.007  1.00  0.00     0.045 A 
HETATM   15  C   UNL     1     -46.172 -52.888  16.932  1.00  0.00     0.109 A 
HETATM   16  N   UNL     1     -45.971 -54.065  16.342  1.00  0.00    -0.310 N 
HETATM   17  N   UNL     1     -46.001 -53.778  15.027  1.00  0.00    -0.301 N 
ATOM     18  HN  UNL     1     -45.827 -54.973  16.783  1.00  0.00     0.186 HD
HETATM   19  C   UNL     1     -45.823 -54.838  14.062  1.00  0.00     0.177 C 
ENDBRANCH  12  13
ENDBRANCH  11  12
ENDBRANCH   1  11
TORSDOF 4
ENDMDL
