MODEL 1
REMARK VINA RESULT:      -6.7      0.000      0.000
REMARK  8 active torsions:
REMARK  status: ('A' for Active; 'I' for Inactive)
REMARK    1  A    between atoms: O_2  and  C_3 
REMARK    2  A    between atoms: C_8  and  O_9 
REMARK    3  A    between atoms: O_9  and  C_10 
REMARK    4  A    between atoms: C_10  and  C_11 
REMARK    5  A    between atoms: C_11  and  N_12 
REMARK    6  A    between atoms: C_13  and  C_14 
REMARK    7  A    between atoms: C_14  and  N_15 
REMARK    8  A    between atoms: N_15  and  C_16 
ROOT
HETATM    1  N   UNL     1     -41.288 -50.123  12.177  1.00  0.00    -0.331 N 
HETATM    2  C   UNL     1     -41.229 -49.060  11.282  1.00  0.00     0.102 A 
HETATM    3  N   UNL     1     -39.978 -48.813  10.921  1.00  0.00    -0.343 N 
ATOM      4  HN  UNL     1     -39.660 -48.131  10.233  1.00  0.00     0.167 HD
HETATM    5  C   UNL     1     -39.203 -49.660  11.659  1.00  0.00     0.060 A 
HETATM    6  C   UNL     1     -37.802 -49.767  11.698  1.00  0.00     0.032 A 
HETATM    7  C   UNL     1     -37.211 -50.711  12.542  1.00  0.00     0.002 A 
HETATM    8  C   UNL     1     -38.001 -51.514  13.355  1.00  0.00     0.002 A 
HETATM    9  C   UNL     1     -39.394 -51.395  13.343  1.00  0.00     0.032 A 
HETATM   10  C   UNL     1     -39.987 -50.477  12.470  1.00  0.00     0.062 A 
ENDROOT
BRANCH   1  11
HETATM   11  C   UNL     1     -42.526 -50.662  12.734  1.00  0.00     0.157 C 
BRANCH  11  12
HETATM   12  C   UNL     1     -42.754 -52.185  12.717  1.00  0.00     0.196 C 
BRANCH  12  13
HETATM   13  O   UNL     1     -44.103 -52.510  12.357  1.00  0.00    -0.347 OA
BRANCH  13  14
HETATM   14  C   UNL     1     -45.036 -52.616  13.365  1.00  0.00     0.102 A 
HETATM   15  C   UNL     1     -45.305 -53.735  14.166  1.00  0.00     0.101 A 
HETATM   16  C   UNL     1     -46.307 -53.656  15.149  1.00  0.00     0.039 A 
HETATM   17  C   UNL     1     -47.065 -52.495  15.313  1.00  0.00     0.003 A 
HETATM   18  C   UNL     1     -46.815 -51.392  14.509  1.00  0.00     0.003 A 
HETATM   19  C   UNL     1     -45.811 -51.455  13.541  1.00  0.00     0.039 A 
BRANCH  15  20
HETATM   20  O   UNL     1     -44.562 -54.873  13.993  1.00  0.00    -0.353 OA
HETATM   21  C   UNL     1     -43.474 -55.026  14.898  1.00  0.00     0.210 C 
ENDBRANCH  15  20
ENDBRANCH  13  14
ENDBRANCH  12  13
ENDBRANCH  11  12
ENDBRANCH   1  11
BRANCH   2  22
HETATM   22  C   UNL     1     -42.394 -48.264  10.804  1.00  0.00     0.198 C 
BRANCH  22  23
HETATM   23  N   UNL     1     -42.373 -48.222   9.364  1.00  0.00    -0.361 N 
HETATM   24  H   UNL     1     -41.508 -48.488   8.905  1.00  0.00     0.162 HD
BRANCH  23  25
HETATM   25  C   UNL     1     -43.394 -47.685   8.631  1.00  0.00     0.348 C 
HETATM   26  O   UNL     1     -43.634 -47.940   7.460  1.00  0.00    -0.284 OA
ENDBRANCH  23  25
ENDBRANCH  22  23
ENDBRANCH   2  22
TORSDOF 8
ENDMDL
MODEL 2
REMARK VINA RESULT:      -6.6      1.095      2.178
REMARK  8 active torsions:
REMARK  status: ('A' for Active; 'I' for Inactive)
REMARK    1  A    between atoms: O_2  and  C_3 
REMARK    2  A    between atoms: C_8  and  O_9 
REMARK    3  A    between atoms: O_9  and  C_10 
REMARK    4  A    between atoms: C_10  and  C_11 
REMARK    5  A    between atoms: C_11  and  N_12 
REMARK    6  A    between atoms: C_13  and  C_14 
REMARK    7  A    between atoms: C_14  and  N_15 
REMARK    8  A    between atoms: N_15  and  C_16 
ROOT
HETATM    1  N   UNL     1     -41.246 -49.554  12.634  1.00  0.00    -0.331 N 
HETATM    2  C   UNL     1     -41.242 -48.910  11.401  1.00  0.00     0.102 A 
HETATM    3  N   UNL     1     -40.083 -49.078  10.782  1.00  0.00    -0.343 N 
ATOM      4  HN  UNL     1     -39.835 -48.764   9.844  1.00  0.00     0.167 HD
HETATM    5  C   UNL     1     -39.287 -49.759  11.658  1.00  0.00     0.060 A 
HETATM    6  C   UNL     1     -37.942 -50.143  11.515  1.00  0.00     0.032 A 
HETATM    7  C   UNL     1     -37.314 -50.836  12.553  1.00  0.00     0.002 A 
HETATM    8  C   UNL     1     -38.005 -51.116  13.725  1.00  0.00     0.002 A 
HETATM    9  C   UNL     1     -39.335 -50.714  13.887  1.00  0.00     0.032 A 
HETATM   10  C   UNL     1     -39.975 -50.054  12.833  1.00  0.00     0.062 A 
ENDROOT
BRANCH   1  11
HETATM   11  C   UNL     1     -42.390 -49.588  13.542  1.00  0.00     0.157 C 
BRANCH  11  12
HETATM   12  C   UNL     1     -43.552 -50.554  13.247  1.00  0.00     0.196 C 
BRANCH  12  13
HETATM   13  O   UNL     1     -43.084 -51.772  12.651  1.00  0.00    -0.347 OA
BRANCH  13  14
HETATM   14  C   UNL     1     -43.215 -52.939  13.371  1.00  0.00     0.102 A 
HETATM   15  C   UNL     1     -44.324 -53.795  13.416  1.00  0.00     0.101 A 
HETATM   16  C   UNL     1     -44.276 -54.946  14.221  1.00  0.00     0.039 A 
HETATM   17  C   UNL     1     -43.156 -55.231  15.005  1.00  0.00     0.003 A 
HETATM   18  C   UNL     1     -42.063 -54.376  14.977  1.00  0.00     0.003 A 
HETATM   19  C   UNL     1     -42.096 -53.238  14.170  1.00  0.00     0.039 A 
BRANCH  15  20
HETATM   20  O   UNL     1     -45.422 -53.503  12.650  1.00  0.00    -0.353 OA
HETATM   21  C   UNL     1     -46.432 -52.745  13.308  1.00  0.00     0.210 C 
ENDBRANCH  15  20
ENDBRANCH  13  14
ENDBRANCH  12  13
ENDBRANCH  11  12
ENDBRANCH   1  11
BRANCH   2  22
HETATM   22  C   UNL     1     -42.361 -48.102  10.843  1.00  0.00     0.198 C 
BRANCH  22  23
HETATM   23  N   UNL     1     -42.368 -48.240   9.409  1.00  0.00    -0.361 N 
HETATM   24  H   UNL     1     -41.563 -48.686   8.982  1.00  0.00     0.162 HD
BRANCH  23  25
HETATM   25  C   UNL     1     -43.316 -47.650   8.620  1.00  0.00     0.348 C 
HETATM   26  O   UNL     1     -43.587 -47.979   7.474  1.00  0.00    -0.284 OA
ENDBRANCH  23  25
ENDBRANCH  22  23
ENDBRANCH   2  22
TORSDOF 8
ENDMDL
MODEL 3
REMARK VINA RESULT:      -6.5      2.422      6.214
REMARK  8 active torsions:
REMARK  status: ('A' for Active; 'I' for Inactive)
REMARK    1  A    between atoms: O_2  and  C_3 
REMARK    2  A    between atoms: C_8  and  O_9 
REMARK    3  A    between atoms: O_9  and  C_10 
REMARK    4  A    between atoms: C_10  and  C_11 
REMARK    5  A    between atoms: C_11  and  N_12 
REMARK    6  A    between atoms: C_13  and  C_14 
REMARK    7  A    between atoms: C_14  and  N_15 
REMARK    8  A    between atoms: N_15  and  C_16 
ROOT
HETATM    1  N   UNL     1     -42.196 -52.034  12.544  1.00  0.00    -0.331 N 
HETATM    2  C   UNL     1     -42.236 -50.644  12.532  1.00  0.00     0.102 A 
HETATM    3  N   UNL     1     -43.430 -50.200  12.893  1.00  0.00    -0.343 N 
ATOM      4  HN  UNL     1     -43.711 -49.228  13.025  1.00  0.00     0.167 HD
HETATM    5  C   UNL     1     -44.208 -51.310  13.052  1.00  0.00     0.060 A 
HETATM    6  C   UNL     1     -45.574 -51.393  13.377  1.00  0.00     0.032 A 
HETATM    7  C   UNL     1     -46.177 -52.649  13.483  1.00  0.00     0.002 A 
HETATM    8  C   UNL     1     -45.440 -53.801  13.240  1.00  0.00     0.002 A 
HETATM    9  C   UNL     1     -44.088 -53.727  12.889  1.00  0.00     0.032 A 
HETATM   10  C   UNL     1     -43.476 -52.472  12.821  1.00  0.00     0.062 A 
ENDROOT
BRANCH   1  11
HETATM   11  C   UNL     1     -41.011 -52.827  12.229  1.00  0.00     0.157 C 
BRANCH  11  12
HETATM   12  C   UNL     1     -40.331 -53.635  13.351  1.00  0.00     0.196 C 
BRANCH  12  13
HETATM   13  O   UNL     1     -38.941 -53.303  13.468  1.00  0.00    -0.347 OA
BRANCH  13  14
HETATM   14  C   UNL     1     -38.610 -52.065  13.972  1.00  0.00     0.102 A 
HETATM   15  C   UNL     1     -37.870 -51.055  13.340  1.00  0.00     0.101 A 
HETATM   16  C   UNL     1     -37.625 -49.850  14.021  1.00  0.00     0.039 A 
HETATM   17  C   UNL     1     -38.073 -49.657  15.329  1.00  0.00     0.003 A 
HETATM   18  C   UNL     1     -38.789 -50.662  15.965  1.00  0.00     0.003 A 
HETATM   19  C   UNL     1     -39.051 -51.856  15.292  1.00  0.00     0.039 A 
BRANCH  15  20
HETATM   20  O   UNL     1     -37.428 -51.256  12.059  1.00  0.00    -0.353 OA
HETATM   21  C   UNL     1     -37.407 -50.093  11.239  1.00  0.00     0.210 C 
ENDBRANCH  15  20
ENDBRANCH  13  14
ENDBRANCH  12  13
ENDBRANCH  11  12
ENDBRANCH   1  11
BRANCH   2  22
HETATM   22  C   UNL     1     -41.113 -49.749  12.134  1.00  0.00     0.198 C 
BRANCH  22  23
HETATM   23  N   UNL     1     -41.289 -49.358  10.759  1.00  0.00    -0.361 N 
HETATM   24  H   UNL     1     -40.814 -49.913  10.055  1.00  0.00     0.162 HD
BRANCH  23  25
HETATM   25  C   UNL     1     -41.916 -48.197  10.402  1.00  0.00     0.348 C 
HETATM   26  O   UNL     1     -43.046 -47.871  10.737  1.00  0.00    -0.284 OA
ENDBRANCH  23  25
ENDBRANCH  22  23
ENDBRANCH   2  22
TORSDOF 8
ENDMDL
MODEL 4
REMARK VINA RESULT:      -6.5      1.483      2.052
REMARK  8 active torsions:
REMARK  status: ('A' for Active; 'I' for Inactive)
REMARK    1  A    between atoms: O_2  and  C_3 
REMARK    2  A    between atoms: C_8  and  O_9 
REMARK    3  A    between atoms: O_9  and  C_10 
REMARK    4  A    between atoms: C_10  and  C_11 
REMARK    5  A    between atoms: C_11  and  N_12 
REMARK    6  A    between atoms: C_13  and  C_14 
REMARK    7  A    between atoms: C_14  and  N_15 
REMARK    8  A    between atoms: N_15  and  C_16 
ROOT
HETATM    1  N   UNL     1     -41.378 -48.950  12.678  1.00  0.00    -0.331 N 
HETATM    2  C   UNL     1     -41.557 -48.742  11.315  1.00  0.00     0.102 A 
HETATM    3  N   UNL     1     -40.529 -49.211  10.623  1.00  0.00    -0.343 N 
ATOM      4  HN  UNL     1     -40.433 -49.242   9.608  1.00  0.00     0.167 HD
HETATM    5  C   UNL     1     -39.625 -49.647  11.549  1.00  0.00     0.060 A 
HETATM    6  C   UNL     1     -38.342 -50.184  11.346  1.00  0.00     0.032 A 
HETATM    7  C   UNL     1     -37.575 -50.563  12.451  1.00  0.00     0.002 A 
HETATM    8  C   UNL     1     -38.067 -50.382  13.737  1.00  0.00     0.002 A 
HETATM    9  C   UNL     1     -39.331 -49.822  13.950  1.00  0.00     0.032 A 
HETATM   10  C   UNL     1     -40.113 -49.479  12.842  1.00  0.00     0.062 A 
ENDROOT
BRANCH   1  11
HETATM   11  C   UNL     1     -42.349 -48.578  13.703  1.00  0.00     0.157 C 
BRANCH  11  12
HETATM   12  C   UNL     1     -43.303 -49.653  14.257  1.00  0.00     0.196 C 
BRANCH  12  13
HETATM   13  O   UNL     1     -44.099 -50.235  13.216  1.00  0.00    -0.347 OA
BRANCH  13  14
HETATM   14  C   UNL     1     -44.304 -51.596  13.239  1.00  0.00     0.102 A 
HETATM   15  C   UNL     1     -43.478 -52.594  12.704  1.00  0.00     0.101 A 
HETATM   16  C   UNL     1     -43.859 -53.942  12.820  1.00  0.00     0.039 A 
HETATM   17  C   UNL     1     -45.065 -54.301  13.425  1.00  0.00     0.003 A 
HETATM   18  C   UNL     1     -45.895 -53.314  13.939  1.00  0.00     0.003 A 
HETATM   19  C   UNL     1     -45.518 -51.974  13.842  1.00  0.00     0.039 A 
BRANCH  15  20
HETATM   20  O   UNL     1     -42.300 -52.233  12.105  1.00  0.00    -0.353 OA
HETATM   21  C   UNL     1     -41.167 -53.006  12.488  1.00  0.00     0.210 C 
ENDBRANCH  15  20
ENDBRANCH  13  14
ENDBRANCH  12  13
ENDBRANCH  11  12
ENDBRANCH   1  11
BRANCH   2  22
HETATM   22  C   UNL     1     -42.721 -48.052  10.690  1.00  0.00     0.198 C 
BRANCH  22  23
HETATM   23  N   UNL     1     -42.517 -47.989   9.265  1.00  0.00    -0.361 N 
HETATM   24  H   UNL     1     -41.678 -48.423   8.897  1.00  0.00     0.162 HD
BRANCH  23  25
HETATM   25  C   UNL     1     -43.307 -47.233   8.445  1.00  0.00     0.348 C 
HETATM   26  O   UNL     1     -43.256 -46.016   8.338  1.00  0.00    -0.284 OA
ENDBRANCH  23  25
ENDBRANCH  22  23
ENDBRANCH   2  22
TORSDOF 8
ENDMDL
MODEL 5
REMARK VINA RESULT:      -6.4      2.899      7.332
REMARK  8 active torsions:
REMARK  status: ('A' for Active; 'I' for Inactive)
REMARK    1  A    between atoms: O_2  and  C_3 
REMARK    2  A    between atoms: C_8  and  O_9 
REMARK    3  A    between atoms: O_9  and  C_10 
REMARK    4  A    between atoms: C_10  and  C_11 
REMARK    5  A    between atoms: C_11  and  N_12 
REMARK    6  A    between atoms: C_13  and  C_14 
REMARK    7  A    between atoms: C_14  and  N_15 
REMARK    8  A    between atoms: N_15  and  C_16 
ROOT
HETATM    1  N   UNL     1     -42.934 -51.178  13.307  1.00  0.00    -0.331 N 
HETATM    2  C   UNL     1     -42.532 -52.176  12.425  1.00  0.00     0.102 A 
HETATM    3  N   UNL     1     -43.532 -53.002  12.155  1.00  0.00    -0.343 N 
ATOM      4  HN  UNL     1     -43.526 -53.780  11.496  1.00  0.00     0.167 HD
HETATM    5  C   UNL     1     -44.572 -52.596  12.941  1.00  0.00     0.060 A 
HETATM    6  C   UNL     1     -45.850 -53.167  13.078  1.00  0.00     0.032 A 
HETATM    7  C   UNL     1     -46.769 -52.585  13.956  1.00  0.00     0.002 A 
HETATM    8  C   UNL     1     -46.411 -51.472  14.705  1.00  0.00     0.002 A 
HETATM    9  C   UNL     1     -45.133 -50.914  14.595  1.00  0.00     0.032 A 
HETATM   10  C   UNL     1     -44.226 -51.474  13.689  1.00  0.00     0.062 A 
ENDROOT
BRANCH   1  11
HETATM   11  C   UNL     1     -42.072 -50.094  13.771  1.00  0.00     0.157 C 
BRANCH  11  12
HETATM   12  C   UNL     1     -41.085 -50.362  14.922  1.00  0.00     0.196 C 
BRANCH  12  13
HETATM   13  O   UNL     1     -39.920 -49.533  14.818  1.00  0.00    -0.347 OA
BRANCH  13  14
HETATM   14  C   UNL     1     -39.083 -49.722  13.741  1.00  0.00     0.102 A 
HETATM   15  C   UNL     1     -38.948 -48.904  12.610  1.00  0.00     0.101 A 
HETATM   16  C   UNL     1     -38.039 -49.266  11.601  1.00  0.00     0.039 A 
HETATM   17  C   UNL     1     -37.296 -50.444  11.688  1.00  0.00     0.003 A 
HETATM   18  C   UNL     1     -37.441 -51.266  12.798  1.00  0.00     0.003 A 
HETATM   19  C   UNL     1     -38.330 -50.908  13.812  1.00  0.00     0.039 A 
BRANCH  15  20
HETATM   20  O   UNL     1     -39.687 -47.753  12.528  1.00  0.00    -0.353 OA
HETATM   21  C   UNL     1     -40.520 -47.652  11.378  1.00  0.00     0.210 C 
ENDBRANCH  15  20
ENDBRANCH  13  14
ENDBRANCH  12  13
ENDBRANCH  11  12
ENDBRANCH   1  11
BRANCH   2  22
HETATM   22  C   UNL     1     -41.159 -52.341  11.871  1.00  0.00     0.198 C 
BRANCH  22  23
HETATM   23  N   UNL     1     -40.730 -53.700  12.080  1.00  0.00    -0.361 N 
HETATM   24  H   UNL     1     -40.872 -54.353  11.317  1.00  0.00     0.162 HD
BRANCH  23  25
HETATM   25  C   UNL     1     -40.312 -54.158  13.298  1.00  0.00     0.348 C 
HETATM   26  O   UNL     1     -39.146 -54.293  13.640  1.00  0.00    -0.284 OA
ENDBRANCH  23  25
ENDBRANCH  22  23
ENDBRANCH   2  22
TORSDOF 8
ENDMDL
MODEL 6
REMARK VINA RESULT:      -6.4      2.980      7.357
REMARK  8 active torsions:
REMARK  status: ('A' for Active; 'I' for Inactive)
REMARK    1  A    between atoms: O_2  and  C_3 
REMARK    2  A    between atoms: C_8  and  O_9 
REMARK    3  A    between atoms: O_9  and  C_10 
REMARK    4  A    between atoms: C_10  and  C_11 
REMARK    5  A    between atoms: C_11  and  N_12 
REMARK    6  A    between atoms: C_13  and  C_14 
REMARK    7  A    between atoms: C_14  and  N_15 
REMARK    8  A    between atoms: N_15  and  C_16 
ROOT
HETATM    1  N   UNL     1     -42.686 -51.501  13.519  1.00  0.00    -0.331 N 
HETATM    2  C   UNL     1     -42.451 -52.366  12.455  1.00  0.00     0.102 A 
HETATM    3  N   UNL     1     -43.585 -52.874  11.997  1.00  0.00    -0.343 N 
ATOM      4  HN  UNL     1     -43.703 -53.485  11.188  1.00  0.00     0.167 HD
HETATM    5  C   UNL     1     -44.564 -52.411  12.828  1.00  0.00     0.060 A 
HETATM    6  C   UNL     1     -45.941 -52.695  12.815  1.00  0.00     0.032 A 
HETATM    7  C   UNL     1     -46.769 -52.109  13.775  1.00  0.00     0.002 A 
HETATM    8  C   UNL     1     -46.231 -51.279  14.749  1.00  0.00     0.002 A 
HETATM    9  C   UNL     1     -44.859 -51.013  14.787  1.00  0.00     0.032 A 
HETATM   10  C   UNL     1     -44.035 -51.569  13.802  1.00  0.00     0.062 A 
ENDROOT
BRANCH   1  11
HETATM   11  C   UNL     1     -41.645 -50.754  14.219  1.00  0.00     0.157 C 
BRANCH  11  12
HETATM   12  C   UNL     1     -41.419 -49.273  13.864  1.00  0.00     0.196 C 
BRANCH  12  13
HETATM   13  O   UNL     1     -40.961 -49.121  12.514  1.00  0.00    -0.347 OA
BRANCH  13  14
HETATM   14  C   UNL     1     -40.786 -47.844  12.028  1.00  0.00     0.102 A 
HETATM   15  C   UNL     1     -41.282 -47.310  10.830  1.00  0.00     0.101 A 
HETATM   16  C   UNL     1     -40.991 -45.976  10.496  1.00  0.00     0.039 A 
HETATM   17  C   UNL     1     -40.184 -45.187  11.318  1.00  0.00     0.003 A 
HETATM   18  C   UNL     1     -39.675 -45.718  12.495  1.00  0.00     0.003 A 
HETATM   19  C   UNL     1     -39.971 -47.037  12.843  1.00  0.00     0.039 A 
BRANCH  15  20
HETATM   20  O   UNL     1     -42.067 -48.094  10.026  1.00  0.00    -0.353 OA
HETATM   21  C   UNL     1     -43.090 -47.399   9.321  1.00  0.00     0.210 C 
ENDBRANCH  15  20
ENDBRANCH  13  14
ENDBRANCH  12  13
ENDBRANCH  11  12
ENDBRANCH   1  11
BRANCH   2  22
HETATM   22  C   UNL     1     -41.111 -52.721  11.908  1.00  0.00     0.198 C 
BRANCH  22  23
HETATM   23  N   UNL     1     -40.754 -54.040  12.364  1.00  0.00    -0.361 N 
HETATM   24  H   UNL     1     -41.108 -54.827  11.830  1.00  0.00     0.162 HD
BRANCH  23  25
HETATM   25  C   UNL     1     -40.119 -54.257  13.555  1.00  0.00     0.348 C 
HETATM   26  O   UNL     1     -38.908 -54.235  13.725  1.00  0.00    -0.284 OA
ENDBRANCH  23  25
ENDBRANCH  22  23
ENDBRANCH   2  22
TORSDOF 8
ENDMDL
MODEL 7
REMARK VINA RESULT:      -6.2      2.584      3.624
REMARK  8 active torsions:
REMARK  status: ('A' for Active; 'I' for Inactive)
REMARK    1  A    between atoms: O_2  and  C_3 
REMARK    2  A    between atoms: C_8  and  O_9 
REMARK    3  A    between atoms: O_9  and  C_10 
REMARK    4  A    between atoms: C_10  and  C_11 
REMARK    5  A    between atoms: C_11  and  N_12 
REMARK    6  A    between atoms: C_13  and  C_14 
REMARK    7  A    between atoms: C_14  and  N_15 
REMARK    8  A    between atoms: N_15  and  C_16 
ROOT
HETATM    1  N   UNL     1     -41.768 -47.565  11.071  1.00  0.00    -0.331 N 
HETATM    2  C   UNL     1     -42.403 -46.967   9.988  1.00  0.00     0.102 A 
HETATM    3  N   UNL     1     -41.925 -45.751   9.769  1.00  0.00    -0.343 N 
ATOM      4  HN  UNL     1     -42.171 -45.121   9.006  1.00  0.00     0.167 HD
HETATM    5  C   UNL     1     -41.035 -45.514  10.777  1.00  0.00     0.060 A 
HETATM    6  C   UNL     1     -40.291 -44.350  11.043  1.00  0.00     0.032 A 
HETATM    7  C   UNL     1     -39.435 -44.323  12.147  1.00  0.00     0.002 A 
HETATM    8  C   UNL     1     -39.343 -45.425  12.987  1.00  0.00     0.002 A 
HETATM    9  C   UNL     1     -40.100 -46.576  12.747  1.00  0.00     0.032 A 
HETATM   10  C   UNL     1     -40.929 -46.617  11.620  1.00  0.00     0.062 A 
ENDROOT
BRANCH   1  11
HETATM   11  C   UNL     1     -42.044 -48.919  11.543  1.00  0.00     0.157 C 
BRANCH  11  12
HETATM   12  C   UNL     1     -43.070 -49.123  12.673  1.00  0.00     0.196 C 
BRANCH  12  13
HETATM   13  O   UNL     1     -42.806 -50.325  13.411  1.00  0.00    -0.347 OA
BRANCH  13  14
HETATM   14  C   UNL     1     -43.690 -51.373  13.280  1.00  0.00     0.102 A 
HETATM   15  C   UNL     1     -43.425 -52.657  12.782  1.00  0.00     0.101 A 
HETATM   16  C   UNL     1     -44.464 -53.601  12.719  1.00  0.00     0.039 A 
HETATM   17  C   UNL     1     -45.764 -53.270  13.107  1.00  0.00     0.003 A 
HETATM   18  C   UNL     1     -46.034 -51.994  13.583  1.00  0.00     0.003 A 
HETATM   19  C   UNL     1     -45.005 -51.054  13.664  1.00  0.00     0.039 A 
BRANCH  15  20
HETATM   20  O   UNL     1     -42.149 -52.971  12.395  1.00  0.00    -0.353 OA
HETATM   21  C   UNL     1     -41.515 -53.982  13.172  1.00  0.00     0.210 C 
ENDBRANCH  15  20
ENDBRANCH  13  14
ENDBRANCH  12  13
ENDBRANCH  11  12
ENDBRANCH   1  11
BRANCH   2  22
HETATM   22  C   UNL     1     -43.501 -47.574   9.185  1.00  0.00     0.198 C 
BRANCH  22  23
HETATM   23  N   UNL     1     -44.767 -47.160   9.735  1.00  0.00    -0.361 N 
HETATM   24  H   UNL     1     -44.744 -46.622  10.595  1.00  0.00     0.162 HD
BRANCH  23  25
HETATM   25  C   UNL     1     -45.961 -47.608   9.244  1.00  0.00     0.348 C 
HETATM   26  O   UNL     1     -46.868 -46.897   8.834  1.00  0.00    -0.284 OA
ENDBRANCH  23  25
ENDBRANCH  22  23
ENDBRANCH   2  22
TORSDOF 8
ENDMDL
MODEL 8
REMARK VINA RESULT:      -6.1      1.836      2.299
REMARK  8 active torsions:
REMARK  status: ('A' for Active; 'I' for Inactive)
REMARK    1  A    between atoms: O_2  and  C_3 
REMARK    2  A    between atoms: C_8  and  O_9 
REMARK    3  A    between atoms: O_9  and  C_10 
REMARK    4  A    between atoms: C_10  and  C_11 
REMARK    5  A    between atoms: C_11  and  N_12 
REMARK    6  A    between atoms: C_13  and  C_14 
REMARK    7  A    between atoms: C_14  and  N_15 
REMARK    8  A    between atoms: N_15  and  C_16 
ROOT
HETATM    1  N   UNL     1     -41.159 -49.344  12.626  1.00  0.00    -0.331 N 
HETATM    2  C   UNL     1     -41.057 -48.966  11.291  1.00  0.00     0.102 A 
HETATM    3  N   UNL     1     -39.899 -49.354  10.776  1.00  0.00    -0.343 N 
ATOM      4  HN  UNL     1     -39.594 -49.260   9.807  1.00  0.00     0.167 HD
HETATM    5  C   UNL     1     -39.199 -49.908  11.809  1.00  0.00     0.060 A 
HETATM    6  C   UNL     1     -37.891 -50.426  11.812  1.00  0.00     0.032 A 
HETATM    7  C   UNL     1     -37.364 -50.944  12.998  1.00  0.00     0.002 A 
HETATM    8  C   UNL     1     -38.114 -50.920  14.166  1.00  0.00     0.002 A 
HETATM    9  C   UNL     1     -39.405 -50.382  14.179  1.00  0.00     0.032 A 
HETATM   10  C   UNL     1     -39.947 -49.898  12.983  1.00  0.00     0.062 A 
ENDROOT
BRANCH   1  11
HETATM   11  C   UNL     1     -42.329 -49.094  13.464  1.00  0.00     0.157 C 
BRANCH  11  12
HETATM   12  C   UNL     1     -43.454 -50.145  13.513  1.00  0.00     0.196 C 
BRANCH  12  13
HETATM   13  O   UNL     1     -43.097 -51.330  12.787  1.00  0.00    -0.347 OA
BRANCH  13  14
HETATM   14  C   UNL     1     -43.504 -52.546  13.289  1.00  0.00     0.102 A 
HETATM   15  C   UNL     1     -42.727 -53.490  13.976  1.00  0.00     0.101 A 
HETATM   16  C   UNL     1     -43.321 -54.688  14.410  1.00  0.00     0.039 A 
HETATM   17  C   UNL     1     -44.661 -54.969  14.136  1.00  0.00     0.003 A 
HETATM   18  C   UNL     1     -45.428 -54.045  13.440  1.00  0.00     0.003 A 
HETATM   19  C   UNL     1     -44.851 -52.846  13.018  1.00  0.00     0.039 A 
BRANCH  15  20
HETATM   20  O   UNL     1     -41.412 -53.210  14.234  1.00  0.00    -0.353 OA
HETATM   21  C   UNL     1     -40.476 -53.896  13.408  1.00  0.00     0.210 C 
ENDBRANCH  15  20
ENDBRANCH  13  14
ENDBRANCH  12  13
ENDBRANCH  11  12
ENDBRANCH   1  11
BRANCH   2  22
HETATM   22  C   UNL     1     -42.078 -48.196  10.528  1.00  0.00     0.198 C 
BRANCH  22  23
HETATM   23  N   UNL     1     -41.444 -47.055   9.918  1.00  0.00    -0.361 N 
HETATM   24  H   UNL     1     -41.102 -47.167   8.970  1.00  0.00     0.162 HD
BRANCH  23  25
HETATM   25  C   UNL     1     -41.146 -45.920  10.620  1.00  0.00     0.348 C 
HETATM   26  O   UNL     1     -40.879 -44.834  10.127  1.00  0.00    -0.284 OA
ENDBRANCH  23  25
ENDBRANCH  22  23
ENDBRANCH   2  22
TORSDOF 8
ENDMDL
MODEL 9
REMARK VINA RESULT:      -6.1      2.796      4.728
REMARK  8 active torsions:
REMARK  status: ('A' for Active; 'I' for Inactive)
REMARK    1  A    between atoms: O_2  and  C_3 
REMARK    2  A    between atoms: C_8  and  O_9 
REMARK    3  A    between atoms: O_9  and  C_10 
REMARK    4  A    between atoms: C_10  and  C_11 
REMARK    5  A    between atoms: C_11  and  N_12 
REMARK    6  A    between atoms: C_13  and  C_14 
REMARK    7  A    between atoms: C_14  and  N_15 
REMARK    8  A    between atoms: N_15  and  C_16 
ROOT
HETATM    1  N   UNL     1     -41.901 -47.078  10.587  1.00  0.00    -0.331 N 
HETATM    2  C   UNL     1     -43.169 -46.620  10.244  1.00  0.00     0.102 A 
HETATM    3  N   UNL     1     -43.243 -45.302  10.354  1.00  0.00    -0.343 N 
ATOM      4  HN  UNL     1     -44.034 -44.707  10.108  1.00  0.00     0.167 HD
HETATM    5  C   UNL     1     -42.041 -44.902  10.864  1.00  0.00     0.060 A 
HETATM    6  C   UNL     1     -41.619 -43.609  11.222  1.00  0.00     0.032 A 
HETATM    7  C   UNL     1     -40.333 -43.428  11.737  1.00  0.00     0.002 A 
HETATM    8  C   UNL     1     -39.493 -44.518  11.920  1.00  0.00     0.002 A 
HETATM    9  C   UNL     1     -39.914 -45.811  11.593  1.00  0.00     0.032 A 
HETATM   10  C   UNL     1     -41.187 -45.988  11.042  1.00  0.00     0.062 A 
ENDROOT
BRANCH   1  11
HETATM   11  C   UNL     1     -41.489 -48.478  10.534  1.00  0.00     0.157 C 
BRANCH  11  12
HETATM   12  C   UNL     1     -41.275 -49.246  11.853  1.00  0.00     0.196 C 
BRANCH  12  13
HETATM   13  O   UNL     1     -42.466 -49.932  12.260  1.00  0.00    -0.347 OA
BRANCH  13  14
HETATM   14  C   UNL     1     -42.373 -51.275  12.552  1.00  0.00     0.102 A 
HETATM   15  C   UNL     1     -43.386 -52.115  13.037  1.00  0.00     0.101 A 
HETATM   16  C   UNL     1     -43.100 -53.469  13.284  1.00  0.00     0.039 A 
HETATM   17  C   UNL     1     -41.816 -53.982  13.089  1.00  0.00     0.003 A 
HETATM   18  C   UNL     1     -40.806 -53.148  12.626  1.00  0.00     0.003 A 
HETATM   19  C   UNL     1     -41.084 -51.806  12.364  1.00  0.00     0.039 A 
BRANCH  15  20
HETATM   20  O   UNL     1     -44.640 -51.602  13.233  1.00  0.00    -0.353 OA
HETATM   21  C   UNL     1     -44.905 -51.145  14.555  1.00  0.00     0.210 C 
ENDBRANCH  15  20
ENDBRANCH  13  14
ENDBRANCH  12  13
ENDBRANCH  11  12
ENDBRANCH   1  11
BRANCH   2  22
HETATM   22  C   UNL     1     -44.319 -47.476   9.840  1.00  0.00     0.198 C 
BRANCH  22  23
HETATM   23  N   UNL     1     -45.495 -46.653   9.719  1.00  0.00    -0.361 N 
HETATM   24  H   UNL     1     -45.507 -45.782  10.240  1.00  0.00     0.162 HD
BRANCH  23  25
HETATM   25  C   UNL     1     -46.627 -47.080   9.083  1.00  0.00     0.348 C 
HETATM   26  O   UNL     1     -46.710 -48.081   8.385  1.00  0.00    -0.284 OA
ENDBRANCH  23  25
ENDBRANCH  22  23
ENDBRANCH   2  22
TORSDOF 8
ENDMDL
