MODEL 1
REMARK VINA RESULT:      -5.7      0.000      0.000
REMARK  7 active torsions:
REMARK  status: ('A' for Active; 'I' for Inactive)
REMARK    1  A    between atoms: C_2  and  C_3 
REMARK    2  A    between atoms: C_2  and  N_11 
REMARK    3  A    between atoms: C_3  and  N_4 
REMARK    4  A    between atoms: N_11  and  C_12 
REMARK    5  A    between atoms: C_12  and  C_13 
REMARK    6  A    between atoms: C_13  and  C_14 
REMARK    7  A    between atoms: C_14  and  N_15 
ROOT
HETATM    1  N   UNL     1     -43.193 -53.805  12.504  1.00  0.00     0.089 N 
HETATM    2  H   UNL     1     -43.002 -54.423  11.714  1.00  0.00     0.316 HD
ENDROOT
BRANCH   1   3
HETATM    3  C   UNL     1     -42.502 -52.512  12.271  1.00  0.00     0.236 C 
HETATM    4  C   UNL     1     -42.927 -51.560  13.398  1.00  0.00     0.044 C 
BRANCH   3   5
HETATM    5  C   UNL     1     -40.965 -52.657  12.229  1.00  0.00     0.183 C 
BRANCH   5   6
HETATM    6  N   UNL     1     -40.244 -51.399  12.200  1.00  0.00    -0.301 N 
HETATM    7  C   UNL     1     -39.329 -50.966  13.116  1.00  0.00     0.118 A 
HETATM    8  C   UNL     1     -38.825 -49.780  12.633  1.00  0.00    -0.028 A 
HETATM    9  C   UNL     1     -37.792 -48.910  13.236  1.00  0.00     0.051 C 
HETATM   10  C   UNL     1     -39.514 -49.585  11.413  1.00  0.00     0.115 A 
HETATM   11  N   UNL     1     -40.367 -50.575  11.144  1.00  0.00    -0.310 N 
ATOM     12  HN  UNL     1     -40.971 -50.682  10.329  1.00  0.00     0.186 HD
ENDBRANCH   5   6
ENDBRANCH   3   5
ENDBRANCH   1   3
BRANCH   1  13
HETATM   13  C   UNL     1     -42.753 -54.470  13.734  1.00  0.00     0.272 C 
BRANCH  13  14
HETATM   14  C   UNL     1     -43.949 -54.860  14.601  1.00  0.00     0.050 C 
BRANCH  14  15
HETATM   15  C   UNL     1     -45.243 -54.800  13.777  1.00  0.00     0.127 C 
BRANCH  15  16
HETATM   16  N   UNL     1     -46.042 -53.634  14.105  1.00  0.00    -0.352 N 
HETATM   17  C   UNL     1     -46.299 -53.240  15.462  1.00  0.00     0.126 C 
HETATM   18  C   UNL     1     -46.990 -51.893  15.361  1.00  0.00     0.029 C 
HETATM   19  C   UNL     1     -46.795 -51.425  13.926  1.00  0.00     0.104 C 
HETATM   20  C   UNL     1     -46.316 -52.639  13.182  1.00  0.00     0.219 C 
HETATM   21  O   UNL     1     -46.135 -52.698  11.976  1.00  0.00    -0.273 OA
ENDBRANCH  15  16
ENDBRANCH  14  15
ENDBRANCH  13  14
ENDBRANCH   1  13
TORSDOF 7
ENDMDL
MODEL 2
REMARK VINA RESULT:      -5.3      3.430      5.088
REMARK  7 active torsions:
REMARK  status: ('A' for Active; 'I' for Inactive)
REMARK    1  A    between atoms: C_2  and  C_3 
REMARK    2  A    between atoms: C_2  and  N_11 
REMARK    3  A    between atoms: C_3  and  N_4 
REMARK    4  A    between atoms: N_11  and  C_12 
REMARK    5  A    between atoms: C_12  and  C_13 
REMARK    6  A    between atoms: C_13  and  C_14 
REMARK    7  A    between atoms: C_14  and  N_15 
ROOT
HETATM    1  N   UNL     1     -42.080 -49.356  11.432  1.00  0.00     0.089 N 
HETATM    2  H   UNL     1     -41.392 -50.108  11.373  1.00  0.00     0.316 HD
ENDROOT
BRANCH   1   3
HETATM    3  C   UNL     1     -41.359 -48.062  11.540  1.00  0.00     0.236 C 
HETATM    4  C   UNL     1     -39.861 -48.382  11.640  1.00  0.00     0.044 C 
BRANCH   3   5
HETATM    5  C   UNL     1     -41.640 -47.123  10.347  1.00  0.00     0.183 C 
BRANCH   5   6
HETATM    6  N   UNL     1     -42.885 -47.390   9.653  1.00  0.00    -0.301 N 
HETATM    7  C   UNL     1     -44.140 -47.082  10.090  1.00  0.00     0.118 A 
HETATM    8  C   UNL     1     -45.002 -47.416   9.069  1.00  0.00    -0.028 A 
HETATM    9  C   UNL     1     -46.472 -47.266   9.025  1.00  0.00     0.051 C 
HETATM   10  C   UNL     1     -44.155 -47.925   8.057  1.00  0.00     0.115 A 
HETATM   11  N   UNL     1     -42.867 -47.898   8.407  1.00  0.00    -0.310 N 
ATOM     12  HN  UNL     1     -42.059 -48.193   7.859  1.00  0.00     0.186 HD
ENDBRANCH   5   6
ENDBRANCH   3   5
ENDBRANCH   1   3
BRANCH   1  13
HETATM   13  C   UNL     1     -42.956 -49.613  12.579  1.00  0.00     0.272 C 
BRANCH  13  14
HETATM   14  C   UNL     1     -42.766 -51.037  13.101  1.00  0.00     0.050 C 
BRANCH  14  15
HETATM   15  C   UNL     1     -44.011 -51.490  13.875  1.00  0.00     0.127 C 
BRANCH  15  16
HETATM   16  N   UNL     1     -44.147 -52.934  13.889  1.00  0.00    -0.352 N 
HETATM   17  C   UNL     1     -43.568 -53.747  14.922  1.00  0.00     0.126 C 
HETATM   18  C   UNL     1     -44.098 -55.146  14.673  1.00  0.00     0.029 C 
HETATM   19  C   UNL     1     -45.241 -54.994  13.678  1.00  0.00     0.104 C 
HETATM   20  C   UNL     1     -45.103 -53.597  13.140  1.00  0.00     0.219 C 
HETATM   21  O   UNL     1     -45.780 -53.121  12.241  1.00  0.00    -0.273 OA
ENDBRANCH  15  16
ENDBRANCH  14  15
ENDBRANCH  13  14
ENDBRANCH   1  13
TORSDOF 7
ENDMDL
MODEL 3
REMARK VINA RESULT:      -5.2      1.516      2.047
REMARK  7 active torsions:
REMARK  status: ('A' for Active; 'I' for Inactive)
REMARK    1  A    between atoms: C_2  and  C_3 
REMARK    2  A    between atoms: C_2  and  N_11 
REMARK    3  A    between atoms: C_3  and  N_4 
REMARK    4  A    between atoms: N_11  and  C_12 
REMARK    5  A    between atoms: C_12  and  C_13 
REMARK    6  A    between atoms: C_13  and  C_14 
REMARK    7  A    between atoms: C_14  and  N_15 
ROOT
HETATM    1  N   UNL     1     -42.083 -53.155  14.525  1.00  0.00     0.089 N 
HETATM    2  H   UNL     1     -42.786 -52.415  14.496  1.00  0.00     0.316 HD
ENDROOT
BRANCH   1   3
HETATM    3  C   UNL     1     -40.866 -52.680  13.820  1.00  0.00     0.236 C 
HETATM    4  C   UNL     1     -39.775 -53.738  14.032  1.00  0.00     0.044 C 
BRANCH   3   5
HETATM    5  C   UNL     1     -41.107 -52.437  12.314  1.00  0.00     0.183 C 
BRANCH   5   6
HETATM    6  N   UNL     1     -41.328 -51.049  11.958  1.00  0.00    -0.301 N 
HETATM    7  C   UNL     1     -42.300 -50.228  12.453  1.00  0.00     0.118 A 
HETATM    8  C   UNL     1     -42.064 -48.980  11.919  1.00  0.00    -0.028 A 
HETATM    9  C   UNL     1     -42.818 -47.728  12.149  1.00  0.00     0.051 C 
HETATM   10  C   UNL     1     -40.922 -49.163  11.106  1.00  0.00     0.115 A 
HETATM   11  N   UNL     1     -40.467 -50.418  11.139  1.00  0.00    -0.310 N 
ATOM     12  HN  UNL     1     -39.657 -50.807  10.656  1.00  0.00     0.186 HD
ENDBRANCH   5   6
ENDBRANCH   3   5
ENDBRANCH   1   3
BRANCH   1  13
HETATM   13  C   UNL     1     -42.652 -54.365  13.922  1.00  0.00     0.272 C 
BRANCH  13  14
HETATM   14  C   UNL     1     -43.832 -54.880  14.744  1.00  0.00     0.050 C 
BRANCH  14  15
HETATM   15  C   UNL     1     -45.125 -54.804  13.922  1.00  0.00     0.127 C 
BRANCH  15  16
HETATM   16  N   UNL     1     -45.844 -53.565  14.153  1.00  0.00    -0.352 N 
HETATM   17  C   UNL     1     -46.018 -53.016  15.469  1.00  0.00     0.126 C 
HETATM   18  C   UNL     1     -46.639 -51.649  15.252  1.00  0.00     0.029 C 
HETATM   19  C   UNL     1     -46.485 -51.346  13.768  1.00  0.00     0.104 C 
HETATM   20  C   UNL     1     -46.106 -52.658  13.140  1.00  0.00     0.219 C 
HETATM   21  O   UNL     1     -45.983 -52.855  11.941  1.00  0.00    -0.273 OA
ENDBRANCH  15  16
ENDBRANCH  14  15
ENDBRANCH  13  14
ENDBRANCH   1  13
TORSDOF 7
ENDMDL
MODEL 4
REMARK VINA RESULT:      -5.0      3.237      6.712
REMARK  7 active torsions:
REMARK  status: ('A' for Active; 'I' for Inactive)
REMARK    1  A    between atoms: C_2  and  C_3 
REMARK    2  A    between atoms: C_2  and  N_11 
REMARK    3  A    between atoms: C_3  and  N_4 
REMARK    4  A    between atoms: N_11  and  C_12 
REMARK    5  A    between atoms: C_12  and  C_13 
REMARK    6  A    between atoms: C_13  and  C_14 
REMARK    7  A    between atoms: C_14  and  N_15 
ROOT
HETATM    1  N   UNL     1     -41.196 -51.852  11.516  1.00  0.00     0.089 N 
HETATM    2  H   UNL     1     -41.619 -51.420  10.695  1.00  0.00     0.316 HD
ENDROOT
BRANCH   1   3
HETATM    3  C   UNL     1     -42.274 -52.451  12.344  1.00  0.00     0.236 C 
HETATM    4  C   UNL     1     -41.712 -53.739  12.960  1.00  0.00     0.044 C 
BRANCH   3   5
HETATM    5  C   UNL     1     -42.780 -51.494  13.445  1.00  0.00     0.183 C 
BRANCH   5   6
HETATM    6  N   UNL     1     -44.209 -51.557  13.685  1.00  0.00    -0.301 N 
HETATM    7  C   UNL     1     -44.832 -51.497  14.898  1.00  0.00     0.118 A 
HETATM    8  C   UNL     1     -46.184 -51.484  14.641  1.00  0.00    -0.028 A 
HETATM    9  C   UNL     1     -47.301 -51.408  15.608  1.00  0.00     0.051 C 
HETATM   10  C   UNL     1     -46.267 -51.546  13.230  1.00  0.00     0.115 A 
HETATM   11  N   UNL     1     -45.066 -51.578  12.648  1.00  0.00    -0.310 N 
ATOM     12  HN  UNL     1     -44.849 -51.611  11.652  1.00  0.00     0.186 HD
ENDBRANCH   5   6
ENDBRANCH   3   5
ENDBRANCH   1   3
BRANCH   1  13
HETATM   13  C   UNL     1     -40.427 -50.833  12.238  1.00  0.00     0.272 C 
BRANCH  13  14
HETATM   14  C   UNL     1     -39.986 -49.714  11.296  1.00  0.00     0.050 C 
BRANCH  14  15
HETATM   15  C   UNL     1     -40.360 -48.347  11.883  1.00  0.00     0.127 C 
BRANCH  15  16
HETATM   16  N   UNL     1     -41.412 -47.699  11.122  1.00  0.00    -0.352 N 
HETATM   17  C   UNL     1     -42.772 -48.161  11.149  1.00  0.00     0.126 C 
HETATM   18  C   UNL     1     -43.564 -47.113  10.391  1.00  0.00     0.029 C 
HETATM   19  C   UNL     1     -42.643 -45.910  10.247  1.00  0.00     0.104 C 
HETATM   20  C   UNL     1     -41.277 -46.420  10.608  1.00  0.00     0.219 C 
HETATM   21  O   UNL     1     -40.242 -45.777  10.525  1.00  0.00    -0.273 OA
ENDBRANCH  15  16
ENDBRANCH  14  15
ENDBRANCH  13  14
ENDBRANCH   1  13
TORSDOF 7
ENDMDL
MODEL 5
REMARK VINA RESULT:      -4.9      2.688      7.107
REMARK  7 active torsions:
REMARK  status: ('A' for Active; 'I' for Inactive)
REMARK    1  A    between atoms: C_2  and  C_3 
REMARK    2  A    between atoms: C_2  and  N_11 
REMARK    3  A    between atoms: C_3  and  N_4 
REMARK    4  A    between atoms: N_11  and  C_12 
REMARK    5  A    between atoms: C_12  and  C_13 
REMARK    6  A    between atoms: C_13  and  C_14 
REMARK    7  A    between atoms: C_14  and  N_15 
ROOT
HETATM    1  N   UNL     1     -41.835 -52.576  13.657  1.00  0.00     0.089 N 
HETATM    2  H   UNL     1     -42.494 -51.887  14.019  1.00  0.00     0.316 HD
ENDROOT
BRANCH   1   3
HETATM    3  C   UNL     1     -42.592 -53.784  13.242  1.00  0.00     0.236 C 
HETATM    4  C   UNL     1     -42.804 -54.642  14.496  1.00  0.00     0.044 C 
BRANCH   3   5
HETATM    5  C   UNL     1     -43.944 -53.441  12.580  1.00  0.00     0.183 C 
BRANCH   5   6
HETATM    6  N   UNL     1     -45.028 -53.207  13.514  1.00  0.00    -0.301 N 
HETATM    7  C   UNL     1     -45.250 -52.069  14.233  1.00  0.00     0.118 A 
HETATM    8  C   UNL     1     -46.441 -52.253  14.898  1.00  0.00    -0.028 A 
HETATM    9  C   UNL     1     -47.143 -51.313  15.799  1.00  0.00     0.051 C 
HETATM   10  C   UNL     1     -46.855 -53.549  14.510  1.00  0.00     0.115 A 
HETATM   11  N   UNL     1     -46.002 -54.124  13.660  1.00  0.00    -0.310 N 
ATOM     12  HN  UNL     1     -46.072 -55.043  13.222  1.00  0.00     0.186 HD
ENDBRANCH   5   6
ENDBRANCH   3   5
ENDBRANCH   1   3
BRANCH   1  13
HETATM   13  C   UNL     1     -40.840 -52.861  14.696  1.00  0.00     0.272 C 
BRANCH  13  14
HETATM   14  C   UNL     1     -39.443 -52.995  14.090  1.00  0.00     0.050 C 
BRANCH  14  15
HETATM   15  C   UNL     1     -38.622 -51.728  14.363  1.00  0.00     0.127 C 
BRANCH  15  16
HETATM   16  N   UNL     1     -38.566 -50.857  13.204  1.00  0.00    -0.352 N 
HETATM   17  C   UNL     1     -39.313 -49.632  13.131  1.00  0.00     0.126 C 
HETATM   18  C   UNL     1     -38.830 -48.946  11.867  1.00  0.00     0.029 C 
HETATM   19  C   UNL     1     -37.565 -49.679  11.445  1.00  0.00     0.104 C 
HETATM   20  C   UNL     1     -37.559 -50.943  12.258  1.00  0.00     0.219 C 
HETATM   21  O   UNL     1     -36.749 -51.850  12.140  1.00  0.00    -0.273 OA
ENDBRANCH  15  16
ENDBRANCH  14  15
ENDBRANCH  13  14
ENDBRANCH   1  13
TORSDOF 7
ENDMDL
MODEL 6
REMARK VINA RESULT:      -4.9      2.572      3.221
REMARK  7 active torsions:
REMARK  status: ('A' for Active; 'I' for Inactive)
REMARK    1  A    between atoms: C_2  and  C_3 
REMARK    2  A    between atoms: C_2  and  N_11 
REMARK    3  A    between atoms: C_3  and  N_4 
REMARK    4  A    between atoms: N_11  and  C_12 
REMARK    5  A    between atoms: C_12  and  C_13 
REMARK    6  A    between atoms: C_13  and  C_14 
REMARK    7  A    between atoms: C_14  and  N_15 
ROOT
HETATM    1  N   UNL     1     -42.558 -50.862  12.297  1.00  0.00     0.089 N 
HETATM    2  H   UNL     1     -43.260 -50.714  11.571  1.00  0.00     0.316 HD
ENDROOT
BRANCH   1   3
HETATM    3  C   UNL     1     -41.545 -49.780  12.205  1.00  0.00     0.236 C 
HETATM    4  C   UNL     1     -40.263 -50.403  11.637  1.00  0.00     0.044 C 
BRANCH   3   5
HETATM    5  C   UNL     1     -42.014 -48.599  11.329  1.00  0.00     0.183 C 
BRANCH   5   6
HETATM    6  N   UNL     1     -41.199 -47.405  11.445  1.00  0.00    -0.301 N 
HETATM    7  C   UNL     1     -40.736 -46.846  12.601  1.00  0.00     0.118 A 
HETATM    8  C   UNL     1     -39.923 -45.799  12.230  1.00  0.00    -0.028 A 
HETATM    9  C   UNL     1     -39.160 -44.878  13.100  1.00  0.00     0.051 C 
HETATM   10  C   UNL     1     -39.970 -45.811  10.816  1.00  0.00     0.115 A 
HETATM   11  N   UNL     1     -40.736 -46.794  10.339  1.00  0.00    -0.310 N 
ATOM     12  HN  UNL     1     -40.926 -47.028   9.364  1.00  0.00     0.186 HD
ENDBRANCH   5   6
ENDBRANCH   3   5
ENDBRANCH   1   3
BRANCH   1  13
HETATM   13  C   UNL     1     -41.977 -52.197  12.120  1.00  0.00     0.272 C 
BRANCH  13  14
HETATM   14  C   UNL     1     -42.731 -53.234  12.953  1.00  0.00     0.050 C 
BRANCH  14  15
HETATM   15  C   UNL     1     -44.173 -53.375  12.447  1.00  0.00     0.127 C 
BRANCH  15  16
HETATM   16  N   UNL     1     -45.142 -52.976  13.452  1.00  0.00    -0.352 N 
HETATM   17  C   UNL     1     -45.718 -51.661  13.480  1.00  0.00     0.126 C 
HETATM   18  C   UNL     1     -46.800 -51.723  14.541  1.00  0.00     0.029 C 
HETATM   19  C   UNL     1     -47.011 -53.200  14.844  1.00  0.00     0.104 C 
HETATM   20  C   UNL     1     -45.834 -53.896  14.221  1.00  0.00     0.219 C 
HETATM   21  O   UNL     1     -45.586 -55.087  14.325  1.00  0.00    -0.273 OA
ENDBRANCH  15  16
ENDBRANCH  14  15
ENDBRANCH  13  14
ENDBRANCH   1  13
TORSDOF 7
ENDMDL
MODEL 7
REMARK VINA RESULT:      -4.6      3.840      6.070
REMARK  7 active torsions:
REMARK  status: ('A' for Active; 'I' for Inactive)
REMARK    1  A    between atoms: C_2  and  C_3 
REMARK    2  A    between atoms: C_2  and  N_11 
REMARK    3  A    between atoms: C_3  and  N_4 
REMARK    4  A    between atoms: N_11  and  C_12 
REMARK    5  A    between atoms: C_12  and  C_13 
REMARK    6  A    between atoms: C_13  and  C_14 
REMARK    7  A    between atoms: C_14  and  N_15 
ROOT
HETATM    1  N   UNL     1     -44.100 -50.648  12.611  1.00  0.00     0.089 N 
HETATM    2  H   UNL     1     -44.832 -50.135  12.119  1.00  0.00     0.316 HD
ENDROOT
BRANCH   1   3
HETATM    3  C   UNL     1     -44.740 -51.658  13.492  1.00  0.00     0.236 C 
HETATM    4  C   UNL     1     -46.257 -51.445  13.402  1.00  0.00     0.044 C 
BRANCH   3   5
HETATM    5  C   UNL     1     -44.367 -53.106  13.105  1.00  0.00     0.183 C 
BRANCH   5   6
HETATM    6  N   UNL     1     -42.975 -53.447  13.326  1.00  0.00    -0.301 N 
HETATM    7  C   UNL     1     -42.414 -53.850  14.503  1.00  0.00     0.118 A 
HETATM    8  C   UNL     1     -41.104 -54.168  14.221  1.00  0.00    -0.028 A 
HETATM    9  C   UNL     1     -40.065 -54.674  15.145  1.00  0.00     0.051 C 
HETATM   10  C   UNL     1     -40.978 -53.913  12.836  1.00  0.00     0.115 A 
HETATM   11  N   UNL     1     -42.118 -53.486  12.289  1.00  0.00    -0.310 N 
ATOM     12  HN  UNL     1     -42.298 -53.246  11.314  1.00  0.00     0.186 HD
ENDBRANCH   5   6
ENDBRANCH   3   5
ENDBRANCH   1   3
BRANCH   1  13
HETATM   13  C   UNL     1     -43.277 -49.689  13.355  1.00  0.00     0.272 C 
BRANCH  13  14
HETATM   14  C   UNL     1     -42.438 -48.838  12.403  1.00  0.00     0.050 C 
BRANCH  14  15
HETATM   15  C   UNL     1     -43.137 -47.500  12.130  1.00  0.00     0.127 C 
BRANCH  15  16
HETATM   16  N   UNL     1     -43.388 -47.297  10.715  1.00  0.00    -0.352 N 
HETATM   17  C   UNL     1     -44.623 -47.687  10.094  1.00  0.00     0.126 C 
HETATM   18  C   UNL     1     -44.553 -47.134   8.684  1.00  0.00     0.029 C 
HETATM   19  C   UNL     1     -43.390 -46.150   8.674  1.00  0.00     0.104 C 
HETATM   20  C   UNL     1     -42.638 -46.426   9.945  1.00  0.00     0.219 C 
HETATM   21  O   UNL     1     -41.580 -45.904  10.262  1.00  0.00    -0.273 OA
ENDBRANCH  15  16
ENDBRANCH  14  15
ENDBRANCH  13  14
ENDBRANCH   1  13
TORSDOF 7
ENDMDL
MODEL 8
REMARK VINA RESULT:      -4.5      2.900      3.811
REMARK  7 active torsions:
REMARK  status: ('A' for Active; 'I' for Inactive)
REMARK    1  A    between atoms: C_2  and  C_3 
REMARK    2  A    between atoms: C_2  and  N_11 
REMARK    3  A    between atoms: C_3  and  N_4 
REMARK    4  A    between atoms: N_11  and  C_12 
REMARK    5  A    between atoms: C_12  and  C_13 
REMARK    6  A    between atoms: C_13  and  C_14 
REMARK    7  A    between atoms: C_14  and  N_15 
ROOT
HETATM    1  N   UNL     1     -41.392 -51.163  12.491  1.00  0.00     0.089 N 
HETATM    2  H   UNL     1     -40.388 -51.112  12.668  1.00  0.00     0.316 HD
ENDROOT
BRANCH   1   3
HETATM    3  C   UNL     1     -41.871 -49.816  12.090  1.00  0.00     0.236 C 
HETATM    4  C   UNL     1     -41.836 -48.929  13.342  1.00  0.00     0.044 C 
BRANCH   3   5
HETATM    5  C   UNL     1     -41.024 -49.196  10.957  1.00  0.00     0.183 C 
BRANCH   5   6
HETATM    6  N   UNL     1     -41.551 -47.955  10.423  1.00  0.00    -0.301 N 
HETATM    7  C   UNL     1     -42.786 -47.767   9.871  1.00  0.00     0.118 A 
HETATM    8  C   UNL     1     -42.893 -46.421   9.606  1.00  0.00    -0.028 A 
HETATM    9  C   UNL     1     -44.038 -45.690   9.021  1.00  0.00     0.051 C 
HETATM   10  C   UNL     1     -41.655 -45.886  10.034  1.00  0.00     0.115 A 
HETATM   11  N   UNL     1     -40.844 -46.816  10.542  1.00  0.00    -0.310 N 
ATOM     12  HN  UNL     1     -39.909 -46.694  10.930  1.00  0.00     0.186 HD
ENDBRANCH   5   6
ENDBRANCH   3   5
ENDBRANCH   1   3
BRANCH   1  13
HETATM   13  C   UNL     1     -42.055 -51.663  13.700  1.00  0.00     0.272 C 
BRANCH  13  14
HETATM   14  C   UNL     1     -42.623 -53.063  13.470  1.00  0.00     0.050 C 
BRANCH  14  15
HETATM   15  C   UNL     1     -43.878 -52.989  12.589  1.00  0.00     0.127 C 
BRANCH  15  16
HETATM   16  N   UNL     1     -45.072 -53.385  13.312  1.00  0.00    -0.352 N 
HETATM   17  C   UNL     1     -45.292 -54.737  13.743  1.00  0.00     0.126 C 
HETATM   18  C   UNL     1     -46.535 -54.682  14.611  1.00  0.00     0.029 C 
HETATM   19  C   UNL     1     -46.780 -53.208  14.904  1.00  0.00     0.104 C 
HETATM   20  C   UNL     1     -45.901 -52.468  13.936  1.00  0.00     0.219 C 
HETATM   21  O   UNL     1     -45.881 -51.256  13.789  1.00  0.00    -0.273 OA
ENDBRANCH  15  16
ENDBRANCH  14  15
ENDBRANCH  13  14
ENDBRANCH   1  13
TORSDOF 7
ENDMDL
MODEL 9
REMARK VINA RESULT:      -4.5      3.829      7.667
REMARK  7 active torsions:
REMARK  status: ('A' for Active; 'I' for Inactive)
REMARK    1  A    between atoms: C_2  and  C_3 
REMARK    2  A    between atoms: C_2  and  N_11 
REMARK    3  A    between atoms: C_3  and  N_4 
REMARK    4  A    between atoms: N_11  and  C_12 
REMARK    5  A    between atoms: C_12  and  C_13 
REMARK    6  A    between atoms: C_13  and  C_14 
REMARK    7  A    between atoms: C_14  and  N_15 
ROOT
HETATM    1  N   UNL     1     -41.758 -49.956  11.405  1.00  0.00     0.089 N 
HETATM    2  H   UNL     1     -42.067 -50.346  10.514  1.00  0.00     0.316 HD
ENDROOT
BRANCH   1   3
HETATM    3  C   UNL     1     -42.152 -50.887  12.492  1.00  0.00     0.236 C 
HETATM    4  C   UNL     1     -40.862 -51.483  13.071  1.00  0.00     0.044 C 
BRANCH   3   5
HETATM    5  C   UNL     1     -42.980 -50.196  13.598  1.00  0.00     0.183 C 
BRANCH   5   6
HETATM    6  N   UNL     1     -44.292 -50.773  13.815  1.00  0.00    -0.301 N 
HETATM    7  C   UNL     1     -44.929 -50.914  15.014  1.00  0.00     0.118 A 
HETATM    8  C   UNL     1     -46.184 -51.406  14.733  1.00  0.00    -0.028 A 
HETATM    9  C   UNL     1     -47.279 -51.719  15.677  1.00  0.00     0.051 C 
HETATM   10  C   UNL     1     -46.198 -51.531  13.323  1.00  0.00     0.115 A 
HETATM   11  N   UNL     1     -45.052 -51.135  12.765  1.00  0.00    -0.310 N 
ATOM     12  HN  UNL     1     -44.809 -51.112  11.774  1.00  0.00     0.186 HD
ENDBRANCH   5   6
ENDBRANCH   3   5
ENDBRANCH   1   3
BRANCH   1  13
HETATM   13  C   UNL     1     -42.347 -48.622  11.561  1.00  0.00     0.272 C 
BRANCH  13  14
HETATM   14  C   UNL     1     -42.376 -47.880  10.226  1.00  0.00     0.050 C 
BRANCH  14  15
HETATM   15  C   UNL     1     -42.681 -46.393  10.451  1.00  0.00     0.127 C 
BRANCH  15  16
HETATM   16  N   UNL     1     -41.588 -45.709  11.116  1.00  0.00    -0.352 N 
HETATM   17  C   UNL     1     -40.330 -45.465  10.467  1.00  0.00     0.126 C 
HETATM   18  C   UNL     1     -39.556 -44.574  11.420  1.00  0.00     0.029 C 
HETATM   19  C   UNL     1     -40.565 -44.075  12.446  1.00  0.00     0.104 C 
HETATM   20  C   UNL     1     -41.773 -44.948  12.258  1.00  0.00     0.219 C 
HETATM   21  O   UNL     1     -42.772 -44.926  12.960  1.00  0.00    -0.273 OA
ENDBRANCH  15  16
ENDBRANCH  14  15
ENDBRANCH  13  14
ENDBRANCH   1  13
TORSDOF 7
ENDMDL
