MODEL 1
REMARK VINA RESULT:      -5.9      0.000      0.000
REMARK  4 active torsions:
REMARK  status: ('A' for Active; 'I' for Inactive)
REMARK    1  A    between atoms: C_6  and  O_8 
REMARK    2  A    between atoms: O_8  and  C_9 
REMARK    3  A    between atoms: C_9  and  C_10 
REMARK       I    between atoms: C_10  and  N_12 
REMARK    4  A    between atoms: N_12  and  C_13 
ROOT
HETATM    1  C   UNL     1     -40.672 -53.108  13.623  1.00  0.00     0.246 C 
HETATM    2  O   UNL     1     -39.794 -53.905  13.297  1.00  0.00    -0.271 OA
HETATM    3  N   UNL     1     -40.634 -51.752  13.380  1.00  0.00    -0.310 N 
HETATM    4  H   UNL     1     -41.179 -51.134  13.963  1.00  0.00     0.170 HD
ENDROOT
BRANCH   1   5
HETATM    5  C   UNL     1     -41.893 -53.558  14.409  1.00  0.00     0.271 C 
BRANCH   5   6
HETATM    6  O   UNL     1     -42.699 -52.421  14.679  1.00  0.00    -0.377 OA
BRANCH   6   7
HETATM    7  C   UNL     1     -44.084 -52.597  14.364  1.00  0.00     0.122 C 
HETATM    8  C   UNL     1     -44.309 -52.808  12.862  1.00  0.00     0.032 C 
HETATM    9  C   UNL     1     -45.785 -52.802  12.486  1.00  0.00     0.003 C 
HETATM   10  C   UNL     1     -46.490 -51.544  12.980  1.00  0.00     0.004 C 
HETATM   11  C   UNL     1     -46.294 -51.301  14.483  1.00  0.00    -0.016 C 
HETATM   12  C   UNL     1     -47.096 -52.295  15.328  1.00  0.00     0.010 C 
HETATM   13  C   UNL     1     -44.805 -51.330  14.842  1.00  0.00     0.036 C 
ENDBRANCH   6   7
ENDBRANCH   5   6
ENDBRANCH   1   5
BRANCH   3  14
HETATM   14  C   UNL     1     -39.577 -51.127  12.717  1.00  0.00     0.123 A 
HETATM   15  C   UNL     1     -39.753 -50.319  11.592  1.00  0.00     0.136 A 
HETATM   16  N   UNL     1     -38.717 -49.757  10.919  1.00  0.00    -0.371 N 
HETATM   17  C   UNL     1     -37.496 -50.064  11.401  1.00  0.00     0.104 A 
ATOM     18  HN  UNL     1     -38.851 -49.150  10.111  1.00  0.00     0.164 HD
HETATM   19  C   UNL     1     -37.321 -50.845  12.528  1.00  0.00     0.106 A 
HETATM   20  N   UNL     1     -38.350 -51.369  13.233  1.00  0.00    -0.350 N 
ATOM     21  HN  UNL     1     -38.212 -51.907  14.088  1.00  0.00     0.166 HD
ENDBRANCH   3  14
TORSDOF 4
ENDMDL
MODEL 2
REMARK VINA RESULT:      -5.8      3.139      4.229
REMARK  4 active torsions:
REMARK  status: ('A' for Active; 'I' for Inactive)
REMARK    1  A    between atoms: C_6  and  O_8 
REMARK    2  A    between atoms: O_8  and  C_9 
REMARK    3  A    between atoms: C_9  and  C_10 
REMARK       I    between atoms: C_10  and  N_12 
REMARK    4  A    between atoms: N_12  and  C_13 
ROOT
HETATM    1  C   UNL     1     -41.938 -50.052  12.253  1.00  0.00     0.246 C 
HETATM    2  O   UNL     1     -42.841 -49.534  12.907  1.00  0.00    -0.271 OA
HETATM    3  N   UNL     1     -41.364 -49.498  11.129  1.00  0.00    -0.310 N 
HETATM    4  H   UNL     1     -40.909 -50.105  10.462  1.00  0.00     0.170 HD
ENDROOT
BRANCH   1   5
HETATM    5  C   UNL     1     -41.400 -51.429  12.604  1.00  0.00     0.271 C 
BRANCH   5   6
HETATM    6  O   UNL     1     -42.316 -52.405  12.130  1.00  0.00    -0.377 OA
BRANCH   6   7
HETATM    7  C   UNL     1     -43.200 -52.916  13.133  1.00  0.00     0.122 C 
HETATM    8  C   UNL     1     -42.694 -54.236  13.726  1.00  0.00     0.032 C 
HETATM    9  C   UNL     1     -43.714 -54.889  14.649  1.00  0.00     0.003 C 
HETATM   10  C   UNL     1     -45.064 -55.071  13.965  1.00  0.00     0.004 C 
HETATM   11  C   UNL     1     -45.608 -53.767  13.364  1.00  0.00    -0.016 C 
HETATM   12  C   UNL     1     -46.088 -52.799  14.449  1.00  0.00     0.010 C 
HETATM   13  C   UNL     1     -44.560 -53.118  12.454  1.00  0.00     0.036 C 
ENDBRANCH   6   7
ENDBRANCH   5   6
ENDBRANCH   1   5
BRANCH   3  14
HETATM   14  C   UNL     1     -41.747 -48.262  10.608  1.00  0.00     0.123 A 
HETATM   15  C   UNL     1     -40.962 -47.113  10.713  1.00  0.00     0.136 A 
HETATM   16  N   UNL     1     -41.363 -45.901  10.252  1.00  0.00    -0.371 N 
HETATM   17  C   UNL     1     -42.597 -45.883   9.708  1.00  0.00     0.104 A 
ATOM     18  HN  UNL     1     -40.777 -45.069  10.312  1.00  0.00     0.164 HD
HETATM   19  C   UNL     1     -43.366 -47.024   9.582  1.00  0.00     0.106 A 
HETATM   20  N   UNL     1     -42.953 -48.245   9.996  1.00  0.00    -0.350 N 
ATOM     21  HN  UNL     1     -43.510 -49.088   9.858  1.00  0.00     0.166 HD
ENDBRANCH   3  14
TORSDOF 4
ENDMDL
MODEL 3
REMARK VINA RESULT:      -5.6      2.280      2.684
REMARK  4 active torsions:
REMARK  status: ('A' for Active; 'I' for Inactive)
REMARK    1  A    between atoms: C_6  and  O_8 
REMARK    2  A    between atoms: O_8  and  C_9 
REMARK    3  A    between atoms: C_9  and  C_10 
REMARK       I    between atoms: C_10  and  N_12 
REMARK    4  A    between atoms: N_12  and  C_13 
ROOT
HETATM    1  C   UNL     1     -41.181 -51.443  12.171  1.00  0.00     0.246 C 
HETATM    2  O   UNL     1     -39.965 -51.424  12.344  1.00  0.00    -0.271 OA
HETATM    3  N   UNL     1     -41.941 -50.353  11.804  1.00  0.00    -0.310 N 
HETATM    4  H   UNL     1     -42.926 -50.347  12.023  1.00  0.00     0.170 HD
ENDROOT
BRANCH   1   5
HETATM    5  C   UNL     1     -41.993 -52.704  12.418  1.00  0.00     0.271 C 
BRANCH   5   6
HETATM    6  O   UNL     1     -43.365 -52.406  12.207  1.00  0.00    -0.377 OA
BRANCH   6   7
HETATM    7  C   UNL     1     -44.181 -52.544  13.374  1.00  0.00     0.122 C 
HETATM    8  C   UNL     1     -44.839 -53.927  13.454  1.00  0.00     0.032 C 
HETATM    9  C   UNL     1     -45.859 -54.023  14.581  1.00  0.00     0.003 C 
HETATM   10  C   UNL     1     -46.904 -52.917  14.495  1.00  0.00     0.004 C 
HETATM   11  C   UNL     1     -46.284 -51.514  14.420  1.00  0.00    -0.016 C 
HETATM   12  C   UNL     1     -45.684 -51.087  15.763  1.00  0.00     0.010 C 
HETATM   13  C   UNL     1     -45.248 -51.445  13.293  1.00  0.00     0.036 C 
ENDBRANCH   6   7
ENDBRANCH   5   6
ENDBRANCH   1   5
BRANCH   3  14
HETATM   14  C   UNL     1     -41.398 -49.088  11.577  1.00  0.00     0.123 A 
HETATM   15  C   UNL     1     -41.735 -48.299  10.476  1.00  0.00     0.136 A 
HETATM   16  N   UNL     1     -41.164 -47.093  10.231  1.00  0.00    -0.371 N 
HETATM   17  C   UNL     1     -40.219 -46.724  11.118  1.00  0.00     0.104 A 
ATOM     18  HN  UNL     1     -41.429 -46.510   9.436  1.00  0.00     0.164 HD
HETATM   19  C   UNL     1     -39.901 -47.493  12.221  1.00  0.00     0.106 A 
HETATM   20  N   UNL     1     -40.499 -48.674  12.498  1.00  0.00    -0.350 N 
ATOM     21  HN  UNL     1     -40.289 -49.212  13.339  1.00  0.00     0.166 HD
ENDBRANCH   3  14
TORSDOF 4
ENDMDL
MODEL 4
REMARK VINA RESULT:      -5.3      3.674      5.787
REMARK  4 active torsions:
REMARK  status: ('A' for Active; 'I' for Inactive)
REMARK    1  A    between atoms: C_6  and  O_8 
REMARK    2  A    between atoms: O_8  and  C_9 
REMARK    3  A    between atoms: C_9  and  C_10 
REMARK       I    between atoms: C_10  and  N_12 
REMARK    4  A    between atoms: N_12  and  C_13 
ROOT
HETATM    1  C   UNL     1     -41.903 -49.341  11.758  1.00  0.00     0.246 C 
HETATM    2  O   UNL     1     -42.992 -49.219  12.314  1.00  0.00    -0.271 OA
HETATM    3  N   UNL     1     -41.511 -48.643  10.636  1.00  0.00    -0.310 N 
HETATM    4  H   UNL     1     -40.790 -49.032  10.045  1.00  0.00     0.170 HD
ENDROOT
BRANCH   1   5
HETATM    5  C   UNL     1     -40.879 -50.356  12.240  1.00  0.00     0.271 C 
BRANCH   5   6
HETATM    6  O   UNL     1     -40.947 -50.426  13.657  1.00  0.00    -0.377 OA
BRANCH   6   7
HETATM    7  C   UNL     1     -40.796 -51.747  14.186  1.00  0.00     0.122 C 
HETATM    8  C   UNL     1     -39.331 -52.079  14.492  1.00  0.00     0.032 C 
HETATM    9  C   UNL     1     -39.131 -53.540  14.870  1.00  0.00     0.003 C 
HETATM   10  C   UNL     1     -39.703 -54.482  13.817  1.00  0.00     0.004 C 
HETATM   11  C   UNL     1     -41.173 -54.185  13.487  1.00  0.00    -0.016 C 
HETATM   12  C   UNL     1     -42.106 -54.607  14.627  1.00  0.00     0.010 C 
HETATM   13  C   UNL     1     -41.355 -52.707  13.128  1.00  0.00     0.036 C 
ENDBRANCH   6   7
ENDBRANCH   5   6
ENDBRANCH   1   5
BRANCH   3  14
HETATM   14  C   UNL     1     -42.321 -47.699  10.004  1.00  0.00     0.123 A 
HETATM   15  C   UNL     1     -42.598 -46.444  10.548  1.00  0.00     0.136 A 
HETATM   16  N   UNL     1     -43.429 -45.551   9.956  1.00  0.00    -0.371 N 
HETATM   17  C   UNL     1     -43.996 -45.979   8.810  1.00  0.00     0.104 A 
ATOM     18  HN  UNL     1     -43.612 -44.626  10.347  1.00  0.00     0.164 HD
HETATM   19  C   UNL     1     -43.705 -47.212   8.258  1.00  0.00     0.106 A 
HETATM   20  N   UNL     1     -42.841 -48.089   8.818  1.00  0.00    -0.350 N 
ATOM     21  HN  UNL     1     -42.599 -48.977   8.379  1.00  0.00     0.166 HD
ENDBRANCH   3  14
TORSDOF 4
ENDMDL
MODEL 5
REMARK VINA RESULT:      -5.2      3.656      4.761
REMARK  4 active torsions:
REMARK  status: ('A' for Active; 'I' for Inactive)
REMARK    1  A    between atoms: C_6  and  O_8 
REMARK    2  A    between atoms: O_8  and  C_9 
REMARK    3  A    between atoms: C_9  and  C_10 
REMARK       I    between atoms: C_10  and  N_12 
REMARK    4  A    between atoms: N_12  and  C_13 
ROOT
HETATM    1  C   UNL     1     -41.465 -49.742  11.734  1.00  0.00     0.246 C 
HETATM    2  O   UNL     1     -40.576 -49.658  10.890  1.00  0.00    -0.271 OA
HETATM    3  N   UNL     1     -42.581 -48.934  11.785  1.00  0.00    -0.310 N 
HETATM    4  H   UNL     1     -43.062 -48.818  12.665  1.00  0.00     0.170 HD
ENDROOT
BRANCH   1   5
HETATM    5  C   UNL     1     -41.377 -50.741  12.876  1.00  0.00     0.271 C 
BRANCH   5   6
HETATM    6  O   UNL     1     -41.890 -51.986  12.427  1.00  0.00    -0.377 OA
BRANCH   6   7
HETATM    7  C   UNL     1     -42.951 -52.507  13.232  1.00  0.00     0.122 C 
HETATM    8  C   UNL     1     -42.985 -51.864  14.624  1.00  0.00     0.032 C 
HETATM    9  C   UNL     1     -43.980 -52.542  15.556  1.00  0.00     0.003 C 
HETATM   10  C   UNL     1     -43.740 -54.045  15.646  1.00  0.00     0.004 C 
HETATM   11  C   UNL     1     -43.706 -54.727  14.271  1.00  0.00    -0.016 C 
HETATM   12  C   UNL     1     -45.101 -54.809  13.644  1.00  0.00     0.010 C 
HETATM   13  C   UNL     1     -42.713 -54.018  13.344  1.00  0.00     0.036 C 
ENDBRANCH   6   7
ENDBRANCH   5   6
ENDBRANCH   1   5
BRANCH   3  14
HETATM   14  C   UNL     1     -42.829 -47.920  10.859  1.00  0.00     0.123 A 
HETATM   15  C   UNL     1     -43.055 -46.592  11.224  1.00  0.00     0.136 A 
HETATM   16  N   UNL     1     -43.349 -45.620  10.325  1.00  0.00    -0.371 N 
HETATM   17  C   UNL     1     -43.438 -46.039   9.047  1.00  0.00     0.104 A 
ATOM     18  HN  UNL     1     -43.492 -44.646  10.594  1.00  0.00     0.164 HD
HETATM   19  C   UNL     1     -43.191 -47.349   8.681  1.00  0.00     0.106 A 
HETATM   20  N   UNL     1     -42.851 -48.314   9.566  1.00  0.00    -0.350 N 
ATOM     21  HN  UNL     1     -42.628 -49.267   9.280  1.00  0.00     0.166 HD
ENDBRANCH   3  14
TORSDOF 4
ENDMDL
MODEL 6
REMARK VINA RESULT:      -5.1      1.540      2.135
REMARK  4 active torsions:
REMARK  status: ('A' for Active; 'I' for Inactive)
REMARK    1  A    between atoms: C_6  and  O_8 
REMARK    2  A    between atoms: O_8  and  C_9 
REMARK    3  A    between atoms: C_9  and  C_10 
REMARK       I    between atoms: C_10  and  N_12 
REMARK    4  A    between atoms: N_12  and  C_13 
ROOT
HETATM    1  C   UNL     1     -42.570 -52.699  12.387  1.00  0.00     0.246 C 
HETATM    2  O   UNL     1     -41.760 -53.570  12.699  1.00  0.00    -0.271 OA
HETATM    3  N   UNL     1     -42.243 -51.398  12.072  1.00  0.00    -0.310 N 
HETATM    4  H   UNL     1     -42.943 -50.678  12.177  1.00  0.00     0.170 HD
ENDROOT
BRANCH   1   5
HETATM    5  C   UNL     1     -44.064 -52.977  12.383  1.00  0.00     0.271 C 
BRANCH   5   6
HETATM    6  O   UNL     1     -44.362 -53.855  13.458  1.00  0.00    -0.377 OA
BRANCH   6   7
HETATM    7  C   UNL     1     -45.269 -53.313  14.424  1.00  0.00     0.122 C 
HETATM    8  C   UNL     1     -46.072 -52.135  13.859  1.00  0.00     0.032 C 
HETATM    9  C   UNL     1     -46.895 -51.426  14.927  1.00  0.00     0.003 C 
HETATM   10  C   UNL     1     -46.038 -50.994  16.111  1.00  0.00     0.004 C 
HETATM   11  C   UNL     1     -45.222 -52.150  16.708  1.00  0.00    -0.016 C 
HETATM   12  C   UNL     1     -46.109 -53.130  17.481  1.00  0.00     0.010 C 
HETATM   13  C   UNL     1     -44.416 -52.860  15.616  1.00  0.00     0.036 C 
ENDBRANCH   6   7
ENDBRANCH   5   6
ENDBRANCH   1   5
BRANCH   3  14
HETATM   14  C   UNL     1     -40.931 -50.923  12.065  1.00  0.00     0.123 A 
HETATM   15  C   UNL     1     -40.415 -50.122  11.044  1.00  0.00     0.136 A 
HETATM   16  N   UNL     1     -39.123 -49.707  11.015  1.00  0.00    -0.371 N 
HETATM   17  C   UNL     1     -38.362 -50.153  12.034  1.00  0.00     0.104 A 
ATOM     18  HN  UNL     1     -38.756 -49.104  10.279  1.00  0.00     0.164 HD
HETATM   19  C   UNL     1     -38.877 -50.926  13.057  1.00  0.00     0.106 A 
HETATM   20  N   UNL     1     -40.175 -51.305  13.119  1.00  0.00    -0.350 N 
ATOM     21  HN  UNL     1     -40.555 -51.838  13.901  1.00  0.00     0.166 HD
ENDBRANCH   3  14
TORSDOF 4
ENDMDL
MODEL 7
REMARK VINA RESULT:      -5.0      2.787      6.772
REMARK  4 active torsions:
REMARK  status: ('A' for Active; 'I' for Inactive)
REMARK    1  A    between atoms: C_6  and  O_8 
REMARK    2  A    between atoms: O_8  and  C_9 
REMARK    3  A    between atoms: C_9  and  C_10 
REMARK       I    between atoms: C_10  and  N_12 
REMARK    4  A    between atoms: N_12  and  C_13 
ROOT
HETATM    1  C   UNL     1     -41.987 -52.386  12.739  1.00  0.00     0.246 C 
HETATM    2  O   UNL     1     -41.728 -52.594  13.923  1.00  0.00    -0.271 OA
HETATM    3  N   UNL     1     -43.174 -52.718  12.123  1.00  0.00    -0.310 N 
HETATM    4  H   UNL     1     -43.186 -52.848  11.122  1.00  0.00     0.170 HD
ENDROOT
BRANCH   1   5
HETATM    5  C   UNL     1     -40.957 -51.777  11.802  1.00  0.00     0.271 C 
BRANCH   5   6
HETATM    6  O   UNL     1     -41.236 -50.392  11.663  1.00  0.00    -0.377 OA
BRANCH   6   7
HETATM    7  C   UNL     1     -40.138 -49.537  11.997  1.00  0.00     0.122 C 
HETATM    8  C   UNL     1     -38.787 -50.236  11.808  1.00  0.00     0.032 C 
HETATM    9  C   UNL     1     -37.623 -49.411  12.342  1.00  0.00     0.003 C 
HETATM   10  C   UNL     1     -37.837 -49.003  13.795  1.00  0.00     0.004 C 
HETATM   11  C   UNL     1     -39.179 -48.293  14.024  1.00  0.00    -0.016 C 
HETATM   12  C   UNL     1     -39.177 -46.876  13.442  1.00  0.00     0.010 C 
HETATM   13  C   UNL     1     -40.332 -49.131  13.464  1.00  0.00     0.036 C 
ENDBRANCH   6   7
ENDBRANCH   5   6
ENDBRANCH   1   5
BRANCH   3  14
HETATM   14  C   UNL     1     -44.234 -53.332  12.793  1.00  0.00     0.123 A 
HETATM   15  C   UNL     1     -45.535 -52.828  12.784  1.00  0.00     0.136 A 
HETATM   16  N   UNL     1     -46.551 -53.398  13.480  1.00  0.00    -0.371 N 
HETATM   17  C   UNL     1     -46.201 -54.476  14.210  1.00  0.00     0.104 A 
ATOM     18  HN  UNL     1     -47.505 -53.039  13.454  1.00  0.00     0.164 HD
HETATM   19  C   UNL     1     -44.918 -54.990  14.201  1.00  0.00     0.106 A 
HETATM   20  N   UNL     1     -43.911 -54.455  13.472  1.00  0.00    -0.350 N 
ATOM     21  HN  UNL     1     -42.980 -54.868  13.438  1.00  0.00     0.166 HD
ENDBRANCH   3  14
TORSDOF 4
ENDMDL
MODEL 8
REMARK VINA RESULT:      -4.9      4.645      7.070
REMARK  4 active torsions:
REMARK  status: ('A' for Active; 'I' for Inactive)
REMARK    1  A    between atoms: C_6  and  O_8 
REMARK    2  A    between atoms: O_8  and  C_9 
REMARK    3  A    between atoms: C_9  and  C_10 
REMARK       I    between atoms: C_10  and  N_12 
REMARK    4  A    between atoms: N_12  and  C_13 
ROOT
HETATM    1  C   UNL     1     -41.286 -49.363  11.412  1.00  0.00     0.246 C 
HETATM    2  O   UNL     1     -40.080 -49.580  11.503  1.00  0.00    -0.271 OA
HETATM    3  N   UNL     1     -42.275 -50.235  11.812  1.00  0.00    -0.310 N 
HETATM    4  H   UNL     1     -43.192 -50.160  11.397  1.00  0.00     0.170 HD
ENDROOT
BRANCH   1   5
HETATM    5  C   UNL     1     -41.813 -48.091  10.767  1.00  0.00     0.271 C 
BRANCH   5   6
HETATM    6  O   UNL     1     -40.737 -47.173  10.637  1.00  0.00    -0.377 OA
BRANCH   6   7
HETATM    7  C   UNL     1     -40.900 -45.969  11.393  1.00  0.00     0.122 C 
HETATM    8  C   UNL     1     -42.337 -45.439  11.328  1.00  0.00     0.032 C 
HETATM    9  C   UNL     1     -42.481 -44.063  11.963  1.00  0.00     0.003 C 
HETATM   10  C   UNL     1     -41.494 -43.061  11.374  1.00  0.00     0.004 C 
HETATM   11  C   UNL     1     -40.041 -43.554  11.427  1.00  0.00    -0.016 C 
HETATM   12  C   UNL     1     -39.486 -43.529  12.855  1.00  0.00     0.010 C 
HETATM   13  C   UNL     1     -39.922 -44.946  10.801  1.00  0.00     0.036 C 
ENDBRANCH   6   7
ENDBRANCH   5   6
ENDBRANCH   1   5
BRANCH   3  14
HETATM   14  C   UNL     1     -42.007 -51.480  12.383  1.00  0.00     0.123 A 
HETATM   15  C   UNL     1     -42.383 -51.820  13.684  1.00  0.00     0.136 A 
HETATM   16  N   UNL     1     -42.072 -53.012  14.253  1.00  0.00    -0.371 N 
HETATM   17  C   UNL     1     -41.343 -53.837  13.476  1.00  0.00     0.104 A 
ATOM     18  HN  UNL     1     -42.367 -53.264  15.196  1.00  0.00     0.164 HD
HETATM   19  C   UNL     1     -40.990 -53.512  12.179  1.00  0.00     0.106 A 
HETATM   20  N   UNL     1     -41.337 -52.345  11.588  1.00  0.00    -0.350 N 
ATOM     21  HN  UNL     1     -41.110 -52.134  10.617  1.00  0.00     0.166 HD
ENDBRANCH   3  14
TORSDOF 4
ENDMDL
MODEL 9
REMARK VINA RESULT:      -4.9      6.139      9.317
REMARK  4 active torsions:
REMARK  status: ('A' for Active; 'I' for Inactive)
REMARK    1  A    between atoms: C_6  and  O_8 
REMARK    2  A    between atoms: O_8  and  C_9 
REMARK    3  A    between atoms: C_9  and  C_10 
REMARK       I    between atoms: C_10  and  N_12 
REMARK    4  A    between atoms: N_12  and  C_13 
ROOT
HETATM    1  C   UNL     1     -45.761 -55.002  18.655  1.00  0.00     0.246 C 
HETATM    2  O   UNL     1     -44.849 -55.795  18.878  1.00  0.00    -0.271 OA
HETATM    3  N   UNL     1     -47.026 -55.085  19.197  1.00  0.00    -0.310 N 
HETATM    4  H   UNL     1     -47.795 -54.642  18.716  1.00  0.00     0.170 HD
ENDROOT
BRANCH   1   5
HETATM    5  C   UNL     1     -45.587 -53.854  17.674  1.00  0.00     0.271 C 
BRANCH   5   6
HETATM    6  O   UNL     1     -45.938 -54.312  16.377  1.00  0.00    -0.377 OA
BRANCH   6   7
HETATM    7  C   UNL     1     -45.637 -53.387  15.327  1.00  0.00     0.122 C 
HETATM    8  C   UNL     1     -46.691 -52.279  15.219  1.00  0.00     0.032 C 
HETATM    9  C   UNL     1     -46.492 -51.402  13.990  1.00  0.00     0.003 C 
HETATM   10  C   UNL     1     -46.423 -52.228  12.710  1.00  0.00     0.004 C 
HETATM   11  C   UNL     1     -45.373 -53.346  12.777  1.00  0.00    -0.016 C 
HETATM   12  C   UNL     1     -43.947 -52.789  12.705  1.00  0.00     0.010 C 
HETATM   13  C   UNL     1     -45.580 -54.203  14.029  1.00  0.00     0.036 C 
ENDBRANCH   6   7
ENDBRANCH   5   6
ENDBRANCH   1   5
BRANCH   3  14
HETATM   14  C   UNL     1     -47.410 -56.093  20.083  1.00  0.00     0.123 A 
HETATM   15  C   UNL     1     -47.737 -55.852  21.418  1.00  0.00     0.136 A 
HETATM   16  N   UNL     1     -48.058 -56.842  22.288  1.00  0.00    -0.371 N 
HETATM   17  C   UNL     1     -48.007 -58.086  21.774  1.00  0.00     0.104 A 
ATOM     18  HN  UNL     1     -48.318 -56.659  23.258  1.00  0.00     0.164 HD
HETATM   19  C   UNL     1     -47.706 -58.325  20.446  1.00  0.00     0.106 A 
HETATM   20  N   UNL     1     -47.432 -57.340  19.560  1.00  0.00    -0.350 N 
ATOM     21  HN  UNL     1     -47.254 -57.524  18.573  1.00  0.00     0.166 HD
ENDBRANCH   3  14
TORSDOF 4
ENDMDL
