MODEL 1
REMARK VINA RESULT:      -7.1      0.000      0.000
REMARK  5 active torsions:
REMARK  status: ('A' for Active; 'I' for Inactive)
REMARK       I    between atoms: N_1  and  C_2 
REMARK    1  A    between atoms: C_2  and  C_4 
REMARK    2  A    between atoms: C_4  and  O_5 
REMARK    3  A    between atoms: O_5  and  C_6 
REMARK    4  A    between atoms: N_8  and  C_10 
REMARK    5  A    between atoms: C_13  and  C_19 
ROOT
HETATM    1  C   UNL     1     -43.062 -47.476  10.334  1.00  0.00     0.125 A 
HETATM    2  N   UNL     1     -44.224 -48.118  10.039  1.00  0.00    -0.337 N 
ATOM      3  HN  UNL     1     -44.371 -49.074  10.362  1.00  0.00     0.167 HD
HETATM    4  C   UNL     1     -45.193 -47.488   9.312  1.00  0.00     0.118 A 
HETATM    5  C   UNL     1     -45.028 -46.188   8.849  1.00  0.00     0.036 A 
HETATM    6  C   UNL     1     -43.850 -45.518   9.157  1.00  0.00     0.029 A 
HETATM    7  C   UNL     1     -42.857 -46.157   9.914  1.00  0.00     0.088 A 
HETATM    8  C   UNL     1     -41.691 -45.408  10.260  1.00  0.00     0.103 C 
HETATM    9  N   UNL     1     -40.751 -44.777  10.519  1.00  0.00    -0.191 NA
ENDROOT
BRANCH   1  10
HETATM   10  N   UNL     1     -42.128 -48.191  11.101  1.00  0.00    -0.361 N 
HETATM   11  C   UNL     1     -41.574 -47.900  12.387  1.00  0.00     0.158 C 
HETATM   12  C   UNL     1     -40.227 -48.461  11.907  1.00  0.00     0.158 C 
HETATM   13  C   UNL     1     -40.963 -48.871  10.624  1.00  0.00     0.158 C 
BRANCH  12  14
HETATM   14  O   UNL     1     -39.639 -49.510  12.718  1.00  0.00    -0.373 OA
BRANCH  14  15
HETATM   15  C   UNL     1     -38.217 -49.464  12.837  1.00  0.00     0.270 C 
BRANCH  15  16
HETATM   16  C   UNL     1     -37.514 -50.474  11.932  1.00  0.00     0.239 C 
HETATM   17  N   UNL     1     -37.484 -50.148  10.608  1.00  0.00    -0.368 N 
HETATM   18  H   UNL     1     -37.019 -50.763   9.955  1.00  0.00     0.159 HD
HETATM   19  H   UNL     1     -37.868 -49.264  10.295  1.00  0.00     0.159 HD
HETATM   20  O   UNL     1     -37.016 -51.517  12.345  1.00  0.00    -0.271 OA
ENDBRANCH  15  16
ENDBRANCH  14  15
ENDBRANCH  12  14
ENDBRANCH   1  10
BRANCH   4  21
HETATM   21  C   UNL     1     -46.504 -48.209   9.012  1.00  0.00     0.432 C 
HETATM   22  F   UNL     1     -46.770 -49.261   9.835  1.00  0.00    -0.165 F 
HETATM   23  F   UNL     1     -47.583 -47.377   9.106  1.00  0.00    -0.165 F 
HETATM   24  F   UNL     1     -46.541 -48.709   7.742  1.00  0.00    -0.165 F 
ENDBRANCH   4  21
TORSDOF 5
ENDMDL
MODEL 2
REMARK VINA RESULT:      -7.0      1.788      1.977
REMARK  5 active torsions:
REMARK  status: ('A' for Active; 'I' for Inactive)
REMARK       I    between atoms: N_1  and  C_2 
REMARK    1  A    between atoms: C_2  and  C_4 
REMARK    2  A    between atoms: C_4  and  O_5 
REMARK    3  A    between atoms: O_5  and  C_6 
REMARK    4  A    between atoms: N_8  and  C_10 
REMARK    5  A    between atoms: C_13  and  C_19 
ROOT
HETATM    1  C   UNL     1     -43.253 -47.456  10.396  1.00  0.00     0.125 A 
HETATM    2  N   UNL     1     -44.393 -48.116  10.061  1.00  0.00    -0.337 N 
ATOM      3  HN  UNL     1     -44.544 -49.069  10.393  1.00  0.00     0.167 HD
HETATM    4  C   UNL     1     -45.337 -47.510   9.283  1.00  0.00     0.118 A 
HETATM    5  C   UNL     1     -45.166 -46.216   8.807  1.00  0.00     0.036 A 
HETATM    6  C   UNL     1     -44.010 -45.526   9.154  1.00  0.00     0.029 A 
HETATM    7  C   UNL     1     -43.045 -46.142   9.964  1.00  0.00     0.088 A 
HETATM    8  C   UNL     1     -41.903 -45.374  10.349  1.00  0.00     0.103 C 
HETATM    9  N   UNL     1     -40.982 -44.728  10.638  1.00  0.00    -0.191 NA
ENDROOT
BRANCH   1  10
HETATM   10  N   UNL     1     -42.345 -48.148  11.215  1.00  0.00    -0.361 N 
HETATM   11  C   UNL     1     -41.119 -48.805  10.884  1.00  0.00     0.158 C 
HETATM   12  C   UNL     1     -41.455 -49.897  11.910  1.00  0.00     0.158 C 
HETATM   13  C   UNL     1     -42.661 -49.030  12.296  1.00  0.00     0.158 C 
BRANCH  12  14
HETATM   14  O   UNL     1     -40.453 -50.158  12.926  1.00  0.00    -0.373 OA
BRANCH  14  15
HETATM   15  C   UNL     1     -39.803 -51.426  12.831  1.00  0.00     0.270 C 
BRANCH  15  16
HETATM   16  C   UNL     1     -40.788 -52.592  12.756  1.00  0.00     0.239 C 
HETATM   17  N   UNL     1     -40.821 -53.251  11.563  1.00  0.00    -0.368 N 
HETATM   18  H   UNL     1     -41.436 -54.044  11.449  1.00  0.00     0.159 HD
HETATM   19  H   UNL     1     -40.184 -52.986  10.820  1.00  0.00     0.159 HD
HETATM   20  O   UNL     1     -41.516 -52.919  13.688  1.00  0.00    -0.271 OA
ENDBRANCH  15  16
ENDBRANCH  14  15
ENDBRANCH  12  14
ENDBRANCH   1  10
BRANCH   4  21
HETATM   21  C   UNL     1     -46.625 -48.251   8.938  1.00  0.00     0.432 C 
HETATM   22  F   UNL     1     -46.879 -49.335   9.721  1.00  0.00    -0.165 F 
HETATM   23  F   UNL     1     -47.725 -47.448   9.042  1.00  0.00    -0.165 F 
HETATM   24  F   UNL     1     -46.631 -48.709   7.652  1.00  0.00    -0.165 F 
ENDBRANCH   4  21
TORSDOF 5
ENDMDL
MODEL 3
REMARK VINA RESULT:      -6.3      4.668      6.056
REMARK  5 active torsions:
REMARK  status: ('A' for Active; 'I' for Inactive)
REMARK       I    between atoms: N_1  and  C_2 
REMARK    1  A    between atoms: C_2  and  C_4 
REMARK    2  A    between atoms: C_4  and  O_5 
REMARK    3  A    between atoms: O_5  and  C_6 
REMARK    4  A    between atoms: N_8  and  C_10 
REMARK    5  A    between atoms: C_13  and  C_19 
ROOT
HETATM    1  C   UNL     1     -42.797 -52.277  13.409  1.00  0.00     0.125 A 
HETATM    2  N   UNL     1     -44.097 -51.880  13.377  1.00  0.00    -0.337 N 
ATOM      3  HN  UNL     1     -44.328 -50.922  13.114  1.00  0.00     0.167 HD
HETATM    4  C   UNL     1     -45.093 -52.758  13.695  1.00  0.00     0.118 A 
HETATM    5  C   UNL     1     -44.818 -54.069  14.063  1.00  0.00     0.036 A 
HETATM    6  C   UNL     1     -43.493 -54.489  14.086  1.00  0.00     0.029 A 
HETATM    7  C   UNL     1     -42.468 -53.594  13.747  1.00  0.00     0.088 A 
HETATM    8  C   UNL     1     -41.127 -54.087  13.722  1.00  0.00     0.103 C 
HETATM    9  N   UNL     1     -40.048 -54.514  13.719  1.00  0.00    -0.191 NA
ENDROOT
BRANCH   1  10
HETATM   10  N   UNL     1     -41.838 -51.315  13.049  1.00  0.00    -0.361 N 
HETATM   11  C   UNL     1     -40.943 -51.276  11.934  1.00  0.00     0.158 C 
HETATM   12  C   UNL     1     -39.872 -50.660  12.846  1.00  0.00     0.158 C 
HETATM   13  C   UNL     1     -40.960 -50.605  13.927  1.00  0.00     0.158 C 
BRANCH  12  14
HETATM   14  O   UNL     1     -39.290 -49.407  12.403  1.00  0.00    -0.373 OA
BRANCH  14  15
HETATM   15  C   UNL     1     -37.863 -49.372  12.382  1.00  0.00     0.270 C 
BRANCH  15  16
HETATM   16  C   UNL     1     -37.257 -50.459  11.495  1.00  0.00     0.239 C 
HETATM   17  N   UNL     1     -37.224 -50.172  10.162  1.00  0.00    -0.368 N 
HETATM   18  H   UNL     1     -36.820 -50.839   9.520  1.00  0.00     0.159 HD
HETATM   19  H   UNL     1     -37.543 -49.269   9.830  1.00  0.00     0.159 HD
HETATM   20  O   UNL     1     -36.836 -51.526  11.930  1.00  0.00    -0.271 OA
ENDBRANCH  15  16
ENDBRANCH  14  15
ENDBRANCH  12  14
ENDBRANCH   1  10
BRANCH   4  21
HETATM   21  C   UNL     1     -46.549 -52.308  13.627  1.00  0.00     0.432 C 
HETATM   22  F   UNL     1     -47.054 -52.217  12.366  1.00  0.00    -0.165 F 
HETATM   23  F   UNL     1     -47.381 -53.153  14.304  1.00  0.00    -0.165 F 
HETATM   24  F   UNL     1     -46.739 -51.081  14.195  1.00  0.00    -0.165 F 
ENDBRANCH   4  21
TORSDOF 5
ENDMDL
MODEL 4
REMARK VINA RESULT:      -6.1      3.616      4.446
REMARK  5 active torsions:
REMARK  status: ('A' for Active; 'I' for Inactive)
REMARK       I    between atoms: N_1  and  C_2 
REMARK    1  A    between atoms: C_2  and  C_4 
REMARK    2  A    between atoms: C_4  and  O_5 
REMARK    3  A    between atoms: O_5  and  C_6 
REMARK    4  A    between atoms: N_8  and  C_10 
REMARK    5  A    between atoms: C_13  and  C_19 
ROOT
HETATM    1  C   UNL     1     -41.652 -48.623  11.450  1.00  0.00     0.125 A 
HETATM    2  N   UNL     1     -42.622 -48.533  10.502  1.00  0.00    -0.337 N 
ATOM      3  HN  UNL     1     -43.233 -49.330  10.324  1.00  0.00     0.167 HD
HETATM    4  C   UNL     1     -42.783 -47.381   9.788  1.00  0.00     0.118 A 
HETATM    5  C   UNL     1     -41.968 -46.275   9.997  1.00  0.00     0.036 A 
HETATM    6  C   UNL     1     -40.981 -46.351  10.974  1.00  0.00     0.029 A 
HETATM    7  C   UNL     1     -40.822 -47.529  11.718  1.00  0.00     0.088 A 
HETATM    8  C   UNL     1     -39.838 -47.541  12.754  1.00  0.00     0.103 C 
HETATM    9  N   UNL     1     -39.025 -47.522  13.583  1.00  0.00    -0.191 NA
ENDROOT
BRANCH   1  10
HETATM   10  N   UNL     1     -41.569 -49.838  12.150  1.00  0.00    -0.361 N 
HETATM   11  C   UNL     1     -40.869 -51.043  11.828  1.00  0.00     0.158 C 
HETATM   12  C   UNL     1     -42.039 -51.850  12.409  1.00  0.00     0.158 C 
HETATM   13  C   UNL     1     -42.626 -50.502  12.849  1.00  0.00     0.158 C 
BRANCH  12  14
HETATM   14  O   UNL     1     -41.708 -52.816  13.440  1.00  0.00    -0.373 OA
BRANCH  14  15
HETATM   15  C   UNL     1     -42.325 -54.096  13.297  1.00  0.00     0.270 C 
BRANCH  15  16
HETATM   16  C   UNL     1     -43.850 -54.030  13.374  1.00  0.00     0.239 C 
HETATM   17  N   UNL     1     -44.357 -53.684  14.592  1.00  0.00    -0.368 N 
HETATM   18  H   UNL     1     -45.357 -53.604  14.709  1.00  0.00     0.159 HD
HETATM   19  H   UNL     1     -43.731 -53.447  15.352  1.00  0.00     0.159 HD
HETATM   20  O   UNL     1     -44.584 -54.279  12.423  1.00  0.00    -0.271 OA
ENDBRANCH  15  16
ENDBRANCH  14  15
ENDBRANCH  12  14
ENDBRANCH   1  10
BRANCH   4  21
HETATM   21  C   UNL     1     -43.894 -47.283   8.747  1.00  0.00     0.432 C 
HETATM   22  F   UNL     1     -43.577 -47.808   7.532  1.00  0.00    -0.165 F 
HETATM   23  F   UNL     1     -45.032 -47.922   9.147  1.00  0.00    -0.165 F 
HETATM   24  F   UNL     1     -44.269 -45.991   8.510  1.00  0.00    -0.165 F 
ENDBRANCH   4  21
TORSDOF 5
ENDMDL
MODEL 5
REMARK VINA RESULT:      -6.1      2.893      3.286
REMARK  5 active torsions:
REMARK  status: ('A' for Active; 'I' for Inactive)
REMARK       I    between atoms: N_1  and  C_2 
REMARK    1  A    between atoms: C_2  and  C_4 
REMARK    2  A    between atoms: C_4  and  O_5 
REMARK    3  A    between atoms: O_5  and  C_6 
REMARK    4  A    between atoms: N_8  and  C_10 
REMARK    5  A    between atoms: C_13  and  C_19 
ROOT
HETATM    1  C   UNL     1     -41.709 -48.184  11.241  1.00  0.00     0.125 A 
HETATM    2  N   UNL     1     -42.786 -48.337  10.425  1.00  0.00    -0.337 N 
ATOM      3  HN  UNL     1     -43.142 -49.272  10.225  1.00  0.00     0.167 HD
HETATM    4  C   UNL     1     -43.393 -47.246   9.873  1.00  0.00     0.118 A 
HETATM    5  C   UNL     1     -42.933 -45.957  10.117  1.00  0.00     0.036 A 
HETATM    6  C   UNL     1     -41.841 -45.788  10.960  1.00  0.00     0.029 A 
HETATM    7  C   UNL     1     -41.224 -46.906  11.539  1.00  0.00     0.088 A 
HETATM    8  C   UNL     1     -40.146 -46.681  12.449  1.00  0.00     0.103 C 
HETATM    9  N   UNL     1     -39.267 -46.467  13.177  1.00  0.00    -0.191 NA
ENDROOT
BRANCH   1  10
HETATM   10  N   UNL     1     -41.159 -49.358  11.780  1.00  0.00    -0.361 N 
HETATM   11  C   UNL     1     -40.119 -50.205  11.282  1.00  0.00     0.158 C 
HETATM   12  C   UNL     1     -40.891 -51.423  11.809  1.00  0.00     0.158 C 
HETATM   13  C   UNL     1     -41.864 -50.416  12.437  1.00  0.00     0.158 C 
BRANCH  12  14
HETATM   14  O   UNL     1     -40.166 -52.313  12.696  1.00  0.00    -0.373 OA
BRANCH  14  15
HETATM   15  C   UNL     1     -40.732 -53.614  12.851  1.00  0.00     0.270 C 
BRANCH  15  16
HETATM   16  C   UNL     1     -40.072 -54.417  13.971  1.00  0.00     0.239 C 
HETATM   17  N   UNL     1     -38.842 -54.926  13.677  1.00  0.00    -0.368 N 
HETATM   18  H   UNL     1     -38.341 -55.453  14.379  1.00  0.00     0.159 HD
HETATM   19  H   UNL     1     -38.410 -54.721  12.784  1.00  0.00     0.159 HD
HETATM   20  O   UNL     1     -40.601 -54.611  15.062  1.00  0.00    -0.271 OA
ENDBRANCH  15  16
ENDBRANCH  14  15
ENDBRANCH  12  14
ENDBRANCH   1  10
BRANCH   4  21
HETATM   21  C   UNL     1     -44.618 -47.429   8.983  1.00  0.00     0.432 C 
HETATM   22  F   UNL     1     -44.380 -48.112   7.829  1.00  0.00    -0.165 F 
HETATM   23  F   UNL     1     -45.620 -48.103   9.619  1.00  0.00    -0.165 F 
HETATM   24  F   UNL     1     -45.167 -46.237   8.605  1.00  0.00    -0.165 F 
ENDBRANCH   4  21
TORSDOF 5
ENDMDL
MODEL 6
REMARK VINA RESULT:      -6.1      3.902      5.806
REMARK  5 active torsions:
REMARK  status: ('A' for Active; 'I' for Inactive)
REMARK       I    between atoms: N_1  and  C_2 
REMARK    1  A    between atoms: C_2  and  C_4 
REMARK    2  A    between atoms: C_4  and  O_5 
REMARK    3  A    between atoms: O_5  and  C_6 
REMARK    4  A    between atoms: N_8  and  C_10 
REMARK    5  A    between atoms: C_13  and  C_19 
ROOT
HETATM    1  C   UNL     1     -42.867 -50.861  12.859  1.00  0.00     0.125 A 
HETATM    2  N   UNL     1     -44.224 -50.917  12.916  1.00  0.00    -0.337 N 
ATOM      3  HN  UNL     1     -44.768 -50.054  12.911  1.00  0.00     0.167 HD
HETATM    4  C   UNL     1     -44.862 -52.123  12.981  1.00  0.00     0.118 A 
HETATM    5  C   UNL     1     -44.155 -53.320  12.996  1.00  0.00     0.036 A 
HETATM    6  C   UNL     1     -42.768 -53.274  12.923  1.00  0.00     0.029 A 
HETATM    7  C   UNL     1     -42.111 -52.038  12.844  1.00  0.00     0.088 A 
HETATM    8  C   UNL     1     -40.689 -52.041  12.707  1.00  0.00     0.103 C 
HETATM    9  N   UNL     1     -39.533 -52.076  12.604  1.00  0.00    -0.191 NA
ENDROOT
BRANCH   1  10
HETATM   10  N   UNL     1     -42.295 -49.581  12.775  1.00  0.00    -0.361 N 
HETATM   11  C   UNL     1     -42.434 -48.449  13.639  1.00  0.00     0.158 C 
HETATM   12  C   UNL     1     -42.406 -47.534  12.407  1.00  0.00     0.158 C 
HETATM   13  C   UNL     1     -42.103 -48.799  11.592  1.00  0.00     0.158 C 
BRANCH  12  14
HETATM   14  O   UNL     1     -41.414 -46.475  12.411  1.00  0.00    -0.373 OA
BRANCH  14  15
HETATM   15  C   UNL     1     -41.738 -45.333  11.618  1.00  0.00     0.270 C 
BRANCH  15  16
HETATM   16  C   UNL     1     -40.607 -44.929  10.673  1.00  0.00     0.239 C 
HETATM   17  N   UNL     1     -39.848 -45.958  10.198  1.00  0.00    -0.368 N 
HETATM   18  H   UNL     1     -39.095 -45.765   9.555  1.00  0.00     0.159 HD
HETATM   19  H   UNL     1     -40.083 -46.914  10.441  1.00  0.00     0.159 HD
HETATM   20  O   UNL     1     -40.375 -43.765  10.360  1.00  0.00    -0.271 OA
ENDBRANCH  15  16
ENDBRANCH  14  15
ENDBRANCH  12  14
ENDBRANCH   1  10
BRANCH   4  21
HETATM   21  C   UNL     1     -46.386 -52.173  13.016  1.00  0.00     0.432 C 
HETATM   22  F   UNL     1     -46.977 -52.231  11.791  1.00  0.00    -0.165 F 
HETATM   23  F   UNL     1     -46.850 -53.255  13.708  1.00  0.00    -0.165 F 
HETATM   24  F   UNL     1     -46.926 -51.085  13.641  1.00  0.00    -0.165 F 
ENDBRANCH   4  21
TORSDOF 5
ENDMDL
MODEL 7
REMARK VINA RESULT:      -5.9      4.181      6.077
REMARK  5 active torsions:
REMARK  status: ('A' for Active; 'I' for Inactive)
REMARK       I    between atoms: N_1  and  C_2 
REMARK    1  A    between atoms: C_2  and  C_4 
REMARK    2  A    between atoms: C_4  and  O_5 
REMARK    3  A    between atoms: O_5  and  C_6 
REMARK    4  A    between atoms: N_8  and  C_10 
REMARK    5  A    between atoms: C_13  and  C_19 
ROOT
HETATM    1  C   UNL     1     -42.348 -51.937  13.013  1.00  0.00     0.125 A 
HETATM    2  N   UNL     1     -43.667 -51.643  12.867  1.00  0.00    -0.337 N 
ATOM      3  HN  UNL     1     -43.954 -50.687  12.658  1.00  0.00     0.167 HD
HETATM    4  C   UNL     1     -44.610 -52.623  12.998  1.00  0.00     0.118 A 
HETATM    5  C   UNL     1     -44.259 -53.936  13.287  1.00  0.00     0.036 A 
HETATM    6  C   UNL     1     -42.912 -54.250  13.425  1.00  0.00     0.029 A 
HETATM    7  C   UNL     1     -41.941 -53.248  13.279  1.00  0.00     0.088 A 
HETATM    8  C   UNL     1     -40.566 -53.629  13.366  1.00  0.00     0.103 C 
HETATM    9  N   UNL     1     -39.459 -53.967  13.450  1.00  0.00    -0.191 NA
ENDROOT
BRANCH   1  10
HETATM   10  N   UNL     1     -41.446 -50.873  12.843  1.00  0.00    -0.361 N 
HETATM   11  C   UNL     1     -40.838 -50.014  13.812  1.00  0.00     0.158 C 
HETATM   12  C   UNL     1     -40.971 -48.846  12.825  1.00  0.00     0.158 C 
HETATM   13  C   UNL     1     -41.466 -49.885  11.809  1.00  0.00     0.158 C 
BRANCH  12  14
HETATM   14  O   UNL     1     -39.753 -48.120  12.516  1.00  0.00    -0.373 OA
BRANCH  14  15
HETATM   15  C   UNL     1     -39.834 -46.703  12.664  1.00  0.00     0.270 C 
BRANCH  15  16
HETATM   16  C   UNL     1     -40.541 -46.024  11.492  1.00  0.00     0.239 C 
HETATM   17  N   UNL     1     -39.901 -46.118  10.292  1.00  0.00    -0.368 N 
HETATM   18  H   UNL     1     -40.322 -45.707   9.471  1.00  0.00     0.159 HD
HETATM   19  H   UNL     1     -39.043 -46.652  10.216  1.00  0.00     0.159 HD
HETATM   20  O   UNL     1     -41.605 -45.421  11.605  1.00  0.00    -0.271 OA
ENDBRANCH  15  16
ENDBRANCH  14  15
ENDBRANCH  12  14
ENDBRANCH   1  10
BRANCH   4  21
HETATM   21  C   UNL     1     -46.084 -52.286  12.802  1.00  0.00     0.432 C 
HETATM   22  F   UNL     1     -46.538 -52.456  11.530  1.00  0.00    -0.165 F 
HETATM   23  F   UNL     1     -46.896 -53.046  13.595  1.00  0.00    -0.165 F 
HETATM   24  F   UNL     1     -46.368 -50.991  13.130  1.00  0.00    -0.165 F 
ENDBRANCH   4  21
TORSDOF 5
ENDMDL
MODEL 8
REMARK VINA RESULT:      -5.7      3.984      6.296
REMARK  5 active torsions:
REMARK  status: ('A' for Active; 'I' for Inactive)
REMARK       I    between atoms: N_1  and  C_2 
REMARK    1  A    between atoms: C_2  and  C_4 
REMARK    2  A    between atoms: C_4  and  O_5 
REMARK    3  A    between atoms: O_5  and  C_6 
REMARK    4  A    between atoms: N_8  and  C_10 
REMARK    5  A    between atoms: C_13  and  C_19 
ROOT
HETATM    1  C   UNL     1     -41.960 -50.885  12.387  1.00  0.00     0.125 A 
HETATM    2  N   UNL     1     -43.209 -51.409  12.503  1.00  0.00    -0.337 N 
ATOM      3  HN  UNL     1     -44.025 -50.816  12.347  1.00  0.00     0.167 HD
HETATM    4  C   UNL     1     -43.377 -52.724  12.827  1.00  0.00     0.118 A 
HETATM    5  C   UNL     1     -42.292 -53.562  13.053  1.00  0.00     0.036 A 
HETATM    6  C   UNL     1     -41.010 -53.041  12.924  1.00  0.00     0.029 A 
HETATM    7  C   UNL     1     -40.835 -51.693  12.578  1.00  0.00     0.088 A 
HETATM    8  C   UNL     1     -39.500 -51.216  12.394  1.00  0.00     0.103 C 
HETATM    9  N   UNL     1     -38.404 -50.856  12.259  1.00  0.00    -0.191 NA
ENDROOT
BRANCH   1  10
HETATM   10  N   UNL     1     -41.879 -49.528  12.032  1.00  0.00    -0.361 N 
HETATM   11  C   UNL     1     -42.724 -48.429  12.385  1.00  0.00     0.158 C 
HETATM   12  C   UNL     1     -42.534 -47.859  10.972  1.00  0.00     0.158 C 
HETATM   13  C   UNL     1     -41.523 -48.993  10.753  1.00  0.00     0.158 C 
BRANCH  12  14
HETATM   14  O   UNL     1     -42.052 -46.493  10.886  1.00  0.00    -0.373 OA
BRANCH  14  15
HETATM   15  C   UNL     1     -42.889 -45.597  10.154  1.00  0.00     0.270 C 
BRANCH  15  16
HETATM   16  C   UNL     1     -43.649 -46.287   9.023  1.00  0.00     0.239 C 
HETATM   17  N   UNL     1     -42.900 -46.612   7.930  1.00  0.00    -0.368 N 
HETATM   18  H   UNL     1     -43.335 -47.087   7.153  1.00  0.00     0.159 HD
HETATM   19  H   UNL     1     -41.902 -46.436   7.930  1.00  0.00     0.159 HD
HETATM   20  O   UNL     1     -44.851 -46.529   9.069  1.00  0.00    -0.271 OA
ENDBRANCH  15  16
ENDBRANCH  14  15
ENDBRANCH  12  14
ENDBRANCH   1  10
BRANCH   4  21
HETATM   21  C   UNL     1     -44.784 -53.307  12.926  1.00  0.00     0.432 C 
HETATM   22  F   UNL     1     -44.835 -54.667  12.889  1.00  0.00    -0.165 F 
HETATM   23  F   UNL     1     -45.414 -52.939  14.080  1.00  0.00    -0.165 F 
HETATM   24  F   UNL     1     -45.595 -52.874  11.916  1.00  0.00    -0.165 F 
ENDBRANCH   4  21
TORSDOF 5
ENDMDL
MODEL 9
REMARK VINA RESULT:      -5.5      5.421      6.738
REMARK  5 active torsions:
REMARK  status: ('A' for Active; 'I' for Inactive)
REMARK       I    between atoms: N_1  and  C_2 
REMARK    1  A    between atoms: C_2  and  C_4 
REMARK    2  A    between atoms: C_4  and  O_5 
REMARK    3  A    between atoms: O_5  and  C_6 
REMARK    4  A    between atoms: N_8  and  C_10 
REMARK    5  A    between atoms: C_13  and  C_19 
ROOT
HETATM    1  C   UNL     1     -44.780 -50.945  14.337  1.00  0.00     0.125 A 
HETATM    2  N   UNL     1     -44.558 -50.474  15.593  1.00  0.00    -0.337 N 
ATOM      3  HN  UNL     1     -43.663 -50.043  15.823  1.00  0.00     0.167 HD
HETATM    4  C   UNL     1     -45.529 -50.575  16.548  1.00  0.00     0.118 A 
HETATM    5  C   UNL     1     -46.760 -51.160  16.275  1.00  0.00     0.036 A 
HETATM    6  C   UNL     1     -47.002 -51.633  14.991  1.00  0.00     0.029 A 
HETATM    7  C   UNL     1     -46.011 -51.519  14.005  1.00  0.00     0.088 A 
HETATM    8  C   UNL     1     -46.326 -51.960  12.683  1.00  0.00     0.103 C 
HETATM    9  N   UNL     1     -46.609 -52.335  11.620  1.00  0.00    -0.191 NA
ENDROOT
BRANCH   1  10
HETATM   10  N   UNL     1     -43.734 -50.783  13.414  1.00  0.00    -0.361 N 
HETATM   11  C   UNL     1     -42.501 -51.496  13.280  1.00  0.00     0.158 C 
HETATM   12  C   UNL     1     -41.809 -50.181  12.897  1.00  0.00     0.158 C 
HETATM   13  C   UNL     1     -43.208 -49.549  12.917  1.00  0.00     0.158 C 
BRANCH  12  14
HETATM   14  O   UNL     1     -41.079 -50.176  11.644  1.00  0.00    -0.373 OA
BRANCH  14  15
HETATM   15  C   UNL     1     -39.868 -49.420  11.646  1.00  0.00     0.270 C 
BRANCH  15  16
HETATM   16  C   UNL     1     -38.620 -50.301  11.629  1.00  0.00     0.239 C 
HETATM   17  N   UNL     1     -37.709 -50.003  10.659  1.00  0.00    -0.368 N 
HETATM   18  H   UNL     1     -36.852 -50.534  10.600  1.00  0.00     0.159 HD
HETATM   19  H   UNL     1     -37.864 -49.212  10.045  1.00  0.00     0.159 HD
HETATM   20  O   UNL     1     -38.437 -51.226  12.415  1.00  0.00    -0.271 OA
ENDBRANCH  15  16
ENDBRANCH  14  15
ENDBRANCH  12  14
ENDBRANCH   1  10
BRANCH   4  21
HETATM   21  C   UNL     1     -45.279 -50.016  17.945  1.00  0.00     0.432 C 
HETATM   22  F   UNL     1     -45.051 -48.674  17.984  1.00  0.00    -0.165 F 
HETATM   23  F   UNL     1     -46.331 -50.242  18.786  1.00  0.00    -0.165 F 
HETATM   24  F   UNL     1     -44.201 -50.596  18.550  1.00  0.00    -0.165 F 
ENDBRANCH   4  21
TORSDOF 5
ENDMDL
