MODEL 1
REMARK VINA RESULT:      -6.2      0.000      0.000
REMARK  6 active torsions:
REMARK  status: ('A' for Active; 'I' for Inactive)
REMARK    1  A    between atoms: C_2  and  O_3 
REMARK    2  A    between atoms: C_2  and  C_9 
REMARK    3  A    between atoms: O_3  and  C_4 
REMARK    4  A    between atoms: C_4  and  C_5 
REMARK       I    between atoms: C_9  and  N_11 
REMARK    5  A    between atoms: N_11  and  C_12 
REMARK    6  A    between atoms: C_18  and  N_19 
ROOT
HETATM    1  C   UNL     1     -40.947 -47.151  11.103  1.00  0.00     0.079 A 
HETATM    2  C   UNL     1     -40.057 -46.082  11.192  1.00  0.00     0.035 A 
HETATM    3  C   UNL     1     -39.298 -45.947  12.342  1.00  0.00     0.019 A 
HETATM    4  C   UNL     1     -39.439 -46.909  13.330  1.00  0.00     0.090 A 
HETATM    5  N   UNL     1     -40.267 -47.980  13.249  1.00  0.00    -0.351 N 
ATOM      6  HN  UNL     1     -40.316 -48.666  14.002  1.00  0.00     0.166 HD
HETATM    7  C   UNL     1     -41.026 -48.108  12.136  1.00  0.00     0.130 A 
ENDROOT
BRANCH   1   8
HETATM    8  N   UNL     1     -41.802 -47.221   9.983  1.00  0.00    -0.322 N 
HETATM    9  C   UNL     1     -42.784 -46.242   9.826  1.00  0.00     0.251 C 
HETATM   10  O   UNL     1     -42.938 -45.294  10.587  1.00  0.00    -0.270 OA
HETATM   11  H   UNL     1     -41.384 -47.578   9.141  1.00  0.00     0.169 HD
BRANCH   9  12
HETATM   12  C   UNL     1     -43.646 -46.444   8.554  1.00  0.00     0.209 C 
HETATM   13  C   UNL     1     -43.195 -47.736   7.869  1.00  0.00     0.050 C 
BRANCH  12  14
HETATM   14  O   UNL     1     -45.061 -46.545   8.734  1.00  0.00    -0.368 OA
BRANCH  14  15
HETATM   15  C   UNL     1     -45.493 -47.678   9.492  1.00  0.00     0.286 C 
BRANCH  15  16
HETATM   16  C   UNL     1     -46.710 -48.417   8.927  1.00  0.00     0.408 C 
HETATM   17  F   UNL     1     -46.549 -48.824   7.653  1.00  0.00    -0.169 F 
HETATM   18  F   UNL     1     -46.978 -49.511   9.681  1.00  0.00    -0.169 F 
HETATM   19  F   UNL     1     -47.808 -47.625   8.979  1.00  0.00    -0.169 F 
ENDBRANCH  15  16
ENDBRANCH  14  15
ENDBRANCH  12  14
ENDBRANCH   9  12
ENDBRANCH   1   8
BRANCH   7  20
HETATM   20  N   UNL     1     -41.867 -49.206  12.009  1.00  0.00    -0.361 N 
HETATM   21  C   UNL     1     -43.203 -49.138  12.601  1.00  0.00     0.150 C 
HETATM   22  C   UNL     1     -43.344 -50.076  13.804  1.00  0.00     0.187 C 
HETATM   23  O   UNL     1     -42.924 -51.413  13.485  1.00  0.00    -0.388 OA
HETATM   24  C   UNL     1     -41.537 -51.404  13.125  1.00  0.00     0.187 C 
HETATM   25  C   UNL     1     -41.277 -50.543  11.881  1.00  0.00     0.150 C 
ENDBRANCH   7  20
TORSDOF 6
ENDMDL
MODEL 2
REMARK VINA RESULT:      -6.1      2.710      4.822
REMARK  6 active torsions:
REMARK  status: ('A' for Active; 'I' for Inactive)
REMARK    1  A    between atoms: C_2  and  O_3 
REMARK    2  A    between atoms: C_2  and  C_9 
REMARK    3  A    between atoms: O_3  and  C_4 
REMARK    4  A    between atoms: C_4  and  C_5 
REMARK       I    between atoms: C_9  and  N_11 
REMARK    5  A    between atoms: N_11  and  C_12 
REMARK    6  A    between atoms: C_18  and  N_19 
ROOT
HETATM    1  C   UNL     1     -42.085 -51.891  12.391  1.00  0.00     0.079 A 
HETATM    2  C   UNL     1     -41.009 -52.744  12.153  1.00  0.00     0.035 A 
HETATM    3  C   UNL     1     -40.939 -53.934  12.857  1.00  0.00     0.019 A 
HETATM    4  C   UNL     1     -41.969 -54.230  13.736  1.00  0.00     0.090 A 
HETATM    5  N   UNL     1     -43.047 -53.436  13.954  1.00  0.00    -0.351 N 
ATOM      6  HN  UNL     1     -43.784 -53.715  14.602  1.00  0.00     0.166 HD
HETATM    7  C   UNL     1     -43.112 -52.263  13.284  1.00  0.00     0.130 A 
ENDROOT
BRANCH   1   8
HETATM    8  N   UNL     1     -42.094 -50.629  11.761  1.00  0.00    -0.322 N 
HETATM    9  C   UNL     1     -41.427 -49.568  12.375  1.00  0.00     0.251 C 
HETATM   10  O   UNL     1     -40.799 -49.664  13.423  1.00  0.00    -0.270 OA
HETATM   11  H   UNL     1     -42.081 -50.648  10.756  1.00  0.00     0.169 HD
BRANCH   9  12
HETATM   12  C   UNL     1     -41.519 -48.246  11.571  1.00  0.00     0.209 C 
HETATM   13  C   UNL     1     -40.126 -47.614  11.527  1.00  0.00     0.050 C 
BRANCH  12  14
HETATM   14  O   UNL     1     -41.974 -48.335  10.218  1.00  0.00    -0.368 OA
BRANCH  14  15
HETATM   15  C   UNL     1     -43.166 -47.599   9.934  1.00  0.00     0.286 C 
BRANCH  15  16
HETATM   16  C   UNL     1     -43.530 -47.493   8.450  1.00  0.00     0.408 C 
HETATM   17  F   UNL     1     -42.859 -48.361   7.668  1.00  0.00    -0.169 F 
HETATM   18  F   UNL     1     -44.855 -47.723   8.281  1.00  0.00    -0.169 F 
HETATM   19  F   UNL     1     -43.287 -46.241   7.994  1.00  0.00    -0.169 F 
ENDBRANCH  15  16
ENDBRANCH  14  15
ENDBRANCH  12  14
ENDBRANCH   9  12
ENDBRANCH   1   8
BRANCH   7  20
HETATM   20  N   UNL     1     -44.214 -51.436  13.464  1.00  0.00    -0.361 N 
HETATM   21  C   UNL     1     -44.268 -50.590  14.657  1.00  0.00     0.150 C 
HETATM   22  C   UNL     1     -45.355 -51.049  15.635  1.00  0.00     0.187 C 
HETATM   23  O   UNL     1     -46.626 -51.201  14.979  1.00  0.00    -0.388 OA
HETATM   24  C   UNL     1     -46.523 -52.212  13.968  1.00  0.00     0.187 C 
HETATM   25  C   UNL     1     -45.502 -51.832  12.886  1.00  0.00     0.150 C 
ENDBRANCH   7  20
TORSDOF 6
ENDMDL
MODEL 3
REMARK VINA RESULT:      -6.0      2.319      3.053
REMARK  6 active torsions:
REMARK  status: ('A' for Active; 'I' for Inactive)
REMARK    1  A    between atoms: C_2  and  O_3 
REMARK    2  A    between atoms: C_2  and  C_9 
REMARK    3  A    between atoms: O_3  and  C_4 
REMARK    4  A    between atoms: C_4  and  C_5 
REMARK       I    between atoms: C_9  and  N_11 
REMARK    5  A    between atoms: N_11  and  C_12 
REMARK    6  A    between atoms: C_18  and  N_19 
ROOT
HETATM    1  C   UNL     1     -39.614 -49.882  11.614  1.00  0.00     0.079 A 
HETATM    2  C   UNL     1     -38.273 -49.584  11.379  1.00  0.00     0.035 A 
HETATM    3  C   UNL     1     -37.308 -50.242  12.124  1.00  0.00     0.019 A 
HETATM    4  C   UNL     1     -37.731 -51.193  13.039  1.00  0.00     0.090 A 
HETATM    5  N   UNL     1     -39.027 -51.530  13.256  1.00  0.00    -0.351 N 
ATOM      6  HN  UNL     1     -39.278 -52.251  13.932  1.00  0.00     0.166 HD
HETATM    7  C   UNL     1     -39.976 -50.877  12.546  1.00  0.00     0.130 A 
ENDROOT
BRANCH   1   8
HETATM    8  N   UNL     1     -40.596 -49.128  10.939  1.00  0.00    -0.322 N 
HETATM    9  C   UNL     1     -41.047 -47.941  11.518  1.00  0.00     0.251 C 
HETATM   10  O   UNL     1     -40.620 -47.484  12.572  1.00  0.00    -0.270 OA
HETATM   11  H   UNL     1     -40.543 -49.147   9.936  1.00  0.00     0.169 HD
BRANCH   9  12
HETATM   12  C   UNL     1     -42.123 -47.219  10.667  1.00  0.00     0.209 C 
HETATM   13  C   UNL     1     -41.561 -45.865  10.231  1.00  0.00     0.050 C 
BRANCH  12  14
HETATM   14  O   UNL     1     -42.569 -47.882   9.481  1.00  0.00    -0.368 OA
BRANCH  14  15
HETATM   15  C   UNL     1     -43.489 -47.134   8.682  1.00  0.00     0.286 C 
BRANCH  15  16
HETATM   16  C   UNL     1     -44.968 -47.449   8.922  1.00  0.00     0.408 C 
HETATM   17  F   UNL     1     -45.222 -47.939  10.150  1.00  0.00    -0.169 F 
HETATM   18  F   UNL     1     -45.712 -46.326   8.763  1.00  0.00    -0.169 F 
HETATM   19  F   UNL     1     -45.412 -48.347   8.010  1.00  0.00    -0.169 F 
ENDBRANCH  15  16
ENDBRANCH  14  15
ENDBRANCH  12  14
ENDBRANCH   9  12
ENDBRANCH   1   8
BRANCH   7  20
HETATM   20  N   UNL     1     -41.312 -51.213  12.724  1.00  0.00    -0.361 N 
HETATM   21  C   UNL     1     -41.983 -50.789  13.953  1.00  0.00     0.150 C 
HETATM   22  C   UNL     1     -42.307 -51.976  14.867  1.00  0.00     0.187 C 
HETATM   23  O   UNL     1     -43.006 -53.014  14.158  1.00  0.00    -0.388 OA
HETATM   24  C   UNL     1     -42.174 -53.515  13.104  1.00  0.00     0.187 C 
HETATM   25  C   UNL     1     -41.833 -52.424  12.080  1.00  0.00     0.150 C 
ENDBRANCH   7  20
TORSDOF 6
ENDMDL
MODEL 4
REMARK VINA RESULT:      -5.9      2.727      5.377
REMARK  6 active torsions:
REMARK  status: ('A' for Active; 'I' for Inactive)
REMARK    1  A    between atoms: C_2  and  O_3 
REMARK    2  A    between atoms: C_2  and  C_9 
REMARK    3  A    between atoms: O_3  and  C_4 
REMARK    4  A    between atoms: C_4  and  C_5 
REMARK       I    between atoms: C_9  and  N_11 
REMARK    5  A    between atoms: N_11  and  C_12 
REMARK    6  A    between atoms: C_18  and  N_19 
ROOT
HETATM    1  C   UNL     1     -39.712 -50.560  12.898  1.00  0.00     0.079 A 
HETATM    2  C   UNL     1     -38.511 -51.266  12.925  1.00  0.00     0.035 A 
HETATM    3  C   UNL     1     -37.447 -50.789  12.177  1.00  0.00     0.019 A 
HETATM    4  C   UNL     1     -37.626 -49.610  11.471  1.00  0.00     0.090 A 
HETATM    5  N   UNL     1     -38.772 -48.885  11.463  1.00  0.00    -0.351 N 
ATOM      6  HN  UNL     1     -38.840 -48.013  10.936  1.00  0.00     0.166 HD
HETATM    7  C   UNL     1     -39.821 -49.354  12.175  1.00  0.00     0.130 A 
ENDROOT
BRANCH   1   8
HETATM    8  N   UNL     1     -40.827 -51.109  13.566  1.00  0.00    -0.322 N 
HETATM    9  C   UNL     1     -41.642 -52.011  12.880  1.00  0.00     0.251 C 
HETATM   10  O   UNL     1     -41.436 -52.390  11.733  1.00  0.00    -0.270 OA
HETATM   11  H   UNL     1     -40.706 -51.270  14.550  1.00  0.00     0.169 HD
BRANCH   9  12
HETATM   12  C   UNL     1     -42.826 -52.533  13.735  1.00  0.00     0.209 C 
HETATM   13  C   UNL     1     -42.933 -51.661  14.987  1.00  0.00     0.050 C 
BRANCH  12  14
HETATM   14  O   UNL     1     -44.119 -52.538  13.124  1.00  0.00    -0.368 OA
BRANCH  14  15
HETATM   15  C   UNL     1     -44.934 -51.404  13.428  1.00  0.00     0.286 C 
BRANCH  15  16
HETATM   16  C   UNL     1     -46.444 -51.638  13.327  1.00  0.00     0.408 C 
HETATM   17  F   UNL     1     -46.972 -51.245  12.152  1.00  0.00    -0.169 F 
HETATM   18  F   UNL     1     -46.719 -52.955  13.485  1.00  0.00    -0.169 F 
HETATM   19  F   UNL     1     -47.090 -50.979  14.319  1.00  0.00    -0.169 F 
ENDBRANCH  15  16
ENDBRANCH  14  15
ENDBRANCH  12  14
ENDBRANCH   9  12
ENDBRANCH   1   8
BRANCH   7  20
HETATM   20  N   UNL     1     -41.003 -48.624  12.209  1.00  0.00    -0.361 N 
HETATM   21  C   UNL     1     -41.862 -48.626  11.025  1.00  0.00     0.150 C 
HETATM   22  C   UNL     1     -41.881 -47.261  10.329  1.00  0.00     0.187 C 
HETATM   23  O   UNL     1     -42.177 -46.200  11.253  1.00  0.00    -0.388 OA
HETATM   24  C   UNL     1     -41.154 -46.141  12.256  1.00  0.00     0.187 C 
HETATM   25  C   UNL     1     -41.082 -47.440  13.072  1.00  0.00     0.150 C 
ENDBRANCH   7  20
TORSDOF 6
ENDMDL
MODEL 5
REMARK VINA RESULT:      -5.8      2.585      4.494
REMARK  6 active torsions:
REMARK  status: ('A' for Active; 'I' for Inactive)
REMARK    1  A    between atoms: C_2  and  O_3 
REMARK    2  A    between atoms: C_2  and  C_9 
REMARK    3  A    between atoms: O_3  and  C_4 
REMARK    4  A    between atoms: C_4  and  C_5 
REMARK       I    between atoms: C_9  and  N_11 
REMARK    5  A    between atoms: N_11  and  C_12 
REMARK    6  A    between atoms: C_18  and  N_19 
ROOT
HETATM    1  C   UNL     1     -41.906 -51.465  12.420  1.00  0.00     0.079 A 
HETATM    2  C   UNL     1     -42.888 -52.454  12.388  1.00  0.00     0.035 A 
HETATM    3  C   UNL     1     -42.622 -53.670  12.996  1.00  0.00     0.019 A 
HETATM    4  C   UNL     1     -41.404 -53.822  13.638  1.00  0.00     0.090 A 
HETATM    5  N   UNL     1     -40.450 -52.862  13.718  1.00  0.00    -0.351 N 
ATOM      6  HN  UNL     1     -39.577 -53.026  14.219  1.00  0.00     0.166 HD
HETATM    7  C   UNL     1     -40.694 -51.678  13.110  1.00  0.00     0.130 A 
ENDROOT
BRANCH   1   8
HETATM    8  N   UNL     1     -42.132 -50.272  11.702  1.00  0.00    -0.322 N 
HETATM    9  C   UNL     1     -42.781 -49.216  12.344  1.00  0.00     0.251 C 
HETATM   10  O   UNL     1     -43.145 -49.241  13.514  1.00  0.00    -0.270 OA
HETATM   11  H   UNL     1     -41.420 -50.025  11.038  1.00  0.00     0.169 HD
BRANCH   9  12
HETATM   12  C   UNL     1     -42.960 -47.971  11.438  1.00  0.00     0.209 C 
HETATM   13  C   UNL     1     -42.055 -48.134  10.215  1.00  0.00     0.050 C 
BRANCH  12  14
HETATM   14  O   UNL     1     -44.276 -47.707  10.945  1.00  0.00    -0.368 OA
BRANCH  14  15
HETATM   15  C   UNL     1     -44.351 -47.432   9.544  1.00  0.00     0.286 C 
BRANCH  15  16
HETATM   16  C   UNL     1     -45.667 -47.830   8.869  1.00  0.00     0.408 C 
HETATM   17  F   UNL     1     -46.428 -48.650   9.618  1.00  0.00    -0.169 F 
HETATM   18  F   UNL     1     -46.398 -46.724   8.592  1.00  0.00    -0.169 F 
HETATM   19  F   UNL     1     -45.422 -48.446   7.687  1.00  0.00    -0.169 F 
ENDBRANCH  15  16
ENDBRANCH  14  15
ENDBRANCH  12  14
ENDBRANCH   9  12
ENDBRANCH   1   8
BRANCH   7  20
HETATM   20  N   UNL     1     -39.750 -50.662  13.192  1.00  0.00    -0.361 N 
HETATM   21  C   UNL     1     -38.576 -50.724  12.321  1.00  0.00     0.150 C 
HETATM   22  C   UNL     1     -37.292 -51.002  13.109  1.00  0.00     0.187 C 
HETATM   23  O   UNL     1     -37.142 -50.094  14.213  1.00  0.00    -0.388 OA
HETATM   24  C   UNL     1     -38.235 -50.265  15.125  1.00  0.00     0.187 C 
HETATM   25  C   UNL     1     -39.583 -49.948  14.463  1.00  0.00     0.150 C 
ENDBRANCH   7  20
TORSDOF 6
ENDMDL
MODEL 6
REMARK VINA RESULT:      -5.8      4.236      6.681
REMARK  6 active torsions:
REMARK  status: ('A' for Active; 'I' for Inactive)
REMARK    1  A    between atoms: C_2  and  O_3 
REMARK    2  A    between atoms: C_2  and  C_9 
REMARK    3  A    between atoms: O_3  and  C_4 
REMARK    4  A    between atoms: C_4  and  C_5 
REMARK       I    between atoms: C_9  and  N_11 
REMARK    5  A    between atoms: N_11  and  C_12 
REMARK    6  A    between atoms: C_18  and  N_19 
ROOT
HETATM    1  C   UNL     1     -42.573 -47.415  10.044  1.00  0.00     0.079 A 
HETATM    2  C   UNL     1     -43.475 -47.775   9.045  1.00  0.00     0.035 A 
HETATM    3  C   UNL     1     -44.332 -46.808   8.548  1.00  0.00     0.019 A 
HETATM    4  C   UNL     1     -44.217 -45.520   9.046  1.00  0.00     0.090 A 
HETATM    5  N   UNL     1     -43.319 -45.136   9.987  1.00  0.00    -0.351 N 
ATOM      6  HN  UNL     1     -43.269 -44.168  10.304  1.00  0.00     0.166 HD
HETATM    7  C   UNL     1     -42.491 -46.080  10.492  1.00  0.00     0.130 A 
ENDROOT
BRANCH   1   8
HETATM    8  N   UNL     1     -41.782 -48.426  10.630  1.00  0.00    -0.322 N 
HETATM    9  C   UNL     1     -42.257 -49.068  11.776  1.00  0.00     0.251 C 
HETATM   10  O   UNL     1     -43.341 -48.834  12.297  1.00  0.00    -0.270 OA
HETATM   11  H   UNL     1     -41.250 -48.986   9.988  1.00  0.00     0.169 HD
BRANCH   9  12
HETATM   12  C   UNL     1     -41.287 -50.154  12.309  1.00  0.00     0.209 C 
HETATM   13  C   UNL     1     -42.021 -51.496  12.302  1.00  0.00     0.050 C 
BRANCH  12  14
HETATM   14  O   UNL     1     -40.066 -50.348  11.590  1.00  0.00    -0.368 OA
BRANCH  14  15
HETATM   15  C   UNL     1     -38.998 -50.910  12.356  1.00  0.00     0.286 C 
BRANCH  15  16
HETATM   16  C   UNL     1     -37.606 -50.358  12.040  1.00  0.00     0.408 C 
HETATM   17  F   UNL     1     -37.402 -50.132  10.728  1.00  0.00    -0.169 F 
HETATM   18  F   UNL     1     -37.412 -49.188  12.697  1.00  0.00    -0.169 F 
HETATM   19  F   UNL     1     -36.650 -51.215  12.473  1.00  0.00    -0.169 F 
ENDBRANCH  15  16
ENDBRANCH  14  15
ENDBRANCH  12  14
ENDBRANCH   9  12
ENDBRANCH   1   8
BRANCH   7  20
HETATM   20  N   UNL     1     -41.543 -45.718  11.439  1.00  0.00    -0.361 N 
HETATM   21  C   UNL     1     -41.988 -45.435  12.804  1.00  0.00     0.150 C 
HETATM   22  C   UNL     1     -41.855 -43.949  13.153  1.00  0.00     0.187 C 
HETATM   23  O   UNL     1     -40.537 -43.453  12.864  1.00  0.00    -0.388 OA
HETATM   24  C   UNL     1     -40.280 -43.575  11.459  1.00  0.00     0.187 C 
HETATM   25  C   UNL     1     -40.320 -45.038  10.998  1.00  0.00     0.150 C 
ENDBRANCH   7  20
TORSDOF 6
ENDMDL
MODEL 7
REMARK VINA RESULT:      -5.8      3.768      5.235
REMARK  6 active torsions:
REMARK  status: ('A' for Active; 'I' for Inactive)
REMARK    1  A    between atoms: C_2  and  O_3 
REMARK    2  A    between atoms: C_2  and  C_9 
REMARK    3  A    between atoms: O_3  and  C_4 
REMARK    4  A    between atoms: C_4  and  C_5 
REMARK       I    between atoms: C_9  and  N_11 
REMARK    5  A    between atoms: N_11  and  C_12 
REMARK    6  A    between atoms: C_18  and  N_19 
ROOT
HETATM    1  C   UNL     1     -42.069 -49.650  12.533  1.00  0.00     0.079 A 
HETATM    2  C   UNL     1     -43.002 -48.632  12.724  1.00  0.00     0.035 A 
HETATM    3  C   UNL     1     -42.558 -47.406  13.191  1.00  0.00     0.019 A 
HETATM    4  C   UNL     1     -41.198 -47.248  13.408  1.00  0.00     0.090 A 
HETATM    5  N   UNL     1     -40.267 -48.210  13.191  1.00  0.00    -0.351 N 
ATOM      6  HN  UNL     1     -39.276 -48.030  13.353  1.00  0.00     0.166 HD
HETATM    7  C   UNL     1     -40.695 -49.416  12.753  1.00  0.00     0.130 A 
ENDROOT
BRANCH   1   8
HETATM    8  N   UNL     1     -42.538 -50.930  12.169  1.00  0.00    -0.322 N 
HETATM    9  C   UNL     1     -42.856 -51.840  13.179  1.00  0.00     0.251 C 
HETATM   10  O   UNL     1     -42.786 -51.590  14.377  1.00  0.00    -0.270 OA
HETATM   11  H   UNL     1     -43.102 -50.964  11.338  1.00  0.00     0.169 HD
BRANCH   9  12
HETATM   12  C   UNL     1     -43.357 -53.201  12.633  1.00  0.00     0.209 C 
HETATM   13  C   UNL     1     -43.296 -54.224  13.769  1.00  0.00     0.050 C 
BRANCH  12  14
HETATM   14  O   UNL     1     -44.688 -53.245  12.110  1.00  0.00    -0.368 OA
BRANCH  14  15
HETATM   15  C   UNL     1     -45.720 -52.990  13.067  1.00  0.00     0.286 C 
BRANCH  15  16
HETATM   16  C   UNL     1     -46.479 -51.674  12.874  1.00  0.00     0.408 C 
HETATM   17  F   UNL     1     -47.177 -51.292  13.960  1.00  0.00    -0.169 F 
HETATM   18  F   UNL     1     -45.611 -50.679  12.569  1.00  0.00    -0.169 F 
HETATM   19  F   UNL     1     -47.342 -51.776  11.834  1.00  0.00    -0.169 F 
ENDBRANCH  15  16
ENDBRANCH  14  15
ENDBRANCH  12  14
ENDBRANCH   9  12
ENDBRANCH   1   8
BRANCH   7  20
HETATM   20  N   UNL     1     -39.767 -50.416  12.496  1.00  0.00    -0.361 N 
HETATM   21  C   UNL     1     -39.223 -51.173  13.624  1.00  0.00     0.150 C 
HETATM   22  C   UNL     1     -37.743 -50.856  13.865  1.00  0.00     0.187 C 
HETATM   23  O   UNL     1     -36.971 -50.985  12.659  1.00  0.00    -0.388 OA
HETATM   24  C   UNL     1     -37.444 -50.045  11.686  1.00  0.00     0.187 C 
HETATM   25  C   UNL     1     -38.910 -50.304  11.311  1.00  0.00     0.150 C 
ENDBRANCH   7  20
TORSDOF 6
ENDMDL
MODEL 8
REMARK VINA RESULT:      -5.7      2.837      5.180
REMARK  6 active torsions:
REMARK  status: ('A' for Active; 'I' for Inactive)
REMARK    1  A    between atoms: C_2  and  O_3 
REMARK    2  A    between atoms: C_2  and  C_9 
REMARK    3  A    between atoms: O_3  and  C_4 
REMARK    4  A    between atoms: C_4  and  C_5 
REMARK       I    between atoms: C_9  and  N_11 
REMARK    5  A    between atoms: N_11  and  C_12 
REMARK    6  A    between atoms: C_18  and  N_19 
ROOT
HETATM    1  C   UNL     1     -44.289 -51.294  13.366  1.00  0.00     0.079 A 
HETATM    2  C   UNL     1     -45.668 -51.238  13.560  1.00  0.00     0.035 A 
HETATM    3  C   UNL     1     -46.271 -52.232  14.312  1.00  0.00     0.019 A 
HETATM    4  C   UNL     1     -45.460 -53.211  14.865  1.00  0.00     0.090 A 
HETATM    5  N   UNL     1     -44.112 -53.263  14.725  1.00  0.00    -0.351 N 
ATOM      6  HN  UNL     1     -43.564 -54.000  15.169  1.00  0.00     0.166 HD
HETATM    7  C   UNL     1     -43.518 -52.307  13.975  1.00  0.00     0.130 A 
ENDROOT
BRANCH   1   8
HETATM    8  N   UNL     1     -43.694 -50.349  12.505  1.00  0.00    -0.322 N 
HETATM    9  C   UNL     1     -43.183 -49.171  13.053  1.00  0.00     0.251 C 
HETATM   10  O   UNL     1     -43.187 -48.911  14.251  1.00  0.00    -0.270 OA
HETATM   11  H   UNL     1     -43.198 -50.731  11.718  1.00  0.00     0.169 HD
BRANCH   9  12
HETATM   12  C   UNL     1     -42.559 -48.228  11.993  1.00  0.00     0.209 C 
HETATM   13  C   UNL     1     -41.306 -48.901  11.429  1.00  0.00     0.050 C 
BRANCH  12  14
HETATM   14  O   UNL     1     -43.376 -47.874  10.873  1.00  0.00    -0.368 OA
BRANCH  14  15
HETATM   15  C   UNL     1     -42.673 -47.726   9.637  1.00  0.00     0.286 C 
BRANCH  15  16
HETATM   16  C   UNL     1     -43.558 -47.584   8.395  1.00  0.00     0.408 C 
HETATM   17  F   UNL     1     -44.839 -47.941   8.604  1.00  0.00    -0.169 F 
HETATM   18  F   UNL     1     -43.551 -46.297   7.967  1.00  0.00    -0.169 F 
HETATM   19  F   UNL     1     -43.071 -48.338   7.381  1.00  0.00    -0.169 F 
ENDBRANCH  15  16
ENDBRANCH  14  15
ENDBRANCH  12  14
ENDBRANCH   9  12
ENDBRANCH   1   8
BRANCH   7  20
HETATM   20  N   UNL     1     -42.137 -52.315  13.830  1.00  0.00    -0.361 N 
HETATM   21  C   UNL     1     -41.553 -53.066  12.718  1.00  0.00     0.150 C 
HETATM   22  C   UNL     1     -40.790 -54.304  13.202  1.00  0.00     0.187 C 
HETATM   23  O   UNL     1     -39.843 -53.973  14.232  1.00  0.00    -0.388 OA
HETATM   24  C   UNL     1     -40.539 -53.443  15.368  1.00  0.00     0.187 C 
HETATM   25  C   UNL     1     -41.296 -52.153  15.021  1.00  0.00     0.150 C 
ENDBRANCH   7  20
TORSDOF 6
ENDMDL
MODEL 9
REMARK VINA RESULT:      -5.6      2.879      5.552
REMARK  6 active torsions:
REMARK  status: ('A' for Active; 'I' for Inactive)
REMARK    1  A    between atoms: C_2  and  O_3 
REMARK    2  A    between atoms: C_2  and  C_9 
REMARK    3  A    between atoms: O_3  and  C_4 
REMARK    4  A    between atoms: C_4  and  C_5 
REMARK       I    between atoms: C_9  and  N_11 
REMARK    5  A    between atoms: N_11  and  C_12 
REMARK    6  A    between atoms: C_18  and  N_19 
ROOT
HETATM    1  C   UNL     1     -40.491 -51.427  13.044  1.00  0.00     0.079 A 
HETATM    2  C   UNL     1     -39.421 -51.942  13.774  1.00  0.00     0.035 A 
HETATM    3  C   UNL     1     -38.386 -51.089  14.121  1.00  0.00     0.019 A 
HETATM    4  C   UNL     1     -38.492 -49.757  13.755  1.00  0.00     0.090 A 
HETATM    5  N   UNL     1     -39.542 -49.225  13.081  1.00  0.00    -0.351 N 
ATOM      6  HN  UNL     1     -39.572 -48.231  12.852  1.00  0.00     0.166 HD
HETATM    7  C   UNL     1     -40.547 -50.055  12.721  1.00  0.00     0.130 A 
ENDROOT
BRANCH   1   8
HETATM    8  N   UNL     1     -41.486 -52.320  12.592  1.00  0.00    -0.322 N 
HETATM    9  C   UNL     1     -42.510 -52.682  13.468  1.00  0.00     0.251 C 
HETATM   10  O   UNL     1     -42.626 -52.248  14.609  1.00  0.00    -0.270 OA
HETATM   11  H   UNL     1     -41.731 -52.238  11.621  1.00  0.00     0.169 HD
BRANCH   9  12
HETATM   12  C   UNL     1     -43.530 -53.665  12.838  1.00  0.00     0.209 C 
HETATM   13  C   UNL     1     -44.060 -54.580  13.943  1.00  0.00     0.050 C 
BRANCH  12  14
HETATM   14  O   UNL     1     -44.671 -53.095  12.192  1.00  0.00    -0.368 OA
BRANCH  14  15
HETATM   15  C   UNL     1     -45.845 -53.013  13.004  1.00  0.00     0.286 C 
BRANCH  15  16
HETATM   16  C   UNL     1     -46.359 -51.595  13.270  1.00  0.00     0.408 C 
HETATM   17  F   UNL     1     -47.126 -51.498  14.372  1.00  0.00    -0.169 F 
HETATM   18  F   UNL     1     -45.313 -50.745  13.417  1.00  0.00    -0.169 F 
HETATM   19  F   UNL     1     -47.081 -51.150  12.214  1.00  0.00    -0.169 F 
ENDBRANCH  15  16
ENDBRANCH  14  15
ENDBRANCH  12  14
ENDBRANCH   9  12
ENDBRANCH   1   8
BRANCH   7  20
HETATM   20  N   UNL     1     -41.649 -49.540  12.051  1.00  0.00    -0.361 N 
HETATM   21  C   UNL     1     -41.457 -48.976  10.715  1.00  0.00     0.150 C 
HETATM   22  C   UNL     1     -41.642 -47.455  10.705  1.00  0.00     0.187 C 
HETATM   23  O   UNL     1     -42.884 -47.068  11.319  1.00  0.00    -0.388 OA
HETATM   24  C   UNL     1     -42.884 -47.477  12.693  1.00  0.00     0.187 C 
HETATM   25  C   UNL     1     -42.769 -49.002  12.832  1.00  0.00     0.150 C 
ENDBRANCH   7  20
TORSDOF 6
ENDMDL
