MODEL 1
REMARK VINA RESULT:      -5.7      0.000      0.000
REMARK  8 active torsions:
REMARK  status: ('A' for Active; 'I' for Inactive)
REMARK    1  A    between atoms: C_7  and  O_8 
REMARK    2  A    between atoms: O_8  and  C_9 
REMARK    3  A    between atoms: C_9  and  C_10 
REMARK    4  A    between atoms: C_10  and  O_11 
REMARK    5  A    between atoms: C_10  and  C_12 
REMARK    6  A    between atoms: C_12  and  N_13 
REMARK    7  A    between atoms: C_20  and  C_21 
REMARK    8  A    between atoms: C_21  and  N_22 
ROOT
HETATM    1  N   UNL     1     -44.154 -54.720  13.873  1.00  0.00    -0.254 N 
HETATM    2  N   UNL     1     -43.460 -55.191  14.963  1.00  0.00    -0.300 N 
ATOM      3  HN  UNL     1     -43.900 -55.836  15.620  1.00  0.00     0.187 HD
HETATM    4  C   UNL     1     -42.237 -54.802  15.140  1.00  0.00     0.029 C 
HETATM    5  C   UNL     1     -41.505 -55.382  16.329  1.00  0.00     0.070 C 
HETATM    6  C   UNL     1     -41.523 -53.843  14.256  1.00  0.00    -0.013 C 
HETATM    7  C   UNL     1     -40.113 -53.415  14.534  1.00  0.00     0.052 C 
HETATM    8  C   UNL     1     -42.232 -53.407  13.205  1.00  0.00     0.103 C 
HETATM    9  C   UNL     1     -43.591 -53.902  12.902  1.00  0.00     0.282 C 
HETATM   10  O   UNL     1     -44.152 -53.601  11.853  1.00  0.00    -0.265 OA
ENDROOT
BRANCH   1  11
HETATM   11  C   UNL     1     -45.553 -55.148  13.754  1.00  0.00     0.186 C 
BRANCH  11  12
HETATM   12  C   UNL     1     -46.474 -54.548  14.824  1.00  0.00     0.162 C 
BRANCH  12  13
HETATM   13  C   UNL     1     -46.641 -53.033  14.667  1.00  0.00     0.209 C 
BRANCH  13  14
HETATM   14  O   UNL     1     -46.065 -52.409  15.815  1.00  0.00    -0.348 OA
BRANCH  14  15
HETATM   15  C   UNL     1     -44.912 -51.696  15.644  1.00  0.00     0.075 A 
HETATM   16  C   UNL     1     -43.919 -51.912  16.614  1.00  0.00    -0.029 A 
HETATM   17  C   UNL     1     -42.695 -51.240  16.506  1.00  0.00     0.010 A 
HETATM   18  C   UNL     1     -44.155 -52.872  17.749  1.00  0.00     0.051 C 
HETATM   19  C   UNL     1     -42.455 -50.372  15.440  1.00  0.00     0.007 A 
HETATM   20  C   UNL     1     -43.434 -50.161  14.467  1.00  0.00    -0.059 A 
HETATM   21  C   UNL     1     -43.186 -49.261  13.293  1.00  0.00     0.048 C 
HETATM   22  C   UNL     1     -44.668 -50.818  14.584  1.00  0.00     0.044 A 
ENDBRANCH  14  15
ENDBRANCH  13  14
ENDBRANCH  12  13
BRANCH  12  23
HETATM   23  O   UNL     1     -47.754 -55.197  14.785  1.00  0.00    -0.392 OA
HETATM   24  H   UNL     1     -47.718 -55.896  15.469  1.00  0.00     0.210 HD
ENDBRANCH  12  23
ENDBRANCH  11  12
ENDBRANCH   1  11
BRANCH   8  25
HETATM   25  C   UNL     1     -41.603 -52.431  12.222  1.00  0.00    -0.031 C 
BRANCH  25  26
HETATM   26  N   UNL     1     -41.081 -51.623  11.407  1.00  0.00    -0.365 N 
ATOM     27  HN2 UNL     1     -41.552 -52.272  12.037  1.00  0.00     0.165 HD
ATOM     28  HN1 UNL     1     -40.657 -50.970  10.748  1.00  0.00     0.165 HD
ENDBRANCH  25  26
ENDBRANCH   8  25
TORSDOF 8
ENDMDL
MODEL 2
REMARK VINA RESULT:      -5.7      2.580      5.588
REMARK  8 active torsions:
REMARK  status: ('A' for Active; 'I' for Inactive)
REMARK    1  A    between atoms: C_7  and  O_8 
REMARK    2  A    between atoms: O_8  and  C_9 
REMARK    3  A    between atoms: C_9  and  C_10 
REMARK    4  A    between atoms: C_10  and  O_11 
REMARK    5  A    between atoms: C_10  and  C_12 
REMARK    6  A    between atoms: C_12  and  N_13 
REMARK    7  A    between atoms: C_20  and  C_21 
REMARK    8  A    between atoms: C_21  and  N_22 
ROOT
HETATM    1  N   UNL     1     -43.268 -50.452  13.273  1.00  0.00    -0.254 N 
HETATM    2  N   UNL     1     -44.397 -50.871  12.609  1.00  0.00    -0.300 N 
ATOM      3  HN  UNL     1     -44.427 -50.876  11.589  1.00  0.00     0.187 HD
HETATM    4  C   UNL     1     -45.420 -51.259  13.302  1.00  0.00     0.029 C 
HETATM    5  C   UNL     1     -46.620 -51.751  12.524  1.00  0.00     0.070 C 
HETATM    6  C   UNL     1     -45.481 -51.258  14.788  1.00  0.00    -0.013 C 
HETATM    7  C   UNL     1     -46.709 -51.697  15.527  1.00  0.00     0.052 C 
HETATM    8  C   UNL     1     -44.361 -50.843  15.399  1.00  0.00     0.103 C 
HETATM    9  C   UNL     1     -43.134 -50.491  14.655  1.00  0.00     0.282 C 
HETATM   10  O   UNL     1     -42.083 -50.265  15.246  1.00  0.00    -0.265 OA
ENDROOT
BRANCH   1  11
HETATM   11  C   UNL     1     -42.160 -49.969  12.440  1.00  0.00     0.186 C 
BRANCH  11  12
HETATM   12  C   UNL     1     -41.012 -50.976  12.299  1.00  0.00     0.162 C 
BRANCH  12  13
HETATM   13  C   UNL     1     -41.489 -52.338  11.782  1.00  0.00     0.209 C 
BRANCH  13  14
HETATM   14  O   UNL     1     -41.068 -53.331  12.718  1.00  0.00    -0.348 OA
BRANCH  14  15
HETATM   15  C   UNL     1     -41.988 -53.789  13.620  1.00  0.00     0.075 A 
HETATM   16  C   UNL     1     -41.578 -53.769  14.963  1.00  0.00    -0.029 A 
HETATM   17  C   UNL     1     -42.464 -54.200  15.959  1.00  0.00     0.010 A 
HETATM   18  C   UNL     1     -40.208 -53.270  15.338  1.00  0.00     0.051 C 
HETATM   19  C   UNL     1     -43.747 -54.634  15.626  1.00  0.00     0.007 A 
HETATM   20  C   UNL     1     -44.164 -54.647  14.293  1.00  0.00    -0.059 A 
HETATM   21  C   UNL     1     -45.550 -55.076  13.914  1.00  0.00     0.048 C 
HETATM   22  C   UNL     1     -43.271 -54.235  13.293  1.00  0.00     0.044 A 
ENDBRANCH  14  15
ENDBRANCH  13  14
ENDBRANCH  12  13
BRANCH  12  23
HETATM   23  O   UNL     1     -39.998 -50.442  11.433  1.00  0.00    -0.392 OA
HETATM   24  H   UNL     1     -39.317 -51.140  11.360  1.00  0.00     0.210 HD
ENDBRANCH  12  23
ENDBRANCH  11  12
ENDBRANCH   1  11
BRANCH   8  25
HETATM   25  C   UNL     1     -44.299 -50.809  16.918  1.00  0.00    -0.031 C 
BRANCH  25  26
HETATM   26  N   UNL     1     -44.247 -50.780  18.177  1.00  0.00    -0.365 N 
ATOM     27  HN2 UNL     1     -44.299 -50.748  17.159  1.00  0.00     0.165 HD
ATOM     28  HN1 UNL     1     -44.205 -50.758  19.196  1.00  0.00     0.165 HD
ENDBRANCH  25  26
ENDBRANCH   8  25
TORSDOF 8
ENDMDL
MODEL 3
REMARK VINA RESULT:      -5.6      1.704      3.452
REMARK  8 active torsions:
REMARK  status: ('A' for Active; 'I' for Inactive)
REMARK    1  A    between atoms: C_7  and  O_8 
REMARK    2  A    between atoms: O_8  and  C_9 
REMARK    3  A    between atoms: C_9  and  C_10 
REMARK    4  A    between atoms: C_10  and  O_11 
REMARK    5  A    between atoms: C_10  and  C_12 
REMARK    6  A    between atoms: C_12  and  N_13 
REMARK    7  A    between atoms: C_20  and  C_21 
REMARK    8  A    between atoms: C_21  and  N_22 
ROOT
HETATM    1  N   UNL     1     -45.329 -52.020  14.975  1.00  0.00    -0.254 N 
HETATM    2  N   UNL     1     -44.515 -52.111  16.080  1.00  0.00    -0.300 N 
ATOM      3  HN  UNL     1     -44.772 -52.709  16.866  1.00  0.00     0.187 HD
HETATM    4  C   UNL     1     -43.416 -51.426  16.104  1.00  0.00     0.029 C 
HETATM    5  C   UNL     1     -42.537 -51.595  17.323  1.00  0.00     0.070 C 
HETATM    6  C   UNL     1     -42.974 -50.506  15.023  1.00  0.00    -0.013 C 
HETATM    7  C   UNL     1     -41.701 -49.722  15.128  1.00  0.00     0.052 C 
HETATM    8  C   UNL     1     -43.794 -50.444  13.963  1.00  0.00     0.103 C 
HETATM    9  C   UNL     1     -45.002 -51.285  13.843  1.00  0.00     0.282 C 
HETATM   10  O   UNL     1     -45.645 -51.318  12.798  1.00  0.00    -0.265 OA
ENDROOT
BRANCH   1  11
HETATM   11  C   UNL     1     -46.588 -52.773  15.026  1.00  0.00     0.186 C 
BRANCH  11  12
HETATM   12  C   UNL     1     -46.393 -54.293  15.102  1.00  0.00     0.162 C 
BRANCH  12  13
HETATM   13  C   UNL     1     -45.488 -54.822  13.984  1.00  0.00     0.209 C 
BRANCH  13  14
HETATM   14  O   UNL     1     -44.315 -55.365  14.592  1.00  0.00    -0.348 OA
BRANCH  14  15
HETATM   15  C   UNL     1     -43.129 -54.720  14.381  1.00  0.00     0.075 A 
HETATM   16  C   UNL     1     -42.157 -54.904  15.377  1.00  0.00    -0.029 A 
HETATM   17  C   UNL     1     -40.902 -54.297  15.233  1.00  0.00     0.010 A 
HETATM   18  C   UNL     1     -42.446 -55.761  16.580  1.00  0.00     0.051 C 
HETATM   19  C   UNL     1     -40.613 -53.527  14.106  1.00  0.00     0.007 A 
HETATM   20  C   UNL     1     -41.572 -53.349  13.107  1.00  0.00    -0.059 A 
HETATM   21  C   UNL     1     -41.272 -52.555  11.871  1.00  0.00     0.048 C 
HETATM   22  C   UNL     1     -42.836 -53.939  13.260  1.00  0.00     0.044 A 
ENDBRANCH  14  15
ENDBRANCH  13  14
ENDBRANCH  12  13
BRANCH  12  23
HETATM   23  O   UNL     1     -45.859 -54.652  16.386  1.00  0.00    -0.392 OA
HETATM   24  H   UNL     1     -46.624 -54.951  16.917  1.00  0.00     0.210 HD
ENDBRANCH  12  23
ENDBRANCH  11  12
ENDBRANCH   1  11
BRANCH   8  25
HETATM   25  C   UNL     1     -43.440 -49.546  12.788  1.00  0.00    -0.031 C 
BRANCH  25  26
HETATM   26  N   UNL     1     -43.148 -48.802  11.813  1.00  0.00    -0.365 N 
ATOM     27  HN2 UNL     1     -43.432 -49.373  12.608  1.00  0.00     0.165 HD
ATOM     28  HN1 UNL     1     -42.911 -48.201  11.024  1.00  0.00     0.165 HD
ENDBRANCH  25  26
ENDBRANCH   8  25
TORSDOF 8
ENDMDL
MODEL 4
REMARK VINA RESULT:      -5.5      2.521      5.412
REMARK  8 active torsions:
REMARK  status: ('A' for Active; 'I' for Inactive)
REMARK    1  A    between atoms: C_7  and  O_8 
REMARK    2  A    between atoms: O_8  and  C_9 
REMARK    3  A    between atoms: C_9  and  C_10 
REMARK    4  A    between atoms: C_10  and  O_11 
REMARK    5  A    between atoms: C_10  and  C_12 
REMARK    6  A    between atoms: C_12  and  N_13 
REMARK    7  A    between atoms: C_20  and  C_21 
REMARK    8  A    between atoms: C_21  and  N_22 
ROOT
HETATM    1  N   UNL     1     -41.943 -50.406  14.063  1.00  0.00    -0.254 N 
HETATM    2  N   UNL     1     -41.346 -50.815  15.232  1.00  0.00    -0.300 N 
ATOM      3  HN  UNL     1     -40.337 -50.729  15.357  1.00  0.00     0.187 HD
HETATM    4  C   UNL     1     -42.087 -51.312  16.171  1.00  0.00     0.029 C 
HETATM    5  C   UNL     1     -41.386 -51.707  17.452  1.00  0.00     0.070 C 
HETATM    6  C   UNL     1     -43.558 -51.505  16.069  1.00  0.00    -0.013 C 
HETATM    7  C   UNL     1     -44.352 -52.110  17.187  1.00  0.00     0.052 C 
HETATM    8  C   UNL     1     -44.103 -51.093  14.915  1.00  0.00     0.103 C 
HETATM    9  C   UNL     1     -43.316 -50.425  13.858  1.00  0.00     0.282 C 
HETATM   10  O   UNL     1     -43.869 -49.924  12.884  1.00  0.00    -0.265 OA
ENDROOT
BRANCH   1  11
HETATM   11  C   UNL     1     -41.049 -49.905  13.012  1.00  0.00     0.186 C 
BRANCH  11  12
HETATM   12  C   UNL     1     -40.179 -50.996  12.373  1.00  0.00     0.162 C 
BRANCH  12  13
HETATM   13  C   UNL     1     -41.011 -52.165  11.834  1.00  0.00     0.209 C 
BRANCH  13  14
HETATM   14  O   UNL     1     -40.555 -53.357  12.475  1.00  0.00    -0.348 OA
BRANCH  14  15
HETATM   15  C   UNL     1     -41.382 -53.944  13.392  1.00  0.00     0.075 A 
HETATM   16  C   UNL     1     -40.765 -54.352  14.586  1.00  0.00    -0.029 A 
HETATM   17  C   UNL     1     -41.540 -54.944  15.592  1.00  0.00     0.010 A 
HETATM   18  C   UNL     1     -39.291 -54.136  14.798  1.00  0.00     0.051 C 
HETATM   19  C   UNL     1     -42.913 -55.119  15.418  1.00  0.00     0.007 A 
HETATM   20  C   UNL     1     -43.533 -54.706  14.237  1.00  0.00    -0.059 A 
HETATM   21  C   UNL     1     -45.013 -54.852  14.042  1.00  0.00     0.048 C 
HETATM   22  C   UNL     1     -42.756 -54.132  13.221  1.00  0.00     0.044 A 
ENDBRANCH  14  15
ENDBRANCH  13  14
ENDBRANCH  12  13
BRANCH  12  23
HETATM   23  O   UNL     1     -39.378 -50.429  11.324  1.00  0.00    -0.392 OA
HETATM   24  H   UNL     1     -38.765 -51.138  11.046  1.00  0.00     0.210 HD
ENDBRANCH  12  23
ENDBRANCH  11  12
ENDBRANCH   1  11
BRANCH   8  25
HETATM   25  C   UNL     1     -45.603 -51.229  14.699  1.00  0.00    -0.031 C 
BRANCH  25  26
HETATM   26  N   UNL     1     -46.846 -51.342  14.519  1.00  0.00    -0.365 N 
ATOM     27  HN2 UNL     1     -45.851 -51.242  14.720  1.00  0.00     0.165 HD
ATOM     28  HN1 UNL     1     -47.850 -51.433  14.372  1.00  0.00     0.165 HD
ENDBRANCH  25  26
ENDBRANCH   8  25
TORSDOF 8
ENDMDL
MODEL 5
REMARK VINA RESULT:      -5.4      2.701      4.777
REMARK  8 active torsions:
REMARK  status: ('A' for Active; 'I' for Inactive)
REMARK    1  A    between atoms: C_7  and  O_8 
REMARK    2  A    between atoms: O_8  and  C_9 
REMARK    3  A    between atoms: C_9  and  C_10 
REMARK    4  A    between atoms: C_10  and  O_11 
REMARK    5  A    between atoms: C_10  and  C_12 
REMARK    6  A    between atoms: C_12  and  N_13 
REMARK    7  A    between atoms: C_20  and  C_21 
REMARK    8  A    between atoms: C_21  and  N_22 
ROOT
HETATM    1  N   UNL     1     -40.708 -51.713  13.795  1.00  0.00    -0.254 N 
HETATM    2  N   UNL     1     -41.835 -50.926  13.759  1.00  0.00    -0.300 N 
ATOM      3  HN  UNL     1     -42.655 -51.167  14.317  1.00  0.00     0.187 HD
HETATM    4  C   UNL     1     -41.837 -49.872  13.005  1.00  0.00     0.029 C 
HETATM    5  C   UNL     1     -43.085 -49.018  13.035  1.00  0.00     0.070 C 
HETATM    6  C   UNL     1     -40.705 -49.458  12.135  1.00  0.00    -0.013 C 
HETATM    7  C   UNL     1     -40.784 -48.239  11.266  1.00  0.00     0.052 C 
HETATM    8  C   UNL     1     -39.624 -50.251  12.198  1.00  0.00     0.103 C 
HETATM    9  C   UNL     1     -39.535 -51.401  13.120  1.00  0.00     0.282 C 
HETATM   10  O   UNL     1     -38.480 -52.012  13.265  1.00  0.00    -0.265 OA
ENDROOT
BRANCH   1  11
HETATM   11  C   UNL     1     -40.782 -52.924  14.621  1.00  0.00     0.186 C 
BRANCH  11  12
HETATM   12  C   UNL     1     -41.147 -54.187  13.830  1.00  0.00     0.162 C 
BRANCH  12  13
HETATM   13  C   UNL     1     -42.455 -54.029  13.048  1.00  0.00     0.209 C 
BRANCH  13  14
HETATM   14  O   UNL     1     -43.535 -54.169  13.973  1.00  0.00    -0.348 OA
BRANCH  14  15
HETATM   15  C   UNL     1     -44.562 -53.271  13.896  1.00  0.00     0.075 A 
HETATM   16  C   UNL     1     -44.832 -52.561  15.078  1.00  0.00    -0.029 A 
HETATM   17  C   UNL     1     -45.854 -51.602  15.086  1.00  0.00     0.010 A 
HETATM   18  C   UNL     1     -44.019 -52.807  16.321  1.00  0.00     0.051 C 
HETATM   19  C   UNL     1     -46.591 -51.344  13.930  1.00  0.00     0.007 A 
HETATM   20  C   UNL     1     -46.320 -52.040  12.749  1.00  0.00    -0.059 A 
HETATM   21  C   UNL     1     -47.076 -51.753  11.486  1.00  0.00     0.048 C 
HETATM   22  C   UNL     1     -45.311 -53.013  12.745  1.00  0.00     0.044 A 
ENDBRANCH  14  15
ENDBRANCH  13  14
ENDBRANCH  12  13
BRANCH  12  23
HETATM   23  O   UNL     1     -40.073 -54.531  12.940  1.00  0.00    -0.392 OA
HETATM   24  H   UNL     1     -40.494 -54.722  12.078  1.00  0.00     0.210 HD
ENDBRANCH  12  23
ENDBRANCH  11  12
ENDBRANCH   1  11
BRANCH   8  25
HETATM   25  C   UNL     1     -38.398 -49.921  11.361  1.00  0.00    -0.031 C 
BRANCH  25  26
HETATM   26  N   UNL     1     -37.380 -49.649  10.668  1.00  0.00    -0.365 N 
ATOM     27  HN2 UNL     1     -38.232 -49.831  11.198  1.00  0.00     0.165 HD
ATOM     28  HN1 UNL     1     -36.557 -49.430  10.108  1.00  0.00     0.165 HD
ENDBRANCH  25  26
ENDBRANCH   8  25
TORSDOF 8
ENDMDL
MODEL 6
REMARK VINA RESULT:      -5.4      3.952      7.353
REMARK  8 active torsions:
REMARK  status: ('A' for Active; 'I' for Inactive)
REMARK    1  A    between atoms: C_7  and  O_8 
REMARK    2  A    between atoms: O_8  and  C_9 
REMARK    3  A    between atoms: C_9  and  C_10 
REMARK    4  A    between atoms: C_10  and  O_11 
REMARK    5  A    between atoms: C_10  and  C_12 
REMARK    6  A    between atoms: C_12  and  N_13 
REMARK    7  A    between atoms: C_20  and  C_21 
REMARK    8  A    between atoms: C_21  and  N_22 
ROOT
HETATM    1  N   UNL     1     -41.338 -48.217  10.759  1.00  0.00    -0.254 N 
HETATM    2  N   UNL     1     -41.990 -48.478   9.577  1.00  0.00    -0.300 N 
ATOM      3  HN  UNL     1     -41.830 -49.354   9.078  1.00  0.00     0.187 HD
HETATM    4  C   UNL     1     -42.812 -47.593   9.109  1.00  0.00     0.029 C 
HETATM    5  C   UNL     1     -43.535 -47.948   7.828  1.00  0.00     0.070 C 
HETATM    6  C   UNL     1     -43.087 -46.279   9.747  1.00  0.00    -0.013 C 
HETATM    7  C   UNL     1     -44.032 -45.289   9.137  1.00  0.00     0.052 C 
HETATM    8  C   UNL     1     -42.433 -46.061  10.898  1.00  0.00     0.103 C 
HETATM    9  C   UNL     1     -41.568 -47.082  11.525  1.00  0.00     0.282 C 
HETATM   10  O   UNL     1     -41.108 -46.911  12.650  1.00  0.00    -0.265 OA
ENDROOT
BRANCH   1  11
HETATM   11  C   UNL     1     -40.377 -49.229  11.213  1.00  0.00     0.186 C 
BRANCH  11  12
HETATM   12  C   UNL     1     -41.020 -50.580  11.554  1.00  0.00     0.162 C 
BRANCH  12  13
HETATM   13  C   UNL     1     -40.310 -51.288  12.713  1.00  0.00     0.209 C 
BRANCH  13  14
HETATM   14  O   UNL     1     -40.364 -52.694  12.463  1.00  0.00    -0.348 OA
BRANCH  14  15
HETATM   15  C   UNL     1     -41.183 -53.451  13.253  1.00  0.00     0.075 A 
HETATM   16  C   UNL     1     -40.564 -54.049  14.364  1.00  0.00    -0.029 A 
HETATM   17  C   UNL     1     -41.331 -54.826  15.242  1.00  0.00     0.010 A 
HETATM   18  C   UNL     1     -39.097 -53.842  14.626  1.00  0.00     0.051 C 
HETATM   19  C   UNL     1     -42.699 -54.997  15.026  1.00  0.00     0.007 A 
HETATM   20  C   UNL     1     -43.321 -54.397  13.929  1.00  0.00    -0.059 A 
HETATM   21  C   UNL     1     -44.796 -54.538  13.696  1.00  0.00     0.048 C 
HETATM   22  C   UNL     1     -42.551 -53.636  13.038  1.00  0.00     0.044 A 
ENDBRANCH  14  15
ENDBRANCH  13  14
ENDBRANCH  12  13
BRANCH  12  23
HETATM   23  O   UNL     1     -42.411 -50.394  11.860  1.00  0.00    -0.392 OA
HETATM   24  H   UNL     1     -42.446 -49.646  12.489  1.00  0.00     0.210 HD
ENDBRANCH  12  23
ENDBRANCH  11  12
ENDBRANCH   1  11
BRANCH   8  25
HETATM   25  C   UNL     1     -42.642 -44.756  11.650  1.00  0.00    -0.031 C 
BRANCH  25  26
HETATM   26  N   UNL     1     -42.816 -43.674  12.274  1.00  0.00    -0.365 N 
ATOM     27  HN2 UNL     1     -42.706 -44.527  11.726  1.00  0.00     0.165 HD
ATOM     28  HN1 UNL     1     -42.956 -42.800  12.780  1.00  0.00     0.165 HD
ENDBRANCH  25  26
ENDBRANCH   8  25
TORSDOF 8
ENDMDL
MODEL 7
REMARK VINA RESULT:      -5.4      1.928      4.077
REMARK  8 active torsions:
REMARK  status: ('A' for Active; 'I' for Inactive)
REMARK    1  A    between atoms: C_7  and  O_8 
REMARK    2  A    between atoms: O_8  and  C_9 
REMARK    3  A    between atoms: C_9  and  C_10 
REMARK    4  A    between atoms: C_10  and  O_11 
REMARK    5  A    between atoms: C_10  and  C_12 
REMARK    6  A    between atoms: C_12  and  N_13 
REMARK    7  A    between atoms: C_20  and  C_21 
REMARK    8  A    between atoms: C_21  and  N_22 
ROOT
HETATM    1  N   UNL     1     -41.677 -53.072  12.808  1.00  0.00    -0.254 N 
HETATM    2  N   UNL     1     -40.784 -53.378  13.808  1.00  0.00    -0.300 N 
ATOM      3  HN  UNL     1     -39.827 -53.026  13.776  1.00  0.00     0.187 HD
HETATM    4  C   UNL     1     -41.180 -54.122  14.792  1.00  0.00     0.029 C 
HETATM    5  C   UNL     1     -40.172 -54.394  15.886  1.00  0.00     0.070 C 
HETATM    6  C   UNL     1     -42.542 -54.707  14.910  1.00  0.00    -0.013 C 
HETATM    7  C   UNL     1     -42.926 -55.582  16.065  1.00  0.00     0.052 C 
HETATM    8  C   UNL     1     -43.383 -54.385  13.917  1.00  0.00     0.103 C 
HETATM    9  C   UNL     1     -43.011 -53.455  12.830  1.00  0.00     0.282 C 
HETATM   10  O   UNL     1     -43.849 -53.061  12.024  1.00  0.00    -0.265 OA
ENDROOT
BRANCH   1  11
HETATM   11  C   UNL     1     -41.158 -52.274  11.691  1.00  0.00     0.186 C 
BRANCH  11  12
HETATM   12  C   UNL     1     -40.841 -50.821  12.068  1.00  0.00     0.162 C 
BRANCH  12  13
HETATM   13  C   UNL     1     -42.098 -50.025  12.436  1.00  0.00     0.209 C 
BRANCH  13  14
HETATM   14  O   UNL     1     -42.094 -49.835  13.852  1.00  0.00    -0.348 OA
BRANCH  14  15
HETATM   15  C   UNL     1     -43.064 -50.464  14.582  1.00  0.00     0.075 A 
HETATM   16  C   UNL     1     -42.661 -50.930  15.844  1.00  0.00    -0.029 A 
HETATM   17  C   UNL     1     -43.595 -51.568  16.671  1.00  0.00     0.010 A 
HETATM   18  C   UNL     1     -41.246 -50.731  16.318  1.00  0.00     0.051 C 
HETATM   19  C   UNL     1     -44.917 -51.730  16.254  1.00  0.00     0.007 A 
HETATM   20  C   UNL     1     -45.325 -51.259  15.004  1.00  0.00    -0.059 A 
HETATM   21  C   UNL     1     -46.748 -51.389  14.550  1.00  0.00     0.048 C 
HETATM   22  C   UNL     1     -44.387 -50.638  14.167  1.00  0.00     0.044 A 
ENDBRANCH  14  15
ENDBRANCH  13  14
ENDBRANCH  12  13
BRANCH  12  23
HETATM   23  O   UNL     1     -39.898 -50.793  13.152  1.00  0.00    -0.392 OA
HETATM   24  H   UNL     1     -39.711 -51.729  13.363  1.00  0.00     0.210 HD
ENDBRANCH  12  23
ENDBRANCH  11  12
ENDBRANCH   1  11
BRANCH   8  25
HETATM   25  C   UNL     1     -44.809 -54.913  13.934  1.00  0.00    -0.031 C 
BRANCH  25  26
HETATM   26  N   UNL     1     -45.992 -55.351  13.949  1.00  0.00    -0.365 N 
ATOM     27  HN2 UNL     1     -45.046 -54.973  13.887  1.00  0.00     0.165 HD
ATOM     28  HN1 UNL     1     -46.948 -55.705  13.962  1.00  0.00     0.165 HD
ENDBRANCH  25  26
ENDBRANCH   8  25
TORSDOF 8
ENDMDL
MODEL 8
REMARK VINA RESULT:      -5.3      2.542      5.795
REMARK  8 active torsions:
REMARK  status: ('A' for Active; 'I' for Inactive)
REMARK    1  A    between atoms: C_7  and  O_8 
REMARK    2  A    between atoms: O_8  and  C_9 
REMARK    3  A    between atoms: C_9  and  C_10 
REMARK    4  A    between atoms: C_10  and  O_11 
REMARK    5  A    between atoms: C_10  and  C_12 
REMARK    6  A    between atoms: C_12  and  N_13 
REMARK    7  A    between atoms: C_20  and  C_21 
REMARK    8  A    between atoms: C_21  and  N_22 
ROOT
HETATM    1  N   UNL     1     -43.329 -50.839  13.385  1.00  0.00    -0.254 N 
HETATM    2  N   UNL     1     -44.440 -51.125  12.627  1.00  0.00    -0.300 N 
ATOM      3  HN  UNL     1     -44.383 -51.141  11.608  1.00  0.00     0.187 HD
HETATM    4  C   UNL     1     -45.560 -51.372  13.229  1.00  0.00     0.029 C 
HETATM    5  C   UNL     1     -46.740 -51.722  12.350  1.00  0.00     0.070 C 
HETATM    6  C   UNL     1     -45.748 -51.341  14.703  1.00  0.00    -0.013 C 
HETATM    7  C   UNL     1     -47.080 -51.613  15.334  1.00  0.00     0.052 C 
HETATM    8  C   UNL     1     -44.642 -51.060  15.409  1.00  0.00     0.103 C 
HETATM    9  C   UNL     1     -43.321 -50.875  14.774  1.00  0.00     0.282 C 
HETATM   10  O   UNL     1     -42.304 -50.772  15.454  1.00  0.00    -0.265 OA
ENDROOT
BRANCH   1  11
HETATM   11  C   UNL     1     -42.102 -50.511  12.650  1.00  0.00     0.186 C 
BRANCH  11  12
HETATM   12  C   UNL     1     -41.415 -51.731  12.023  1.00  0.00     0.162 C 
BRANCH  12  13
HETATM   13  C   UNL     1     -40.608 -52.537  13.047  1.00  0.00     0.209 C 
BRANCH  13  14
HETATM   14  O   UNL     1     -41.262 -53.794  13.225  1.00  0.00    -0.348 OA
BRANCH  14  15
HETATM   15  C   UNL     1     -41.077 -54.448  14.411  1.00  0.00     0.075 A 
HETATM   16  C   UNL     1     -42.252 -54.856  15.064  1.00  0.00    -0.029 A 
HETATM   17  C   UNL     1     -42.158 -55.552  16.276  1.00  0.00     0.010 A 
HETATM   18  C   UNL     1     -43.601 -54.570  14.461  1.00  0.00     0.051 C 
HETATM   19  C   UNL     1     -40.911 -55.850  16.827  1.00  0.00     0.007 A 
HETATM   20  C   UNL     1     -39.739 -55.455  16.177  1.00  0.00    -0.059 A 
HETATM   21  C   UNL     1     -38.388 -55.795  16.732  1.00  0.00     0.048 C 
HETATM   22  C   UNL     1     -39.832 -54.741  14.974  1.00  0.00     0.044 A 
ENDBRANCH  14  15
ENDBRANCH  13  14
ENDBRANCH  12  13
BRANCH  12  23
HETATM   23  O   UNL     1     -42.394 -52.569  11.389  1.00  0.00    -0.392 OA
HETATM   24  H   UNL     1     -43.244 -52.094  11.473  1.00  0.00     0.210 HD
ENDBRANCH  12  23
ENDBRANCH  11  12
ENDBRANCH   1  11
BRANCH   8  25
HETATM   25  C   UNL     1     -44.707 -51.012  16.927  1.00  0.00    -0.031 C 
BRANCH  25  26
HETATM   26  N   UNL     1     -44.760 -50.973  18.186  1.00  0.00    -0.365 N 
ATOM     27  HN2 UNL     1     -44.675 -50.966  17.170  1.00  0.00     0.165 HD
ATOM     28  HN1 UNL     1     -44.805 -50.942  19.205  1.00  0.00     0.165 HD
ENDBRANCH  25  26
ENDBRANCH   8  25
TORSDOF 8
ENDMDL
MODEL 9
REMARK VINA RESULT:      -5.3      0.946      2.057
REMARK  8 active torsions:
REMARK  status: ('A' for Active; 'I' for Inactive)
REMARK    1  A    between atoms: C_7  and  O_8 
REMARK    2  A    between atoms: O_8  and  C_9 
REMARK    3  A    between atoms: C_9  and  C_10 
REMARK    4  A    between atoms: C_10  and  O_11 
REMARK    5  A    between atoms: C_10  and  C_12 
REMARK    6  A    between atoms: C_12  and  N_13 
REMARK    7  A    between atoms: C_20  and  C_21 
REMARK    8  A    between atoms: C_21  and  N_22 
ROOT
HETATM    1  N   UNL     1     -44.210 -54.833  14.069  1.00  0.00    -0.254 N 
HETATM    2  N   UNL     1     -43.471 -55.336  15.114  1.00  0.00    -0.300 N 
ATOM      3  HN  UNL     1     -43.906 -55.937  15.816  1.00  0.00     0.187 HD
HETATM    4  C   UNL     1     -42.214 -55.033  15.193  1.00  0.00     0.029 C 
HETATM    5  C   UNL     1     -41.438 -55.647  16.337  1.00  0.00     0.070 C 
HETATM    6  C   UNL     1     -41.502 -54.143  14.239  1.00  0.00    -0.013 C 
HETATM    7  C   UNL     1     -40.049 -53.813  14.404  1.00  0.00     0.052 C 
HETATM    8  C   UNL     1     -42.255 -53.673  13.234  1.00  0.00     0.103 C 
HETATM    9  C   UNL     1     -43.664 -54.073  13.043  1.00  0.00     0.282 C 
HETATM   10  O   UNL     1     -44.280 -53.749  12.031  1.00  0.00    -0.265 OA
ENDROOT
BRANCH   1  11
HETATM   11  C   UNL     1     -45.641 -55.161  14.062  1.00  0.00     0.186 C 
BRANCH  11  12
HETATM   12  C   UNL     1     -46.529 -54.053  14.642  1.00  0.00     0.162 C 
BRANCH  12  13
HETATM   13  C   UNL     1     -45.922 -53.415  15.896  1.00  0.00     0.209 C 
BRANCH  13  14
HETATM   14  O   UNL     1     -45.474 -52.104  15.545  1.00  0.00    -0.348 OA
BRANCH  14  15
HETATM   15  C   UNL     1     -44.183 -51.769  15.846  1.00  0.00     0.075 A 
HETATM   16  C   UNL     1     -43.549 -50.924  14.921  1.00  0.00    -0.029 A 
HETATM   17  C   UNL     1     -42.231 -50.511  15.159  1.00  0.00     0.010 A 
HETATM   18  C   UNL     1     -44.279 -50.445  13.695  1.00  0.00     0.051 C 
HETATM   19  C   UNL     1     -41.556 -50.924  16.308  1.00  0.00     0.007 A 
HETATM   20  C   UNL     1     -42.185 -51.756  17.236  1.00  0.00    -0.059 A 
HETATM   21  C   UNL     1     -41.492 -52.184  18.495  1.00  0.00     0.048 C 
HETATM   22  C   UNL     1     -43.497 -52.187  16.989  1.00  0.00     0.044 A 
ENDBRANCH  14  15
ENDBRANCH  13  14
ENDBRANCH  12  13
BRANCH  12  23
HETATM   23  O   UNL     1     -46.773 -53.051  13.642  1.00  0.00    -0.392 OA
HETATM   24  H   UNL     1     -46.388 -53.403  12.815  1.00  0.00     0.210 HD
ENDBRANCH  12  23
ENDBRANCH  11  12
ENDBRANCH   1  11
BRANCH   8  25
HETATM   25  C   UNL     1     -41.634 -52.761  12.188  1.00  0.00    -0.031 C 
BRANCH  25  26
HETATM   26  N   UNL     1     -41.118 -52.005  11.320  1.00  0.00    -0.365 N 
ATOM     27  HN2 UNL     1     -41.579 -52.580  12.025  1.00  0.00     0.165 HD
ATOM     28  HN1 UNL     1     -40.700 -51.395  10.618  1.00  0.00     0.165 HD
ENDBRANCH  25  26
ENDBRANCH   8  25
TORSDOF 8
ENDMDL
