MODEL 1
REMARK VINA RESULT:      -6.6      0.000      0.000
REMARK  3 active torsions:
REMARK  status: ('A' for Active; 'I' for Inactive)
REMARK       I    between atoms: C_2  and  N_4 
REMARK    1  A    between atoms: C_7  and  N_10 
REMARK       I    between atoms: N_10  and  C_11 
REMARK       I    between atoms: C_11  and  N_13 
REMARK    2  A    between atoms: N_13  and  C_14 
REMARK    3  A    between atoms: C_17  and  N_21 
ROOT
HETATM    1  N   UNL     1     -42.278 -51.356  12.309  1.00  0.00    -0.338 N 
HETATM    2  C   UNL     1     -42.006 -50.014  12.449  1.00  0.00     0.321 C 
HETATM    3  O   UNL     1     -41.533 -49.535  13.473  1.00  0.00    -0.247 OA
HETATM    4  N   UNL     1     -42.380 -49.299  11.336  1.00  0.00    -0.308 N 
HETATM    5  H   UNL     1     -42.294 -51.720  11.362  1.00  0.00     0.164 HD
HETATM    6  H   UNL     1     -43.194 -49.671  10.867  1.00  0.00     0.170 HD
ENDROOT
BRANCH   4   7
HETATM    7  C   UNL     1     -42.175 -47.906  11.241  1.00  0.00     0.051 A 
HETATM    8  C   UNL     1     -40.902 -47.427  10.972  1.00  0.00     0.035 A 
HETATM    9  C   UNL     1     -40.705 -46.048  10.839  1.00  0.00     0.051 A 
HETATM   10  C   UNL     1     -41.751 -45.148  11.053  1.00  0.00     0.103 A 
HETATM   11  N   UNL     1     -42.987 -45.620  11.332  1.00  0.00    -0.350 N 
HETATM   12  C   UNL     1     -43.181 -46.964  11.400  1.00  0.00     0.119 A 
ATOM     13  HN  UNL     1     -43.763 -44.978  11.489  1.00  0.00     0.166 HD
BRANCH  10  14
HETATM   14  N   UNL     1     -41.566 -43.786  10.968  1.00  0.00    -0.367 N 
HETATM   15  C   UNL     1     -42.724 -42.904  11.114  1.00  0.00     0.124 C 
HETATM   16  C   UNL     1     -42.147 -41.577  11.610  1.00  0.00     0.021 C 
HETATM   17  C   UNL     1     -40.795 -41.946  12.200  1.00  0.00     0.021 C 
HETATM   18  C   UNL     1     -40.331 -43.108  11.336  1.00  0.00     0.124 C 
ENDBRANCH  10  14
ENDBRANCH   4   7
BRANCH   1  19
HETATM   19  C   UNL     1     -42.124 -52.279  13.432  1.00  0.00     0.089 C 
HETATM   20  C   UNL     1     -42.309 -53.741  13.021  1.00  0.00     0.045 C 
HETATM   21  C   UNL     1     -43.766 -54.089  12.751  1.00  0.00     0.127 C 
HETATM   22  N   UNL     1     -44.617 -53.701  13.872  1.00  0.00    -0.352 N 
HETATM   23  C   UNL     1     -45.580 -54.597  14.317  1.00  0.00     0.215 C 
HETATM   24  C   UNL     1     -44.520 -52.298  14.277  1.00  0.00     0.127 C 
HETATM   25  C   UNL     1     -46.482 -54.146  15.437  1.00  0.00     0.117 C 
HETATM   26  O   UNL     1     -45.710 -55.726  13.843  1.00  0.00    -0.274 OA
HETATM   27  C   UNL     1     -43.074 -51.909  14.577  1.00  0.00     0.045 C 
ENDBRANCH   1  19
TORSDOF 3
ENDMDL
MODEL 2
REMARK VINA RESULT:      -6.2      1.837      2.074
REMARK  3 active torsions:
REMARK  status: ('A' for Active; 'I' for Inactive)
REMARK       I    between atoms: C_2  and  N_4 
REMARK    1  A    between atoms: C_7  and  N_10 
REMARK       I    between atoms: N_10  and  C_11 
REMARK       I    between atoms: C_11  and  N_13 
REMARK    2  A    between atoms: N_13  and  C_14 
REMARK    3  A    between atoms: C_17  and  N_21 
ROOT
HETATM    1  N   UNL     1     -41.669 -51.773  12.331  1.00  0.00    -0.338 N 
HETATM    2  C   UNL     1     -41.293 -50.456  12.193  1.00  0.00     0.321 C 
HETATM    3  O   UNL     1     -40.168 -50.054  12.466  1.00  0.00    -0.247 OA
HETATM    4  N   UNL     1     -42.339 -49.668  11.775  1.00  0.00    -0.308 N 
HETATM    5  H   UNL     1     -42.440 -52.088  11.751  1.00  0.00     0.164 HD
HETATM    6  H   UNL     1     -43.240 -49.971  12.116  1.00  0.00     0.170 HD
ENDROOT
BRANCH   4   7
HETATM    7  C   UNL     1     -42.183 -48.285  11.542  1.00  0.00     0.051 A 
HETATM    8  C   UNL     1     -42.523 -47.387  12.541  1.00  0.00     0.035 A 
HETATM    9  C   UNL     1     -42.332 -46.018  12.325  1.00  0.00     0.051 A 
HETATM   10  C   UNL     1     -41.881 -45.541  11.093  1.00  0.00     0.103 A 
HETATM   11  N   UNL     1     -41.566 -46.419  10.116  1.00  0.00    -0.350 N 
HETATM   12  C   UNL     1     -41.699 -47.750  10.356  1.00  0.00     0.119 A 
ATOM     13  HN  UNL     1     -41.234 -46.088   9.210  1.00  0.00     0.166 HD
BRANCH  10  14
HETATM   14  N   UNL     1     -41.727 -44.194  10.849  1.00  0.00    -0.367 N 
HETATM   15  C   UNL     1     -42.871 -43.303  11.048  1.00  0.00     0.124 C 
HETATM   16  C   UNL     1     -42.256 -41.931  11.333  1.00  0.00     0.021 C 
HETATM   17  C   UNL     1     -40.837 -42.236  11.785  1.00  0.00     0.021 C 
HETATM   18  C   UNL     1     -40.466 -43.480  10.992  1.00  0.00     0.124 C 
ENDBRANCH  10  14
ENDBRANCH   4   7
BRANCH   1  19
HETATM   19  C   UNL     1     -40.769 -52.757  12.928  1.00  0.00     0.089 C 
HETATM   20  C   UNL     1     -41.288 -54.189  12.787  1.00  0.00     0.045 C 
HETATM   21  C   UNL     1     -42.454 -54.480  13.722  1.00  0.00     0.127 C 
HETATM   22  N   UNL     1     -42.125 -54.125  15.100  1.00  0.00    -0.352 N 
HETATM   23  C   UNL     1     -42.460 -55.014  16.113  1.00  0.00     0.215 C 
HETATM   24  C   UNL     1     -41.672 -52.749  15.302  1.00  0.00     0.127 C 
HETATM   25  C   UNL     1     -42.162 -54.596  17.530  1.00  0.00     0.117 C 
HETATM   26  O   UNL     1     -42.972 -56.112  15.893  1.00  0.00    -0.274 OA
HETATM   27  C   UNL     1     -40.487 -52.419  14.396  1.00  0.00     0.045 C 
ENDBRANCH   1  19
TORSDOF 3
ENDMDL
MODEL 3
REMARK VINA RESULT:      -6.1      2.826      3.400
REMARK  3 active torsions:
REMARK  status: ('A' for Active; 'I' for Inactive)
REMARK       I    between atoms: C_2  and  N_4 
REMARK    1  A    between atoms: C_7  and  N_10 
REMARK       I    between atoms: N_10  and  C_11 
REMARK       I    between atoms: C_11  and  N_13 
REMARK    2  A    between atoms: N_13  and  C_14 
REMARK    3  A    between atoms: C_17  and  N_21 
ROOT
HETATM    1  N   UNL     1     -40.045 -52.316  13.824  1.00  0.00    -0.338 N 
HETATM    2  C   UNL     1     -40.448 -51.238  13.069  1.00  0.00     0.321 C 
HETATM    3  O   UNL     1     -41.170 -51.349  12.086  1.00  0.00    -0.247 OA
HETATM    4  N   UNL     1     -39.899 -50.063  13.524  1.00  0.00    -0.308 N 
HETATM    5  H   UNL     1     -39.792 -52.127  14.788  1.00  0.00     0.164 HD
HETATM    6  H   UNL     1     -38.975 -50.170  13.918  1.00  0.00     0.170 HD
ENDROOT
BRANCH   4   7
HETATM    7  C   UNL     1     -40.191 -48.821  12.920  1.00  0.00     0.051 A 
HETATM    8  C   UNL     1     -41.165 -48.009  13.480  1.00  0.00     0.035 A 
HETATM    9  C   UNL     1     -41.427 -46.761  12.904  1.00  0.00     0.051 A 
HETATM   10  C   UNL     1     -40.781 -46.359  11.733  1.00  0.00     0.103 A 
HETATM   11  N   UNL     1     -39.845 -47.162  11.182  1.00  0.00    -0.350 N 
HETATM   12  C   UNL     1     -39.554 -48.346  11.782  1.00  0.00     0.119 A 
ATOM     13  HN  UNL     1     -39.362 -46.884  10.328  1.00  0.00     0.166 HD
BRANCH  10  14
HETATM   14  N   UNL     1     -41.058 -45.151  11.130  1.00  0.00    -0.367 N 
HETATM   15  C   UNL     1     -42.373 -44.542  11.336  1.00  0.00     0.124 C 
HETATM   16  C   UNL     1     -42.147 -43.043  11.128  1.00  0.00     0.021 C 
HETATM   17  C   UNL     1     -40.653 -42.850  11.330  1.00  0.00     0.021 C 
HETATM   18  C   UNL     1     -40.050 -44.149  10.817  1.00  0.00     0.124 C 
ENDBRANCH  10  14
ENDBRANCH   4   7
BRANCH   1  19
HETATM   19  C   UNL     1     -40.365 -53.684  13.419  1.00  0.00     0.089 C 
HETATM   20  C   UNL     1     -41.791 -54.088  13.794  1.00  0.00     0.045 C 
HETATM   21  C   UNL     1     -41.951 -54.342  15.287  1.00  0.00     0.127 C 
HETATM   22  N   UNL     1     -40.946 -55.284  15.771  1.00  0.00    -0.352 N 
HETATM   23  C   UNL     1     -41.346 -56.304  16.624  1.00  0.00     0.215 C 
HETATM   24  C   UNL     1     -39.557 -54.921  15.486  1.00  0.00     0.127 C 
HETATM   25  C   UNL     1     -40.278 -57.225  17.154  1.00  0.00     0.117 C 
HETATM   26  O   UNL     1     -42.522 -56.481  16.944  1.00  0.00    -0.274 OA
HETATM   27  C   UNL     1     -39.347 -54.676  13.993  1.00  0.00     0.045 C 
ENDBRANCH   1  19
TORSDOF 3
ENDMDL
MODEL 4
REMARK VINA RESULT:      -6.1      3.678      4.868
REMARK  3 active torsions:
REMARK  status: ('A' for Active; 'I' for Inactive)
REMARK       I    between atoms: C_2  and  N_4 
REMARK    1  A    between atoms: C_7  and  N_10 
REMARK       I    between atoms: N_10  and  C_11 
REMARK       I    between atoms: C_11  and  N_13 
REMARK    2  A    between atoms: N_13  and  C_14 
REMARK    3  A    between atoms: C_17  and  N_21 
ROOT
HETATM    1  N   UNL     1     -40.452 -52.891  14.303  1.00  0.00    -0.338 N 
HETATM    2  C   UNL     1     -41.106 -52.202  13.308  1.00  0.00     0.321 C 
HETATM    3  O   UNL     1     -41.847 -52.749  12.498  1.00  0.00    -0.247 OA
HETATM    4  N   UNL     1     -40.780 -50.867  13.312  1.00  0.00    -0.308 N 
HETATM    5  H   UNL     1     -40.188 -52.359  15.126  1.00  0.00     0.164 HD
HETATM    6  H   UNL     1     -39.833 -50.680  13.607  1.00  0.00     0.170 HD
ENDROOT
BRANCH   4   7
HETATM    7  C   UNL     1     -41.349 -49.958  12.395  1.00  0.00     0.051 A 
HETATM    8  C   UNL     1     -42.533 -49.315  12.725  1.00  0.00     0.035 A 
HETATM    9  C   UNL     1     -43.077 -48.385  11.834  1.00  0.00     0.051 A 
HETATM   10  C   UNL     1     -42.492 -48.155  10.588  1.00  0.00     0.103 A 
HETATM   11  N   UNL     1     -41.347 -48.796  10.264  1.00  0.00    -0.350 N 
HETATM   12  C   UNL     1     -40.793 -49.654  11.161  1.00  0.00     0.119 A 
ATOM     13  HN  UNL     1     -40.905 -48.639   9.358  1.00  0.00     0.166 HD
BRANCH  10  14
HETATM   14  N   UNL     1     -43.037 -47.273   9.681  1.00  0.00    -0.367 N 
HETATM   15  C   UNL     1     -44.429 -47.455   9.267  1.00  0.00     0.124 C 
HETATM   16  C   UNL     1     -44.896 -46.064   8.836  1.00  0.00     0.021 C 
HETATM   17  C   UNL     1     -43.925 -45.109   9.512  1.00  0.00     0.021 C 
HETATM   18  C   UNL     1     -42.618 -45.886   9.541  1.00  0.00     0.124 C 
ENDBRANCH  10  14
ENDBRANCH   4   7
BRANCH   1  19
HETATM   19  C   UNL     1     -40.513 -54.350  14.379  1.00  0.00     0.089 C 
HETATM   20  C   UNL     1     -41.486 -54.842  15.451  1.00  0.00     0.045 C 
HETATM   21  C   UNL     1     -40.943 -54.651  16.861  1.00  0.00     0.127 C 
HETATM   22  N   UNL     1     -39.609 -55.228  16.994  1.00  0.00    -0.352 N 
HETATM   23  C   UNL     1     -39.323 -55.990  18.119  1.00  0.00     0.215 C 
HETATM   24  C   UNL     1     -38.621 -54.754  16.025  1.00  0.00     0.127 C 
HETATM   25  C   UNL     1     -37.920 -56.524  18.258  1.00  0.00     0.117 C 
HETATM   26  O   UNL     1     -40.164 -56.246  18.982  1.00  0.00    -0.274 OA
HETATM   27  C   UNL     1     -39.117 -54.945  14.593  1.00  0.00     0.045 C 
ENDBRANCH   1  19
TORSDOF 3
ENDMDL
MODEL 5
REMARK VINA RESULT:      -6.0      2.346      9.588
REMARK  3 active torsions:
REMARK  status: ('A' for Active; 'I' for Inactive)
REMARK       I    between atoms: C_2  and  N_4 
REMARK    1  A    between atoms: C_7  and  N_10 
REMARK       I    between atoms: N_10  and  C_11 
REMARK       I    between atoms: C_11  and  N_13 
REMARK    2  A    between atoms: N_13  and  C_14 
REMARK    3  A    between atoms: C_17  and  N_21 
ROOT
HETATM    1  N   UNL     1     -40.656 -46.603  11.363  1.00  0.00    -0.338 N 
HETATM    2  C   UNL     1     -41.276 -47.832  11.330  1.00  0.00     0.321 C 
HETATM    3  O   UNL     1     -41.957 -48.206  10.383  1.00  0.00    -0.247 OA
HETATM    4  N   UNL     1     -41.078 -48.535  12.494  1.00  0.00    -0.308 N 
HETATM    5  H   UNL     1     -39.840 -46.522  11.960  1.00  0.00     0.164 HD
HETATM    6  H   UNL     1     -41.011 -47.952  13.316  1.00  0.00     0.170 HD
ENDROOT
BRANCH   4   7
HETATM    7  C   UNL     1     -41.600 -49.833  12.679  1.00  0.00     0.051 A 
HETATM    8  C   UNL     1     -42.804 -49.989  13.347  1.00  0.00     0.035 A 
HETATM    9  C   UNL     1     -43.342 -51.272  13.496  1.00  0.00     0.051 A 
HETATM   10  C   UNL     1     -42.646 -52.399  13.054  1.00  0.00     0.103 A 
HETATM   11  N   UNL     1     -41.464 -52.243  12.418  1.00  0.00    -0.350 N 
HETATM   12  C   UNL     1     -40.978 -50.988  12.226  1.00  0.00     0.119 A 
ATOM     13  HN  UNL     1     -40.943 -53.055  12.088  1.00  0.00     0.166 HD
BRANCH  10  14
HETATM   14  N   UNL     1     -43.141 -53.673  13.231  1.00  0.00    -0.367 N 
HETATM   15  C   UNL     1     -42.738 -54.431  14.416  1.00  0.00     0.124 C 
HETATM   16  C   UNL     1     -43.875 -55.427  14.650  1.00  0.00     0.021 C 
HETATM   17  C   UNL     1     -45.063 -54.830  13.913  1.00  0.00     0.021 C 
HETATM   18  C   UNL     1     -44.430 -54.122  12.725  1.00  0.00     0.124 C 
ENDBRANCH  10  14
ENDBRANCH   4   7
BRANCH   1  19
HETATM   19  C   UNL     1     -40.875 -45.617  10.306  1.00  0.00     0.089 C 
HETATM   20  C   UNL     1     -39.838 -44.494  10.327  1.00  0.00     0.045 C 
HETATM   21  C   UNL     1     -40.059 -43.519  11.476  1.00  0.00     0.127 C 
HETATM   22  N   UNL     1     -41.434 -43.027  11.492  1.00  0.00    -0.352 N 
HETATM   23  C   UNL     1     -41.651 -41.669  11.687  1.00  0.00     0.215 C 
HETATM   24  C   UNL     1     -42.470 -44.059  11.524  1.00  0.00     0.127 C 
HETATM   25  C   UNL     1     -43.082 -41.199  11.757  1.00  0.00     0.117 C 
HETATM   26  O   UNL     1     -40.733 -40.856  11.793  1.00  0.00    -0.274 OA
HETATM   27  C   UNL     1     -42.298 -45.050  10.375  1.00  0.00     0.045 C 
ENDBRANCH   1  19
TORSDOF 3
ENDMDL
MODEL 6
REMARK VINA RESULT:      -6.0      7.800     11.385
REMARK  3 active torsions:
REMARK  status: ('A' for Active; 'I' for Inactive)
REMARK       I    between atoms: C_2  and  N_4 
REMARK    1  A    between atoms: C_7  and  N_10 
REMARK       I    between atoms: N_10  and  C_11 
REMARK       I    between atoms: C_11  and  N_13 
REMARK    2  A    between atoms: N_13  and  C_14 
REMARK    3  A    between atoms: C_17  and  N_21 
ROOT
HETATM    1  N   UNL     1     -36.018 -55.842  17.250  1.00  0.00    -0.338 N 
HETATM    2  C   UNL     1     -37.298 -55.355  17.112  1.00  0.00     0.321 C 
HETATM    3  O   UNL     1     -37.869 -54.728  17.997  1.00  0.00    -0.247 OA
HETATM    4  N   UNL     1     -37.851 -55.708  15.904  1.00  0.00    -0.308 N 
HETATM    5  H   UNL     1     -35.496 -55.996  16.394  1.00  0.00     0.164 HD
HETATM    6  H   UNL     1     -37.542 -56.607  15.562  1.00  0.00     0.170 HD
ENDROOT
BRANCH   4   7
HETATM    7  C   UNL     1     -39.149 -55.299  15.531  1.00  0.00     0.051 A 
HETATM    8  C   UNL     1     -39.315 -54.543  14.381  1.00  0.00     0.035 A 
HETATM    9  C   UNL     1     -40.605 -54.170  13.989  1.00  0.00     0.051 A 
HETATM   10  C   UNL     1     -41.714 -54.478  14.779  1.00  0.00     0.103 A 
HETATM   11  N   UNL     1     -41.545 -55.201  15.908  1.00  0.00    -0.350 N 
HETATM   12  C   UNL     1     -40.294 -55.610  16.249  1.00  0.00     0.119 A 
ATOM     13  HN  UNL     1     -42.344 -55.437  16.496  1.00  0.00     0.166 HD
BRANCH  10  14
HETATM   14  N   UNL     1     -42.987 -54.083  14.429  1.00  0.00    -0.367 N 
HETATM   15  C   UNL     1     -43.246 -53.671  13.049  1.00  0.00     0.124 C 
HETATM   16  C   UNL     1     -44.739 -53.928  12.837  1.00  0.00     0.021 C 
HETATM   17  C   UNL     1     -45.110 -54.935  13.914  1.00  0.00     0.021 C 
HETATM   18  C   UNL     1     -44.197 -54.572  15.074  1.00  0.00     0.124 C 
ENDBRANCH  10  14
ENDBRANCH   4   7
BRANCH   1  19
HETATM   19  C   UNL     1     -35.302 -55.737  18.520  1.00  0.00     0.089 C 
HETATM   20  C   UNL     1     -34.570 -54.403  18.673  1.00  0.00     0.045 C 
HETATM   21  C   UNL     1     -33.324 -54.321  17.802  1.00  0.00     0.127 C 
HETATM   22  N   UNL     1     -32.456 -55.475  18.014  1.00  0.00    -0.352 N 
HETATM   23  C   UNL     1     -31.090 -55.263  18.156  1.00  0.00     0.215 C 
HETATM   24  C   UNL     1     -33.091 -56.780  17.831  1.00  0.00     0.127 C 
HETATM   25  C   UNL     1     -30.212 -56.478  18.315  1.00  0.00     0.117 C 
HETATM   26  O   UNL     1     -30.588 -54.138  18.165  1.00  0.00    -0.274 OA
HETATM   27  C   UNL     1     -34.337 -56.914  18.702  1.00  0.00     0.045 C 
ENDBRANCH   1  19
TORSDOF 3
ENDMDL
MODEL 7
REMARK VINA RESULT:      -5.8      3.304      9.472
REMARK  3 active torsions:
REMARK  status: ('A' for Active; 'I' for Inactive)
REMARK       I    between atoms: C_2  and  N_4 
REMARK    1  A    between atoms: C_7  and  N_10 
REMARK       I    between atoms: N_10  and  C_11 
REMARK       I    between atoms: C_11  and  N_13 
REMARK    2  A    between atoms: N_13  and  C_14 
REMARK    3  A    between atoms: C_17  and  N_21 
ROOT
HETATM    1  N   UNL     1     -42.121 -49.339  11.382  1.00  0.00    -0.338 N 
HETATM    2  C   UNL     1     -41.979 -50.293  12.364  1.00  0.00     0.321 C 
HETATM    3  O   UNL     1     -42.708 -50.347  13.348  1.00  0.00    -0.247 OA
HETATM    4  N   UNL     1     -40.905 -51.116  12.124  1.00  0.00    -0.308 N 
HETATM    5  H   UNL     1     -41.764 -49.577  10.463  1.00  0.00     0.164 HD
HETATM    6  H   UNL     1     -40.135 -50.656  11.660  1.00  0.00     0.170 HD
ENDROOT
BRANCH   4   7
HETATM    7  C   UNL     1     -40.578 -52.185  12.986  1.00  0.00     0.051 A 
HETATM    8  C   UNL     1     -39.470 -52.075  13.811  1.00  0.00     0.035 A 
HETATM    9  C   UNL     1     -39.169 -53.118  14.694  1.00  0.00     0.051 A 
HETATM   10  C   UNL     1     -39.918 -54.297  14.697  1.00  0.00     0.103 A 
HETATM   11  N   UNL     1     -40.987 -54.406  13.878  1.00  0.00    -0.350 N 
HETATM   12  C   UNL     1     -41.308 -53.364  13.067  1.00  0.00     0.119 A 
ATOM     13  HN  UNL     1     -41.547 -55.258  13.868  1.00  0.00     0.166 HD
BRANCH  10  14
HETATM   14  N   UNL     1     -39.610 -55.350  15.529  1.00  0.00    -0.367 N 
HETATM   15  C   UNL     1     -38.230 -55.505  15.993  1.00  0.00     0.124 C 
HETATM   16  C   UNL     1     -38.344 -56.275  17.310  1.00  0.00     0.021 C 
HETATM   17  C   UNL     1     -39.779 -56.053  17.760  1.00  0.00     0.021 C 
HETATM   18  C   UNL     1     -40.554 -55.958  16.455  1.00  0.00     0.124 C 
ENDBRANCH  10  14
ENDBRANCH   4   7
BRANCH   1  19
HETATM   19  C   UNL     1     -43.088 -48.251  11.519  1.00  0.00     0.089 C 
HETATM   20  C   UNL     1     -43.106 -47.325  10.302  1.00  0.00     0.045 C 
HETATM   21  C   UNL     1     -41.884 -46.419  10.244  1.00  0.00     0.127 C 
HETATM   22  N   UNL     1     -41.697 -45.704  11.502  1.00  0.00    -0.352 N 
HETATM   23  C   UNL     1     -41.399 -44.348  11.459  1.00  0.00     0.215 C 
HETATM   24  C   UNL     1     -41.621 -46.545  12.697  1.00  0.00     0.127 C 
HETATM   25  C   UNL     1     -41.154 -43.649  12.772  1.00  0.00     0.117 C 
HETATM   26  O   UNL     1     -41.339 -43.712  10.406  1.00  0.00    -0.274 OA
HETATM   27  C   UNL     1     -42.840 -47.459  12.807  1.00  0.00     0.045 C 
ENDBRANCH   1  19
TORSDOF 3
ENDMDL
MODEL 8
REMARK VINA RESULT:      -5.8     15.702     18.235
REMARK  3 active torsions:
REMARK  status: ('A' for Active; 'I' for Inactive)
REMARK       I    between atoms: C_2  and  N_4 
REMARK    1  A    between atoms: C_7  and  N_10 
REMARK       I    between atoms: N_10  and  C_11 
REMARK       I    between atoms: C_11  and  N_13 
REMARK    2  A    between atoms: N_13  and  C_14 
REMARK    3  A    between atoms: C_17  and  N_21 
ROOT
HETATM    1  N   UNL     1     -49.724 -50.114  -0.691  1.00  0.00    -0.338 N 
HETATM    2  C   UNL     1     -49.425 -51.429  -0.965  1.00  0.00     0.321 C 
HETATM    3  O   UNL     1     -48.673 -52.099  -0.267  1.00  0.00    -0.247 OA
HETATM    4  N   UNL     1     -50.023 -51.857  -2.127  1.00  0.00    -0.308 N 
HETATM    5  H   UNL     1     -50.602 -49.762  -1.057  1.00  0.00     0.164 HD
HETATM    6  H   UNL     1     -50.116 -51.135  -2.827  1.00  0.00     0.170 HD
ENDROOT
BRANCH   4   7
HETATM    7  C   UNL     1     -49.878 -53.180  -2.596  1.00  0.00     0.051 A 
HETATM    8  C   UNL     1     -50.900 -54.091  -2.376  1.00  0.00     0.035 A 
HETATM    9  C   UNL     1     -50.775 -55.392  -2.875  1.00  0.00     0.051 A 
HETATM   10  C   UNL     1     -49.606 -55.807  -3.518  1.00  0.00     0.103 A 
HETATM   11  N   UNL     1     -48.606 -54.919  -3.714  1.00  0.00    -0.350 N 
HETATM   12  C   UNL     1     -48.761 -53.641  -3.278  1.00  0.00     0.119 A 
ATOM     13  HN  UNL     1     -47.746 -55.204  -4.182  1.00  0.00     0.166 HD
BRANCH  10  14
HETATM   14  N   UNL     1     -49.449 -57.096  -3.978  1.00  0.00    -0.367 N 
HETATM   15  C   UNL     1     -50.200 -57.521  -5.159  1.00  0.00     0.124 C 
HETATM   16  C   UNL     1     -49.372 -58.658  -5.762  1.00  0.00     0.021 C 
HETATM   17  C   UNL     1     -47.976 -58.456  -5.194  1.00  0.00     0.021 C 
HETATM   18  C   UNL     1     -48.231 -57.876  -3.811  1.00  0.00     0.124 C 
ENDBRANCH  10  14
ENDBRANCH   4   7
BRANCH   1  19
HETATM   19  C   UNL     1     -49.060 -49.400   0.398  1.00  0.00     0.089 C 
HETATM   20  C   UNL     1     -49.915 -49.335   1.665  1.00  0.00     0.045 C 
HETATM   21  C   UNL     1     -51.072 -48.353   1.537  1.00  0.00     0.127 C 
HETATM   22  N   UNL     1     -50.603 -47.042   1.098  1.00  0.00    -0.352 N 
HETATM   23  C   UNL     1     -51.094 -45.912   1.739  1.00  0.00     0.215 C 
HETATM   24  C   UNL     1     -49.822 -47.037  -0.139  1.00  0.00     0.127 C 
HETATM   25  C   UNL     1     -50.638 -44.570   1.226  1.00  0.00     0.117 C 
HETATM   26  O   UNL     1     -51.866 -45.972   2.697  1.00  0.00    -0.274 OA
HETATM   27  C   UNL     1     -48.637 -47.996  -0.048  1.00  0.00     0.045 C 
ENDBRANCH   1  19
TORSDOF 3
ENDMDL
MODEL 9
REMARK VINA RESULT:      -5.8      8.084     11.173
REMARK  3 active torsions:
REMARK  status: ('A' for Active; 'I' for Inactive)
REMARK       I    between atoms: C_2  and  N_4 
REMARK    1  A    between atoms: C_7  and  N_10 
REMARK       I    between atoms: N_10  and  C_11 
REMARK       I    between atoms: C_11  and  N_13 
REMARK    2  A    between atoms: N_13  and  C_14 
REMARK    3  A    between atoms: C_17  and  N_21 
ROOT
HETATM    1  N   UNL     1     -36.105 -56.085  17.357  1.00  0.00    -0.338 N 
HETATM    2  C   UNL     1     -37.369 -55.566  17.194  1.00  0.00     0.321 C 
HETATM    3  O   UNL     1     -38.002 -55.058  18.113  1.00  0.00    -0.247 OA
HETATM    4  N   UNL     1     -37.833 -55.743  15.912  1.00  0.00    -0.308 N 
HETATM    5  H   UNL     1     -35.522 -56.128  16.528  1.00  0.00     0.164 HD
HETATM    6  H   UNL     1     -37.503 -56.590  15.473  1.00  0.00     0.170 HD
ENDROOT
BRANCH   4   7
HETATM    7  C   UNL     1     -39.098 -55.269  15.505  1.00  0.00     0.051 A 
HETATM    8  C   UNL     1     -40.228 -55.680  16.194  1.00  0.00     0.035 A 
HETATM    9  C   UNL     1     -41.479 -55.180  15.816  1.00  0.00     0.051 A 
HETATM   10  C   UNL     1     -41.613 -54.339  14.710  1.00  0.00     0.103 A 
HETATM   11  N   UNL     1     -40.509 -53.954  14.031  1.00  0.00    -0.350 N 
HETATM   12  C   UNL     1     -39.292 -54.398  14.442  1.00  0.00     0.119 A 
ATOM     13  HN  UNL     1     -40.588 -53.339  13.221  1.00  0.00     0.166 HD
BRANCH  10  14
HETATM   14  N   UNL     1     -42.841 -53.870  14.298  1.00  0.00    -0.367 N 
HETATM   15  C   UNL     1     -42.982 -53.358  12.934  1.00  0.00     0.124 C 
HETATM   16  C   UNL     1     -44.463 -53.540  12.597  1.00  0.00     0.021 C 
HETATM   17  C   UNL     1     -44.949 -54.601  13.573  1.00  0.00     0.021 C 
HETATM   18  C   UNL     1     -44.112 -54.353  14.819  1.00  0.00     0.124 C 
ENDBRANCH  10  14
ENDBRANCH   4   7
BRANCH   1  19
HETATM   19  C   UNL     1     -35.485 -56.165  18.678  1.00  0.00     0.089 C 
HETATM   20  C   UNL     1     -33.957 -56.125  18.613  1.00  0.00     0.045 C 
HETATM   21  C   UNL     1     -33.363 -57.429  18.100  1.00  0.00     0.127 C 
HETATM   22  N   UNL     1     -33.872 -58.572  18.853  1.00  0.00    -0.352 N 
HETATM   23  C   UNL     1     -32.975 -59.549  19.265  1.00  0.00     0.215 C 
HETATM   24  C   UNL     1     -35.329 -58.690  18.905  1.00  0.00     0.127 C 
HETATM   25  C   UNL     1     -33.537 -60.746  19.989  1.00  0.00     0.117 C 
HETATM   26  O   UNL     1     -31.762 -59.465  19.071  1.00  0.00    -0.274 OA
HETATM   27  C   UNL     1     -35.968 -57.408  19.434  1.00  0.00     0.045 C 
ENDBRANCH   1  19
TORSDOF 3
ENDMDL
