MODEL 1
REMARK VINA RESULT:      -6.4      0.000      0.000
REMARK  6 active torsions:
REMARK  status: ('A' for Active; 'I' for Inactive)
REMARK    1  A    between atoms: C_5  and  O_6 
REMARK    2  A    between atoms: O_6  and  C_7 
REMARK    3  A    between atoms: C_7  and  C_8 
REMARK    4  A    between atoms: C_8  and  O_9 
REMARK    5  A    between atoms: C_8  and  C_10 
REMARK    6  A    between atoms: C_10  and  N_11 
ROOT
HETATM    1  C   UNL     1     -42.323 -52.620  12.157  1.00  0.00     0.161 C 
ENDROOT
BRANCH   1   2
HETATM    2  C   UNL     1     -42.501 -51.325  12.977  1.00  0.00     0.209 C 
BRANCH   2   3
HETATM    3  O   UNL     1     -43.834 -50.839  12.809  1.00  0.00    -0.348 OA
BRANCH   3   4
HETATM    4  C   UNL     1     -44.679 -50.896  13.888  1.00  0.00     0.074 A 
HETATM    5  C   UNL     1     -44.312 -50.599  15.205  1.00  0.00     0.038 A 
HETATM    6  C   UNL     1     -45.248 -50.673  16.244  1.00  0.00     0.009 A 
HETATM    7  C   UNL     1     -46.566 -51.051  15.986  1.00  0.00    -0.061 A 
HETATM    8  C   UNL     1     -47.583 -51.126  17.088  1.00  0.00     0.048 C 
HETATM    9  C   UNL     1     -46.931 -51.368  14.674  1.00  0.00     0.016 A 
HETATM   10  C   UNL     1     -46.004 -51.282  13.619  1.00  0.00    -0.028 A 
HETATM   11  C   UNL     1     -46.481 -51.619  12.231  1.00  0.00     0.051 C 
ENDBRANCH   3   4
ENDBRANCH   2   3
ENDBRANCH   1   2
BRANCH   1  12
HETATM   12  O   UNL     1     -41.265 -52.477  11.193  1.00  0.00    -0.392 OA
HETATM   13  H   UNL     1     -41.133 -51.533  11.005  1.00  0.00     0.210 HD
ENDBRANCH   1  12
BRANCH   1  14
HETATM   14  C   UNL     1     -41.976 -53.791  13.092  1.00  0.00     0.166 C 
BRANCH  14  15
HETATM   15  N   UNL     1     -42.940 -53.962  14.174  1.00  0.00    -0.307 N 
HETATM   16  C   UNL     1     -42.557 -53.802  15.478  1.00  0.00     0.186 A 
HETATM   17  N   UNL     1     -43.335 -53.907  16.499  1.00  0.00    -0.355 N 
HETATM   18  C   UNL     1     -44.651 -54.221  16.263  1.00  0.00     0.017 A 
ATOM     19  HN  UNL     1     -42.987 -53.762  17.446  1.00  0.00     0.166 HD
HETATM   20  C   UNL     1     -45.505 -54.276  17.502  1.00  0.00     0.069 C 
HETATM   21  C   UNL     1     -45.153 -54.463  15.038  1.00  0.00     0.028 A 
HETATM   22  C   UNL     1     -46.568 -54.825  14.708  1.00  0.00     0.056 C 
HETATM   23  C   UNL     1     -44.222 -54.358  13.880  1.00  0.00     0.256 A 
HETATM   24  O   UNL     1     -44.610 -54.599  12.739  1.00  0.00    -0.267 OA
ENDBRANCH  14  15
ENDBRANCH   1  14
TORSDOF 6
ENDMDL
MODEL 2
REMARK VINA RESULT:      -5.7      1.542      2.511
REMARK  6 active torsions:
REMARK  status: ('A' for Active; 'I' for Inactive)
REMARK    1  A    between atoms: C_5  and  O_6 
REMARK    2  A    between atoms: O_6  and  C_7 
REMARK    3  A    between atoms: C_7  and  C_8 
REMARK    4  A    between atoms: C_8  and  O_9 
REMARK    5  A    between atoms: C_8  and  C_10 
REMARK    6  A    between atoms: C_10  and  N_11 
ROOT
HETATM    1  C   UNL     1     -41.548 -53.504  12.628  1.00  0.00     0.161 C 
ENDROOT
BRANCH   1   2
HETATM    2  C   UNL     1     -42.693 -52.548  12.236  1.00  0.00     0.209 C 
BRANCH   2   3
HETATM    3  O   UNL     1     -43.944 -53.221  12.390  1.00  0.00    -0.348 OA
BRANCH   3   4
HETATM    4  C   UNL     1     -44.812 -52.755  13.344  1.00  0.00     0.074 A 
HETATM    5  C   UNL     1     -44.998 -51.405  13.661  1.00  0.00     0.038 A 
HETATM    6  C   UNL     1     -45.917 -51.020  14.645  1.00  0.00     0.009 A 
HETATM    7  C   UNL     1     -46.662 -51.978  15.334  1.00  0.00    -0.061 A 
HETATM    8  C   UNL     1     -47.658 -51.580  16.384  1.00  0.00     0.048 C 
HETATM    9  C   UNL     1     -46.463 -53.329  15.034  1.00  0.00     0.016 A 
HETATM   10  C   UNL     1     -45.555 -53.728  14.035  1.00  0.00    -0.028 A 
HETATM   11  C   UNL     1     -45.414 -55.200  13.757  1.00  0.00     0.051 C 
ENDBRANCH   3   4
ENDBRANCH   2   3
ENDBRANCH   1   2
BRANCH   1  12
HETATM   12  O   UNL     1     -40.501 -53.485  11.643  1.00  0.00    -0.392 OA
HETATM   13  H   UNL     1     -40.137 -54.382  11.550  1.00  0.00     0.210 HD
ENDBRANCH   1  12
BRANCH   1  14
HETATM   14  C   UNL     1     -40.952 -53.083  13.983  1.00  0.00     0.166 C 
BRANCH  14  15
HETATM   15  N   UNL     1     -41.824 -53.392  15.111  1.00  0.00    -0.307 N 
HETATM   16  C   UNL     1     -42.167 -54.687  15.390  1.00  0.00     0.186 A 
HETATM   17  N   UNL     1     -42.907 -55.064  16.374  1.00  0.00    -0.355 N 
HETATM   18  C   UNL     1     -43.407 -54.089  17.200  1.00  0.00     0.017 A 
ATOM     19  HN  UNL     1     -43.113 -56.050  16.533  1.00  0.00     0.166 HD
HETATM   20  C   UNL     1     -44.221 -54.613  18.355  1.00  0.00     0.069 C 
HETATM   21  C   UNL     1     -43.200 -52.772  17.012  1.00  0.00     0.028 A 
HETATM   22  C   UNL     1     -43.725 -51.655  17.861  1.00  0.00     0.056 C 
HETATM   23  C   UNL     1     -42.360 -52.367  15.851  1.00  0.00     0.256 A 
HETATM   24  O   UNL     1     -42.161 -51.179  15.605  1.00  0.00    -0.267 OA
ENDBRANCH  14  15
ENDBRANCH   1  14
TORSDOF 6
ENDMDL
MODEL 3
REMARK VINA RESULT:      -5.6      3.420      5.523
REMARK  6 active torsions:
REMARK  status: ('A' for Active; 'I' for Inactive)
REMARK    1  A    between atoms: C_5  and  O_6 
REMARK    2  A    between atoms: O_6  and  C_7 
REMARK    3  A    between atoms: C_7  and  C_8 
REMARK    4  A    between atoms: C_8  and  O_9 
REMARK    5  A    between atoms: C_8  and  C_10 
REMARK    6  A    between atoms: C_10  and  N_11 
ROOT
HETATM    1  C   UNL     1     -40.653 -53.236  12.944  1.00  0.00     0.161 C 
ENDROOT
BRANCH   1   2
HETATM    2  C   UNL     1     -39.397 -53.380  13.828  1.00  0.00     0.209 C 
BRANCH   2   3
HETATM    3  O   UNL     1     -38.385 -52.486  13.360  1.00  0.00    -0.348 OA
BRANCH   3   4
HETATM    4  C   UNL     1     -38.357 -51.217  13.879  1.00  0.00     0.074 A 
HETATM    5  C   UNL     1     -38.762 -50.877  15.174  1.00  0.00     0.038 A 
HETATM    6  C   UNL     1     -38.687 -49.553  15.624  1.00  0.00     0.009 A 
HETATM    7  C   UNL     1     -38.212 -48.544  14.785  1.00  0.00    -0.061 A 
HETATM    8  C   UNL     1     -38.117 -47.122  15.256  1.00  0.00     0.048 C 
HETATM    9  C   UNL     1     -37.826 -48.878  13.483  1.00  0.00     0.016 A 
HETATM   10  C   UNL     1     -37.880 -50.207  13.025  1.00  0.00    -0.028 A 
HETATM   11  C   UNL     1     -37.426 -50.488  11.618  1.00  0.00     0.051 C 
ENDBRANCH   3   4
ENDBRANCH   2   3
ENDBRANCH   1   2
BRANCH   1  12
HETATM   12  O   UNL     1     -40.352 -53.531  11.570  1.00  0.00    -0.392 OA
HETATM   13  H   UNL     1     -39.421 -53.801  11.500  1.00  0.00     0.210 HD
ENDBRANCH   1  12
BRANCH   1  14
HETATM   14  C   UNL     1     -41.747 -54.205  13.424  1.00  0.00     0.166 C 
BRANCH  14  15
HETATM   15  N   UNL     1     -43.071 -53.594  13.470  1.00  0.00    -0.307 N 
HETATM   16  C   UNL     1     -43.288 -52.363  12.914  1.00  0.00     0.186 A 
HETATM   17  N   UNL     1     -44.421 -51.752  12.881  1.00  0.00    -0.355 N 
HETATM   18  C   UNL     1     -45.495 -52.377  13.465  1.00  0.00     0.017 A 
ATOM     19  HN  UNL     1     -44.517 -50.839  12.438  1.00  0.00     0.166 HD
HETATM   20  C   UNL     1     -46.793 -51.622  13.341  1.00  0.00     0.069 C 
HETATM   21  C   UNL     1     -45.416 -53.561  14.100  1.00  0.00     0.028 A 
HETATM   22  C   UNL     1     -46.538 -54.293  14.771  1.00  0.00     0.056 C 
HETATM   23  C   UNL     1     -44.086 -54.231  14.141  1.00  0.00     0.256 A 
HETATM   24  O   UNL     1     -43.939 -55.298  14.734  1.00  0.00    -0.267 OA
ENDBRANCH  14  15
ENDBRANCH   1  14
TORSDOF 6
ENDMDL
MODEL 4
REMARK VINA RESULT:      -5.6      1.800      2.489
REMARK  6 active torsions:
REMARK  status: ('A' for Active; 'I' for Inactive)
REMARK    1  A    between atoms: C_5  and  O_6 
REMARK    2  A    between atoms: O_6  and  C_7 
REMARK    3  A    between atoms: C_7  and  C_8 
REMARK    4  A    between atoms: C_8  and  O_9 
REMARK    5  A    between atoms: C_8  and  C_10 
REMARK    6  A    between atoms: C_10  and  N_11 
ROOT
HETATM    1  C   UNL     1     -41.459 -53.435  12.658  1.00  0.00     0.161 C 
ENDROOT
BRANCH   1   2
HETATM    2  C   UNL     1     -42.624 -52.487  12.304  1.00  0.00     0.209 C 
BRANCH   2   3
HETATM    3  O   UNL     1     -43.862 -53.186  12.450  1.00  0.00    -0.348 OA
BRANCH   3   4
HETATM    4  C   UNL     1     -44.752 -52.727  13.388  1.00  0.00     0.074 A 
HETATM    5  C   UNL     1     -44.945 -51.380  13.712  1.00  0.00     0.038 A 
HETATM    6  C   UNL     1     -45.887 -51.003  14.677  1.00  0.00     0.009 A 
HETATM    7  C   UNL     1     -46.649 -51.966  15.340  1.00  0.00    -0.061 A 
HETATM    8  C   UNL     1     -47.668 -51.576  16.370  1.00  0.00     0.048 C 
HETATM    9  C   UNL     1     -46.444 -53.314  15.033  1.00  0.00     0.016 A 
HETATM   10  C   UNL     1     -45.512 -53.705  14.053  1.00  0.00    -0.028 A 
HETATM   11  C   UNL     1     -45.366 -55.175  13.765  1.00  0.00     0.051 C 
ENDBRANCH   3   4
ENDBRANCH   2   3
ENDBRANCH   1   2
BRANCH   1  12
HETATM   12  O   UNL     1     -40.528 -53.535  11.566  1.00  0.00    -0.392 OA
HETATM   13  H   UNL     1     -40.345 -54.473  11.391  1.00  0.00     0.210 HD
ENDBRANCH   1  12
BRANCH   1  14
HETATM   14  C   UNL     1     -40.709 -52.908  13.893  1.00  0.00     0.166 C 
BRANCH  14  15
HETATM   15  N   UNL     1     -41.592 -52.625  15.019  1.00  0.00    -0.307 N 
HETATM   16  C   UNL     1     -41.772 -51.341  15.457  1.00  0.00     0.186 A 
HETATM   17  N   UNL     1     -42.547 -50.987  16.423  1.00  0.00    -0.355 N 
HETATM   18  C   UNL     1     -43.235 -51.978  17.079  1.00  0.00     0.017 A 
ATOM     19  HN  UNL     1     -42.646 -50.008  16.690  1.00  0.00     0.166 HD
HETATM   20  C   UNL     1     -44.156 -51.479  18.162  1.00  0.00     0.069 C 
HETATM   21  C   UNL     1     -43.110 -53.288  16.795  1.00  0.00     0.028 A 
HETATM   22  C   UNL     1     -43.814 -54.420  17.477  1.00  0.00     0.056 C 
HETATM   23  C   UNL     1     -42.188 -53.667  15.688  1.00  0.00     0.256 A 
HETATM   24  O   UNL     1     -42.004 -54.848  15.401  1.00  0.00    -0.267 OA
ENDBRANCH  14  15
ENDBRANCH   1  14
TORSDOF 6
ENDMDL
MODEL 5
REMARK VINA RESULT:      -5.6      2.521      3.770
REMARK  6 active torsions:
REMARK  status: ('A' for Active; 'I' for Inactive)
REMARK    1  A    between atoms: C_5  and  O_6 
REMARK    2  A    between atoms: O_6  and  C_7 
REMARK    3  A    between atoms: C_7  and  C_8 
REMARK    4  A    between atoms: C_8  and  O_9 
REMARK    5  A    between atoms: C_8  and  C_10 
REMARK    6  A    between atoms: C_10  and  N_11 
ROOT
HETATM    1  C   UNL     1     -41.694 -53.558  12.667  1.00  0.00     0.161 C 
ENDROOT
BRANCH   1   2
HETATM    2  C   UNL     1     -42.832 -52.661  12.138  1.00  0.00     0.209 C 
BRANCH   2   3
HETATM    3  O   UNL     1     -44.083 -53.322  12.331  1.00  0.00    -0.348 OA
BRANCH   3   4
HETATM    4  C   UNL     1     -44.927 -52.832  13.296  1.00  0.00     0.074 A 
HETATM    5  C   UNL     1     -45.118 -51.474  13.572  1.00  0.00     0.038 A 
HETATM    6  C   UNL     1     -46.011 -51.065  14.570  1.00  0.00     0.009 A 
HETATM    7  C   UNL     1     -46.725 -52.006  15.314  1.00  0.00    -0.061 A 
HETATM    8  C   UNL     1     -47.692 -51.582  16.380  1.00  0.00     0.048 C 
HETATM    9  C   UNL     1     -46.520 -53.365  15.054  1.00  0.00     0.016 A 
HETATM   10  C   UNL     1     -45.638 -53.788  14.042  1.00  0.00    -0.028 A 
HETATM   11  C   UNL     1     -45.490 -55.268  13.809  1.00  0.00     0.051 C 
ENDBRANCH   3   4
ENDBRANCH   2   3
ENDBRANCH   1   2
BRANCH   1  12
HETATM   12  O   UNL     1     -40.569 -53.546  11.770  1.00  0.00    -0.392 OA
HETATM   13  H   UNL     1     -40.233 -54.453  11.673  1.00  0.00     0.210 HD
ENDBRANCH   1  12
BRANCH   1  14
HETATM   14  C   UNL     1     -41.226 -53.056  14.044  1.00  0.00     0.166 C 
BRANCH  14  15
HETATM   15  N   UNL     1     -40.869 -54.138  14.955  1.00  0.00    -0.307 N 
HETATM   16  C   UNL     1     -41.842 -54.886  15.560  1.00  0.00     0.186 A 
HETATM   17  N   UNL     1     -41.630 -55.875  16.358  1.00  0.00    -0.355 N 
HETATM   18  C   UNL     1     -40.325 -56.195  16.638  1.00  0.00     0.017 A 
ATOM     19  HN  UNL     1     -42.403 -56.400  16.766  1.00  0.00     0.166 HD
HETATM   20  C   UNL     1     -40.161 -57.392  17.537  1.00  0.00     0.069 C 
HETATM   21  C   UNL     1     -39.269 -55.510  16.161  1.00  0.00     0.028 A 
HETATM   22  C   UNL     1     -37.824 -55.791  16.435  1.00  0.00     0.056 C 
HETATM   23  C   UNL     1     -39.548 -54.357  15.260  1.00  0.00     0.256 A 
HETATM   24  O   UNL     1     -38.630 -53.670  14.817  1.00  0.00    -0.267 OA
ENDBRANCH  14  15
ENDBRANCH   1  14
TORSDOF 6
ENDMDL
MODEL 6
REMARK VINA RESULT:      -5.5      2.760      4.952
REMARK  6 active torsions:
REMARK  status: ('A' for Active; 'I' for Inactive)
REMARK    1  A    between atoms: C_5  and  O_6 
REMARK    2  A    between atoms: O_6  and  C_7 
REMARK    3  A    between atoms: C_7  and  C_8 
REMARK    4  A    between atoms: C_8  and  O_9 
REMARK    5  A    between atoms: C_8  and  C_10 
REMARK    6  A    between atoms: C_10  and  N_11 
ROOT
HETATM    1  C   UNL     1     -42.773 -53.329  12.981  1.00  0.00     0.161 C 
ENDROOT
BRANCH   1   2
HETATM    2  C   UNL     1     -43.585 -54.135  14.015  1.00  0.00     0.209 C 
BRANCH   2   3
HETATM    3  O   UNL     1     -44.980 -53.917  13.794  1.00  0.00    -0.348 OA
BRANCH   3   4
HETATM    4  C   UNL     1     -45.678 -53.213  14.741  1.00  0.00     0.074 A 
HETATM    5  C   UNL     1     -45.715 -53.529  16.104  1.00  0.00     0.038 A 
HETATM    6  C   UNL     1     -46.448 -52.744  17.002  1.00  0.00     0.009 A 
HETATM    7  C   UNL     1     -47.164 -51.633  16.553  1.00  0.00    -0.061 A 
HETATM    8  C   UNL     1     -47.948 -50.777  17.505  1.00  0.00     0.048 C 
HETATM    9  C   UNL     1     -47.147 -51.327  15.189  1.00  0.00     0.016 A 
HETATM   10  C   UNL     1     -46.400 -52.098  14.279  1.00  0.00    -0.028 A 
HETATM   11  C   UNL     1     -46.415 -51.691  12.830  1.00  0.00     0.051 C 
ENDBRANCH   3   4
ENDBRANCH   2   3
ENDBRANCH   1   2
BRANCH   1  12
HETATM   12  O   UNL     1     -43.503 -53.188  11.750  1.00  0.00    -0.392 OA
HETATM   13  H   UNL     1     -43.138 -53.805  11.093  1.00  0.00     0.210 HD
ENDBRANCH   1  12
BRANCH   1  14
HETATM   14  C   UNL     1     -42.467 -51.925  13.531  1.00  0.00     0.166 C 
BRANCH  14  15
HETATM   15  N   UNL     1     -41.178 -51.406  13.088  1.00  0.00    -0.307 N 
HETATM   16  C   UNL     1     -40.988 -51.040  11.783  1.00  0.00     0.186 A 
HETATM   17  N   UNL     1     -39.900 -50.550  11.300  1.00  0.00    -0.355 N 
HETATM   18  C   UNL     1     -38.838 -50.397  12.158  1.00  0.00     0.017 A 
ATOM     19  HN  UNL     1     -39.829 -50.284  10.318  1.00  0.00     0.166 HD
HETATM   20  C   UNL     1     -37.620 -49.771  11.530  1.00  0.00     0.069 C 
HETATM   21  C   UNL     1     -38.864 -50.768  13.451  1.00  0.00     0.028 A 
HETATM   22  C   UNL     1     -37.744 -50.646  14.438  1.00  0.00     0.056 C 
HETATM   23  C   UNL     1     -40.130 -51.354  13.973  1.00  0.00     0.256 A 
HETATM   24  O   UNL     1     -40.208 -51.744  15.136  1.00  0.00    -0.267 OA
ENDBRANCH  14  15
ENDBRANCH   1  14
TORSDOF 6
ENDMDL
MODEL 7
REMARK VINA RESULT:      -5.4      3.312      5.492
REMARK  6 active torsions:
REMARK  status: ('A' for Active; 'I' for Inactive)
REMARK    1  A    between atoms: C_5  and  O_6 
REMARK    2  A    between atoms: O_6  and  C_7 
REMARK    3  A    between atoms: C_7  and  C_8 
REMARK    4  A    between atoms: C_8  and  O_9 
REMARK    5  A    between atoms: C_8  and  C_10 
REMARK    6  A    between atoms: C_10  and  N_11 
ROOT
HETATM    1  C   UNL     1     -41.102 -52.272  12.297  1.00  0.00     0.161 C 
ENDROOT
BRANCH   1   2
HETATM    2  C   UNL     1     -42.598 -52.526  12.571  1.00  0.00     0.209 C 
BRANCH   2   3
HETATM    3  O   UNL     1     -43.251 -51.280  12.820  1.00  0.00    -0.348 OA
BRANCH   3   4
HETATM    4  C   UNL     1     -44.349 -51.283  13.642  1.00  0.00     0.074 A 
HETATM    5  C   UNL     1     -45.637 -51.664  13.251  1.00  0.00     0.038 A 
HETATM    6  C   UNL     1     -46.699 -51.646  14.164  1.00  0.00     0.009 A 
HETATM    7  C   UNL     1     -46.493 -51.242  15.484  1.00  0.00    -0.061 A 
HETATM    8  C   UNL     1     -47.619 -51.226  16.476  1.00  0.00     0.048 C 
HETATM    9  C   UNL     1     -45.211 -50.841  15.873  1.00  0.00     0.016 A 
HETATM   10  C   UNL     1     -44.133 -50.871  14.969  1.00  0.00    -0.028 A 
HETATM   11  C   UNL     1     -42.779 -50.444  15.471  1.00  0.00     0.051 C 
ENDBRANCH   3   4
ENDBRANCH   2   3
ENDBRANCH   1   2
BRANCH   1  12
HETATM   12  O   UNL     1     -40.579 -53.231  11.361  1.00  0.00    -0.392 OA
HETATM   13  H   UNL     1     -40.924 -54.111  11.585  1.00  0.00     0.210 HD
ENDBRANCH   1  12
BRANCH   1  14
HETATM   14  C   UNL     1     -40.907 -50.863  11.711  1.00  0.00     0.166 C 
BRANCH  14  15
HETATM   15  N   UNL     1     -39.990 -50.041  12.492  1.00  0.00    -0.307 N 
HETATM   16  C   UNL     1     -38.737 -50.498  12.799  1.00  0.00     0.186 A 
HETATM   17  N   UNL     1     -37.848 -49.840  13.459  1.00  0.00    -0.355 N 
HETATM   18  C   UNL     1     -38.189 -48.588  13.908  1.00  0.00     0.017 A 
ATOM     19  HN  UNL     1     -36.926 -50.235  13.642  1.00  0.00     0.166 HD
HETATM   20  C   UNL     1     -37.080 -47.866  14.628  1.00  0.00     0.069 C 
HETATM   21  C   UNL     1     -39.404 -48.037  13.731  1.00  0.00     0.028 A 
HETATM   22  C   UNL     1     -39.849 -46.687  14.204  1.00  0.00     0.056 C 
HETATM   23  C   UNL     1     -40.417 -48.831  12.983  1.00  0.00     0.256 A 
HETATM   24  O   UNL     1     -41.556 -48.399  12.817  1.00  0.00    -0.267 OA
ENDBRANCH  14  15
ENDBRANCH   1  14
TORSDOF 6
ENDMDL
MODEL 8
REMARK VINA RESULT:      -5.4      2.463      4.643
REMARK  6 active torsions:
REMARK  status: ('A' for Active; 'I' for Inactive)
REMARK    1  A    between atoms: C_5  and  O_6 
REMARK    2  A    between atoms: O_6  and  C_7 
REMARK    3  A    between atoms: C_7  and  C_8 
REMARK    4  A    between atoms: C_8  and  O_9 
REMARK    5  A    between atoms: C_8  and  C_10 
REMARK    6  A    between atoms: C_10  and  N_11 
ROOT
HETATM    1  C   UNL     1     -39.767 -53.768  13.810  1.00  0.00     0.161 C 
ENDROOT
BRANCH   1   2
HETATM    2  C   UNL     1     -40.957 -54.101  12.888  1.00  0.00     0.209 C 
BRANCH   2   3
HETATM    3  O   UNL     1     -42.057 -54.553  13.681  1.00  0.00    -0.348 OA
BRANCH   3   4
HETATM    4  C   UNL     1     -43.183 -53.772  13.722  1.00  0.00     0.074 A 
HETATM    5  C   UNL     1     -43.894 -53.338  12.598  1.00  0.00     0.038 A 
HETATM    6  C   UNL     1     -45.044 -52.551  12.737  1.00  0.00     0.009 A 
HETATM    7  C   UNL     1     -45.500 -52.178  14.002  1.00  0.00    -0.061 A 
HETATM    8  C   UNL     1     -46.735 -51.341  14.167  1.00  0.00     0.048 C 
HETATM    9  C   UNL     1     -44.780 -52.592  15.126  1.00  0.00     0.016 A 
HETATM   10  C   UNL     1     -43.633 -53.398  15.001  1.00  0.00    -0.028 A 
HETATM   11  C   UNL     1     -42.926 -53.820  16.261  1.00  0.00     0.051 C 
ENDBRANCH   3   4
ENDBRANCH   2   3
ENDBRANCH   1   2
BRANCH   1  12
HETATM   12  O   UNL     1     -38.648 -54.631  13.540  1.00  0.00    -0.392 OA
HETATM   13  H   UNL     1     -38.638 -54.848  12.593  1.00  0.00     0.210 HD
ENDBRANCH   1  12
BRANCH   1  14
HETATM   14  C   UNL     1     -39.323 -52.311  13.590  1.00  0.00     0.166 C 
BRANCH  14  15
HETATM   15  N   UNL     1     -40.438 -51.409  13.323  1.00  0.00    -0.307 N 
HETATM   16  C   UNL     1     -40.773 -51.080  12.037  1.00  0.00     0.186 A 
HETATM   17  N   UNL     1     -41.752 -50.316  11.697  1.00  0.00    -0.355 N 
HETATM   18  C   UNL     1     -42.511 -49.772  12.703  1.00  0.00     0.017 A 
ATOM     19  HN  UNL     1     -41.955 -50.122  10.717  1.00  0.00     0.166 HD
HETATM   20  C   UNL     1     -43.665 -48.932  12.223  1.00  0.00     0.069 C 
HETATM   21  C   UNL     1     -42.261 -49.962  14.012  1.00  0.00     0.028 A 
HETATM   22  C   UNL     1     -43.034 -49.390  15.161  1.00  0.00     0.056 C 
HETATM   23  C   UNL     1     -41.108 -50.832  14.374  1.00  0.00     0.256 A 
HETATM   24  O   UNL     1     -40.807 -51.018  15.551  1.00  0.00    -0.267 OA
ENDBRANCH  14  15
ENDBRANCH   1  14
TORSDOF 6
ENDMDL
MODEL 9
REMARK VINA RESULT:      -5.3      4.113      6.461
REMARK  6 active torsions:
REMARK  status: ('A' for Active; 'I' for Inactive)
REMARK    1  A    between atoms: C_5  and  O_6 
REMARK    2  A    between atoms: O_6  and  C_7 
REMARK    3  A    between atoms: C_7  and  C_8 
REMARK    4  A    between atoms: C_8  and  O_9 
REMARK    5  A    between atoms: C_8  and  C_10 
REMARK    6  A    between atoms: C_10  and  N_11 
ROOT
HETATM    1  C   UNL     1     -41.800 -50.261  12.625  1.00  0.00     0.161 C 
ENDROOT
BRANCH   1   2
HETATM    2  C   UNL     1     -42.577 -51.160  13.609  1.00  0.00     0.209 C 
BRANCH   2   3
HETATM    3  O   UNL     1     -43.966 -51.134  13.276  1.00  0.00    -0.348 OA
BRANCH   3   4
HETATM    4  C   UNL     1     -44.874 -51.109  14.304  1.00  0.00     0.074 A 
HETATM    5  C   UNL     1     -44.569 -50.772  15.628  1.00  0.00     0.038 A 
HETATM    6  C   UNL     1     -45.565 -50.763  16.612  1.00  0.00     0.009 A 
HETATM    7  C   UNL     1     -46.882 -51.096  16.292  1.00  0.00    -0.061 A 
HETATM    8  C   UNL     1     -47.962 -51.081  17.334  1.00  0.00     0.048 C 
HETATM    9  C   UNL     1     -47.185 -51.453  14.975  1.00  0.00     0.016 A 
HETATM   10  C   UNL     1     -46.197 -51.450  13.973  1.00  0.00    -0.028 A 
HETATM   11  C   UNL     1     -46.608 -51.827  12.575  1.00  0.00     0.051 C 
ENDBRANCH   3   4
ENDBRANCH   2   3
ENDBRANCH   1   2
BRANCH   1  12
HETATM   12  O   UNL     1     -41.563 -50.944  11.381  1.00  0.00    -0.392 OA
HETATM   13  H   UNL     1     -41.304 -51.862  11.569  1.00  0.00     0.210 HD
ENDBRANCH   1  12
BRANCH   1  14
HETATM   14  C   UNL     1     -42.605 -48.983  12.333  1.00  0.00     0.166 C 
BRANCH  14  15
HETATM   15  N   UNL     1     -41.773 -47.879  11.869  1.00  0.00    -0.307 N 
HETATM   16  C   UNL     1     -41.694 -47.581  10.535  1.00  0.00     0.186 A 
HETATM   17  N   UNL     1     -41.010 -46.614  10.029  1.00  0.00    -0.355 N 
HETATM   18  C   UNL     1     -40.288 -45.829  10.892  1.00  0.00     0.017 A 
ATOM     19  HN  UNL     1     -41.006 -46.439   9.024  1.00  0.00     0.166 HD
HETATM   20  C   UNL     1     -39.556 -44.691  10.230  1.00  0.00     0.069 C 
HETATM   21  C   UNL     1     -40.226 -46.041  12.220  1.00  0.00     0.028 A 
HETATM   22  C   UNL     1     -39.449 -45.237  13.218  1.00  0.00     0.056 C 
HETATM   23  C   UNL     1     -41.009 -47.181  12.772  1.00  0.00     0.256 A 
HETATM   24  O   UNL     1     -40.968 -47.449  13.971  1.00  0.00    -0.267 OA
ENDBRANCH  14  15
ENDBRANCH   1  14
TORSDOF 6
ENDMDL
