MODEL 1
REMARK VINA RESULT:      -7.0      0.000      0.000
REMARK  7 active torsions:
REMARK  status: ('A' for Active; 'I' for Inactive)
REMARK       I    between atoms: N_2  and  C_3 
REMARK    1  A    between atoms: C_3  and  C_5 
REMARK    2  A    between atoms: C_5  and  C_6 
REMARK    3  A    between atoms: C_5  and  N_10 
REMARK    4  A    between atoms: C_6  and  C_7 
REMARK       I    between atoms: N_10  and  C_11 
REMARK    5  A    between atoms: C_11  and  C_13 
REMARK    6  A    between atoms: C_13  and  N_14 
REMARK    7  A    between atoms: C_16  and  C_21 
ROOT
HETATM    1  N   UNL     1     -42.964 -48.542  10.937  1.00  0.00    -0.346 N 
HETATM    2  C   UNL     1     -42.713 -48.707  12.280  1.00  0.00     0.236 C 
HETATM    3  O   UNL     1     -43.045 -47.885  13.132  1.00  0.00    -0.272 OA
HETATM    4  H   UNL     1     -42.629 -49.237  10.275  1.00  0.00     0.163 HD
ENDROOT
BRANCH   2   5
HETATM    5  C   UNL     1     -42.006 -50.014  12.651  1.00  0.00     0.234 C 
BRANCH   5   6
HETATM    6  N   UNL     1     -42.939 -51.132  12.777  1.00  0.00    -0.315 N 
HETATM    7  C   UNL     1     -44.210 -50.926  13.300  1.00  0.00     0.110 A 
HETATM    8  C   UNL     1     -45.077 -51.942  13.483  1.00  0.00     0.063 A 
HETATM    9  C   UNL     1     -44.665 -53.281  13.098  1.00  0.00     0.023 A 
HETATM   10  C   UNL     1     -43.452 -53.508  12.581  1.00  0.00     0.075 A 
HETATM   11  C   UNL     1     -42.489 -52.389  12.382  1.00  0.00     0.247 A 
HETATM   12  O   UNL     1     -41.379 -52.621  11.910  1.00  0.00    -0.268 OA
BRANCH   8  13
HETATM   13  C   UNL     1     -46.435 -51.731  14.093  1.00  0.00     0.418 C 
HETATM   14  F   UNL     1     -47.307 -51.123  13.246  1.00  0.00    -0.166 F 
HETATM   15  F   UNL     1     -47.007 -52.909  14.454  1.00  0.00    -0.166 F 
HETATM   16  F   UNL     1     -46.379 -50.963  15.211  1.00  0.00    -0.166 F 
ENDBRANCH   8  13
ENDBRANCH   5   6
ENDBRANCH   2   5
BRANCH   1  17
HETATM   17  C   UNL     1     -43.575 -47.344  10.353  1.00  0.00     0.177 C 
BRANCH  17  18
HETATM   18  C   UNL     1     -42.423 -46.346  10.046  1.00  0.00     0.240 C 
HETATM   19  N   UNL     1     -41.270 -46.518  10.787  1.00  0.00    -0.364 N 
HETATM   20  C   UNL     1     -40.102 -45.697  10.575  1.00  0.00     0.149 C 
HETATM   21  H   UNL     1     -41.181 -47.322  11.394  1.00  0.00     0.161 HD
HETATM   22  O   UNL     1     -42.531 -45.471   9.187  1.00  0.00    -0.271 OA
ENDBRANCH  17  18
BRANCH  17  23
HETATM   23  C   UNL     1     -44.367 -47.673   9.070  1.00  0.00     0.038 C 
BRANCH  23  24
HETATM   24  C   UNL     1     -45.900 -47.733   9.224  1.00  0.00    -0.020 C 
HETATM   25  C   UNL     1     -46.594 -46.398   8.935  1.00  0.00     0.009 C 
HETATM   26  C   UNL     1     -46.477 -48.808   8.297  1.00  0.00     0.009 C 
ENDBRANCH  23  24
ENDBRANCH  17  23
ENDBRANCH   1  17
TORSDOF 7
ENDMDL
MODEL 2
REMARK VINA RESULT:      -6.9      2.549      6.090
REMARK  7 active torsions:
REMARK  status: ('A' for Active; 'I' for Inactive)
REMARK       I    between atoms: N_2  and  C_3 
REMARK    1  A    between atoms: C_3  and  C_5 
REMARK    2  A    between atoms: C_5  and  C_6 
REMARK    3  A    between atoms: C_5  and  N_10 
REMARK    4  A    between atoms: C_6  and  C_7 
REMARK       I    between atoms: N_10  and  C_11 
REMARK    5  A    between atoms: C_11  and  C_13 
REMARK    6  A    between atoms: C_13  and  N_14 
REMARK    7  A    between atoms: C_16  and  C_21 
ROOT
HETATM    1  N   UNL     1     -43.414 -50.272  12.860  1.00  0.00    -0.346 N 
HETATM    2  C   UNL     1     -42.467 -49.482  12.250  1.00  0.00     0.236 C 
HETATM    3  O   UNL     1     -41.480 -49.938  11.674  1.00  0.00    -0.272 OA
HETATM    4  H   UNL     1     -44.187 -49.837  13.357  1.00  0.00     0.163 HD
ENDROOT
BRANCH   2   5
HETATM    5  C   UNL     1     -42.740 -47.977  12.314  1.00  0.00     0.234 C 
BRANCH   5   6
HETATM    6  N   UNL     1     -43.318 -47.465  11.073  1.00  0.00    -0.315 N 
HETATM    7  C   UNL     1     -44.545 -47.940  10.626  1.00  0.00     0.110 A 
HETATM    8  C   UNL     1     -45.082 -47.533   9.457  1.00  0.00     0.063 A 
HETATM    9  C   UNL     1     -44.357 -46.553   8.667  1.00  0.00     0.023 A 
HETATM   10  C   UNL     1     -43.180 -46.068   9.079  1.00  0.00     0.075 A 
HETATM   11  C   UNL     1     -42.580 -46.520  10.365  1.00  0.00     0.247 A 
HETATM   12  O   UNL     1     -41.496 -46.065  10.721  1.00  0.00    -0.268 OA
BRANCH   8  13
HETATM   13  C   UNL     1     -46.385 -48.080   8.945  1.00  0.00     0.418 C 
HETATM   14  F   UNL     1     -46.305 -48.522   7.662  1.00  0.00    -0.166 F 
HETATM   15  F   UNL     1     -46.807 -49.135   9.689  1.00  0.00    -0.166 F 
HETATM   16  F   UNL     1     -47.377 -47.154   8.977  1.00  0.00    -0.166 F 
ENDBRANCH   8  13
ENDBRANCH   5   6
ENDBRANCH   2   5
BRANCH   1  17
HETATM   17  C   UNL     1     -43.323 -51.731  12.971  1.00  0.00     0.177 C 
BRANCH  17  18
HETATM   18  C   UNL     1     -42.512 -52.044  14.260  1.00  0.00     0.240 C 
HETATM   19  N   UNL     1     -41.143 -52.119  14.100  1.00  0.00    -0.364 N 
HETATM   20  C   UNL     1     -40.259 -52.352  15.217  1.00  0.00     0.149 C 
HETATM   21  H   UNL     1     -40.728 -51.867  13.212  1.00  0.00     0.161 HD
HETATM   22  O   UNL     1     -43.058 -52.197  15.352  1.00  0.00    -0.271 OA
ENDBRANCH  17  18
BRANCH  17  23
HETATM   23  C   UNL     1     -44.718 -52.389  13.032  1.00  0.00     0.038 C 
BRANCH  23  24
HETATM   24  C   UNL     1     -45.919 -51.422  12.996  1.00  0.00    -0.020 C 
HETATM   25  C   UNL     1     -46.923 -51.741  11.884  1.00  0.00     0.009 C 
HETATM   26  C   UNL     1     -46.645 -51.439  14.345  1.00  0.00     0.009 C 
ENDBRANCH  23  24
ENDBRANCH  17  23
ENDBRANCH   1  17
TORSDOF 7
ENDMDL
MODEL 3
REMARK VINA RESULT:      -6.7      1.888      2.303
REMARK  7 active torsions:
REMARK  status: ('A' for Active; 'I' for Inactive)
REMARK       I    between atoms: N_2  and  C_3 
REMARK    1  A    between atoms: C_3  and  C_5 
REMARK    2  A    between atoms: C_5  and  C_6 
REMARK    3  A    between atoms: C_5  and  N_10 
REMARK    4  A    between atoms: C_6  and  C_7 
REMARK       I    between atoms: N_10  and  C_11 
REMARK    5  A    between atoms: C_11  and  C_13 
REMARK    6  A    between atoms: C_13  and  N_14 
REMARK    7  A    between atoms: C_16  and  C_21 
ROOT
HETATM    1  N   UNL     1     -41.557 -49.402  10.812  1.00  0.00    -0.346 N 
HETATM    2  C   UNL     1     -41.408 -50.154  11.955  1.00  0.00     0.236 C 
HETATM    3  O   UNL     1     -41.726 -49.751  13.072  1.00  0.00    -0.272 OA
HETATM    4  H   UNL     1     -41.239 -49.775   9.921  1.00  0.00     0.163 HD
ENDROOT
BRANCH   2   5
HETATM    5  C   UNL     1     -40.837 -51.558  11.736  1.00  0.00     0.234 C 
BRANCH   5   6
HETATM    6  N   UNL     1     -41.506 -52.564  12.559  1.00  0.00    -0.315 N 
HETATM    7  C   UNL     1     -42.888 -52.703  12.505  1.00  0.00     0.110 A 
HETATM    8  C   UNL     1     -43.546 -53.581  13.289  1.00  0.00     0.063 A 
HETATM    9  C   UNL     1     -42.773 -54.412  14.195  1.00  0.00     0.023 A 
HETATM   10  C   UNL     1     -41.441 -54.310  14.260  1.00  0.00     0.075 A 
HETATM   11  C   UNL     1     -40.711 -53.338  13.399  1.00  0.00     0.247 A 
HETATM   12  O   UNL     1     -39.488 -53.257  13.479  1.00  0.00    -0.268 OA
BRANCH   8  13
HETATM   13  C   UNL     1     -45.045 -53.699  13.270  1.00  0.00     0.418 C 
HETATM   14  F   UNL     1     -45.611 -53.077  12.202  1.00  0.00    -0.166 F 
HETATM   15  F   UNL     1     -45.440 -54.997  13.213  1.00  0.00    -0.166 F 
HETATM   16  F   UNL     1     -45.615 -53.163  14.379  1.00  0.00    -0.166 F 
ENDBRANCH   8  13
ENDBRANCH   5   6
ENDBRANCH   2   5
BRANCH   1  17
HETATM   17  C   UNL     1     -42.029 -48.015  10.794  1.00  0.00     0.177 C 
BRANCH  17  18
HETATM   18  C   UNL     1     -40.774 -47.103  10.906  1.00  0.00     0.240 C 
HETATM   19  N   UNL     1     -40.804 -45.951  10.146  1.00  0.00    -0.364 N 
HETATM   20  C   UNL     1     -39.731 -44.986  10.188  1.00  0.00     0.149 C 
HETATM   21  H   UNL     1     -41.650 -45.698   9.653  1.00  0.00     0.161 HD
HETATM   22  O   UNL     1     -39.826 -47.386  11.640  1.00  0.00    -0.271 OA
ENDBRANCH  17  18
BRANCH  17  23
HETATM   23  C   UNL     1     -42.821 -47.695   9.509  1.00  0.00     0.038 C 
BRANCH  23  24
HETATM   24  C   UNL     1     -44.141 -46.923   9.708  1.00  0.00    -0.020 C 
HETATM   25  C   UNL     1     -44.170 -45.572   8.987  1.00  0.00     0.009 C 
HETATM   26  C   UNL     1     -45.321 -47.772   9.225  1.00  0.00     0.009 C 
ENDBRANCH  23  24
ENDBRANCH  17  23
ENDBRANCH   1  17
TORSDOF 7
ENDMDL
MODEL 4
REMARK VINA RESULT:      -6.7      2.476      4.818
REMARK  7 active torsions:
REMARK  status: ('A' for Active; 'I' for Inactive)
REMARK       I    between atoms: N_2  and  C_3 
REMARK    1  A    between atoms: C_3  and  C_5 
REMARK    2  A    between atoms: C_5  and  C_6 
REMARK    3  A    between atoms: C_5  and  N_10 
REMARK    4  A    between atoms: C_6  and  C_7 
REMARK       I    between atoms: N_10  and  C_11 
REMARK    5  A    between atoms: C_11  and  C_13 
REMARK    6  A    between atoms: C_13  and  N_14 
REMARK    7  A    between atoms: C_16  and  C_21 
ROOT
HETATM    1  N   UNL     1     -40.841 -50.916  13.253  1.00  0.00    -0.346 N 
HETATM    2  C   UNL     1     -40.947 -52.286  13.170  1.00  0.00     0.236 C 
HETATM    3  O   UNL     1     -40.547 -52.934  12.205  1.00  0.00    -0.272 OA
HETATM    4  H   UNL     1     -41.227 -50.430  14.059  1.00  0.00     0.163 HD
ENDROOT
BRANCH   2   5
HETATM    5  C   UNL     1     -41.579 -52.961  14.391  1.00  0.00     0.234 C 
BRANCH   5   6
HETATM    6  N   UNL     1     -42.975 -53.328  14.161  1.00  0.00    -0.315 N 
HETATM    7  C   UNL     1     -43.860 -52.403  13.618  1.00  0.00     0.110 A 
HETATM    8  C   UNL     1     -45.167 -52.686  13.444  1.00  0.00     0.063 A 
HETATM    9  C   UNL     1     -45.644 -54.006  13.817  1.00  0.00     0.023 A 
HETATM   10  C   UNL     1     -44.813 -54.922  14.329  1.00  0.00     0.075 A 
HETATM   11  C   UNL     1     -43.370 -54.610  14.529  1.00  0.00     0.247 A 
HETATM   12  O   UNL     1     -42.627 -55.464  15.006  1.00  0.00    -0.268 OA
BRANCH   8  13
HETATM   13  C   UNL     1     -46.137 -51.673  12.904  1.00  0.00     0.418 C 
HETATM   14  F   UNL     1     -47.033 -51.249  13.835  1.00  0.00    -0.166 F 
HETATM   15  F   UNL     1     -45.497 -50.563  12.453  1.00  0.00    -0.166 F 
HETATM   16  F   UNL     1     -46.859 -52.160  11.863  1.00  0.00    -0.166 F 
ENDBRANCH   8  13
ENDBRANCH   5   6
ENDBRANCH   2   5
BRANCH   1  17
HETATM   17  C   UNL     1     -40.324 -50.063  12.179  1.00  0.00     0.177 C 
BRANCH  17  18
HETATM   18  C   UNL     1     -41.530 -49.267  11.605  1.00  0.00     0.240 C 
HETATM   19  N   UNL     1     -41.309 -48.639  10.395  1.00  0.00    -0.364 N 
HETATM   20  C   UNL     1     -42.352 -47.906   9.718  1.00  0.00     0.149 C 
HETATM   21  H   UNL     1     -40.445 -48.806   9.895  1.00  0.00     0.161 HD
HETATM   22  O   UNL     1     -42.614 -49.216  12.186  1.00  0.00    -0.271 OA
ENDBRANCH  17  18
BRANCH  17  23
HETATM   23  C   UNL     1     -39.229 -49.102  12.688  1.00  0.00     0.038 C 
BRANCH  23  24
HETATM   24  C   UNL     1     -37.776 -49.591  12.524  1.00  0.00    -0.020 C 
HETATM   25  C   UNL     1     -37.446 -50.817  13.381  1.00  0.00     0.009 C 
HETATM   26  C   UNL     1     -37.498 -49.920  11.053  1.00  0.00     0.009 C 
ENDBRANCH  23  24
ENDBRANCH  17  23
ENDBRANCH   1  17
TORSDOF 7
ENDMDL
MODEL 5
REMARK VINA RESULT:      -6.6      2.327      3.618
REMARK  7 active torsions:
REMARK  status: ('A' for Active; 'I' for Inactive)
REMARK       I    between atoms: N_2  and  C_3 
REMARK    1  A    between atoms: C_3  and  C_5 
REMARK    2  A    between atoms: C_5  and  C_6 
REMARK    3  A    between atoms: C_5  and  N_10 
REMARK    4  A    between atoms: C_6  and  C_7 
REMARK       I    between atoms: N_10  and  C_11 
REMARK    5  A    between atoms: C_11  and  C_13 
REMARK    6  A    between atoms: C_13  and  N_14 
REMARK    7  A    between atoms: C_16  and  C_21 
ROOT
HETATM    1  N   UNL     1     -42.026 -49.866  11.445  1.00  0.00    -0.346 N 
HETATM    2  C   UNL     1     -41.089 -50.633  12.099  1.00  0.00     0.236 C 
HETATM    3  O   UNL     1     -40.364 -50.194  12.990  1.00  0.00    -0.272 OA
HETATM    4  H   UNL     1     -42.568 -50.274  10.687  1.00  0.00     0.163 HD
ENDROOT
BRANCH   2   5
HETATM    5  C   UNL     1     -41.027 -52.098  11.656  1.00  0.00     0.234 C 
BRANCH   5   6
HETATM    6  N   UNL     1     -41.608 -53.002  12.647  1.00  0.00    -0.315 N 
HETATM    7  C   UNL     1     -42.982 -53.203  12.688  1.00  0.00     0.110 A 
HETATM    8  C   UNL     1     -43.559 -53.986  13.623  1.00  0.00     0.063 A 
HETATM    9  C   UNL     1     -42.705 -54.647  14.594  1.00  0.00     0.023 A 
HETATM   10  C   UNL     1     -41.377 -54.482  14.571  1.00  0.00     0.075 A 
HETATM   11  C   UNL     1     -40.737 -53.614  13.543  1.00  0.00     0.247 A 
HETATM   12  O   UNL     1     -39.516 -53.473  13.545  1.00  0.00    -0.268 OA
BRANCH   8  13
HETATM   13  C   UNL     1     -45.049 -54.167  13.702  1.00  0.00     0.418 C 
HETATM   14  F   UNL     1     -45.722 -53.419  12.787  1.00  0.00    -0.166 F 
HETATM   15  F   UNL     1     -45.405 -55.459  13.479  1.00  0.00    -0.166 F 
HETATM   16  F   UNL     1     -45.542 -53.827  14.920  1.00  0.00    -0.166 F 
ENDBRANCH   8  13
ENDBRANCH   5   6
ENDBRANCH   2   5
BRANCH   1  17
HETATM   17  C   UNL     1     -42.216 -48.430  11.666  1.00  0.00     0.177 C 
BRANCH  17  18
HETATM   18  C   UNL     1     -43.087 -47.897  10.494  1.00  0.00     0.240 C 
HETATM   19  N   UNL     1     -42.579 -48.111   9.227  1.00  0.00    -0.364 N 
HETATM   20  C   UNL     1     -43.302 -47.715   8.043  1.00  0.00     0.149 C 
HETATM   21  H   UNL     1     -41.752 -48.681   9.110  1.00  0.00     0.161 HD
HETATM   22  O   UNL     1     -44.165 -47.335  10.686  1.00  0.00    -0.271 OA
ENDBRANCH  17  18
BRANCH  17  23
HETATM   23  C   UNL     1     -42.894 -48.144  13.022  1.00  0.00     0.038 C 
BRANCH  23  24
HETATM   24  C   UNL     1     -42.238 -47.046  13.884  1.00  0.00    -0.020 C 
HETATM   25  C   UNL     1     -40.828 -46.670  13.420  1.00  0.00     0.009 C 
HETATM   26  C   UNL     1     -43.115 -45.790  13.886  1.00  0.00     0.009 C 
ENDBRANCH  23  24
ENDBRANCH  17  23
ENDBRANCH   1  17
TORSDOF 7
ENDMDL
MODEL 6
REMARK VINA RESULT:      -6.6      1.644      3.220
REMARK  7 active torsions:
REMARK  status: ('A' for Active; 'I' for Inactive)
REMARK       I    between atoms: N_2  and  C_3 
REMARK    1  A    between atoms: C_3  and  C_5 
REMARK    2  A    between atoms: C_5  and  C_6 
REMARK    3  A    between atoms: C_5  and  N_10 
REMARK    4  A    between atoms: C_6  and  C_7 
REMARK       I    between atoms: N_10  and  C_11 
REMARK    5  A    between atoms: C_11  and  C_13 
REMARK    6  A    between atoms: C_13  and  N_14 
REMARK    7  A    between atoms: C_16  and  C_21 
ROOT
HETATM    1  N   UNL     1     -41.982 -48.114  12.085  1.00  0.00    -0.346 N 
HETATM    2  C   UNL     1     -41.417 -49.368  12.057  1.00  0.00     0.236 C 
HETATM    3  O   UNL     1     -40.734 -49.778  11.119  1.00  0.00    -0.272 OA
HETATM    4  H   UNL     1     -42.570 -47.845  12.870  1.00  0.00     0.163 HD
ENDROOT
BRANCH   2   5
HETATM    5  C   UNL     1     -41.674 -50.222  13.302  1.00  0.00     0.234 C 
BRANCH   5   6
HETATM    6  N   UNL     1     -42.661 -51.273  13.059  1.00  0.00    -0.315 N 
HETATM    7  C   UNL     1     -44.011 -51.030  13.283  1.00  0.00     0.110 A 
HETATM    8  C   UNL     1     -44.943 -51.991  13.124  1.00  0.00     0.063 A 
HETATM    9  C   UNL     1     -44.512 -53.307  12.684  1.00  0.00     0.023 A 
HETATM   10  C   UNL     1     -43.221 -53.566  12.446  1.00  0.00     0.075 A 
HETATM   11  C   UNL     1     -42.187 -52.509  12.627  1.00  0.00     0.247 A 
HETATM   12  O   UNL     1     -41.007 -52.772  12.409  1.00  0.00    -0.268 OA
BRANCH   8  13
HETATM   13  C   UNL     1     -46.398 -51.746  13.414  1.00  0.00     0.418 C 
HETATM   14  F   UNL     1     -47.066 -51.219  12.354  1.00  0.00    -0.166 F 
HETATM   15  F   UNL     1     -47.040 -52.898  13.739  1.00  0.00    -0.166 F 
HETATM   16  F   UNL     1     -46.576 -50.890  14.451  1.00  0.00    -0.166 F 
ENDBRANCH   8  13
ENDBRANCH   5   6
ENDBRANCH   2   5
BRANCH   1  17
HETATM   17  C   UNL     1     -41.913 -47.154  10.979  1.00  0.00     0.177 C 
BRANCH  17  18
HETATM   18  C   UNL     1     -43.084 -47.485  10.011  1.00  0.00     0.240 C 
HETATM   19  N   UNL     1     -42.737 -47.634   8.683  1.00  0.00    -0.364 N 
HETATM   20  C   UNL     1     -43.711 -47.991   7.680  1.00  0.00     0.149 C 
HETATM   21  H   UNL     1     -41.761 -47.634   8.418  1.00  0.00     0.161 HD
HETATM   22  O   UNL     1     -44.241 -47.620  10.410  1.00  0.00    -0.271 OA
ENDBRANCH  17  18
BRANCH  17  23
HETATM   23  C   UNL     1     -42.013 -45.697  11.478  1.00  0.00     0.038 C 
BRANCH  23  24
HETATM   24  C   UNL     1     -40.684 -44.918  11.550  1.00  0.00    -0.020 C 
HETATM   25  C   UNL     1     -39.888 -45.190  12.829  1.00  0.00     0.009 C 
HETATM   26  C   UNL     1     -39.812 -45.259  10.336  1.00  0.00     0.009 C 
ENDBRANCH  23  24
ENDBRANCH  17  23
ENDBRANCH   1  17
TORSDOF 7
ENDMDL
MODEL 7
REMARK VINA RESULT:      -6.5      2.975      6.873
REMARK  7 active torsions:
REMARK  status: ('A' for Active; 'I' for Inactive)
REMARK       I    between atoms: N_2  and  C_3 
REMARK    1  A    between atoms: C_3  and  C_5 
REMARK    2  A    between atoms: C_5  and  C_6 
REMARK    3  A    between atoms: C_5  and  N_10 
REMARK    4  A    between atoms: C_6  and  C_7 
REMARK       I    between atoms: N_10  and  C_11 
REMARK    5  A    between atoms: C_11  and  C_13 
REMARK    6  A    between atoms: C_13  and  N_14 
REMARK    7  A    between atoms: C_16  and  C_21 
ROOT
HETATM    1  N   UNL     1     -42.031 -51.068  11.966  1.00  0.00    -0.346 N 
HETATM    2  C   UNL     1     -41.107 -50.070  12.175  1.00  0.00     0.236 C 
HETATM    3  O   UNL     1     -40.645 -49.801  13.282  1.00  0.00    -0.272 OA
HETATM    4  H   UNL     1     -42.408 -51.217  11.033  1.00  0.00     0.163 HD
ENDROOT
BRANCH   2   5
HETATM    5  C   UNL     1     -40.664 -49.323  10.913  1.00  0.00     0.234 C 
BRANCH   5   6
HETATM    6  N   UNL     1     -41.374 -48.057  10.740  1.00  0.00    -0.315 N 
HETATM    7  C   UNL     1     -42.606 -48.030  10.096  1.00  0.00     0.110 A 
HETATM    8  C   UNL     1     -43.263 -46.874   9.869  1.00  0.00     0.063 A 
HETATM    9  C   UNL     1     -42.666 -45.635  10.335  1.00  0.00     0.023 A 
HETATM   10  C   UNL     1     -41.488 -45.632  10.969  1.00  0.00     0.075 A 
HETATM   11  C   UNL     1     -40.756 -46.905  11.217  1.00  0.00     0.247 A 
HETATM   12  O   UNL     1     -39.673 -46.878  11.797  1.00  0.00    -0.268 OA
BRANCH   8  13
HETATM   13  C   UNL     1     -44.572 -46.835   9.129  1.00  0.00     0.418 C 
HETATM   14  F   UNL     1     -45.617 -47.277   9.879  1.00  0.00    -0.166 F 
HETATM   15  F   UNL     1     -44.885 -45.572   8.740  1.00  0.00    -0.166 F 
HETATM   16  F   UNL     1     -44.549 -47.598   8.007  1.00  0.00    -0.166 F 
ENDBRANCH   8  13
ENDBRANCH   5   6
ENDBRANCH   2   5
BRANCH   1  17
HETATM   17  C   UNL     1     -42.636 -51.868  13.035  1.00  0.00     0.177 C 
BRANCH  17  18
HETATM   18  C   UNL     1     -44.073 -51.319  13.262  1.00  0.00     0.240 C 
HETATM   19  N   UNL     1     -45.077 -51.972  12.575  1.00  0.00    -0.364 N 
HETATM   20  C   UNL     1     -46.464 -51.604  12.728  1.00  0.00     0.149 C 
HETATM   21  H   UNL     1     -44.864 -52.816  12.061  1.00  0.00     0.161 HD
HETATM   22  O   UNL     1     -44.297 -50.374  14.019  1.00  0.00    -0.271 OA
ENDBRANCH  17  18
BRANCH  17  23
HETATM   23  C   UNL     1     -42.677 -53.368  12.675  1.00  0.00     0.038 C 
BRANCH  23  24
HETATM   24  C   UNL     1     -41.746 -54.282  13.498  1.00  0.00    -0.020 C 
HETATM   25  C   UNL     1     -40.330 -53.722  13.661  1.00  0.00     0.009 C 
HETATM   26  C   UNL     1     -42.349 -54.528  14.885  1.00  0.00     0.009 C 
ENDBRANCH  23  24
ENDBRANCH  17  23
ENDBRANCH   1  17
TORSDOF 7
ENDMDL
MODEL 8
REMARK VINA RESULT:      -6.4      2.251      3.155
REMARK  7 active torsions:
REMARK  status: ('A' for Active; 'I' for Inactive)
REMARK       I    between atoms: N_2  and  C_3 
REMARK    1  A    between atoms: C_3  and  C_5 
REMARK    2  A    between atoms: C_5  and  C_6 
REMARK    3  A    between atoms: C_5  and  N_10 
REMARK    4  A    between atoms: C_6  and  C_7 
REMARK       I    between atoms: N_10  and  C_11 
REMARK    5  A    between atoms: C_11  and  C_13 
REMARK    6  A    between atoms: C_13  and  N_14 
REMARK    7  A    between atoms: C_16  and  C_21 
ROOT
HETATM    1  N   UNL     1     -41.545 -50.291  11.532  1.00  0.00    -0.346 N 
HETATM    2  C   UNL     1     -41.555 -51.187  12.577  1.00  0.00     0.236 C 
HETATM    3  O   UNL     1     -41.300 -50.871  13.737  1.00  0.00    -0.272 OA
HETATM    4  H   UNL     1     -41.725 -50.620  10.587  1.00  0.00     0.163 HD
ENDROOT
BRANCH   2   5
HETATM    5  C   UNL     1     -41.938 -52.620  12.197  1.00  0.00     0.234 C 
BRANCH   5   6
HETATM    6  N   UNL     1     -42.970 -53.170  13.074  1.00  0.00    -0.315 N 
HETATM    7  C   UNL     1     -44.260 -52.654  13.044  1.00  0.00     0.110 A 
HETATM    8  C   UNL     1     -45.223 -53.097  13.878  1.00  0.00     0.063 A 
HETATM    9  C   UNL     1     -44.893 -54.159  14.813  1.00  0.00     0.023 A 
HETATM   10  C   UNL     1     -43.663 -54.684  14.855  1.00  0.00     0.075 A 
HETATM   11  C   UNL     1     -42.595 -54.193  13.940  1.00  0.00     0.247 A 
HETATM   12  O   UNL     1     -41.472 -54.686  14.001  1.00  0.00    -0.268 OA
BRANCH   8  13
HETATM   13  C   UNL     1     -46.606 -52.509  13.883  1.00  0.00     0.418 C 
HETATM   14  F   UNL     1     -46.664 -51.299  14.502  1.00  0.00    -0.166 F 
HETATM   15  F   UNL     1     -47.070 -52.317  12.621  1.00  0.00    -0.166 F 
HETATM   16  F   UNL     1     -47.501 -53.311  14.513  1.00  0.00    -0.166 F 
ENDBRANCH   8  13
ENDBRANCH   5   6
ENDBRANCH   2   5
BRANCH   1  17
HETATM   17  C   UNL     1     -41.152 -48.884  11.657  1.00  0.00     0.177 C 
BRANCH  17  18
HETATM   18  C   UNL     1     -39.603 -48.851  11.786  1.00  0.00     0.240 C 
HETATM   19  N   UNL     1     -38.922 -49.800  11.049  1.00  0.00    -0.364 N 
HETATM   20  C   UNL     1     -37.479 -49.857  11.033  1.00  0.00     0.149 C 
HETATM   21  H   UNL     1     -39.427 -50.382  10.395  1.00  0.00     0.161 HD
HETATM   22  O   UNL     1     -39.025 -48.021  12.488  1.00  0.00    -0.271 OA
ENDBRANCH  17  18
BRANCH  17  23
HETATM   23  C   UNL     1     -41.615 -48.051  10.444  1.00  0.00     0.038 C 
BRANCH  23  24
HETATM   24  C   UNL     1     -42.763 -47.056  10.710  1.00  0.00    -0.020 C 
HETATM   25  C   UNL     1     -44.077 -47.446  10.028  1.00  0.00     0.009 C 
HETATM   26  C   UNL     1     -43.002 -46.926  12.218  1.00  0.00     0.009 C 
ENDBRANCH  23  24
ENDBRANCH  17  23
ENDBRANCH   1  17
TORSDOF 7
ENDMDL
MODEL 9
REMARK VINA RESULT:      -6.4      2.271      4.168
REMARK  7 active torsions:
REMARK  status: ('A' for Active; 'I' for Inactive)
REMARK       I    between atoms: N_2  and  C_3 
REMARK    1  A    between atoms: C_3  and  C_5 
REMARK    2  A    between atoms: C_5  and  C_6 
REMARK    3  A    between atoms: C_5  and  N_10 
REMARK    4  A    between atoms: C_6  and  C_7 
REMARK       I    between atoms: N_10  and  C_11 
REMARK    5  A    between atoms: C_11  and  C_13 
REMARK    6  A    between atoms: C_13  and  N_14 
REMARK    7  A    between atoms: C_16  and  C_21 
ROOT
HETATM    1  N   UNL     1     -41.958 -50.822  12.496  1.00  0.00    -0.346 N 
HETATM    2  C   UNL     1     -40.802 -51.569  12.519  1.00  0.00     0.236 C 
HETATM    3  O   UNL     1     -39.704 -51.100  12.813  1.00  0.00    -0.272 OA
HETATM    4  H   UNL     1     -42.831 -51.256  12.206  1.00  0.00     0.163 HD
ENDROOT
BRANCH   2   5
HETATM    5  C   UNL     1     -40.982 -53.051  12.177  1.00  0.00     0.234 C 
BRANCH   5   6
HETATM    6  N   UNL     1     -41.715 -53.774  13.215  1.00  0.00    -0.315 N 
HETATM    7  C   UNL     1     -43.092 -53.937  13.113  1.00  0.00     0.110 A 
HETATM    8  C   UNL     1     -43.809 -54.549  14.077  1.00  0.00     0.063 A 
HETATM    9  C   UNL     1     -43.106 -55.068  15.238  1.00  0.00     0.023 A 
HETATM   10  C   UNL     1     -41.780 -54.938  15.357  1.00  0.00     0.075 A 
HETATM   11  C   UNL     1     -40.985 -54.256  14.297  1.00  0.00     0.247 A 
HETATM   12  O   UNL     1     -39.769 -54.144  14.430  1.00  0.00    -0.268 OA
BRANCH   8  13
HETATM   13  C   UNL     1     -45.304 -54.684  13.994  1.00  0.00     0.418 C 
HETATM   14  F   UNL     1     -45.703 -55.928  13.618  1.00  0.00    -0.166 F 
HETATM   15  F   UNL     1     -45.893 -54.437  15.193  1.00  0.00    -0.166 F 
HETATM   16  F   UNL     1     -45.847 -53.816  13.103  1.00  0.00    -0.166 F 
ENDBRANCH   8  13
ENDBRANCH   5   6
ENDBRANCH   2   5
BRANCH   1  17
HETATM   17  C   UNL     1     -42.010 -49.376  12.733  1.00  0.00     0.177 C 
BRANCH  17  18
HETATM   18  C   UNL     1     -42.240 -48.694  11.354  1.00  0.00     0.240 C 
HETATM   19  N   UNL     1     -43.519 -48.226  11.127  1.00  0.00    -0.364 N 
HETATM   20  C   UNL     1     -43.867 -47.527   9.913  1.00  0.00     0.149 C 
HETATM   21  H   UNL     1     -44.199 -48.243  11.875  1.00  0.00     0.161 HD
HETATM   22  O   UNL     1     -41.335 -48.567  10.530  1.00  0.00    -0.271 OA
ENDBRANCH  17  18
BRANCH  17  23
HETATM   23  C   UNL     1     -43.131 -48.997  13.722  1.00  0.00     0.038 C 
BRANCH  23  24
HETATM   24  C   UNL     1     -43.470 -50.056  14.792  1.00  0.00    -0.020 C 
HETATM   25  C   UNL     1     -43.680 -49.464  16.188  1.00  0.00     0.009 C 
HETATM   26  C   UNL     1     -44.728 -50.828  14.382  1.00  0.00     0.009 C 
ENDBRANCH  23  24
ENDBRANCH  17  23
ENDBRANCH   1  17
TORSDOF 7
ENDMDL
