MODEL 1
REMARK VINA RESULT:      -5.8      0.000      0.000
REMARK  4 active torsions:
REMARK  status: ('A' for Active; 'I' for Inactive)
REMARK    1  A    between atoms: C_2  and  C_3 
REMARK    2  A    between atoms: C_2  and  N_10 
REMARK    3  A    between atoms: C_3  and  N_4 
REMARK       I    between atoms: N_10  and  C_11 
REMARK    4  A    between atoms: C_11  and  C_13 
ROOT
HETATM    1  N   UNL     1     -39.291 -49.006  11.190  1.00  0.00    -0.350 N 
HETATM    2  C   UNL     1     -40.651 -49.221  11.222  1.00  0.00     0.265 C 
HETATM    3  O   UNL     1     -41.185 -50.211  11.698  1.00  0.00    -0.266 OA
HETATM    4  H   UNL     1     -38.972 -48.107  10.834  1.00  0.00     0.163 HD
ENDROOT
BRANCH   1   5
HETATM    5  C   UNL     1     -38.352 -49.979  11.751  1.00  0.00     0.099 C 
HETATM    6  C   UNL     1     -37.120 -50.090  10.856  1.00  0.00     0.034 C 
BRANCH   5   7
HETATM    7  C   UNL     1     -37.988 -49.634  13.210  1.00  0.00     0.153 C 
BRANCH   7   8
HETATM    8  N   UNL     1     -38.342 -50.662  14.170  1.00  0.00    -0.350 N 
HETATM    9  C   UNL     1     -38.320 -50.544  15.530  1.00  0.00     0.108 A 
HETATM   10  C   UNL     1     -38.732 -51.770  16.001  1.00  0.00     0.106 A 
HETATM   11  N   UNL     1     -39.008 -52.619  14.962  1.00  0.00    -0.361 N 
HETATM   12  C   UNL     1     -38.781 -51.921  13.871  1.00  0.00     0.182 A 
ATOM     13  HN  UNL     1     -39.322 -53.587  15.022  1.00  0.00     0.166 HD
ENDBRANCH   7   8
ENDBRANCH   5   7
ENDBRANCH   1   5
BRANCH   2  14
HETATM   14  C   UNL     1     -41.511 -48.110  10.614  1.00  0.00     0.094 A 
HETATM   15  N   UNL     1     -42.247 -48.383   9.583  1.00  0.00    -0.295 N 
HETATM   16  N   UNL     1     -43.014 -47.386   9.033  1.00  0.00    -0.265 N 
ATOM     17  HN  UNL     1     -42.256 -49.323   9.186  1.00  0.00     0.187 HD
HETATM   18  C   UNL     1     -43.809 -47.745   7.870  1.00  0.00     0.181 C 
HETATM   19  C   UNL     1     -43.090 -46.079   9.485  1.00  0.00     0.238 A 
HETATM   20  O   UNL     1     -43.798 -45.225   8.943  1.00  0.00    -0.272 OA
HETATM   21  C   UNL     1     -42.277 -45.703  10.690  1.00  0.00     0.111 A 
HETATM   22  C   UNL     1     -41.407 -46.778  11.283  1.00  0.00     0.073 A 
ENDBRANCH   2  14
TORSDOF 4
ENDMDL
MODEL 2
REMARK VINA RESULT:      -5.7      1.784      2.340
REMARK  4 active torsions:
REMARK  status: ('A' for Active; 'I' for Inactive)
REMARK    1  A    between atoms: C_2  and  C_3 
REMARK    2  A    between atoms: C_2  and  N_10 
REMARK    3  A    between atoms: C_3  and  N_4 
REMARK       I    between atoms: N_10  and  C_11 
REMARK    4  A    between atoms: C_11  and  C_13 
ROOT
HETATM    1  N   UNL     1     -40.701 -48.990  12.803  1.00  0.00    -0.350 N 
HETATM    2  C   UNL     1     -40.697 -49.045  11.426  1.00  0.00     0.265 C 
HETATM    3  O   UNL     1     -40.068 -49.859  10.768  1.00  0.00    -0.266 OA
HETATM    4  H   UNL     1     -41.325 -48.313  13.237  1.00  0.00     0.163 HD
ENDROOT
BRANCH   1   5
HETATM    5  C   UNL     1     -39.930 -49.940  13.606  1.00  0.00     0.099 C 
HETATM    6  C   UNL     1     -39.071 -49.189  14.621  1.00  0.00     0.034 C 
BRANCH   5   7
HETATM    7  C   UNL     1     -40.847 -50.986  14.274  1.00  0.00     0.153 C 
BRANCH   7   8
HETATM    8  N   UNL     1     -40.764 -52.310  13.687  1.00  0.00    -0.350 N 
HETATM    9  C   UNL     1     -40.338 -53.449  14.309  1.00  0.00     0.108 A 
HETATM   10  C   UNL     1     -40.438 -54.435  13.356  1.00  0.00     0.106 A 
HETATM   11  N   UNL     1     -40.920 -53.923  12.179  1.00  0.00    -0.361 N 
HETATM   12  C   UNL     1     -41.124 -52.646  12.413  1.00  0.00     0.182 A 
ATOM     13  HN  UNL     1     -41.086 -54.426  11.308  1.00  0.00     0.166 HD
ENDBRANCH   7   8
ENDBRANCH   5   7
ENDBRANCH   1   5
BRANCH   2  14
HETATM   14  C   UNL     1     -41.562 -47.999  10.720  1.00  0.00     0.094 A 
HETATM   15  N   UNL     1     -42.198 -48.339   9.643  1.00  0.00    -0.295 N 
HETATM   16  N   UNL     1     -42.971 -47.401   9.005  1.00  0.00    -0.265 N 
ATOM     17  HN  UNL     1     -42.127 -49.288   9.276  1.00  0.00     0.187 HD
HETATM   18  C   UNL     1     -43.651 -47.832   7.795  1.00  0.00     0.181 C 
HETATM   19  C   UNL     1     -43.151 -46.088   9.409  1.00  0.00     0.238 A 
HETATM   20  O   UNL     1     -43.856 -45.289   8.788  1.00  0.00    -0.272 OA
HETATM   21  C   UNL     1     -42.456 -45.637  10.662  1.00  0.00     0.111 A 
HETATM   22  C   UNL     1     -41.581 -46.646  11.354  1.00  0.00     0.073 A 
ENDBRANCH   2  14
TORSDOF 4
ENDMDL
MODEL 3
REMARK VINA RESULT:      -5.7      1.725      2.293
REMARK  4 active torsions:
REMARK  status: ('A' for Active; 'I' for Inactive)
REMARK    1  A    between atoms: C_2  and  C_3 
REMARK    2  A    between atoms: C_2  and  N_10 
REMARK    3  A    between atoms: C_3  and  N_4 
REMARK       I    between atoms: N_10  and  C_11 
REMARK    4  A    between atoms: C_11  and  C_13 
ROOT
HETATM    1  N   UNL     1     -39.333 -48.734  11.413  1.00  0.00    -0.350 N 
HETATM    2  C   UNL     1     -40.665 -49.065  11.297  1.00  0.00     0.265 C 
HETATM    3  O   UNL     1     -41.157 -50.110  11.696  1.00  0.00    -0.266 OA
HETATM    4  H   UNL     1     -39.059 -47.801  11.110  1.00  0.00     0.163 HD
ENDROOT
BRANCH   1   5
HETATM    5  C   UNL     1     -38.376 -49.638  12.053  1.00  0.00     0.099 C 
HETATM    6  C   UNL     1     -37.289 -50.036  11.057  1.00  0.00     0.034 C 
BRANCH   5   7
HETATM    7  C   UNL     1     -37.793 -49.022  13.342  1.00  0.00     0.153 C 
BRANCH   7   8
HETATM    8  N   UNL     1     -38.729 -48.198  14.083  1.00  0.00    -0.350 N 
HETATM    9  C   UNL     1     -39.738 -48.642  14.891  1.00  0.00     0.108 A 
HETATM   10  C   UNL     1     -40.343 -47.502  15.364  1.00  0.00     0.106 A 
HETATM   11  N   UNL     1     -39.723 -46.384  14.870  1.00  0.00    -0.361 N 
HETATM   12  C   UNL     1     -38.745 -46.833  14.116  1.00  0.00     0.182 A 
ATOM     13  HN  UNL     1     -39.969 -45.411  15.050  1.00  0.00     0.166 HD
ENDBRANCH   7   8
ENDBRANCH   5   7
ENDBRANCH   1   5
BRANCH   2  14
HETATM   14  C   UNL     1     -41.551 -48.016  10.621  1.00  0.00     0.094 A 
HETATM   15  N   UNL     1     -42.221 -48.350   9.564  1.00  0.00    -0.295 N 
HETATM   16  N   UNL     1     -43.012 -47.409   8.953  1.00  0.00    -0.265 N 
ATOM     17  HN  UNL     1     -42.161 -49.298   9.190  1.00  0.00     0.187 HD
HETATM   18  C   UNL     1     -43.729 -47.835   7.763  1.00  0.00     0.181 C 
HETATM   19  C   UNL     1     -43.178 -46.098   9.367  1.00  0.00     0.238 A 
HETATM   20  O   UNL     1     -43.901 -45.295   8.772  1.00  0.00    -0.272 OA
HETATM   21  C   UNL     1     -42.444 -45.652  10.600  1.00  0.00     0.111 A 
HETATM   22  C   UNL     1     -41.549 -46.665  11.261  1.00  0.00     0.073 A 
ENDBRANCH   2  14
TORSDOF 4
ENDMDL
MODEL 4
REMARK VINA RESULT:      -5.6      3.288      4.067
REMARK  4 active torsions:
REMARK  status: ('A' for Active; 'I' for Inactive)
REMARK    1  A    between atoms: C_2  and  C_3 
REMARK    2  A    between atoms: C_2  and  N_10 
REMARK    3  A    between atoms: C_3  and  N_4 
REMARK       I    between atoms: N_10  and  C_11 
REMARK    4  A    between atoms: C_11  and  C_13 
ROOT
HETATM    1  N   UNL     1     -43.913 -50.108  12.781  1.00  0.00    -0.350 N 
HETATM    2  C   UNL     1     -42.933 -49.139  12.780  1.00  0.00     0.265 C 
HETATM    3  O   UNL     1     -42.031 -49.066  13.600  1.00  0.00    -0.266 OA
HETATM    4  H   UNL     1     -44.566 -50.106  12.001  1.00  0.00     0.163 HD
ENDROOT
BRANCH   1   5
HETATM    5  C   UNL     1     -43.942 -51.161  13.797  1.00  0.00     0.099 C 
HETATM    6  C   UNL     1     -45.133 -50.952  14.730  1.00  0.00     0.034 C 
BRANCH   5   7
HETATM    7  C   UNL     1     -43.940 -52.563  13.154  1.00  0.00     0.153 C 
BRANCH   7   8
HETATM    8  N   UNL     1     -42.617 -53.080  12.859  1.00  0.00    -0.350 N 
HETATM    9  C   UNL     1     -41.982 -54.101  13.506  1.00  0.00     0.108 A 
HETATM   10  C   UNL     1     -40.765 -54.221  12.874  1.00  0.00     0.106 A 
HETATM   11  N   UNL     1     -40.654 -53.305  11.861  1.00  0.00    -0.361 N 
HETATM   12  C   UNL     1     -41.789 -52.643  11.863  1.00  0.00     0.182 A 
ATOM     13  HN  UNL     1     -39.859 -53.167  11.238  1.00  0.00     0.166 HD
ENDBRANCH   7   8
ENDBRANCH   5   7
ENDBRANCH   1   5
BRANCH   2  14
HETATM   14  C   UNL     1     -43.018 -48.113  11.649  1.00  0.00     0.094 A 
HETATM   15  N   UNL     1     -43.953 -48.240  10.759  1.00  0.00    -0.295 N 
HETATM   16  N   UNL     1     -44.028 -47.323   9.740  1.00  0.00    -0.265 N 
ATOM     17  HN  UNL     1     -44.621 -49.009  10.815  1.00  0.00     0.187 HD
HETATM   18  C   UNL     1     -45.086 -47.522   8.763  1.00  0.00     0.181 C 
HETATM   19  C   UNL     1     -43.185 -46.238   9.561  1.00  0.00     0.238 A 
HETATM   20  O   UNL     1     -43.302 -45.450   8.620  1.00  0.00    -0.272 OA
HETATM   21  C   UNL     1     -42.093 -46.023  10.571  1.00  0.00     0.111 A 
HETATM   22  C   UNL     1     -41.980 -47.038  11.675  1.00  0.00     0.073 A 
ENDBRANCH   2  14
TORSDOF 4
ENDMDL
MODEL 5
REMARK VINA RESULT:      -5.6      2.768      3.293
REMARK  4 active torsions:
REMARK  status: ('A' for Active; 'I' for Inactive)
REMARK    1  A    between atoms: C_2  and  C_3 
REMARK    2  A    between atoms: C_2  and  N_10 
REMARK    3  A    between atoms: C_3  and  N_4 
REMARK       I    between atoms: N_10  and  C_11 
REMARK    4  A    between atoms: C_11  and  C_13 
ROOT
HETATM    1  N   UNL     1     -41.359 -50.230  11.740  1.00  0.00    -0.350 N 
HETATM    2  C   UNL     1     -40.717 -49.062  11.390  1.00  0.00     0.265 C 
HETATM    3  O   UNL     1     -39.537 -48.830  11.603  1.00  0.00    -0.266 OA
HETATM    4  H   UNL     1     -42.326 -50.335  11.440  1.00  0.00     0.163 HD
ENDROOT
BRANCH   1   5
HETATM    5  C   UNL     1     -40.647 -51.319  12.411  1.00  0.00     0.099 C 
HETATM    6  C   UNL     1     -40.762 -51.162  13.925  1.00  0.00     0.034 C 
BRANCH   5   7
HETATM    7  C   UNL     1     -41.141 -52.698  11.925  1.00  0.00     0.153 C 
BRANCH   7   8
HETATM    8  N   UNL     1     -42.219 -53.257  12.718  1.00  0.00    -0.350 N 
HETATM    9  C   UNL     1     -42.097 -54.182  13.716  1.00  0.00     0.108 A 
HETATM   10  C   UNL     1     -43.380 -54.396  14.162  1.00  0.00     0.106 A 
HETATM   11  N   UNL     1     -44.270 -53.621  13.466  1.00  0.00    -0.361 N 
HETATM   12  C   UNL     1     -43.542 -52.932  12.616  1.00  0.00     0.182 A 
ATOM     13  HN  UNL     1     -45.282 -53.585  13.584  1.00  0.00     0.166 HD
ENDBRANCH   7   8
ENDBRANCH   5   7
ENDBRANCH   1   5
BRANCH   2  14
HETATM   14  C   UNL     1     -41.583 -48.020  10.679  1.00  0.00     0.094 A 
HETATM   15  N   UNL     1     -42.210 -48.360   9.597  1.00  0.00    -0.295 N 
HETATM   16  N   UNL     1     -42.983 -47.425   8.956  1.00  0.00    -0.265 N 
ATOM     17  HN  UNL     1     -42.131 -49.308   9.228  1.00  0.00     0.187 HD
HETATM   18  C   UNL     1     -43.652 -47.857   7.740  1.00  0.00     0.181 C 
HETATM   19  C   UNL     1     -43.173 -46.114   9.361  1.00  0.00     0.238 A 
HETATM   20  O   UNL     1     -43.878 -45.317   8.737  1.00  0.00    -0.272 OA
HETATM   21  C   UNL     1     -42.489 -45.662  10.620  1.00  0.00     0.111 A 
HETATM   22  C   UNL     1     -41.614 -46.668  11.316  1.00  0.00     0.073 A 
ENDBRANCH   2  14
TORSDOF 4
ENDMDL
MODEL 6
REMARK VINA RESULT:      -5.5      4.332      7.331
REMARK  4 active torsions:
REMARK  status: ('A' for Active; 'I' for Inactive)
REMARK    1  A    between atoms: C_2  and  C_3 
REMARK    2  A    between atoms: C_2  and  N_10 
REMARK    3  A    between atoms: C_3  and  N_4 
REMARK       I    between atoms: N_10  and  C_11 
REMARK    4  A    between atoms: C_11  and  C_13 
ROOT
HETATM    1  N   UNL     1     -42.454 -50.016  11.986  1.00  0.00    -0.350 N 
HETATM    2  C   UNL     1     -43.270 -50.200  13.080  1.00  0.00     0.265 C 
HETATM    3  O   UNL     1     -43.494 -49.349  13.928  1.00  0.00    -0.266 OA
HETATM    4  H   UNL     1     -42.407 -50.776  11.310  1.00  0.00     0.163 HD
ENDROOT
BRANCH   1   5
HETATM    5  C   UNL     1     -41.776 -48.741  11.745  1.00  0.00     0.099 C 
HETATM    6  C   UNL     1     -40.387 -48.762  12.380  1.00  0.00     0.034 C 
BRANCH   5   7
HETATM    7  C   UNL     1     -41.729 -48.403  10.241  1.00  0.00     0.153 C 
BRANCH   7   8
HETATM    8  N   UNL     1     -42.635 -47.344   9.841  1.00  0.00    -0.350 N 
HETATM    9  C   UNL     1     -43.518 -47.381   8.800  1.00  0.00     0.108 A 
HETATM   10  C   UNL     1     -44.144 -46.156   8.820  1.00  0.00     0.106 A 
HETATM   11  N   UNL     1     -43.668 -45.386   9.849  1.00  0.00    -0.361 N 
HETATM   12  C   UNL     1     -42.773 -46.132  10.457  1.00  0.00     0.182 A 
ATOM     13  HN  UNL     1     -43.949 -44.436  10.090  1.00  0.00     0.166 HD
ENDBRANCH   7   8
ENDBRANCH   5   7
ENDBRANCH   1   5
BRANCH   2  14
HETATM   14  C   UNL     1     -43.926 -51.578  13.193  1.00  0.00     0.094 A 
HETATM   15  N   UNL     1     -45.037 -51.690  13.851  1.00  0.00    -0.295 N 
HETATM   16  N   UNL     1     -45.623 -52.926  13.958  1.00  0.00    -0.265 N 
ATOM     17  HN  UNL     1     -45.468 -50.872  14.283  1.00  0.00     0.187 HD
HETATM   18  C   UNL     1     -46.859 -52.995  14.719  1.00  0.00     0.181 C 
HETATM   19  C   UNL     1     -45.138 -54.103  13.412  1.00  0.00     0.238 A 
HETATM   20  O   UNL     1     -45.711 -55.188  13.547  1.00  0.00    -0.272 OA
HETATM   21  C   UNL     1     -43.864 -54.038  12.619  1.00  0.00     0.111 A 
HETATM   22  C   UNL     1     -43.194 -52.695  12.521  1.00  0.00     0.073 A 
ENDBRANCH   2  14
TORSDOF 4
ENDMDL
MODEL 7
REMARK VINA RESULT:      -5.5      4.530      5.402
REMARK  4 active torsions:
REMARK  status: ('A' for Active; 'I' for Inactive)
REMARK    1  A    between atoms: C_2  and  C_3 
REMARK    2  A    between atoms: C_2  and  N_10 
REMARK    3  A    between atoms: C_3  and  N_4 
REMARK       I    between atoms: N_10  and  C_11 
REMARK    4  A    between atoms: C_11  and  C_13 
ROOT
HETATM    1  N   UNL     1     -42.603 -51.790  12.463  1.00  0.00    -0.350 N 
HETATM    2  C   UNL     1     -41.300 -51.506  12.117  1.00  0.00     0.265 C 
HETATM    3  O   UNL     1     -40.398 -52.330  12.081  1.00  0.00    -0.266 OA
HETATM    4  H   UNL     1     -43.279 -51.033  12.381  1.00  0.00     0.163 HD
ENDROOT
BRANCH   1   5
HETATM    5  C   UNL     1     -43.020 -53.147  12.817  1.00  0.00     0.099 C 
HETATM    6  C   UNL     1     -42.756 -53.402  14.300  1.00  0.00     0.034 C 
BRANCH   5   7
HETATM    7  C   UNL     1     -44.491 -53.405  12.430  1.00  0.00     0.153 C 
BRANCH   7   8
HETATM    8  N   UNL     1     -45.456 -52.829  13.346  1.00  0.00    -0.350 N 
HETATM    9  C   UNL     1     -45.788 -51.508  13.450  1.00  0.00     0.108 A 
HETATM   10  C   UNL     1     -46.735 -51.457  14.446  1.00  0.00     0.106 A 
HETATM   11  N   UNL     1     -46.988 -52.710  14.939  1.00  0.00    -0.361 N 
HETATM   12  C   UNL     1     -46.218 -53.519  14.246  1.00  0.00     0.182 A 
ATOM     13  HN  UNL     1     -47.637 -52.962  15.684  1.00  0.00     0.166 HD
ENDBRANCH   7   8
ENDBRANCH   5   7
ENDBRANCH   1   5
BRANCH   2  14
HETATM   14  C   UNL     1     -41.014 -50.048  11.753  1.00  0.00     0.094 A 
HETATM   15  N   UNL     1     -41.871 -49.407  11.022  1.00  0.00    -0.295 N 
HETATM   16  N   UNL     1     -41.614 -48.100  10.690  1.00  0.00    -0.265 N 
ATOM     17  HN  UNL     1     -42.723 -49.866  10.699  1.00  0.00     0.187 HD
HETATM   18  C   UNL     1     -42.602 -47.434   9.857  1.00  0.00     0.181 C 
HETATM   19  C   UNL     1     -40.501 -47.370  11.073  1.00  0.00     0.238 A 
HETATM   20  O   UNL     1     -40.324 -46.196  10.738  1.00  0.00    -0.272 OA
HETATM   21  C   UNL     1     -39.479 -48.050  11.939  1.00  0.00     0.111 A 
HETATM   22  C   UNL     1     -39.732 -49.492  12.284  1.00  0.00     0.073 A 
ENDBRANCH   2  14
TORSDOF 4
ENDMDL
MODEL 8
REMARK VINA RESULT:      -5.4      2.973      6.789
REMARK  4 active torsions:
REMARK  status: ('A' for Active; 'I' for Inactive)
REMARK    1  A    between atoms: C_2  and  C_3 
REMARK    2  A    between atoms: C_2  and  N_10 
REMARK    3  A    between atoms: C_3  and  N_4 
REMARK       I    between atoms: N_10  and  C_11 
REMARK    4  A    between atoms: C_11  and  C_13 
ROOT
HETATM    1  N   UNL     1     -42.228 -48.983  10.867  1.00  0.00    -0.350 N 
HETATM    2  C   UNL     1     -41.094 -49.539  11.416  1.00  0.00     0.265 C 
HETATM    3  O   UNL     1     -39.991 -49.013  11.408  1.00  0.00    -0.266 OA
HETATM    4  H   UNL     1     -43.103 -49.485  11.004  1.00  0.00     0.163 HD
ENDROOT
BRANCH   1   5
HETATM    5  C   UNL     1     -42.197 -47.671  10.219  1.00  0.00     0.099 C 
HETATM    6  C   UNL     1     -43.191 -47.638   9.060  1.00  0.00     0.034 C 
BRANCH   5   7
HETATM    7  C   UNL     1     -42.441 -46.535  11.234  1.00  0.00     0.153 C 
BRANCH   7   8
HETATM    8  N   UNL     1     -41.547 -45.402  11.085  1.00  0.00    -0.350 N 
HETATM    9  C   UNL     1     -40.269 -45.435  10.604  1.00  0.00     0.108 A 
HETATM   10  C   UNL     1     -39.836 -44.130  10.655  1.00  0.00     0.106 A 
HETATM   11  N   UNL     1     -40.820 -43.312  11.146  1.00  0.00    -0.361 N 
HETATM   12  C   UNL     1     -41.844 -44.102  11.379  1.00  0.00     0.182 A 
ATOM     13  HN  UNL     1     -40.768 -42.305  11.297  1.00  0.00     0.166 HD
ENDBRANCH   7   8
ENDBRANCH   5   7
ENDBRANCH   1   5
BRANCH   2  14
HETATM   14  C   UNL     1     -41.281 -50.907  12.075  1.00  0.00     0.094 A 
HETATM   15  N   UNL     1     -42.441 -51.481  12.006  1.00  0.00    -0.295 N 
HETATM   16  N   UNL     1     -42.612 -52.706  12.601  1.00  0.00    -0.265 N 
ATOM     17  HN  UNL     1     -43.214 -51.030  11.517  1.00  0.00     0.187 HD
HETATM   18  C   UNL     1     -43.937 -53.296  12.505  1.00  0.00     0.181 C 
HETATM   19  C   UNL     1     -41.641 -53.418  13.286  1.00  0.00     0.238 A 
HETATM   20  O   UNL     1     -41.858 -54.516  13.805  1.00  0.00    -0.272 OA
HETATM   21  C   UNL     1     -40.267 -52.816  13.384  1.00  0.00     0.111 A 
HETATM   22  C   UNL     1     -40.074 -51.460  12.763  1.00  0.00     0.073 A 
ENDBRANCH   2  14
TORSDOF 4
ENDMDL
MODEL 9
REMARK VINA RESULT:      -5.4      2.007      2.699
REMARK  4 active torsions:
REMARK  status: ('A' for Active; 'I' for Inactive)
REMARK    1  A    between atoms: C_2  and  C_3 
REMARK    2  A    between atoms: C_2  and  N_10 
REMARK    3  A    between atoms: C_3  and  N_4 
REMARK       I    between atoms: N_10  and  C_11 
REMARK    4  A    between atoms: C_11  and  C_13 
ROOT
HETATM    1  N   UNL     1     -42.300 -50.572  11.890  1.00  0.00    -0.350 N 
HETATM    2  C   UNL     1     -42.244 -49.290  12.393  1.00  0.00     0.265 C 
HETATM    3  O   UNL     1     -41.930 -49.009  13.539  1.00  0.00    -0.266 OA
HETATM    4  H   UNL     1     -42.502 -50.672  10.898  1.00  0.00     0.163 HD
ENDROOT
BRANCH   1   5
HETATM    5  C   UNL     1     -41.968 -51.731  12.720  1.00  0.00     0.099 C 
HETATM    6  C   UNL     1     -43.049 -52.800  12.578  1.00  0.00     0.034 C 
BRANCH   5   7
HETATM    7  C   UNL     1     -40.561 -52.272  12.395  1.00  0.00     0.153 C 
BRANCH   7   8
HETATM    8  N   UNL     1     -39.478 -51.485  12.952  1.00  0.00    -0.350 N 
HETATM    9  C   UNL     1     -39.030 -51.517  14.242  1.00  0.00     0.108 A 
HETATM   10  C   UNL     1     -38.002 -50.605  14.285  1.00  0.00     0.106 A 
HETATM   11  N   UNL     1     -37.813 -50.029  13.056  1.00  0.00    -0.361 N 
HETATM   12  C   UNL     1     -38.703 -50.590  12.269  1.00  0.00     0.182 A 
ATOM     13  HN  UNL     1     -37.128 -49.317  12.806  1.00  0.00     0.166 HD
ENDBRANCH   7   8
ENDBRANCH   5   7
ENDBRANCH   1   5
BRANCH   2  14
HETATM   14  C   UNL     1     -42.601 -48.177  11.406  1.00  0.00     0.094 A 
HETATM   15  N   UNL     1     -43.752 -48.213  10.812  1.00  0.00    -0.295 N 
HETATM   16  N   UNL     1     -44.072 -47.218   9.922  1.00  0.00    -0.265 N 
ATOM     17  HN  UNL     1     -44.411 -48.969  11.003  1.00  0.00     0.187 HD
HETATM   18  C   UNL     1     -45.370 -47.317   9.275  1.00  0.00     0.181 C 
HETATM   19  C   UNL     1     -43.268 -46.142   9.586  1.00  0.00     0.238 A 
HETATM   20  O   UNL     1     -43.611 -45.280   8.773  1.00  0.00    -0.272 OA
HETATM   21  C   UNL     1     -41.928 -46.030  10.255  1.00  0.00     0.111 A 
HETATM   22  C   UNL     1     -41.551 -47.131  11.209  1.00  0.00     0.073 A 
ENDBRANCH   2  14
TORSDOF 4
ENDMDL
