MODEL 1
REMARK VINA RESULT:      -4.3      0.000      0.000
REMARK  1 active torsions:
REMARK  status: ('A' for Active; 'I' for Inactive)
REMARK    1  A    between atoms: C_7  and  C_8 
ROOT
HETATM    1  C   UNL     1     -41.859 -54.107  14.972  1.00  0.00     0.156 C 
HETATM    2  N   UNL     1     -41.788 -53.478  13.674  1.00  0.00    -0.349 N 
HETATM    3  C   UNL     1     -40.691 -53.467  12.864  1.00  0.00     0.108 A 
HETATM    4  C   UNL     1     -41.076 -52.756  11.754  1.00  0.00     0.106 A 
HETATM    5  N   UNL     1     -42.380 -52.348  11.866  1.00  0.00    -0.354 N 
ATOM      6  HN  UNL     1     -42.916 -51.809  11.185  1.00  0.00     0.166 HD
HETATM    7  C   UNL     1     -42.801 -52.795  13.036  1.00  0.00     0.088 A 
ENDROOT
BRANCH   7   8
HETATM    8  C   UNL     1     -44.168 -52.614  13.621  1.00  0.00     0.082 C 
HETATM    9  C   UNL     1     -44.360 -51.244  14.278  1.00  0.00     0.015 C 
HETATM   10  C   UNL     1     -45.736 -51.218  14.945  1.00  0.00     0.031 C 
HETATM   11  C   UNL     1     -46.854 -51.592  13.965  1.00  0.00     0.269 C 
HETATM   12  N   UNL     1     -46.593 -52.832  13.226  1.00  0.00     0.084 N 
HETATM   13  C   UNL     1     -45.274 -52.814  12.573  1.00  0.00     0.281 C 
HETATM   14  H   UNL     1     -47.312 -52.950  12.512  1.00  0.00     0.315 HD
ENDBRANCH   7   8
TORSDOF 1
ENDMDL
MODEL 2
REMARK VINA RESULT:      -4.2      1.223      4.518
REMARK  1 active torsions:
REMARK  status: ('A' for Active; 'I' for Inactive)
REMARK    1  A    between atoms: C_7  and  C_8 
ROOT
HETATM    1  C   UNL     1     -44.919 -51.125  15.469  1.00  0.00     0.156 C 
HETATM    2  N   UNL     1     -45.342 -51.599  14.173  1.00  0.00    -0.349 N 
HETATM    3  C   UNL     1     -46.583 -51.423  13.636  1.00  0.00     0.108 A 
HETATM    4  C   UNL     1     -46.532 -52.040  12.411  1.00  0.00     0.106 A 
HETATM    5  N   UNL     1     -45.289 -52.574  12.186  1.00  0.00    -0.354 N 
ATOM      6  HN  UNL     1     -44.979 -53.081  11.357  1.00  0.00     0.166 HD
HETATM    7  C   UNL     1     -44.576 -52.297  13.263  1.00  0.00     0.088 A 
ENDROOT
BRANCH   7   8
HETATM    8  C   UNL     1     -43.144 -52.664  13.503  1.00  0.00     0.082 C 
HETATM    9  C   UNL     1     -42.968 -54.112  13.970  1.00  0.00     0.015 C 
HETATM   10  C   UNL     1     -41.491 -54.336  14.302  1.00  0.00     0.031 C 
HETATM   11  C   UNL     1     -40.578 -53.952  13.132  1.00  0.00     0.269 C 
HETATM   12  N   UNL     1     -40.853 -52.617  12.589  1.00  0.00     0.084 N 
HETATM   13  C   UNL     1     -42.276 -52.444  12.255  1.00  0.00     0.281 C 
HETATM   14  H   UNL     1     -40.297 -52.481  11.744  1.00  0.00     0.315 HD
ENDBRANCH   7   8
TORSDOF 1
ENDMDL
MODEL 3
REMARK VINA RESULT:      -4.0      5.773      6.419
REMARK  1 active torsions:
REMARK  status: ('A' for Active; 'I' for Inactive)
REMARK    1  A    between atoms: C_7  and  C_8 
ROOT
HETATM    1  C   UNL     1     -38.863 -47.668  14.055  1.00  0.00     0.156 C 
HETATM    2  N   UNL     1     -38.689 -48.593  12.961  1.00  0.00    -0.349 N 
HETATM    3  C   UNL     1     -37.757 -49.589  12.911  1.00  0.00     0.108 A 
HETATM    4  C   UNL     1     -37.953 -50.198  11.696  1.00  0.00     0.106 A 
HETATM    5  N   UNL     1     -38.986 -49.607  11.016  1.00  0.00    -0.354 N 
ATOM      6  HN  UNL     1     -39.342 -49.865  10.095  1.00  0.00     0.166 HD
HETATM    7  C   UNL     1     -39.425 -48.635  11.795  1.00  0.00     0.088 A 
ENDROOT
BRANCH   7   8
HETATM    8  C   UNL     1     -40.554 -47.697  11.501  1.00  0.00     0.082 C 
HETATM    9  C   UNL     1     -40.089 -46.382  10.867  1.00  0.00     0.015 C 
HETATM   10  C   UNL     1     -41.300 -45.458  10.727  1.00  0.00     0.031 C 
HETATM   11  C   UNL     1     -42.449 -46.134   9.970  1.00  0.00     0.269 C 
HETATM   12  N   UNL     1     -42.792 -47.462  10.490  1.00  0.00     0.084 N 
HETATM   13  C   UNL     1     -41.610 -48.335  10.586  1.00  0.00     0.281 C 
HETATM   14  H   UNL     1     -43.473 -47.897   9.867  1.00  0.00     0.315 HD
ENDBRANCH   7   8
TORSDOF 1
ENDMDL
MODEL 4
REMARK VINA RESULT:      -3.8      7.304      8.498
REMARK  1 active torsions:
REMARK  status: ('A' for Active; 'I' for Inactive)
REMARK    1  A    between atoms: C_7  and  C_8 
ROOT
HETATM    1  C   UNL     1     -42.741 -48.336  11.270  1.00  0.00     0.156 C 
HETATM    2  N   UNL     1     -43.338 -47.341  10.410  1.00  0.00    -0.349 N 
HETATM    3  C   UNL     1     -44.343 -47.573   9.517  1.00  0.00     0.108 A 
HETATM    4  C   UNL     1     -44.578 -46.357   8.924  1.00  0.00     0.106 A 
HETATM    5  N   UNL     1     -43.753 -45.394   9.443  1.00  0.00    -0.354 N 
ATOM      6  HN  UNL     1     -43.722 -44.407   9.185  1.00  0.00     0.166 HD
HETATM    7  C   UNL     1     -43.007 -46.004  10.346  1.00  0.00     0.088 A 
ENDROOT
BRANCH   7   8
HETATM    8  C   UNL     1     -41.948 -45.377  11.200  1.00  0.00     0.082 C 
HETATM    9  C   UNL     1     -40.595 -45.266  10.490  1.00  0.00     0.015 C 
HETATM   10  C   UNL     1     -39.568 -44.732  11.489  1.00  0.00     0.031 C 
HETATM   11  C   UNL     1     -40.031 -43.423  12.139  1.00  0.00     0.269 C 
HETATM   12  N   UNL     1     -41.390 -43.490  12.687  1.00  0.00     0.084 N 
HETATM   13  C   UNL     1     -42.358 -43.981  11.694  1.00  0.00     0.281 C 
HETATM   14  H   UNL     1     -41.672 -42.558  12.990  1.00  0.00     0.315 HD
ENDBRANCH   7   8
TORSDOF 1
ENDMDL
MODEL 5
REMARK VINA RESULT:      -3.8      2.650      5.261
REMARK  1 active torsions:
REMARK  status: ('A' for Active; 'I' for Inactive)
REMARK    1  A    between atoms: C_7  and  C_8 
ROOT
HETATM    1  C   UNL     1     -42.878 -50.408  14.736  1.00  0.00     0.156 C 
HETATM    2  N   UNL     1     -42.904 -51.338  13.632  1.00  0.00    -0.349 N 
HETATM    3  C   UNL     1     -43.897 -52.239  13.383  1.00  0.00     0.108 A 
HETATM    4  C   UNL     1     -43.496 -52.907  12.253  1.00  0.00     0.106 A 
HETATM    5  N   UNL     1     -42.294 -52.426  11.803  1.00  0.00    -0.354 N 
ATOM      6  HN  UNL     1     -41.774 -52.740  10.984  1.00  0.00     0.166 HD
HETATM    7  C   UNL     1     -41.946 -51.472  12.648  1.00  0.00     0.088 A 
ENDROOT
BRANCH   7   8
HETATM    8  C   UNL     1     -40.708 -50.632  12.586  1.00  0.00     0.082 C 
HETATM    9  C   UNL     1     -39.439 -51.410  12.947  1.00  0.00     0.015 C 
HETATM   10  C   UNL     1     -38.263 -50.432  12.972  1.00  0.00     0.031 C 
HETATM   11  C   UNL     1     -38.149 -49.644  11.662  1.00  0.00     0.269 C 
HETATM   12  N   UNL     1     -39.409 -49.023  11.241  1.00  0.00     0.084 N 
HETATM   13  C   UNL     1     -40.513 -49.995  11.201  1.00  0.00     0.281 C 
HETATM   14  H   UNL     1     -39.288 -48.623  10.310  1.00  0.00     0.315 HD
ENDBRANCH   7   8
TORSDOF 1
ENDMDL
MODEL 6
REMARK VINA RESULT:      -3.7      3.042      4.058
REMARK  1 active torsions:
REMARK  status: ('A' for Active; 'I' for Inactive)
REMARK    1  A    between atoms: C_7  and  C_8 
ROOT
HETATM    1  C   UNL     1     -39.121 -50.120  14.961  1.00  0.00     0.156 C 
HETATM    2  N   UNL     1     -38.911 -50.094  13.532  1.00  0.00    -0.349 N 
HETATM    3  C   UNL     1     -37.873 -49.473  12.900  1.00  0.00     0.108 A 
HETATM    4  C   UNL     1     -38.086 -49.700  11.562  1.00  0.00     0.106 A 
HETATM    5  N   UNL     1     -39.215 -50.452  11.369  1.00  0.00    -0.354 N 
ATOM      6  HN  UNL     1     -39.599 -50.767  10.478  1.00  0.00     0.166 HD
HETATM    7  C   UNL     1     -39.705 -50.686  12.574  1.00  0.00     0.088 A 
ENDROOT
BRANCH   7   8
HETATM    8  C   UNL     1     -40.936 -51.476  12.898  1.00  0.00     0.082 C 
HETATM    9  C   UNL     1     -42.230 -50.696  12.645  1.00  0.00     0.015 C 
HETATM   10  C   UNL     1     -43.408 -51.546  13.126  1.00  0.00     0.031 C 
HETATM   11  C   UNL     1     -43.399 -52.943  12.494  1.00  0.00     0.269 C 
HETATM   12  N   UNL     1     -42.106 -53.627  12.608  1.00  0.00     0.084 N 
HETATM   13  C   UNL     1     -40.999 -52.794  12.113  1.00  0.00     0.281 C 
HETATM   14  H   UNL     1     -42.139 -54.490  12.064  1.00  0.00     0.315 HD
ENDBRANCH   7   8
TORSDOF 1
ENDMDL
MODEL 7
REMARK VINA RESULT:      -3.7      1.962      2.425
REMARK  1 active torsions:
REMARK  status: ('A' for Active; 'I' for Inactive)
REMARK    1  A    between atoms: C_7  and  C_8 
ROOT
HETATM    1  C   UNL     1     -41.181 -51.641  15.200  1.00  0.00     0.156 C 
HETATM    2  N   UNL     1     -41.231 -51.662  13.757  1.00  0.00    -0.349 N 
HETATM    3  C   UNL     1     -40.310 -51.092  12.928  1.00  0.00     0.108 A 
HETATM    4  C   UNL     1     -40.765 -51.352  11.659  1.00  0.00     0.106 A 
HETATM    5  N   UNL     1     -41.930 -52.074  11.697  1.00  0.00    -0.354 N 
ATOM      6  HN  UNL     1     -42.476 -52.402  10.900  1.00  0.00     0.166 HD
HETATM    7  C   UNL     1     -42.200 -52.258  12.977  1.00  0.00     0.088 A 
ENDROOT
BRANCH   7   8
HETATM    8  C   UNL     1     -43.372 -52.999  13.544  1.00  0.00     0.082 C 
HETATM    9  C   UNL     1     -44.598 -52.969  12.627  1.00  0.00     0.015 C 
HETATM   10  C   UNL     1     -45.762 -53.643  13.356  1.00  0.00     0.031 C 
HETATM   11  C   UNL     1     -45.393 -55.049  13.843  1.00  0.00     0.269 C 
HETATM   12  N   UNL     1     -44.135 -55.095  14.596  1.00  0.00     0.084 N 
HETATM   13  C   UNL     1     -43.030 -54.463  13.857  1.00  0.00     0.281 C 
HETATM   14  H   UNL     1     -43.894 -56.070  14.781  1.00  0.00     0.315 HD
ENDBRANCH   7   8
TORSDOF 1
ENDMDL
MODEL 8
REMARK VINA RESULT:      -3.6     16.181     17.800
REMARK  1 active torsions:
REMARK  status: ('A' for Active; 'I' for Inactive)
REMARK    1  A    between atoms: C_7  and  C_8 
ROOT
HETATM    1  C   UNL     1     -48.333 -53.029  -0.979  1.00  0.00     0.156 C 
HETATM    2  N   UNL     1     -49.675 -53.453  -1.301  1.00  0.00    -0.349 N 
HETATM    3  C   UNL     1     -50.818 -52.876  -0.831  1.00  0.00     0.108 A 
HETATM    4  C   UNL     1     -51.840 -53.605  -1.387  1.00  0.00     0.106 A 
HETATM    5  N   UNL     1     -51.346 -54.599  -2.191  1.00  0.00    -0.354 N 
ATOM      6  HN  UNL     1     -51.885 -55.281  -2.726  1.00  0.00     0.166 HD
HETATM    7  C   UNL     1     -50.031 -54.494  -2.132  1.00  0.00     0.088 A 
ENDROOT
BRANCH   7   8
HETATM    8  C   UNL     1     -49.034 -55.353  -2.847  1.00  0.00     0.082 C 
HETATM    9  C   UNL     1     -49.489 -56.810  -2.983  1.00  0.00     0.015 C 
HETATM   10  C   UNL     1     -48.349 -57.615  -3.611  1.00  0.00     0.031 C 
HETATM   11  C   UNL     1     -47.872 -56.995  -4.929  1.00  0.00     0.269 C 
HETATM   12  N   UNL     1     -47.580 -55.560  -4.829  1.00  0.00     0.084 N 
HETATM   13  C   UNL     1     -48.705 -54.811  -4.247  1.00  0.00     0.281 C 
HETATM   14  H   UNL     1     -47.388 -55.195  -5.762  1.00  0.00     0.315 HD
ENDBRANCH   7   8
TORSDOF 1
ENDMDL
MODEL 9
REMARK VINA RESULT:      -3.6     23.496     24.538
REMARK  1 active torsions:
REMARK  status: ('A' for Active; 'I' for Inactive)
REMARK    1  A    between atoms: C_7  and  C_8 
ROOT
HETATM    1  C   UNL     1     -27.161 -40.581  -0.803  1.00  0.00     0.156 C 
HETATM    2  N   UNL     1     -26.664 -41.289   0.352  1.00  0.00    -0.349 N 
HETATM    3  C   UNL     1     -26.662 -40.811   1.630  1.00  0.00     0.108 A 
HETATM    4  C   UNL     1     -26.093 -41.809   2.382  1.00  0.00     0.106 A 
HETATM    5  N   UNL     1     -25.763 -42.882   1.597  1.00  0.00    -0.354 N 
ATOM      6  HN  UNL     1     -25.332 -43.756   1.901  1.00  0.00     0.166 HD
HETATM    7  C   UNL     1     -26.117 -42.555   0.367  1.00  0.00     0.088 A 
ENDROOT
BRANCH   7   8
HETATM    8  C   UNL     1     -25.969 -43.402  -0.859  1.00  0.00     0.082 C 
HETATM    9  C   UNL     1     -24.668 -44.210  -0.873  1.00  0.00     0.015 C 
HETATM   10  C   UNL     1     -24.564 -44.934  -2.217  1.00  0.00     0.031 C 
HETATM   11  C   UNL     1     -25.813 -45.774  -2.511  1.00  0.00     0.269 C 
HETATM   12  N   UNL     1     -27.068 -45.032  -2.349  1.00  0.00     0.084 N 
HETATM   13  C   UNL     1     -27.148 -44.370  -1.037  1.00  0.00     0.281 C 
HETATM   14  H   UNL     1     -27.851 -45.679  -2.440  1.00  0.00     0.315 HD
ENDBRANCH   7   8
TORSDOF 1
ENDMDL
