MODEL 1
REMARK VINA RESULT:      -5.7      0.000      0.000
REMARK  4 active torsions:
REMARK  status: ('A' for Active; 'I' for Inactive)
REMARK    1  A    between atoms: C_5  and  C_6 
REMARK    2  A    between atoms: C_6  and  C_7 
REMARK    3  A    between atoms: C_7  and  N_8 
REMARK       I    between atoms: N_8  and  C_9 
REMARK    4  A    between atoms: C_9  and  C_11 
ROOT
HETATM    1  C   UNL     1     -42.935 -49.439  13.068  1.00  0.00     0.127 C 
ENDROOT
BRANCH   1   2
HETATM    2  C   UNL     1     -43.435 -50.878  13.249  1.00  0.00     0.059 C 
BRANCH   2   3
HETATM    3  C   UNL     1     -44.625 -50.945  14.166  1.00  0.00    -0.041 A 
HETATM    4  C   UNL     1     -45.868 -51.381  13.706  1.00  0.00     0.010 A 
HETATM    5  C   UNL     1     -46.936 -51.496  14.594  1.00  0.00     0.025 A 
HETATM    6  C   UNL     1     -46.734 -51.174  15.932  1.00  0.00     0.005 A 
HETATM    7  C   UNL     1     -47.831 -51.353  16.939  1.00  0.00     0.068 C 
HETATM    8  N   UNL     1     -45.543 -50.733  16.401  1.00  0.00    -0.369 N 
HETATM    9  C   UNL     1     -44.525 -50.626  15.515  1.00  0.00     0.095 A 
ATOM     10  HN  UNL     1     -45.417 -50.489  17.384  1.00  0.00     0.165 HD
ENDBRANCH   2   3
ENDBRANCH   1   2
BRANCH   1  11
HETATM   11  N   UNL     1     -43.249 -48.909  11.753  1.00  0.00    -0.359 N 
HETATM   12  C   UNL     1     -43.291 -47.553  11.509  1.00  0.00     0.246 C 
HETATM   13  O   UNL     1     -42.999 -46.711  12.354  1.00  0.00    -0.271 OA
HETATM   14  H   UNL     1     -43.616 -49.517  11.026  1.00  0.00     0.162 HD
BRANCH  12  15
HETATM   15  C   UNL     1     -43.635 -47.188  10.054  1.00  0.00     0.213 C 
HETATM   16  C   UNL     1     -45.086 -47.493   9.712  1.00  0.00     0.043 C 
HETATM   17  C   UNL     1     -45.061 -47.921   8.259  1.00  0.00     0.029 C 
HETATM   18  C   UNL     1     -43.611 -47.787   7.849  1.00  0.00     0.168 C 
HETATM   19  O   UNL     1     -42.849 -47.859   9.061  1.00  0.00    -0.376 OA
ENDBRANCH  12  15
ENDBRANCH   1  11
TORSDOF 4
ENDMDL
MODEL 2
REMARK VINA RESULT:      -5.5      4.780      7.369
REMARK  4 active torsions:
REMARK  status: ('A' for Active; 'I' for Inactive)
REMARK    1  A    between atoms: C_5  and  C_6 
REMARK    2  A    between atoms: C_6  and  C_7 
REMARK    3  A    between atoms: C_7  and  N_8 
REMARK       I    between atoms: N_8  and  C_9 
REMARK    4  A    between atoms: C_9  and  C_11 
ROOT
HETATM    1  C   UNL     1     -42.184 -54.245  14.650  1.00  0.00     0.127 C 
ENDROOT
BRANCH   1   2
HETATM    2  C   UNL     1     -41.607 -54.246  13.229  1.00  0.00     0.059 C 
BRANCH   2   3
HETATM    3  C   UNL     1     -40.924 -52.947  12.902  1.00  0.00    -0.041 A 
HETATM    4  C   UNL     1     -39.902 -52.445  13.709  1.00  0.00     0.010 A 
HETATM    5  C   UNL     1     -39.242 -51.272  13.344  1.00  0.00     0.025 A 
HETATM    6  C   UNL     1     -39.619 -50.626  12.172  1.00  0.00     0.005 A 
HETATM    7  C   UNL     1     -38.889 -49.405  11.699  1.00  0.00     0.068 C 
HETATM    8  N   UNL     1     -40.618 -51.082  11.381  1.00  0.00    -0.369 N 
HETATM    9  C   UNL     1     -41.245 -52.221  11.761  1.00  0.00     0.095 A 
ATOM     10  HN  UNL     1     -40.889 -50.588  10.531  1.00  0.00     0.165 HD
ENDBRANCH   2   3
ENDBRANCH   1   2
BRANCH   1  11
HETATM   11  N   UNL     1     -43.508 -53.651  14.706  1.00  0.00    -0.359 N 
HETATM   12  C   UNL     1     -44.650 -54.411  14.572  1.00  0.00     0.246 C 
HETATM   13  O   UNL     1     -44.632 -55.635  14.470  1.00  0.00    -0.271 OA
HETATM   14  H   UNL     1     -43.622 -52.642  14.670  1.00  0.00     0.162 HD
BRANCH  12  15
HETATM   15  C   UNL     1     -45.956 -53.602  14.665  1.00  0.00     0.213 C 
HETATM   16  C   UNL     1     -46.015 -52.484  13.634  1.00  0.00     0.043 C 
HETATM   17  C   UNL     1     -46.762 -51.361  14.323  1.00  0.00     0.029 C 
HETATM   18  C   UNL     1     -47.126 -51.923  15.679  1.00  0.00     0.168 C 
HETATM   19  O   UNL     1     -46.192 -52.979  15.933  1.00  0.00    -0.376 OA
ENDBRANCH  12  15
ENDBRANCH   1  11
TORSDOF 4
ENDMDL
MODEL 3
REMARK VINA RESULT:      -5.3      2.691      6.407
REMARK  4 active torsions:
REMARK  status: ('A' for Active; 'I' for Inactive)
REMARK    1  A    between atoms: C_5  and  C_6 
REMARK    2  A    between atoms: C_6  and  C_7 
REMARK    3  A    between atoms: C_7  and  N_8 
REMARK       I    between atoms: N_8  and  C_9 
REMARK    4  A    between atoms: C_9  and  C_11 
ROOT
HETATM    1  C   UNL     1     -41.392 -50.738  13.477  1.00  0.00     0.127 C 
ENDROOT
BRANCH   1   2
HETATM    2  C   UNL     1     -41.303 -49.212  13.355  1.00  0.00     0.059 C 
BRANCH   2   3
HETATM    3  C   UNL     1     -41.926 -48.716  12.080  1.00  0.00    -0.041 A 
HETATM    4  C   UNL     1     -43.163 -48.069  12.084  1.00  0.00     0.010 A 
HETATM    5  C   UNL     1     -43.685 -47.562  10.895  1.00  0.00     0.025 A 
HETATM    6  C   UNL     1     -42.952 -47.709   9.723  1.00  0.00     0.005 A 
HETATM    7  C   UNL     1     -43.435 -47.113   8.435  1.00  0.00     0.068 C 
HETATM    8  N   UNL     1     -41.758 -48.346   9.689  1.00  0.00    -0.369 N 
HETATM    9  C   UNL     1     -41.277 -48.833  10.857  1.00  0.00     0.095 A 
ATOM     10  HN  UNL     1     -41.240 -48.455   8.816  1.00  0.00     0.165 HD
ENDBRANCH   2   3
ENDBRANCH   1   2
BRANCH   1  11
HETATM   11  N   UNL     1     -42.743 -51.191  13.753  1.00  0.00    -0.359 N 
HETATM   12  C   UNL     1     -43.368 -52.134  12.965  1.00  0.00     0.246 C 
HETATM   13  O   UNL     1     -42.809 -52.704  12.032  1.00  0.00    -0.271 OA
HETATM   14  H   UNL     1     -43.324 -50.698  14.426  1.00  0.00     0.162 HD
BRANCH  12  15
HETATM   15  C   UNL     1     -44.794 -52.487  13.422  1.00  0.00     0.213 C 
HETATM   16  C   UNL     1     -45.778 -51.354  13.167  1.00  0.00     0.043 C 
HETATM   17  C   UNL     1     -46.757 -51.423  14.320  1.00  0.00     0.029 C 
HETATM   18  C   UNL     1     -46.305 -52.617  15.131  1.00  0.00     0.168 C 
HETATM   19  O   UNL     1     -44.921 -52.810  14.812  1.00  0.00    -0.376 OA
ENDBRANCH  12  15
ENDBRANCH   1  11
TORSDOF 4
ENDMDL
MODEL 4
REMARK VINA RESULT:      -5.2      3.644      7.067
REMARK  4 active torsions:
REMARK  status: ('A' for Active; 'I' for Inactive)
REMARK    1  A    between atoms: C_5  and  C_6 
REMARK    2  A    between atoms: C_6  and  C_7 
REMARK    3  A    between atoms: C_7  and  N_8 
REMARK       I    between atoms: N_8  and  C_9 
REMARK    4  A    between atoms: C_9  and  C_11 
ROOT
HETATM    1  C   UNL     1     -41.666 -51.120  12.152  1.00  0.00     0.127 C 
ENDROOT
BRANCH   1   2
HETATM    2  C   UNL     1     -41.034 -50.112  13.120  1.00  0.00     0.059 C 
BRANCH   2   3
HETATM    3  C   UNL     1     -40.756 -48.794  12.452  1.00  0.00    -0.041 A 
HETATM    4  C   UNL     1     -40.052 -47.785  13.110  1.00  0.00     0.010 A 
HETATM    5  C   UNL     1     -39.752 -46.598  12.442  1.00  0.00     0.025 A 
HETATM    6  C   UNL     1     -40.163 -46.449  11.122  1.00  0.00     0.005 A 
HETATM    7  C   UNL     1     -39.798 -45.224  10.338  1.00  0.00     0.068 C 
HETATM    8  N   UNL     1     -40.862 -47.405  10.466  1.00  0.00    -0.369 N 
HETATM    9  C   UNL     1     -41.143 -48.545  11.140  1.00  0.00     0.095 A 
ATOM     10  HN  UNL     1     -41.165 -47.273   9.501  1.00  0.00     0.165 HD
ENDBRANCH   2   3
ENDBRANCH   1   2
BRANCH   1  11
HETATM   11  N   UNL     1     -43.067 -51.363  12.449  1.00  0.00    -0.359 N 
HETATM   12  C   UNL     1     -43.538 -52.627  12.737  1.00  0.00     0.246 C 
HETATM   13  O   UNL     1     -42.807 -53.609  12.833  1.00  0.00    -0.271 OA
HETATM   14  H   UNL     1     -43.762 -50.642  12.280  1.00  0.00     0.162 HD
BRANCH  12  15
HETATM   15  C   UNL     1     -45.047 -52.681  13.029  1.00  0.00     0.213 C 
HETATM   16  C   UNL     1     -45.627 -51.304  13.323  1.00  0.00     0.043 C 
HETATM   17  C   UNL     1     -46.709 -51.551  14.353  1.00  0.00     0.029 C 
HETATM   18  C   UNL     1     -46.716 -53.051  14.545  1.00  0.00     0.168 C 
HETATM   19  O   UNL     1     -45.420 -53.507  14.138  1.00  0.00    -0.376 OA
ENDBRANCH  12  15
ENDBRANCH   1  11
TORSDOF 4
ENDMDL
MODEL 5
REMARK VINA RESULT:      -5.2      4.907      7.235
REMARK  4 active torsions:
REMARK  status: ('A' for Active; 'I' for Inactive)
REMARK    1  A    between atoms: C_5  and  C_6 
REMARK    2  A    between atoms: C_6  and  C_7 
REMARK    3  A    between atoms: C_7  and  N_8 
REMARK       I    between atoms: N_8  and  C_9 
REMARK    4  A    between atoms: C_9  and  C_11 
ROOT
HETATM    1  C   UNL     1     -43.500 -54.212  13.243  1.00  0.00     0.127 C 
ENDROOT
BRANCH   1   2
HETATM    2  C   UNL     1     -42.119 -53.583  13.018  1.00  0.00     0.059 C 
BRANCH   2   3
HETATM    3  C   UNL     1     -41.095 -54.125  13.977  1.00  0.00    -0.041 A 
HETATM    4  C   UNL     1     -41.469 -54.641  15.218  1.00  0.00     0.010 A 
HETATM    5  C   UNL     1     -40.506 -55.197  16.059  1.00  0.00     0.025 A 
HETATM    6  C   UNL     1     -39.181 -55.226  15.634  1.00  0.00     0.005 A 
HETATM    7  C   UNL     1     -38.122 -55.881  16.469  1.00  0.00     0.068 C 
HETATM    8  N   UNL     1     -38.789 -54.717  14.442  1.00  0.00    -0.369 N 
HETATM    9  C   UNL     1     -39.745 -54.180  13.649  1.00  0.00     0.095 A 
ATOM     10  HN  UNL     1     -37.811 -54.737  14.154  1.00  0.00     0.165 HD
ENDBRANCH   2   3
ENDBRANCH   1   2
BRANCH   1  11
HETATM   11  N   UNL     1     -44.399 -53.325  13.958  1.00  0.00    -0.359 N 
HETATM   12  C   UNL     1     -45.489 -52.747  13.342  1.00  0.00     0.246 C 
HETATM   13  O   UNL     1     -45.814 -52.995  12.184  1.00  0.00    -0.271 OA
HETATM   14  H   UNL     1     -44.150 -52.970  14.877  1.00  0.00     0.162 HD
BRANCH  12  15
HETATM   15  C   UNL     1     -46.324 -51.843  14.266  1.00  0.00     0.213 C 
HETATM   16  C   UNL     1     -45.454 -51.005  15.192  1.00  0.00     0.043 C 
HETATM   17  C   UNL     1     -46.248 -50.897  16.477  1.00  0.00     0.029 C 
HETATM   18  C   UNL     1     -47.537 -51.632  16.190  1.00  0.00     0.168 C 
HETATM   19  O   UNL     1     -47.247 -52.535  15.116  1.00  0.00    -0.376 OA
ENDBRANCH  12  15
ENDBRANCH   1  11
TORSDOF 4
ENDMDL
MODEL 6
REMARK VINA RESULT:      -5.2      3.051      3.480
REMARK  4 active torsions:
REMARK  status: ('A' for Active; 'I' for Inactive)
REMARK    1  A    between atoms: C_5  and  C_6 
REMARK    2  A    between atoms: C_6  and  C_7 
REMARK    3  A    between atoms: C_7  and  N_8 
REMARK       I    between atoms: N_8  and  C_9 
REMARK    4  A    between atoms: C_9  and  C_11 
ROOT
HETATM    1  C   UNL     1     -41.333 -49.830  12.182  1.00  0.00     0.127 C 
ENDROOT
BRANCH   1   2
HETATM    2  C   UNL     1     -40.787 -51.200  11.763  1.00  0.00     0.059 C 
BRANCH   2   3
HETATM    3  C   UNL     1     -41.440 -52.319  12.527  1.00  0.00    -0.041 A 
HETATM    4  C   UNL     1     -40.689 -53.186  13.321  1.00  0.00     0.010 A 
HETATM    5  C   UNL     1     -41.330 -54.173  14.070  1.00  0.00     0.025 A 
HETATM    6  C   UNL     1     -42.716 -54.268  14.009  1.00  0.00     0.005 A 
HETATM    7  C   UNL     1     -43.455 -55.262  14.853  1.00  0.00     0.068 C 
HETATM    8  N   UNL     1     -43.466 -53.450  13.234  1.00  0.00    -0.369 N 
HETATM    9  C   UNL     1     -42.818 -52.505  12.514  1.00  0.00     0.095 A 
ATOM     10  HN  UNL     1     -44.482 -53.543  13.193  1.00  0.00     0.165 HD
ENDBRANCH   2   3
ENDBRANCH   1   2
BRANCH   1  11
HETATM   11  N   UNL     1     -41.971 -49.131  11.080  1.00  0.00    -0.359 N 
HETATM   12  C   UNL     1     -42.816 -48.062  11.291  1.00  0.00     0.246 C 
HETATM   13  O   UNL     1     -43.029 -47.586  12.403  1.00  0.00    -0.271 OA
HETATM   14  H   UNL     1     -41.950 -49.520  10.142  1.00  0.00     0.162 HD
BRANCH  12  15
HETATM   15  C   UNL     1     -43.388 -47.452  10.000  1.00  0.00     0.213 C 
HETATM   16  C   UNL     1     -44.893 -47.649   9.887  1.00  0.00     0.043 C 
HETATM   17  C   UNL     1     -45.150 -47.833   8.406  1.00  0.00     0.029 C 
HETATM   18  C   UNL     1     -43.791 -47.679   7.762  1.00  0.00     0.168 C 
HETATM   19  O   UNL     1     -42.833 -47.974   8.787  1.00  0.00    -0.376 OA
ENDBRANCH  12  15
ENDBRANCH   1  11
TORSDOF 4
ENDMDL
MODEL 7
REMARK VINA RESULT:      -5.1      4.659      5.815
REMARK  4 active torsions:
REMARK  status: ('A' for Active; 'I' for Inactive)
REMARK    1  A    between atoms: C_5  and  C_6 
REMARK    2  A    between atoms: C_6  and  C_7 
REMARK    3  A    between atoms: C_7  and  N_8 
REMARK       I    between atoms: N_8  and  C_9 
REMARK    4  A    between atoms: C_9  and  C_11 
ROOT
HETATM    1  C   UNL     1     -42.076 -47.402  11.465  1.00  0.00     0.127 C 
ENDROOT
BRANCH   1   2
HETATM    2  C   UNL     1     -40.868 -48.281  11.120  1.00  0.00     0.059 C 
BRANCH   2   3
HETATM    3  C   UNL     1     -39.821 -48.241  12.200  1.00  0.00    -0.041 A 
HETATM    4  C   UNL     1     -38.813 -49.204  12.264  1.00  0.00     0.010 A 
HETATM    5  C   UNL     1     -37.818 -49.104  13.236  1.00  0.00     0.025 A 
HETATM    6  C   UNL     1     -37.853 -48.034  14.124  1.00  0.00     0.005 A 
HETATM    7  C   UNL     1     -36.764 -47.842  15.137  1.00  0.00     0.068 C 
HETATM    8  N   UNL     1     -38.829 -47.097  14.094  1.00  0.00    -0.369 N 
HETATM    9  C   UNL     1     -39.785 -47.221  13.143  1.00  0.00     0.095 A 
ATOM     10  HN  UNL     1     -38.845 -46.326  14.763  1.00  0.00     0.165 HD
ENDBRANCH   2   3
ENDBRANCH   1   2
BRANCH   1  11
HETATM   11  N   UNL     1     -43.173 -47.582  10.532  1.00  0.00    -0.359 N 
HETATM   12  C   UNL     1     -43.412 -46.686   9.511  1.00  0.00     0.246 C 
HETATM   13  O   UNL     1     -42.682 -45.726   9.278  1.00  0.00    -0.271 OA
HETATM   14  H   UNL     1     -43.895 -48.275  10.712  1.00  0.00     0.162 HD
BRANCH  12  15
HETATM   15  C   UNL     1     -44.615 -47.053   8.625  1.00  0.00     0.213 C 
HETATM   16  C   UNL     1     -45.868 -47.332   9.441  1.00  0.00     0.043 C 
HETATM   17  C   UNL     1     -46.593 -48.421   8.678  1.00  0.00     0.029 C 
HETATM   18  C   UNL     1     -45.740 -48.659   7.453  1.00  0.00     0.168 C 
HETATM   19  O   UNL     1     -44.424 -48.204   7.793  1.00  0.00    -0.376 OA
ENDBRANCH  12  15
ENDBRANCH   1  11
TORSDOF 4
ENDMDL
MODEL 8
REMARK VINA RESULT:      -5.0      4.612      5.725
REMARK  4 active torsions:
REMARK  status: ('A' for Active; 'I' for Inactive)
REMARK    1  A    between atoms: C_5  and  C_6 
REMARK    2  A    between atoms: C_6  and  C_7 
REMARK    3  A    between atoms: C_7  and  N_8 
REMARK       I    between atoms: N_8  and  C_9 
REMARK    4  A    between atoms: C_9  and  C_11 
ROOT
HETATM    1  C   UNL     1     -40.968 -52.322  12.089  1.00  0.00     0.127 C 
ENDROOT
BRANCH   1   2
HETATM    2  C   UNL     1     -41.037 -53.699  12.760  1.00  0.00     0.059 C 
BRANCH   2   3
HETATM    3  C   UNL     1     -42.420 -54.005  13.268  1.00  0.00    -0.041 A 
HETATM    4  C   UNL     1     -42.614 -54.667  14.481  1.00  0.00     0.010 A 
HETATM    5  C   UNL     1     -43.907 -54.877  14.957  1.00  0.00     0.025 A 
HETATM    6  C   UNL     1     -44.983 -54.415  14.207  1.00  0.00     0.005 A 
HETATM    7  C   UNL     1     -46.387 -54.550  14.715  1.00  0.00     0.068 C 
HETATM    8  N   UNL     1     -44.822 -53.784  13.020  1.00  0.00    -0.369 N 
HETATM    9  C   UNL     1     -43.556 -53.598  12.579  1.00  0.00     0.095 A 
ATOM     10  HN  UNL     1     -45.625 -53.463  12.478  1.00  0.00     0.165 HD
ENDBRANCH   2   3
ENDBRANCH   1   2
BRANCH   1  11
HETATM   11  N   UNL     1     -39.867 -51.520  12.592  1.00  0.00    -0.359 N 
HETATM   12  C   UNL     1     -39.509 -50.327  11.999  1.00  0.00     0.246 C 
HETATM   13  O   UNL     1     -40.130 -49.831  11.064  1.00  0.00    -0.271 OA
HETATM   14  H   UNL     1     -39.225 -51.900  13.282  1.00  0.00     0.162 HD
BRANCH  12  15
HETATM   15  C   UNL     1     -38.323 -49.621  12.679  1.00  0.00     0.213 C 
HETATM   16  C   UNL     1     -37.755 -50.433  13.835  1.00  0.00     0.043 C 
HETATM   17  C   UNL     1     -37.309 -49.402  14.851  1.00  0.00     0.029 C 
HETATM   18  C   UNL     1     -37.602 -48.071  14.195  1.00  0.00     0.168 C 
HETATM   19  O   UNL     1     -38.619 -48.327  13.218  1.00  0.00    -0.376 OA
ENDBRANCH  12  15
ENDBRANCH   1  11
TORSDOF 4
ENDMDL
MODEL 9
REMARK VINA RESULT:      -4.9      4.565      5.462
REMARK  4 active torsions:
REMARK  status: ('A' for Active; 'I' for Inactive)
REMARK    1  A    between atoms: C_5  and  C_6 
REMARK    2  A    between atoms: C_6  and  C_7 
REMARK    3  A    between atoms: C_7  and  N_8 
REMARK       I    between atoms: N_8  and  C_9 
REMARK    4  A    between atoms: C_9  and  C_11 
ROOT
HETATM    1  C   UNL     1     -40.814 -54.032  14.314  1.00  0.00     0.127 C 
ENDROOT
BRANCH   1   2
HETATM    2  C   UNL     1     -41.873 -54.348  13.251  1.00  0.00     0.059 C 
BRANCH   2   3
HETATM    3  C   UNL     1     -43.123 -53.536  13.449  1.00  0.00    -0.041 A 
HETATM    4  C   UNL     1     -44.148 -53.546  12.502  1.00  0.00     0.010 A 
HETATM    5  C   UNL     1     -45.323 -52.836  12.744  1.00  0.00     0.025 A 
HETATM    6  C   UNL     1     -45.449 -52.131  13.936  1.00  0.00     0.005 A 
HETATM    7  C   UNL     1     -46.722 -51.415  14.274  1.00  0.00     0.068 C 
HETATM    8  N   UNL     1     -44.463 -52.091  14.863  1.00  0.00    -0.369 N 
HETATM    9  C   UNL     1     -43.331 -52.786  14.600  1.00  0.00     0.095 A 
ATOM     10  HN  UNL     1     -44.569 -51.558  15.727  1.00  0.00     0.165 HD
ENDBRANCH   2   3
ENDBRANCH   1   2
BRANCH   1  11
HETATM   11  N   UNL     1     -39.755 -53.181  13.801  1.00  0.00    -0.359 N 
HETATM   12  C   UNL     1     -39.534 -51.915  14.302  1.00  0.00     0.246 C 
HETATM   13  O   UNL     1     -40.159 -51.453  15.254  1.00  0.00    -0.271 OA
HETATM   14  H   UNL     1     -39.266 -53.426  12.945  1.00  0.00     0.162 HD
BRANCH  12  15
HETATM   15  C   UNL     1     -38.365 -51.172  13.634  1.00  0.00     0.213 C 
HETATM   16  C   UNL     1     -38.358 -49.688  13.972  1.00  0.00     0.043 C 
HETATM   17  C   UNL     1     -37.839 -49.007  12.722  1.00  0.00     0.029 C 
HETATM   18  C   UNL     1     -37.536 -50.142  11.770  1.00  0.00     0.168 C 
HETATM   19  O   UNL     1     -38.340 -51.247  12.203  1.00  0.00    -0.376 OA
ENDBRANCH  12  15
ENDBRANCH   1  11
TORSDOF 4
ENDMDL
