MODEL 1
REMARK VINA RESULT:      -6.1      0.000      0.000
REMARK  7 active torsions:
REMARK  status: ('A' for Active; 'I' for Inactive)
REMARK    1  A    between atoms: C_4  and  C_5 
REMARK    2  A    between atoms: C_5  and  C_6 
REMARK       I    between atoms: C_6  and  N_8 
REMARK    3  A    between atoms: N_8  and  C_9 
REMARK    4  A    between atoms: C_9  and  C_10 
REMARK    5  A    between atoms: C_10  and  C_11 
REMARK    6  A    between atoms: C_11  and  C_12 
REMARK    7  A    between atoms: C_12  and  C_13 
ROOT
HETATM    1  C   UNL     1     -41.067 -49.582  11.409  1.00  0.00     0.223 C 
HETATM    2  O   UNL     1     -39.974 -49.987  11.015  1.00  0.00    -0.273 OA
HETATM    3  N   UNL     1     -42.036 -50.429  11.908  1.00  0.00    -0.361 N 
HETATM    4  H   UNL     1     -42.862 -50.038  12.345  1.00  0.00     0.162 HD
ENDROOT
BRANCH   3   5
HETATM    5  C   UNL     1     -41.784 -51.846  12.076  1.00  0.00     0.122 C 
BRANCH   5   6
HETATM    6  C   UNL     1     -42.280 -52.372  13.422  1.00  0.00     0.020 C 
BRANCH   6   7
HETATM    7  C   UNL     1     -43.213 -53.583  13.327  1.00  0.00     0.002 C 
BRANCH   7   8
HETATM    8  C   UNL     1     -44.365 -53.387  12.338  1.00  0.00     0.005 C 
BRANCH   8   9
HETATM    9  C   UNL     1     -45.668 -53.010  13.042  1.00  0.00    -0.014 C 
HETATM   10  C   UNL     1     -45.886 -51.507  13.210  1.00  0.00     0.004 C 
HETATM   11  C   UNL     1     -46.812 -51.364  14.418  1.00  0.00     0.000 C 
HETATM   12  C   UNL     1     -46.923 -52.754  15.040  1.00  0.00     0.000 C 
HETATM   13  C   UNL     1     -45.739 -53.526  14.477  1.00  0.00     0.004 C 
ENDBRANCH   8   9
ENDBRANCH   7   8
ENDBRANCH   6   7
ENDBRANCH   5   6
ENDBRANCH   3   5
BRANCH   1  14
HETATM   14  C   UNL     1     -41.468 -48.122  11.342  1.00  0.00     0.161 C 
BRANCH  14  15
HETATM   15  C   UNL     1     -42.610 -47.912  10.415  1.00  0.00     0.043 A 
HETATM   16  C   UNL     1     -43.940 -47.541  10.724  1.00  0.00     0.061 A 
HETATM   17  C   UNL     1     -44.566 -47.466   9.506  1.00  0.00     0.074 A 
HETATM   18  C   UNL     1     -45.940 -47.149   9.077  1.00  0.00     0.079 C 
HETATM   19  O   UNL     1     -43.673 -47.760   8.525  1.00  0.00    -0.243 OA
HETATM   20  N   UNL     1     -42.440 -48.039   9.091  1.00  0.00    -0.265 N 
ATOM     21  HN  UNL     1     -41.581 -48.289   8.602  1.00  0.00     0.194 HD
ENDBRANCH  14  15
ENDBRANCH   1  14
TORSDOF 7
ENDMDL
MODEL 2
REMARK VINA RESULT:      -6.0      1.098      1.153
REMARK  7 active torsions:
REMARK  status: ('A' for Active; 'I' for Inactive)
REMARK    1  A    between atoms: C_4  and  C_5 
REMARK    2  A    between atoms: C_5  and  C_6 
REMARK       I    between atoms: C_6  and  N_8 
REMARK    3  A    between atoms: N_8  and  C_9 
REMARK    4  A    between atoms: C_9  and  C_10 
REMARK    5  A    between atoms: C_10  and  C_11 
REMARK    6  A    between atoms: C_11  and  C_12 
REMARK    7  A    between atoms: C_12  and  C_13 
ROOT
HETATM    1  C   UNL     1     -41.701 -48.827  11.739  1.00  0.00     0.223 C 
HETATM    2  O   UNL     1     -41.908 -48.383  12.867  1.00  0.00    -0.273 OA
HETATM    3  N   UNL     1     -41.517 -50.173  11.493  1.00  0.00    -0.361 N 
HETATM    4  H   UNL     1     -41.487 -50.505  10.537  1.00  0.00     0.162 HD
ENDROOT
BRANCH   3   5
HETATM    5  C   UNL     1     -41.644 -51.156  12.550  1.00  0.00     0.122 C 
BRANCH   5   6
HETATM    6  C   UNL     1     -42.094 -52.520  12.030  1.00  0.00     0.020 C 
BRANCH   6   7
HETATM    7  C   UNL     1     -42.729 -53.427  13.089  1.00  0.00     0.002 C 
BRANCH   7   8
HETATM    8  C   UNL     1     -44.091 -53.988  12.671  1.00  0.00     0.005 C 
BRANCH   8   9
HETATM    9  C   UNL     1     -45.242 -53.311  13.413  1.00  0.00    -0.014 C 
HETATM   10  C   UNL     1     -46.145 -52.449  12.532  1.00  0.00     0.004 C 
HETATM   11  C   UNL     1     -46.763 -51.415  13.474  1.00  0.00     0.000 C 
HETATM   12  C   UNL     1     -46.041 -51.568  14.811  1.00  0.00     0.000 C 
HETATM   13  C   UNL     1     -44.766 -52.327  14.478  1.00  0.00     0.004 C 
ENDBRANCH   8   9
ENDBRANCH   7   8
ENDBRANCH   6   7
ENDBRANCH   5   6
ENDBRANCH   3   5
BRANCH   1  14
HETATM   14  C   UNL     1     -41.585 -47.934  10.519  1.00  0.00     0.161 C 
BRANCH  14  15
HETATM   15  C   UNL     1     -42.885 -47.806   9.812  1.00  0.00     0.043 A 
HETATM   16  C   UNL     1     -44.127 -47.359  10.323  1.00  0.00     0.061 A 
HETATM   17  C   UNL     1     -44.979 -47.417   9.250  1.00  0.00     0.074 A 
HETATM   18  C   UNL     1     -46.408 -47.114   9.059  1.00  0.00     0.079 C 
HETATM   19  O   UNL     1     -44.297 -47.858   8.161  1.00  0.00    -0.243 OA
HETATM   20  N   UNL     1     -42.979 -48.101   8.507  1.00  0.00    -0.265 N 
ATOM     21  HN  UNL     1     -42.234 -48.436   7.897  1.00  0.00     0.194 HD
ENDBRANCH  14  15
ENDBRANCH   1  14
TORSDOF 7
ENDMDL
MODEL 3
REMARK VINA RESULT:      -5.8      3.591      6.115
REMARK  7 active torsions:
REMARK  status: ('A' for Active; 'I' for Inactive)
REMARK    1  A    between atoms: C_4  and  C_5 
REMARK    2  A    between atoms: C_5  and  C_6 
REMARK       I    between atoms: C_6  and  N_8 
REMARK    3  A    between atoms: N_8  and  C_9 
REMARK    4  A    between atoms: C_9  and  C_10 
REMARK    5  A    between atoms: C_10  and  C_11 
REMARK    6  A    between atoms: C_11  and  C_12 
REMARK    7  A    between atoms: C_12  and  C_13 
ROOT
HETATM    1  C   UNL     1     -44.296 -54.424  13.866  1.00  0.00     0.223 C 
HETATM    2  O   UNL     1     -44.497 -54.193  12.674  1.00  0.00    -0.273 OA
HETATM    3  N   UNL     1     -45.280 -54.287  14.824  1.00  0.00    -0.361 N 
HETATM    4  H   UNL     1     -45.108 -54.618  15.765  1.00  0.00     0.162 HD
ENDROOT
BRANCH   3   5
HETATM    5  C   UNL     1     -46.641 -53.942  14.463  1.00  0.00     0.122 C 
BRANCH   5   6
HETATM    6  C   UNL     1     -47.119 -52.659  15.139  1.00  0.00     0.020 C 
BRANCH   6   7
HETATM    7  C   UNL     1     -46.459 -51.380  14.616  1.00  0.00     0.002 C 
BRANCH   7   8
HETATM    8  C   UNL     1     -45.336 -50.862  15.519  1.00  0.00     0.005 C 
BRANCH   8   9
HETATM    9  C   UNL     1     -44.006 -50.752  14.776  1.00  0.00    -0.014 C 
HETATM   10  C   UNL     1     -43.227 -49.467  15.056  1.00  0.00     0.004 C 
HETATM   11  C   UNL     1     -42.347 -49.250  13.825  1.00  0.00     0.000 C 
HETATM   12  C   UNL     1     -42.797 -50.279  12.789  1.00  0.00     0.000 C 
HETATM   13  C   UNL     1     -44.174 -50.724  13.259  1.00  0.00     0.004 C 
ENDBRANCH   8   9
ENDBRANCH   7   8
ENDBRANCH   6   7
ENDBRANCH   5   6
ENDBRANCH   3   5
BRANCH   1  14
HETATM   14  C   UNL     1     -42.939 -54.838  14.399  1.00  0.00     0.161 C 
BRANCH  14  15
HETATM   15  C   UNL     1     -41.850 -54.007  13.822  1.00  0.00     0.043 A 
HETATM   16  C   UNL     1     -41.034 -53.050  14.470  1.00  0.00     0.061 A 
HETATM   17  C   UNL     1     -40.187 -52.602  13.488  1.00  0.00     0.074 A 
HETATM   18  C   UNL     1     -39.100 -51.609  13.447  1.00  0.00     0.079 C 
HETATM   19  O   UNL     1     -40.465 -53.252  12.328  1.00  0.00    -0.243 OA
HETATM   20  N   UNL     1     -41.508 -54.139  12.533  1.00  0.00    -0.265 N 
ATOM     21  HN  UNL     1     -41.929 -54.763  11.845  1.00  0.00     0.194 HD
ENDBRANCH  14  15
ENDBRANCH   1  14
TORSDOF 7
ENDMDL
MODEL 4
REMARK VINA RESULT:      -5.5      3.405      4.586
REMARK  7 active torsions:
REMARK  status: ('A' for Active; 'I' for Inactive)
REMARK    1  A    between atoms: C_4  and  C_5 
REMARK    2  A    between atoms: C_5  and  C_6 
REMARK       I    between atoms: C_6  and  N_8 
REMARK    3  A    between atoms: N_8  and  C_9 
REMARK    4  A    between atoms: C_9  and  C_10 
REMARK    5  A    between atoms: C_10  and  C_11 
REMARK    6  A    between atoms: C_11  and  C_12 
REMARK    7  A    between atoms: C_12  and  C_13 
ROOT
HETATM    1  C   UNL     1     -42.631 -52.641  12.548  1.00  0.00     0.223 C 
HETATM    2  O   UNL     1     -43.024 -51.545  12.946  1.00  0.00    -0.273 OA
HETATM    3  N   UNL     1     -43.473 -53.726  12.414  1.00  0.00    -0.361 N 
HETATM    4  H   UNL     1     -43.136 -54.564  11.955  1.00  0.00     0.162 HD
ENDROOT
BRANCH   3   5
HETATM    5  C   UNL     1     -44.897 -53.610  12.656  1.00  0.00     0.122 C 
BRANCH   5   6
HETATM    6  C   UNL     1     -45.379 -54.535  13.772  1.00  0.00     0.020 C 
BRANCH   6   7
HETATM    7  C   UNL     1     -46.075 -53.821  14.934  1.00  0.00     0.002 C 
BRANCH   7   8
HETATM    8  C   UNL     1     -47.017 -52.702  14.483  1.00  0.00     0.005 C 
BRANCH   8   9
HETATM    9  C   UNL     1     -46.871 -51.448  15.342  1.00  0.00    -0.014 C 
HETATM   10  C   UNL     1     -45.436 -51.125  15.755  1.00  0.00     0.004 C 
HETATM   11  C   UNL     1     -45.557 -50.312  17.044  1.00  0.00     0.000 C 
HETATM   12  C   UNL     1     -47.027 -50.375  17.453  1.00  0.00     0.000 C 
HETATM   13  C   UNL     1     -47.594 -51.557  16.682  1.00  0.00     0.004 C 
ENDBRANCH   8   9
ENDBRANCH   7   8
ENDBRANCH   6   7
ENDBRANCH   5   6
ENDBRANCH   3   5
BRANCH   1  14
HETATM   14  C   UNL     1     -41.179 -52.913  12.210  1.00  0.00     0.161 C 
BRANCH  14  15
HETATM   15  C   UNL     1     -40.388 -51.656  12.154  1.00  0.00     0.043 A 
HETATM   16  C   UNL     1     -39.333 -51.240  13.001  1.00  0.00     0.061 A 
HETATM   17  C   UNL     1     -38.947 -50.025  12.495  1.00  0.00     0.074 A 
HETATM   18  C   UNL     1     -37.928 -49.033  12.878  1.00  0.00     0.079 C 
HETATM   19  O   UNL     1     -39.708 -49.731  11.409  1.00  0.00    -0.243 OA
HETATM   20  N   UNL     1     -40.614 -50.754  11.188  1.00  0.00    -0.265 N 
ATOM     21  HN  UNL     1     -41.310 -50.810  10.445  1.00  0.00     0.194 HD
ENDBRANCH  14  15
ENDBRANCH   1  14
TORSDOF 7
ENDMDL
MODEL 5
REMARK VINA RESULT:      -5.5      1.835      2.593
REMARK  7 active torsions:
REMARK  status: ('A' for Active; 'I' for Inactive)
REMARK    1  A    between atoms: C_4  and  C_5 
REMARK    2  A    between atoms: C_5  and  C_6 
REMARK       I    between atoms: C_6  and  N_8 
REMARK    3  A    between atoms: N_8  and  C_9 
REMARK    4  A    between atoms: C_9  and  C_10 
REMARK    5  A    between atoms: C_10  and  C_11 
REMARK    6  A    between atoms: C_11  and  C_12 
REMARK    7  A    between atoms: C_12  and  C_13 
ROOT
HETATM    1  C   UNL     1     -41.955 -46.597  10.748  1.00  0.00     0.223 C 
HETATM    2  O   UNL     1     -40.735 -46.719  10.652  1.00  0.00    -0.273 OA
HETATM    3  N   UNL     1     -42.671 -47.115  11.808  1.00  0.00    -0.361 N 
HETATM    4  H   UNL     1     -43.648 -46.873  11.914  1.00  0.00     0.162 HD
ENDROOT
BRANCH   3   5
HETATM    5  C   UNL     1     -42.007 -47.765  12.921  1.00  0.00     0.122 C 
BRANCH   5   6
HETATM    6  C   UNL     1     -42.796 -48.956  13.459  1.00  0.00     0.020 C 
BRANCH   6   7
HETATM    7  C   UNL     1     -42.303 -50.321  12.966  1.00  0.00     0.002 C 
BRANCH   7   8
HETATM    8  C   UNL     1     -43.171 -51.489  13.442  1.00  0.00     0.005 C 
BRANCH   8   9
HETATM    9  C   UNL     1     -44.594 -51.046  13.779  1.00  0.00    -0.014 C 
HETATM   10  C   UNL     1     -44.980 -51.215  15.248  1.00  0.00     0.004 C 
HETATM   11  C   UNL     1     -46.503 -51.349  15.254  1.00  0.00     0.000 C 
HETATM   12  C   UNL     1     -46.928 -51.473  13.793  1.00  0.00     0.000 C 
HETATM   13  C   UNL     1     -45.658 -51.864  13.052  1.00  0.00     0.004 C 
ENDBRANCH   8   9
ENDBRANCH   7   8
ENDBRANCH   6   7
ENDBRANCH   5   6
ENDBRANCH   3   5
BRANCH   1  14
HETATM   14  C   UNL     1     -42.791 -45.905   9.691  1.00  0.00     0.161 C 
BRANCH  14  15
HETATM   15  C   UNL     1     -43.676 -46.864   8.981  1.00  0.00     0.043 A 
HETATM   16  C   UNL     1     -45.021 -47.199   9.266  1.00  0.00     0.061 A 
HETATM   17  C   UNL     1     -45.360 -48.109   8.297  1.00  0.00     0.074 A 
HETATM   18  C   UNL     1     -46.581 -48.875   7.992  1.00  0.00     0.079 C 
HETATM   19  O   UNL     1     -44.295 -48.303   7.475  1.00  0.00    -0.243 OA
HETATM   20  N   UNL     1     -43.235 -47.521   7.899  1.00  0.00    -0.265 N 
ATOM     21  HN  UNL     1     -42.309 -47.458   7.476  1.00  0.00     0.194 HD
ENDBRANCH  14  15
ENDBRANCH   1  14
TORSDOF 7
ENDMDL
MODEL 6
REMARK VINA RESULT:      -5.4      2.070      2.369
REMARK  7 active torsions:
REMARK  status: ('A' for Active; 'I' for Inactive)
REMARK    1  A    between atoms: C_4  and  C_5 
REMARK    2  A    between atoms: C_5  and  C_6 
REMARK       I    between atoms: C_6  and  N_8 
REMARK    3  A    between atoms: N_8  and  C_9 
REMARK    4  A    between atoms: C_9  and  C_10 
REMARK    5  A    between atoms: C_10  and  C_11 
REMARK    6  A    between atoms: C_11  and  C_12 
REMARK    7  A    between atoms: C_12  and  C_13 
ROOT
HETATM    1  C   UNL     1     -41.558 -50.860  12.462  1.00  0.00     0.223 C 
HETATM    2  O   UNL     1     -42.649 -50.354  12.722  1.00  0.00    -0.273 OA
HETATM    3  N   UNL     1     -41.112 -52.015  13.072  1.00  0.00    -0.361 N 
HETATM    4  H   UNL     1     -40.274 -52.467  12.729  1.00  0.00     0.162 HD
ENDROOT
BRANCH   3   5
HETATM    5  C   UNL     1     -41.950 -52.750  13.999  1.00  0.00     0.122 C 
BRANCH   5   6
HETATM    6  C   UNL     1     -42.528 -54.023  13.383  1.00  0.00     0.020 C 
BRANCH   6   7
HETATM    7  C   UNL     1     -43.908 -53.849  12.740  1.00  0.00     0.002 C 
BRANCH   7   8
HETATM    8  C   UNL     1     -45.022 -54.590  13.483  1.00  0.00     0.005 C 
BRANCH   8   9
HETATM    9  C   UNL     1     -46.062 -53.632  14.060  1.00  0.00    -0.014 C 
HETATM   10  C   UNL     1     -46.322 -52.390  13.210  1.00  0.00     0.004 C 
HETATM   11  C   UNL     1     -46.831 -51.329  14.186  1.00  0.00     0.000 C 
HETATM   12  C   UNL     1     -46.645 -51.910  15.586  1.00  0.00     0.000 C 
HETATM   13  C   UNL     1     -45.645 -53.042  15.405  1.00  0.00     0.004 C 
ENDBRANCH   8   9
ENDBRANCH   7   8
ENDBRANCH   6   7
ENDBRANCH   5   6
ENDBRANCH   3   5
BRANCH   1  14
HETATM   14  C   UNL     1     -40.584 -50.239  11.481  1.00  0.00     0.161 C 
BRANCH  14  15
HETATM   15  C   UNL     1     -41.002 -48.867  11.092  1.00  0.00     0.043 A 
HETATM   16  C   UNL     1     -40.407 -47.632  11.441  1.00  0.00     0.061 A 
HETATM   17  C   UNL     1     -41.173 -46.690  10.801  1.00  0.00     0.074 A 
HETATM   18  C   UNL     1     -41.139 -45.220  10.728  1.00  0.00     0.079 C 
HETATM   19  O   UNL     1     -42.157 -47.315  10.103  1.00  0.00    -0.243 OA
HETATM   20  N   UNL     1     -42.053 -48.684  10.280  1.00  0.00    -0.265 N 
ATOM     21  HN  UNL     1     -42.652 -49.404   9.877  1.00  0.00     0.194 HD
ENDBRANCH  14  15
ENDBRANCH   1  14
TORSDOF 7
ENDMDL
MODEL 7
REMARK VINA RESULT:      -5.4      2.355      2.879
REMARK  7 active torsions:
REMARK  status: ('A' for Active; 'I' for Inactive)
REMARK    1  A    between atoms: C_4  and  C_5 
REMARK    2  A    between atoms: C_5  and  C_6 
REMARK       I    between atoms: C_6  and  N_8 
REMARK    3  A    between atoms: N_8  and  C_9 
REMARK    4  A    between atoms: C_9  and  C_10 
REMARK    5  A    between atoms: C_10  and  C_11 
REMARK    6  A    between atoms: C_11  and  C_12 
REMARK    7  A    between atoms: C_12  and  C_13 
ROOT
HETATM    1  C   UNL     1     -40.908 -48.935  11.576  1.00  0.00     0.223 C 
HETATM    2  O   UNL     1     -40.276 -48.477  12.527  1.00  0.00    -0.273 OA
HETATM    3  N   UNL     1     -41.007 -50.291  11.335  1.00  0.00    -0.361 N 
HETATM    4  H   UNL     1     -41.648 -50.624  10.625  1.00  0.00     0.162 HD
ENDROOT
BRANCH   3   5
HETATM    5  C   UNL     1     -40.438 -51.262  12.248  1.00  0.00     0.122 C 
BRANCH   5   6
HETATM    6  C   UNL     1     -41.113 -52.628  12.145  1.00  0.00     0.020 C 
BRANCH   6   7
HETATM    7  C   UNL     1     -42.635 -52.600  12.324  1.00  0.00     0.002 C 
BRANCH   7   8
HETATM    8  C   UNL     1     -43.079 -52.001  13.660  1.00  0.00     0.005 C 
BRANCH   8   9
HETATM    9  C   UNL     1     -44.482 -51.401  13.582  1.00  0.00    -0.014 C 
HETATM   10  C   UNL     1     -45.212 -51.319  14.922  1.00  0.00     0.004 C 
HETATM   11  C   UNL     1     -46.700 -51.328  14.574  1.00  0.00     0.000 C 
HETATM   12  C   UNL     1     -46.789 -51.634  13.080  1.00  0.00     0.000 C 
HETATM   13  C   UNL     1     -45.436 -52.230  12.726  1.00  0.00     0.004 C 
ENDBRANCH   8   9
ENDBRANCH   7   8
ENDBRANCH   6   7
ENDBRANCH   5   6
ENDBRANCH   3   5
BRANCH   1  14
HETATM   14  C   UNL     1     -41.600 -48.053  10.556  1.00  0.00     0.161 C 
BRANCH  14  15
HETATM   15  C   UNL     1     -41.159 -46.638  10.670  1.00  0.00     0.043 A 
HETATM   16  C   UNL     1     -41.911 -45.511  11.077  1.00  0.00     0.061 A 
HETATM   17  C   UNL     1     -41.020 -44.469  11.023  1.00  0.00     0.074 A 
HETATM   18  C   UNL     1     -41.116 -43.025  11.299  1.00  0.00     0.079 C 
HETATM   19  O   UNL     1     -39.809 -44.936  10.622  1.00  0.00    -0.243 OA
HETATM   20  N   UNL     1     -39.890 -46.300  10.401  1.00  0.00    -0.265 N 
ATOM     21  HN  UNL     1     -39.139 -46.919  10.096  1.00  0.00     0.194 HD
ENDBRANCH  14  15
ENDBRANCH   1  14
TORSDOF 7
ENDMDL
MODEL 8
REMARK VINA RESULT:      -5.3      3.526      4.410
REMARK  7 active torsions:
REMARK  status: ('A' for Active; 'I' for Inactive)
REMARK    1  A    between atoms: C_4  and  C_5 
REMARK    2  A    between atoms: C_5  and  C_6 
REMARK       I    between atoms: C_6  and  N_8 
REMARK    3  A    between atoms: N_8  and  C_9 
REMARK    4  A    between atoms: C_9  and  C_10 
REMARK    5  A    between atoms: C_10  and  C_11 
REMARK    6  A    between atoms: C_11  and  C_12 
REMARK    7  A    between atoms: C_12  and  C_13 
ROOT
HETATM    1  C   UNL     1     -40.776 -53.002  13.085  1.00  0.00     0.223 C 
HETATM    2  O   UNL     1     -39.763 -53.698  13.128  1.00  0.00    -0.273 OA
HETATM    3  N   UNL     1     -41.880 -53.251  13.875  1.00  0.00    -0.361 N 
HETATM    4  H   UNL     1     -42.633 -52.575  13.905  1.00  0.00     0.162 HD
ENDROOT
BRANCH   3   5
HETATM    5  C   UNL     1     -41.873 -54.305  14.870  1.00  0.00     0.122 C 
BRANCH   5   6
HETATM    6  C   UNL     1     -43.220 -55.017  14.977  1.00  0.00     0.020 C 
BRANCH   6   7
HETATM    7  C   UNL     1     -44.217 -54.663  13.870  1.00  0.00     0.002 C 
BRANCH   7   8
HETATM    8  C   UNL     1     -45.671 -54.972  14.240  1.00  0.00     0.005 C 
BRANCH   8   9
HETATM    9  C   UNL     1     -46.519 -53.705  14.338  1.00  0.00    -0.014 C 
HETATM   10  C   UNL     1     -46.124 -52.599  13.360  1.00  0.00     0.004 C 
HETATM   11  C   UNL     1     -46.592 -51.297  14.011  1.00  0.00     0.000 C 
HETATM   12  C   UNL     1     -47.038 -51.661  15.425  1.00  0.00     0.000 C 
HETATM   13  C   UNL     1     -46.403 -53.016  15.695  1.00  0.00     0.004 C 
ENDBRANCH   8   9
ENDBRANCH   7   8
ENDBRANCH   6   7
ENDBRANCH   5   6
ENDBRANCH   3   5
BRANCH   1  14
HETATM   14  C   UNL     1     -40.924 -51.834  12.131  1.00  0.00     0.161 C 
BRANCH  14  15
HETATM   15  C   UNL     1     -39.885 -50.799  12.370  1.00  0.00     0.043 A 
HETATM   16  C   UNL     1     -39.530 -50.172  13.588  1.00  0.00     0.061 A 
HETATM   17  C   UNL     1     -38.506 -49.324  13.249  1.00  0.00     0.074 A 
HETATM   18  C   UNL     1     -37.678 -48.366  14.003  1.00  0.00     0.079 C 
HETATM   19  O   UNL     1     -38.252 -49.438  11.920  1.00  0.00    -0.243 OA
HETATM   20  N   UNL     1     -39.114 -50.367  11.362  1.00  0.00    -0.265 N 
ATOM     21  HN  UNL     1     -39.154 -50.661  10.387  1.00  0.00     0.194 HD
ENDBRANCH  14  15
ENDBRANCH   1  14
TORSDOF 7
ENDMDL
MODEL 9
REMARK VINA RESULT:      -5.3      3.213      6.375
REMARK  7 active torsions:
REMARK  status: ('A' for Active; 'I' for Inactive)
REMARK    1  A    between atoms: C_4  and  C_5 
REMARK    2  A    between atoms: C_5  and  C_6 
REMARK       I    between atoms: C_6  and  N_8 
REMARK    3  A    between atoms: N_8  and  C_9 
REMARK    4  A    between atoms: C_9  and  C_10 
REMARK    5  A    between atoms: C_10  and  C_11 
REMARK    6  A    between atoms: C_11  and  C_12 
REMARK    7  A    between atoms: C_12  and  C_13 
ROOT
HETATM    1  C   UNL     1     -40.717 -52.454  12.608  1.00  0.00     0.223 C 
HETATM    2  O   UNL     1     -39.647 -51.873  12.781  1.00  0.00    -0.273 OA
HETATM    3  N   UNL     1     -41.899 -51.780  12.379  1.00  0.00    -0.361 N 
HETATM    4  H   UNL     1     -42.725 -52.300  12.107  1.00  0.00     0.162 HD
ENDROOT
BRANCH   3   5
HETATM    5  C   UNL     1     -41.930 -50.337  12.244  1.00  0.00     0.122 C 
BRANCH   5   6
HETATM    6  C   UNL     1     -43.101 -49.704  12.992  1.00  0.00     0.020 C 
BRANCH   6   7
HETATM    7  C   UNL     1     -43.692 -50.575  14.105  1.00  0.00     0.002 C 
BRANCH   7   8
HETATM    8  C   UNL     1     -45.029 -51.218  13.729  1.00  0.00     0.005 C 
BRANCH   8   9
HETATM    9  C   UNL     1     -45.165 -52.631  14.294  1.00  0.00    -0.014 C 
HETATM   10  C   UNL     1     -44.574 -53.728  13.409  1.00  0.00     0.004 C 
HETATM   11  C   UNL     1     -45.337 -55.000  13.777  1.00  0.00     0.000 C 
HETATM   12  C   UNL     1     -46.481 -54.566  14.691  1.00  0.00     0.000 C 
HETATM   13  C   UNL     1     -46.618 -53.070  14.454  1.00  0.00     0.004 C 
ENDBRANCH   8   9
ENDBRANCH   7   8
ENDBRANCH   6   7
ENDBRANCH   5   6
ENDBRANCH   3   5
BRANCH   1  14
HETATM   14  C   UNL     1     -40.845 -53.963  12.673  1.00  0.00     0.161 C 
BRANCH  14  15
HETATM   15  C   UNL     1     -40.154 -54.519  13.865  1.00  0.00     0.043 A 
HETATM   16  C   UNL     1     -40.654 -54.677  15.180  1.00  0.00     0.061 A 
HETATM   17  C   UNL     1     -39.619 -55.252  15.872  1.00  0.00     0.074 A 
HETATM   18  C   UNL     1     -39.434 -55.681  17.269  1.00  0.00     0.079 C 
HETATM   19  O   UNL     1     -38.568 -55.440  15.031  1.00  0.00    -0.243 OA
HETATM   20  N   UNL     1     -38.900 -54.982  13.767  1.00  0.00    -0.265 N 
ATOM     21  HN  UNL     1     -38.312 -54.995  12.934  1.00  0.00     0.194 HD
ENDBRANCH  14  15
ENDBRANCH   1  14
TORSDOF 7
ENDMDL
