MODEL 1
REMARK VINA RESULT:      -6.2      0.000      0.000
REMARK  5 active torsions:
REMARK  status: ('A' for Active; 'I' for Inactive)
REMARK    1  A    between atoms: O_1  and  C_2 
REMARK    2  A    between atoms: C_2  and  C_3 
REMARK    3  A    between atoms: C_3  and  N_4 
REMARK    4  A    between atoms: C_7  and  C_16 
REMARK    5  A    between atoms: C_9  and  C_12 
ROOT
HETATM    1  N   UNL     1     -41.197 -51.120  11.976  1.00  0.00    -0.254 N 
HETATM    2  N   UNL     1     -42.072 -50.069  11.781  1.00  0.00    -0.299 N 
ATOM      3  HN  UNL     1     -43.017 -50.220  11.428  1.00  0.00     0.187 HD
HETATM    4  C   UNL     1     -41.637 -48.888  12.067  1.00  0.00     0.031 A 
HETATM    5  C   UNL     1     -40.288 -48.569  12.537  1.00  0.00     0.049 A 
HETATM    6  C   UNL     1     -39.429 -49.588  12.671  1.00  0.00     0.119 A 
HETATM    7  C   UNL     1     -39.888 -50.972  12.434  1.00  0.00     0.277 A 
HETATM    8  O   UNL     1     -39.150 -51.926  12.650  1.00  0.00    -0.266 OA
ENDROOT
BRANCH   1   9
HETATM    9  C   UNL     1     -41.756 -52.470  11.804  1.00  0.00     0.190 C 
BRANCH   9  10
HETATM   10  C   UNL     1     -42.735 -52.895  12.930  1.00  0.00     0.076 C 
HETATM   11  C   UNL     1     -44.141 -53.243  12.412  1.00  0.00     0.040 C 
HETATM   12  C   UNL     1     -45.053 -53.790  13.514  1.00  0.00     0.003 C 
HETATM   13  C   UNL     1     -44.427 -54.985  14.223  1.00  0.00     0.000 C 
HETATM   14  C   UNL     1     -43.048 -54.641  14.771  1.00  0.00     0.003 C 
HETATM   15  C   UNL     1     -42.130 -54.103  13.675  1.00  0.00     0.040 C 
BRANCH  10  16
HETATM   16  O   UNL     1     -42.862 -51.818  13.871  1.00  0.00    -0.388 OA
HETATM   17  H   UNL     1     -43.442 -51.153  13.448  1.00  0.00     0.210 HD
ENDBRANCH  10  16
ENDBRANCH   9  10
ENDBRANCH   1   9
BRANCH   4  18
HETATM   18  C   UNL     1     -42.588 -47.757  11.935  1.00  0.00     0.037 A 
HETATM   19  C   UNL     1     -43.681 -47.832  10.894  1.00  0.00     0.011 A 
HETATM   20  C   UNL     1     -42.589 -46.817  10.749  1.00  0.00     0.011 A 
ENDBRANCH   4  18
BRANCH   6  21
HETATM   21  C   UNL     1     -38.017 -49.375  13.063  1.00  0.00     0.422 C 
HETATM   22  F   UNL     1     -37.520 -50.178  14.030  1.00  0.00    -0.166 F 
HETATM   23  F   UNL     1     -37.200 -49.544  11.982  1.00  0.00    -0.166 F 
HETATM   24  F   UNL     1     -37.817 -48.093  13.475  1.00  0.00    -0.166 F 
ENDBRANCH   6  21
TORSDOF 5
ENDMDL
MODEL 2
REMARK VINA RESULT:      -6.1      2.651      3.775
REMARK  5 active torsions:
REMARK  status: ('A' for Active; 'I' for Inactive)
REMARK    1  A    between atoms: O_1  and  C_2 
REMARK    2  A    between atoms: C_2  and  C_3 
REMARK    3  A    between atoms: C_3  and  N_4 
REMARK    4  A    between atoms: C_7  and  C_16 
REMARK    5  A    between atoms: C_9  and  C_12 
ROOT
HETATM    1  N   UNL     1     -42.579 -52.730  12.601  1.00  0.00    -0.254 N 
HETATM    2  N   UNL     1     -42.176 -51.600  11.917  1.00  0.00    -0.299 N 
ATOM      3  HN  UNL     1     -42.830 -51.052  11.358  1.00  0.00     0.187 HD
HETATM    4  C   UNL     1     -40.933 -51.269  12.019  1.00  0.00     0.031 A 
HETATM    5  C   UNL     1     -39.913 -52.013  12.761  1.00  0.00     0.049 A 
HETATM    6  C   UNL     1     -40.301 -53.137  13.376  1.00  0.00     0.119 A 
HETATM    7  C   UNL     1     -41.726 -53.529  13.361  1.00  0.00     0.277 A 
HETATM    8  O   UNL     1     -42.121 -54.496  14.002  1.00  0.00    -0.266 OA
ENDROOT
BRANCH   1   9
HETATM    9  C   UNL     1     -44.025 -53.002  12.609  1.00  0.00     0.190 C 
BRANCH   9  10
HETATM   10  C   UNL     1     -44.857 -51.964  13.407  1.00  0.00     0.076 C 
HETATM   11  C   UNL     1     -46.318 -52.396  13.627  1.00  0.00     0.040 C 
HETATM   12  C   UNL     1     -47.086 -51.427  14.529  1.00  0.00     0.003 C 
HETATM   13  C   UNL     1     -46.378 -51.216  15.863  1.00  0.00     0.000 C 
HETATM   14  C   UNL     1     -44.941 -50.753  15.658  1.00  0.00     0.003 C 
HETATM   15  C   UNL     1     -44.166 -51.720  14.764  1.00  0.00     0.040 C 
BRANCH  10  16
HETATM   16  O   UNL     1     -44.865 -50.720  12.690  1.00  0.00    -0.388 OA
HETATM   17  H   UNL     1     -45.298 -50.902  11.832  1.00  0.00     0.210 HD
ENDBRANCH  10  16
ENDBRANCH   9  10
ENDBRANCH   1   9
BRANCH   4  18
HETATM   18  C   UNL     1     -40.499 -50.016  11.354  1.00  0.00     0.037 A 
HETATM   19  C   UNL     1     -39.165 -49.410  11.724  1.00  0.00     0.011 A 
HETATM   20  C   UNL     1     -40.428 -48.686  12.072  1.00  0.00     0.011 A 
ENDBRANCH   4  18
BRANCH   6  21
HETATM   21  C   UNL     1     -39.342 -54.012  14.089  1.00  0.00     0.422 C 
HETATM   22  F   UNL     1     -39.598 -54.273  15.390  1.00  0.00    -0.166 F 
HETATM   23  F   UNL     1     -39.269 -55.228  13.472  1.00  0.00    -0.166 F 
HETATM   24  F   UNL     1     -38.084 -53.496  14.031  1.00  0.00    -0.166 F 
ENDBRANCH   6  21
TORSDOF 5
ENDMDL
MODEL 3
REMARK VINA RESULT:      -5.9      1.251      1.811
REMARK  5 active torsions:
REMARK  status: ('A' for Active; 'I' for Inactive)
REMARK    1  A    between atoms: O_1  and  C_2 
REMARK    2  A    between atoms: C_2  and  C_3 
REMARK    3  A    between atoms: C_3  and  N_4 
REMARK    4  A    between atoms: C_7  and  C_16 
REMARK    5  A    between atoms: C_9  and  C_12 
ROOT
HETATM    1  N   UNL     1     -41.501 -50.549  12.921  1.00  0.00    -0.254 N 
HETATM    2  N   UNL     1     -42.178 -49.742  12.027  1.00  0.00    -0.299 N 
ATOM      3  HN  UNL     1     -43.197 -49.724  11.989  1.00  0.00     0.187 HD
HETATM    4  C   UNL     1     -41.460 -49.010  11.244  1.00  0.00     0.031 A 
HETATM    5  C   UNL     1     -39.997 -48.998  11.195  1.00  0.00     0.049 A 
HETATM    6  C   UNL     1     -39.349 -49.824  12.027  1.00  0.00     0.119 A 
HETATM    7  C   UNL     1     -40.112 -50.631  13.003  1.00  0.00     0.277 A 
HETATM    8  O   UNL     1     -39.537 -51.315  13.841  1.00  0.00    -0.266 OA
ENDROOT
BRANCH   1   9
HETATM    9  C   UNL     1     -42.328 -51.251  13.915  1.00  0.00     0.190 C 
BRANCH   9  10
HETATM   10  C   UNL     1     -43.293 -52.300  13.304  1.00  0.00     0.076 C 
HETATM   11  C   UNL     1     -43.289 -53.642  14.058  1.00  0.00     0.040 C 
HETATM   12  C   UNL     1     -44.343 -54.617  13.527  1.00  0.00     0.003 C 
HETATM   13  C   UNL     1     -45.737 -53.999  13.532  1.00  0.00     0.000 C 
HETATM   14  C   UNL     1     -45.761 -52.686  12.758  1.00  0.00     0.003 C 
HETATM   15  C   UNL     1     -44.717 -51.706  13.288  1.00  0.00     0.040 C 
BRANCH  10  16
HETATM   16  O   UNL     1     -42.909 -52.554  11.944  1.00  0.00    -0.388 OA
HETATM   17  H   UNL     1     -43.093 -51.730  11.450  1.00  0.00     0.210 HD
ENDBRANCH  10  16
ENDBRANCH   9  10
ENDBRANCH   1   9
BRANCH   4  18
HETATM   18  C   UNL     1     -42.170 -48.081  10.331  1.00  0.00     0.037 A 
HETATM   19  C   UNL     1     -41.829 -46.609  10.368  1.00  0.00     0.011 A 
HETATM   20  C   UNL     1     -43.182 -47.066  10.816  1.00  0.00     0.011 A 
ENDBRANCH   4  18
BRANCH   6  21
HETATM   21  C   UNL     1     -37.874 -49.955  12.011  1.00  0.00     0.422 C 
HETATM   22  F   UNL     1     -37.368 -51.206  12.082  1.00  0.00    -0.166 F 
HETATM   23  F   UNL     1     -37.368 -49.411  10.866  1.00  0.00    -0.166 F 
HETATM   24  F   UNL     1     -37.315 -49.246  13.030  1.00  0.00    -0.166 F 
ENDBRANCH   6  21
TORSDOF 5
ENDMDL
MODEL 4
REMARK VINA RESULT:      -5.8      2.855      5.852
REMARK  5 active torsions:
REMARK  status: ('A' for Active; 'I' for Inactive)
REMARK    1  A    between atoms: O_1  and  C_2 
REMARK    2  A    between atoms: C_2  and  C_3 
REMARK    3  A    between atoms: C_3  and  N_4 
REMARK    4  A    between atoms: C_7  and  C_16 
REMARK    5  A    between atoms: C_9  and  C_12 
ROOT
HETATM    1  N   UNL     1     -42.022 -50.639  12.355  1.00  0.00    -0.254 N 
HETATM    2  N   UNL     1     -43.346 -50.404  12.674  1.00  0.00    -0.299 N 
ATOM      3  HN  UNL     1     -43.789 -49.504  12.488  1.00  0.00     0.187 HD
HETATM    4  C   UNL     1     -43.995 -51.377  13.219  1.00  0.00     0.031 A 
HETATM    5  C   UNL     1     -43.436 -52.686  13.563  1.00  0.00     0.049 A 
HETATM    6  C   UNL     1     -42.138 -52.886  13.300  1.00  0.00     0.119 A 
HETATM    7  C   UNL     1     -41.359 -51.839  12.607  1.00  0.00     0.277 A 
HETATM    8  O   UNL     1     -40.200 -52.040  12.264  1.00  0.00    -0.266 OA
ENDROOT
BRANCH   1   9
HETATM    9  C   UNL     1     -41.343 -49.583  11.589  1.00  0.00     0.190 C 
BRANCH   9  10
HETATM   10  C   UNL     1     -41.097 -48.280  12.394  1.00  0.00     0.076 C 
HETATM   11  C   UNL     1     -40.289 -48.506  13.684  1.00  0.00     0.040 C 
HETATM   12  C   UNL     1     -39.940 -47.195  14.394  1.00  0.00     0.003 C 
HETATM   13  C   UNL     1     -39.215 -46.227  13.467  1.00  0.00     0.000 C 
HETATM   14  C   UNL     1     -40.022 -45.968  12.200  1.00  0.00     0.003 C 
HETATM   15  C   UNL     1     -40.368 -47.271  11.482  1.00  0.00     0.040 C 
BRANCH  10  16
HETATM   16  O   UNL     1     -42.363 -47.707  12.756  1.00  0.00    -0.388 OA
HETATM   17  H   UNL     1     -43.037 -48.389  12.562  1.00  0.00     0.210 HD
ENDBRANCH  10  16
ENDBRANCH   9  10
ENDBRANCH   1   9
BRANCH   4  18
HETATM   18  C   UNL     1     -45.437 -51.168  13.498  1.00  0.00     0.037 A 
HETATM   19  C   UNL     1     -46.303 -52.362  13.830  1.00  0.00     0.011 A 
HETATM   20  C   UNL     1     -46.531 -51.614  12.552  1.00  0.00     0.011 A 
ENDBRANCH   4  18
BRANCH   6  21
HETATM   21  C   UNL     1     -41.447 -54.140  13.676  1.00  0.00     0.422 C 
HETATM   22  F   UNL     1     -40.390 -54.032  14.513  1.00  0.00    -0.166 F 
HETATM   23  F   UNL     1     -42.321 -54.992  14.287  1.00  0.00    -0.166 F 
HETATM   24  F   UNL     1     -41.006 -54.800  12.570  1.00  0.00    -0.166 F 
ENDBRANCH   6  21
TORSDOF 5
ENDMDL
MODEL 5
REMARK VINA RESULT:      -5.7      2.598      4.186
REMARK  5 active torsions:
REMARK  status: ('A' for Active; 'I' for Inactive)
REMARK    1  A    between atoms: O_1  and  C_2 
REMARK    2  A    between atoms: C_2  and  C_3 
REMARK    3  A    between atoms: C_3  and  N_4 
REMARK    4  A    between atoms: C_7  and  C_16 
REMARK    5  A    between atoms: C_9  and  C_12 
ROOT
HETATM    1  N   UNL     1     -41.476 -49.191  13.091  1.00  0.00    -0.254 N 
HETATM    2  N   UNL     1     -40.151 -49.575  13.161  1.00  0.00    -0.299 N 
ATOM      3  HN  UNL     1     -39.847 -50.336  13.768  1.00  0.00     0.187 HD
HETATM    4  C   UNL     1     -39.317 -48.925  12.422  1.00  0.00     0.031 A 
HETATM    5  C   UNL     1     -39.651 -47.795  11.554  1.00  0.00     0.049 A 
HETATM    6  C   UNL     1     -40.929 -47.395  11.534  1.00  0.00     0.119 A 
HETATM    7  C   UNL     1     -41.946 -48.146  12.299  1.00  0.00     0.277 A 
HETATM    8  O   UNL     1     -43.135 -47.861  12.214  1.00  0.00    -0.266 OA
ENDROOT
BRANCH   1   9
HETATM    9  C   UNL     1     -42.436 -50.043  13.811  1.00  0.00     0.190 C 
BRANCH   9  10
HETATM   10  C   UNL     1     -42.632 -51.446  13.179  1.00  0.00     0.076 C 
HETATM   11  C   UNL     1     -41.900 -52.564  13.943  1.00  0.00     0.040 C 
HETATM   12  C   UNL     1     -42.213 -53.955  13.387  1.00  0.00     0.003 C 
HETATM   13  C   UNL     1     -43.713 -54.222  13.346  1.00  0.00     0.000 C 
HETATM   14  C   UNL     1     -44.445 -53.140  12.562  1.00  0.00     0.003 C 
HETATM   15  C   UNL     1     -44.143 -51.749  13.116  1.00  0.00     0.040 C 
BRANCH  10  16
HETATM   16  O   UNL     1     -42.132 -51.427  11.833  1.00  0.00    -0.388 OA
HETATM   17  H   UNL     1     -42.055 -50.484  11.583  1.00  0.00     0.210 HD
ENDBRANCH  10  16
ENDBRANCH   9  10
ENDBRANCH   1   9
BRANCH   4  18
HETATM   18  C   UNL     1     -37.903 -49.374  12.426  1.00  0.00     0.037 A 
HETATM   19  C   UNL     1     -37.310 -49.952  11.162  1.00  0.00     0.011 A 
HETATM   20  C   UNL     1     -37.502 -50.831  12.358  1.00  0.00     0.011 A 
ENDBRANCH   4  18
BRANCH   6  21
HETATM   21  C   UNL     1     -41.368 -46.214  10.756  1.00  0.00     0.422 C 
HETATM   22  F   UNL     1     -42.263 -46.429   9.765  1.00  0.00    -0.166 F 
HETATM   23  F   UNL     1     -41.943 -45.294  11.584  1.00  0.00    -0.166 F 
HETATM   24  F   UNL     1     -40.302 -45.583  10.192  1.00  0.00    -0.166 F 
ENDBRANCH   6  21
TORSDOF 5
ENDMDL
MODEL 6
REMARK VINA RESULT:      -5.7      4.096      7.337
REMARK  5 active torsions:
REMARK  status: ('A' for Active; 'I' for Inactive)
REMARK    1  A    between atoms: O_1  and  C_2 
REMARK    2  A    between atoms: C_2  and  C_3 
REMARK    3  A    between atoms: C_3  and  N_4 
REMARK    4  A    between atoms: C_7  and  C_16 
REMARK    5  A    between atoms: C_9  and  C_12 
ROOT
HETATM    1  N   UNL     1     -41.807 -53.776  13.358  1.00  0.00    -0.254 N 
HETATM    2  N   UNL     1     -41.140 -54.288  14.454  1.00  0.00    -0.299 N 
ATOM      3  HN  UNL     1     -40.123 -54.254  14.525  1.00  0.00     0.187 HD
HETATM    4  C   UNL     1     -41.864 -54.812  15.385  1.00  0.00     0.031 A 
HETATM    5  C   UNL     1     -43.322 -54.945  15.354  1.00  0.00     0.049 A 
HETATM    6  C   UNL     1     -43.956 -54.495  14.264  1.00  0.00     0.119 A 
HETATM    7  C   UNL     1     -43.191 -53.816  13.197  1.00  0.00     0.277 A 
HETATM    8  O   UNL     1     -43.761 -53.306  12.240  1.00  0.00    -0.266 OA
ENDROOT
BRANCH   1   9
HETATM    9  C   UNL     1     -40.985 -53.039  12.386  1.00  0.00     0.190 C 
BRANCH   9  10
HETATM   10  C   UNL     1     -40.489 -51.661  12.896  1.00  0.00     0.076 C 
HETATM   11  C   UNL     1     -39.026 -51.682  13.375  1.00  0.00     0.040 C 
HETATM   12  C   UNL     1     -38.512 -50.289  13.747  1.00  0.00     0.003 C 
HETATM   13  C   UNL     1     -38.691 -49.297  12.604  1.00  0.00     0.000 C 
HETATM   14  C   UNL     1     -40.143 -49.242  12.144  1.00  0.00     0.003 C 
HETATM   15  C   UNL     1     -40.661 -50.628  11.764  1.00  0.00     0.040 C 
BRANCH  10  16
HETATM   16  O   UNL     1     -41.311 -51.246  13.998  1.00  0.00    -0.388 OA
HETATM   17  H   UNL     1     -40.717 -50.789  14.626  1.00  0.00     0.210 HD
ENDBRANCH  10  16
ENDBRANCH   9  10
ENDBRANCH   1   9
BRANCH   4  18
HETATM   18  C   UNL     1     -41.171 -55.297  16.603  1.00  0.00     0.037 A 
HETATM   19  C   UNL     1     -39.795 -55.909  16.471  1.00  0.00     0.011 A 
HETATM   20  C   UNL     1     -40.949 -56.765  16.893  1.00  0.00     0.011 A 
ENDBRANCH   4  18
BRANCH   6  21
HETATM   21  C   UNL     1     -45.418 -54.649  14.088  1.00  0.00     0.422 C 
HETATM   22  F   UNL     1     -46.054 -53.698  13.368  1.00  0.00    -0.166 F 
HETATM   23  F   UNL     1     -45.694 -55.833  13.467  1.00  0.00    -0.166 F 
HETATM   24  F   UNL     1     -46.046 -54.715  15.294  1.00  0.00    -0.166 F 
ENDBRANCH   6  21
TORSDOF 5
ENDMDL
MODEL 7
REMARK VINA RESULT:      -5.6      2.275      4.211
REMARK  5 active torsions:
REMARK  status: ('A' for Active; 'I' for Inactive)
REMARK    1  A    between atoms: O_1  and  C_2 
REMARK    2  A    between atoms: C_2  and  C_3 
REMARK    3  A    between atoms: C_3  and  N_4 
REMARK    4  A    between atoms: C_7  and  C_16 
REMARK    5  A    between atoms: C_9  and  C_12 
ROOT
HETATM    1  N   UNL     1     -41.518 -52.411  12.956  1.00  0.00    -0.254 N 
HETATM    2  N   UNL     1     -40.958 -53.398  13.744  1.00  0.00    -0.299 N 
ATOM      3  HN  UNL     1     -41.503 -54.198  14.066  1.00  0.00     0.187 HD
HETATM    4  C   UNL     1     -39.713 -53.260  14.054  1.00  0.00     0.031 A 
HETATM    5  C   UNL     1     -38.863 -52.129  13.677  1.00  0.00     0.049 A 
HETATM    6  C   UNL     1     -39.428 -51.150  12.959  1.00  0.00     0.119 A 
HETATM    7  C   UNL     1     -40.829 -51.285  12.507  1.00  0.00     0.277 A 
HETATM    8  O   UNL     1     -41.334 -50.452  11.764  1.00  0.00    -0.266 OA
ENDROOT
BRANCH   1   9
HETATM    9  C   UNL     1     -42.886 -52.662  12.477  1.00  0.00     0.190 C 
BRANCH   9  10
HETATM   10  C   UNL     1     -43.972 -52.543  13.577  1.00  0.00     0.076 C 
HETATM   11  C   UNL     1     -44.990 -51.422  13.308  1.00  0.00     0.040 C 
HETATM   12  C   UNL     1     -46.130 -51.406  14.330  1.00  0.00     0.003 C 
HETATM   13  C   UNL     1     -46.827 -52.759  14.419  1.00  0.00     0.000 C 
HETATM   14  C   UNL     1     -45.832 -53.874  14.720  1.00  0.00     0.003 C 
HETATM   15  C   UNL     1     -44.696 -53.900  13.700  1.00  0.00     0.040 C 
BRANCH  10  16
HETATM   16  O   UNL     1     -43.335 -52.272  14.836  1.00  0.00    -0.388 OA
HETATM   17  H   UNL     1     -43.602 -51.365  15.087  1.00  0.00     0.210 HD
ENDBRANCH  10  16
ENDBRANCH   9  10
ENDBRANCH   1   9
BRANCH   4  18
HETATM   18  C   UNL     1     -39.076 -54.349  14.835  1.00  0.00     0.037 A 
HETATM   19  C   UNL     1     -39.923 -55.167  15.783  1.00  0.00     0.011 A 
HETATM   20  C   UNL     1     -38.858 -54.268  16.330  1.00  0.00     0.011 A 
ENDBRANCH   4  18
BRANCH   6  21
HETATM   21  C   UNL     1     -38.688 -49.922  12.589  1.00  0.00     0.422 C 
HETATM   22  F   UNL     1     -39.247 -48.741  12.933  1.00  0.00    -0.166 F 
HETATM   23  F   UNL     1     -37.449 -49.931  13.163  1.00  0.00    -0.166 F 
HETATM   24  F   UNL     1     -38.468 -49.877  11.246  1.00  0.00    -0.166 F 
ENDBRANCH   6  21
TORSDOF 5
ENDMDL
MODEL 8
REMARK VINA RESULT:      -5.6      2.900      5.116
REMARK  5 active torsions:
REMARK  status: ('A' for Active; 'I' for Inactive)
REMARK    1  A    between atoms: O_1  and  C_2 
REMARK    2  A    between atoms: C_2  and  C_3 
REMARK    3  A    between atoms: C_3  and  N_4 
REMARK    4  A    between atoms: C_7  and  C_16 
REMARK    5  A    between atoms: C_9  and  C_12 
ROOT
HETATM    1  N   UNL     1     -42.493 -53.633  13.504  1.00  0.00    -0.254 N 
HETATM    2  N   UNL     1     -42.125 -54.540  14.479  1.00  0.00    -0.299 N 
ATOM      3  HN  UNL     1     -42.740 -55.307  14.753  1.00  0.00     0.187 HD
HETATM    4  C   UNL     1     -40.968 -54.372  15.025  1.00  0.00     0.031 A 
HETATM    5  C   UNL     1     -40.039 -53.281  14.728  1.00  0.00     0.049 A 
HETATM    6  C   UNL     1     -40.426 -52.375  13.821  1.00  0.00     0.119 A 
HETATM    7  C   UNL     1     -41.706 -52.554  13.104  1.00  0.00     0.277 A 
HETATM    8  O   UNL     1     -42.032 -51.795  12.199  1.00  0.00    -0.266 OA
ENDROOT
BRANCH   1   9
HETATM    9  C   UNL     1     -43.737 -53.930  12.777  1.00  0.00     0.190 C 
BRANCH   9  10
HETATM   10  C   UNL     1     -45.021 -53.448  13.502  1.00  0.00     0.076 C 
HETATM   11  C   UNL     1     -44.822 -53.233  15.013  1.00  0.00     0.040 C 
HETATM   12  C   UNL     1     -46.056 -52.630  15.687  1.00  0.00     0.003 C 
HETATM   13  C   UNL     1     -46.493 -51.335  15.011  1.00  0.00     0.000 C 
HETATM   14  C   UNL     1     -46.727 -51.544  13.520  1.00  0.00     0.003 C 
HETATM   15  C   UNL     1     -45.496 -52.139  12.839  1.00  0.00     0.040 C 
BRANCH  10  16
HETATM   16  O   UNL     1     -46.054 -54.429  13.325  1.00  0.00    -0.388 OA
HETATM   17  H   UNL     1     -46.335 -54.365  12.390  1.00  0.00     0.210 HD
ENDBRANCH  10  16
ENDBRANCH   9  10
ENDBRANCH   1   9
BRANCH   4  18
HETATM   18  C   UNL     1     -40.526 -55.381  16.018  1.00  0.00     0.037 A 
HETATM   19  C   UNL     1     -41.563 -56.231  16.715  1.00  0.00     0.011 A 
HETATM   20  C   UNL     1     -40.772 -55.235  17.504  1.00  0.00     0.011 A 
ENDBRANCH   4  18
BRANCH   6  21
HETATM   21  C   UNL     1     -39.603 -51.186  13.499  1.00  0.00     0.422 C 
HETATM   22  F   UNL     1     -40.183 -49.976  13.659  1.00  0.00    -0.166 F 
HETATM   23  F   UNL     1     -38.482 -51.168  14.278  1.00  0.00    -0.166 F 
HETATM   24  F   UNL     1     -39.156 -51.242  12.215  1.00  0.00    -0.166 F 
ENDBRANCH   6  21
TORSDOF 5
ENDMDL
MODEL 9
REMARK VINA RESULT:      -5.4      4.178      5.404
REMARK  5 active torsions:
REMARK  status: ('A' for Active; 'I' for Inactive)
REMARK    1  A    between atoms: O_1  and  C_2 
REMARK    2  A    between atoms: C_2  and  C_3 
REMARK    3  A    between atoms: C_3  and  N_4 
REMARK    4  A    between atoms: C_7  and  C_16 
REMARK    5  A    between atoms: C_9  and  C_12 
ROOT
HETATM    1  N   UNL     1     -42.594 -52.829  13.392  1.00  0.00    -0.254 N 
HETATM    2  N   UNL     1     -42.036 -51.577  13.222  1.00  0.00    -0.299 N 
ATOM      3  HN  UNL     1     -41.025 -51.442  13.188  1.00  0.00     0.187 HD
HETATM    4  C   UNL     1     -42.854 -50.585  13.108  1.00  0.00     0.031 A 
HETATM    5  C   UNL     1     -44.313 -50.674  13.187  1.00  0.00     0.049 A 
HETATM    6  C   UNL     1     -44.843 -51.884  13.407  1.00  0.00     0.119 A 
HETATM    7  C   UNL     1     -43.964 -53.071  13.470  1.00  0.00     0.277 A 
HETATM    8  O   UNL     1     -44.434 -54.198  13.566  1.00  0.00    -0.266 OA
ENDROOT
BRANCH   1   9
HETATM    9  C   UNL     1     -41.659 -53.965  13.356  1.00  0.00     0.190 C 
BRANCH   9  10
HETATM   10  C   UNL     1     -40.910 -54.208  14.692  1.00  0.00     0.076 C 
HETATM   11  C   UNL     1     -41.653 -55.166  15.641  1.00  0.00     0.040 C 
HETATM   12  C   UNL     1     -40.838 -55.500  16.893  1.00  0.00     0.003 C 
HETATM   13  C   UNL     1     -39.461 -56.050  16.540  1.00  0.00     0.000 C 
HETATM   14  C   UNL     1     -38.701 -55.093  15.629  1.00  0.00     0.003 C 
HETATM   15  C   UNL     1     -39.505 -54.761  14.374  1.00  0.00     0.040 C 
BRANCH  10  16
HETATM   16  O   UNL     1     -40.743 -52.953  15.370  1.00  0.00    -0.388 OA
HETATM   17  H   UNL     1     -39.780 -52.787  15.406  1.00  0.00     0.210 HD
ENDBRANCH  10  16
ENDBRANCH   9  10
ENDBRANCH   1   9
BRANCH   4  18
HETATM   18  C   UNL     1     -42.275 -49.245  12.849  1.00  0.00     0.037 A 
HETATM   19  C   UNL     1     -43.105 -48.214  12.119  1.00  0.00     0.011 A 
HETATM   20  C   UNL     1     -41.879 -48.774  11.467  1.00  0.00     0.011 A 
ENDBRANCH   4  18
BRANCH   6  21
HETATM   21  C   UNL     1     -46.300 -52.081  13.584  1.00  0.00     0.422 C 
HETATM   22  F   UNL     1     -47.030 -50.996  13.925  1.00  0.00    -0.166 F 
HETATM   23  F   UNL     1     -46.853 -52.555  12.429  1.00  0.00    -0.166 F 
HETATM   24  F   UNL     1     -46.548 -53.033  14.524  1.00  0.00    -0.166 F 
ENDBRANCH   6  21
TORSDOF 5
ENDMDL
