MODEL 1
REMARK VINA RESULT:      -5.9      0.000      0.000
REMARK  4 active torsions:
REMARK  status: ('A' for Active; 'I' for Inactive)
REMARK    1  A    between atoms: C_2  and  O_3 
REMARK    2  A    between atoms: O_3  and  C_4 
REMARK    3  A    between atoms: C_6  and  N_7 
REMARK       I    between atoms: N_7  and  C_8 
REMARK       I    between atoms: C_8  and  N_10 
REMARK    4  A    between atoms: N_10  and  C_11 
ROOT
HETATM    1  N   UNL     1     -43.582 -49.730  12.315  1.00  0.00    -0.337 N 
HETATM    2  C   UNL     1     -42.510 -48.883  12.118  1.00  0.00     0.322 C 
HETATM    3  O   UNL     1     -41.380 -49.138  12.521  1.00  0.00    -0.247 OA
HETATM    4  N   UNL     1     -42.889 -47.719  11.494  1.00  0.00    -0.293 N 
HETATM    5  H   UNL     1     -44.282 -49.706  11.584  1.00  0.00     0.164 HD
HETATM    6  H   UNL     1     -43.820 -47.381  11.683  1.00  0.00     0.172 HD
ENDROOT
BRANCH   1   7
HETATM    7  C   UNL     1     -43.438 -50.928  13.166  1.00  0.00     0.099 C 
HETATM    8  C   UNL     1     -43.093 -52.242  12.417  1.00  0.00     0.059 C 
HETATM    9  C   UNL     1     -44.077 -52.978  13.380  1.00  0.00     0.133 C 
HETATM   10  C   UNL     1     -44.721 -51.610  13.574  1.00  0.00     0.006 C 
HETATM   11  C   UNL     1     -46.026 -51.383  12.824  1.00  0.00     0.014 C 
HETATM   12  C   UNL     1     -45.396 -51.222  14.868  1.00  0.00     0.014 C 
HETATM   13  C   UNL     1     -46.724 -51.643  14.186  1.00  0.00     0.002 C 
BRANCH   9  14
HETATM   14  O   UNL     1     -43.434 -53.585  14.530  1.00  0.00    -0.385 OA
BRANCH  14  15
HETATM   15  C   UNL     1     -43.831 -54.916  14.855  1.00  0.00     0.163 C 
HETATM   16  C   UNL     1     -45.091 -55.245  14.086  1.00  0.00     0.033 C 
ENDBRANCH  14  15
ENDBRANCH   9  14
ENDBRANCH   1   7
BRANCH   4  17
HETATM   17  C   UNL     1     -41.981 -46.719  11.213  1.00  0.00     0.132 A 
HETATM   18  C   UNL     1     -42.015 -45.366  11.615  1.00  0.00     0.084 A 
HETATM   19  C   UNL     1     -40.896 -44.812  11.049  1.00  0.00     0.076 A 
HETATM   20  C   UNL     1     -40.302 -43.465  11.053  1.00  0.00     0.079 C 
HETATM   21  O   UNL     1     -40.227 -45.770  10.354  1.00  0.00    -0.241 OA
HETATM   22  N   UNL     1     -40.885 -46.981  10.493  1.00  0.00    -0.245 N 
ATOM     23  HN  UNL     1     -40.594 -47.886  10.123  1.00  0.00     0.196 HD
ENDBRANCH   4  17
TORSDOF 4
ENDMDL
MODEL 2
REMARK VINA RESULT:      -5.8      3.497      8.288
REMARK  4 active torsions:
REMARK  status: ('A' for Active; 'I' for Inactive)
REMARK    1  A    between atoms: C_2  and  O_3 
REMARK    2  A    between atoms: O_3  and  C_4 
REMARK    3  A    between atoms: C_6  and  N_7 
REMARK       I    between atoms: N_7  and  C_8 
REMARK       I    between atoms: C_8  and  N_10 
REMARK    4  A    between atoms: N_10  and  C_11 
ROOT
HETATM    1  N   UNL     1     -39.729 -47.393  11.054  1.00  0.00    -0.337 N 
HETATM    2  C   UNL     1     -40.429 -48.545  11.354  1.00  0.00     0.322 C 
HETATM    3  O   UNL     1     -41.654 -48.590  11.378  1.00  0.00    -0.247 OA
HETATM    4  N   UNL     1     -39.588 -49.580  11.681  1.00  0.00    -0.293 N 
HETATM    5  H   UNL     1     -38.842 -47.543  10.590  1.00  0.00     0.164 HD
HETATM    6  H   UNL     1     -38.721 -49.338  12.136  1.00  0.00     0.172 HD
ENDROOT
BRANCH   1   7
HETATM    7  C   UNL     1     -40.441 -46.109  10.897  1.00  0.00     0.099 C 
HETATM    8  C   UNL     1     -39.645 -44.986  10.183  1.00  0.00     0.059 C 
HETATM    9  C   UNL     1     -40.253 -43.982  11.213  1.00  0.00     0.133 C 
HETATM   10  C   UNL     1     -40.450 -45.203  12.104  1.00  0.00     0.006 C 
HETATM   11  C   UNL     1     -39.445 -45.362  13.236  1.00  0.00     0.014 C 
HETATM   12  C   UNL     1     -41.584 -45.291  13.098  1.00  0.00     0.014 C 
HETATM   13  C   UNL     1     -40.562 -44.803  14.157  1.00  0.00     0.002 C 
BRANCH   9  14
HETATM   14  O   UNL     1     -41.441 -43.299  10.740  1.00  0.00    -0.385 OA
BRANCH  14  15
HETATM   15  C   UNL     1     -41.656 -41.977  11.229  1.00  0.00     0.163 C 
HETATM   16  C   UNL     1     -40.470 -41.581  12.081  1.00  0.00     0.033 C 
ENDBRANCH  14  15
ENDBRANCH   9  14
ENDBRANCH   1   7
BRANCH   4  17
HETATM   17  C   UNL     1     -40.073 -50.823  12.033  1.00  0.00     0.132 A 
HETATM   18  C   UNL     1     -39.786 -51.580  13.190  1.00  0.00     0.084 A 
HETATM   19  C   UNL     1     -40.506 -52.736  13.031  1.00  0.00     0.076 A 
HETATM   20  C   UNL     1     -40.687 -53.953  13.838  1.00  0.00     0.079 C 
HETATM   21  O   UNL     1     -41.186 -52.678  11.854  1.00  0.00    -0.241 OA
HETATM   22  N   UNL     1     -40.949 -51.456  11.247  1.00  0.00    -0.245 N 
ATOM     23  HN  UNL     1     -41.359 -51.110  10.380  1.00  0.00     0.196 HD
ENDBRANCH   4  17
TORSDOF 4
ENDMDL
MODEL 3
REMARK VINA RESULT:      -5.8      4.654      6.264
REMARK  4 active torsions:
REMARK  status: ('A' for Active; 'I' for Inactive)
REMARK    1  A    between atoms: C_2  and  O_3 
REMARK    2  A    between atoms: O_3  and  C_4 
REMARK    3  A    between atoms: C_6  and  N_7 
REMARK       I    between atoms: N_7  and  C_8 
REMARK       I    between atoms: C_8  and  N_10 
REMARK    4  A    between atoms: N_10  and  C_11 
ROOT
HETATM    1  N   UNL     1     -40.006 -48.245  11.585  1.00  0.00    -0.337 N 
HETATM    2  C   UNL     1     -41.346 -48.082  11.293  1.00  0.00     0.322 C 
HETATM    3  O   UNL     1     -42.220 -48.111  12.151  1.00  0.00    -0.247 OA
HETATM    4  N   UNL     1     -41.559 -47.961   9.941  1.00  0.00    -0.293 N 
HETATM    5  H   UNL     1     -39.373 -47.742  10.977  1.00  0.00     0.164 HD
HETATM    6  H   UNL     1     -40.927 -48.457   9.332  1.00  0.00     0.172 HD
ENDROOT
BRANCH   1   7
HETATM    7  C   UNL     1     -39.582 -48.619  12.950  1.00  0.00     0.099 C 
HETATM    8  C   UNL     1     -38.711 -47.571  13.690  1.00  0.00     0.059 C 
HETATM    9  C   UNL     1     -37.861 -48.759  14.245  1.00  0.00     0.133 C 
HETATM   10  C   UNL     1     -38.389 -49.539  13.046  1.00  0.00     0.006 C 
HETATM   11  C   UNL     1     -37.414 -49.712  11.891  1.00  0.00     0.014 C 
HETATM   12  C   UNL     1     -38.599 -51.033  13.096  1.00  0.00     0.014 C 
HETATM   13  C   UNL     1     -37.201 -51.151  12.434  1.00  0.00     0.002 C 
BRANCH   9  14
HETATM   14  O   UNL     1     -38.263 -49.206  15.564  1.00  0.00    -0.385 OA
BRANCH  14  15
HETATM   15  C   UNL     1     -37.235 -49.296  16.549  1.00  0.00     0.163 C 
HETATM   16  C   UNL     1     -36.026 -49.957  15.923  1.00  0.00     0.033 C 
ENDBRANCH  14  15
ENDBRANCH   9  14
ENDBRANCH   1   7
BRANCH   4  17
HETATM   17  C   UNL     1     -42.827 -47.805   9.420  1.00  0.00     0.132 A 
HETATM   18  C   UNL     1     -43.997 -47.367  10.077  1.00  0.00     0.084 A 
HETATM   19  C   UNL     1     -44.971 -47.417   9.113  1.00  0.00     0.076 A 
HETATM   20  C   UNL     1     -46.408 -47.102   9.087  1.00  0.00     0.079 C 
HETATM   21  O   UNL     1     -44.422 -47.855   7.948  1.00  0.00    -0.241 OA
HETATM   22  N   UNL     1     -43.064 -48.056   8.129  1.00  0.00    -0.245 N 
ATOM     23  HN  UNL     1     -42.384 -48.337   7.422  1.00  0.00     0.196 HD
ENDBRANCH   4  17
TORSDOF 4
ENDMDL
MODEL 4
REMARK VINA RESULT:      -5.7      3.171      3.972
REMARK  4 active torsions:
REMARK  status: ('A' for Active; 'I' for Inactive)
REMARK    1  A    between atoms: C_2  and  O_3 
REMARK    2  A    between atoms: O_3  and  C_4 
REMARK    3  A    between atoms: C_6  and  N_7 
REMARK       I    between atoms: N_7  and  C_8 
REMARK       I    between atoms: C_8  and  N_10 
REMARK    4  A    between atoms: N_10  and  C_11 
ROOT
HETATM    1  N   UNL     1     -40.287 -50.601  11.996  1.00  0.00    -0.337 N 
HETATM    2  C   UNL     1     -40.818 -49.335  11.849  1.00  0.00     0.322 C 
HETATM    3  O   UNL     1     -40.954 -48.559  12.788  1.00  0.00    -0.247 OA
HETATM    4  N   UNL     1     -41.227 -49.103  10.558  1.00  0.00    -0.293 N 
HETATM    5  H   UNL     1     -39.777 -50.945  11.193  1.00  0.00     0.164 HD
HETATM    6  H   UNL     1     -41.563 -49.897  10.035  1.00  0.00     0.172 HD
ENDROOT
BRANCH   1   7
HETATM    7  C   UNL     1     -39.997 -51.135  13.343  1.00  0.00     0.099 C 
HETATM    8  C   UNL     1     -38.571 -51.709  13.542  1.00  0.00     0.059 C 
HETATM    9  C   UNL     1     -39.214 -52.855  14.385  1.00  0.00     0.133 C 
HETATM   10  C   UNL     1     -40.495 -52.531  13.625  1.00  0.00     0.006 C 
HETATM   11  C   UNL     1     -40.858 -53.496  12.505  1.00  0.00     0.014 C 
HETATM   12  C   UNL     1     -41.860 -52.730  14.240  1.00  0.00     0.014 C 
HETATM   13  C   UNL     1     -41.883 -54.096  13.506  1.00  0.00     0.002 C 
BRANCH   9  14
HETATM   14  O   UNL     1     -39.205 -52.611  15.815  1.00  0.00    -0.385 OA
BRANCH  14  15
HETATM   15  C   UNL     1     -38.736 -53.676  16.641  1.00  0.00     0.163 C 
HETATM   16  C   UNL     1     -38.997 -54.986  15.932  1.00  0.00     0.033 C 
ENDBRANCH  14  15
ENDBRANCH   9  14
ENDBRANCH   1   7
BRANCH   4  17
HETATM   17  C   UNL     1     -41.804 -47.907  10.186  1.00  0.00     0.132 A 
HETATM   18  C   UNL     1     -43.126 -47.671   9.749  1.00  0.00     0.084 A 
HETATM   19  C   UNL     1     -43.166 -46.325   9.489  1.00  0.00     0.076 A 
HETATM   20  C   UNL     1     -44.208 -45.401   9.015  1.00  0.00     0.079 C 
HETATM   21  O   UNL     1     -41.947 -45.784   9.756  1.00  0.00    -0.241 OA
HETATM   22  N   UNL     1     -41.103 -46.771  10.237  1.00  0.00    -0.245 N 
ATOM     23  HN  UNL     1     -40.144 -46.654  10.564  1.00  0.00     0.196 HD
ENDBRANCH   4  17
TORSDOF 4
ENDMDL
MODEL 5
REMARK VINA RESULT:      -5.3      1.742      2.794
REMARK  4 active torsions:
REMARK  status: ('A' for Active; 'I' for Inactive)
REMARK    1  A    between atoms: C_2  and  O_3 
REMARK    2  A    between atoms: O_3  and  C_4 
REMARK    3  A    between atoms: C_6  and  N_7 
REMARK       I    between atoms: N_7  and  C_8 
REMARK       I    between atoms: C_8  and  N_10 
REMARK    4  A    between atoms: N_10  and  C_11 
ROOT
HETATM    1  N   UNL     1     -41.151 -49.951  12.549  1.00  0.00    -0.337 N 
HETATM    2  C   UNL     1     -41.453 -48.723  11.995  1.00  0.00     0.322 C 
HETATM    3  O   UNL     1     -42.536 -48.478  11.476  1.00  0.00    -0.247 OA
HETATM    4  N   UNL     1     -40.381 -47.867  12.042  1.00  0.00    -0.293 N 
HETATM    5  H   UNL     1     -40.513 -49.919  13.334  1.00  0.00     0.164 HD
HETATM    6  H   UNL     1     -39.463 -48.280  11.978  1.00  0.00     0.172 HD
ENDROOT
BRANCH   1   7
HETATM    7  C   UNL     1     -42.084 -51.086  12.397  1.00  0.00     0.099 C 
HETATM    8  C   UNL     1     -43.340 -51.045  13.306  1.00  0.00     0.059 C 
HETATM    9  C   UNL     1     -43.172 -52.584  13.506  1.00  0.00     0.133 C 
HETATM   10  C   UNL     1     -41.713 -52.352  13.130  1.00  0.00     0.006 C 
HETATM   11  C   UNL     1     -40.727 -52.350  14.289  1.00  0.00     0.014 C 
HETATM   12  C   UNL     1     -40.892 -53.409  12.431  1.00  0.00     0.014 C 
HETATM   13  C   UNL     1     -40.368 -53.793  13.839  1.00  0.00     0.002 C 
BRANCH   9  14
HETATM   14  O   UNL     1     -43.976 -53.387  12.605  1.00  0.00    -0.385 OA
BRANCH  14  15
HETATM   15  C   UNL     1     -44.801 -54.386  13.203  1.00  0.00     0.163 C 
HETATM   16  C   UNL     1     -44.100 -54.914  14.436  1.00  0.00     0.033 C 
ENDBRANCH  14  15
ENDBRANCH   9  14
ENDBRANCH   1   7
BRANCH   4  17
HETATM   17  C   UNL     1     -40.452 -46.588  11.529  1.00  0.00     0.132 A 
HETATM   18  C   UNL     1     -40.425 -45.361  12.229  1.00  0.00     0.084 A 
HETATM   19  C   UNL     1     -40.549 -44.407  11.251  1.00  0.00     0.076 A 
HETATM   20  C   UNL     1     -40.591 -42.936  11.250  1.00  0.00     0.079 C 
HETATM   21  O   UNL     1     -40.640 -45.020  10.040  1.00  0.00    -0.241 OA
HETATM   22  N   UNL     1     -40.533 -46.390  10.210  1.00  0.00    -0.245 N 
ATOM     23  HN  UNL     1     -40.520 -47.102   9.480  1.00  0.00     0.196 HD
ENDBRANCH   4  17
TORSDOF 4
ENDMDL
MODEL 6
REMARK VINA RESULT:      -5.2      1.661      2.570
REMARK  4 active torsions:
REMARK  status: ('A' for Active; 'I' for Inactive)
REMARK    1  A    between atoms: C_2  and  O_3 
REMARK    2  A    between atoms: O_3  and  C_4 
REMARK    3  A    between atoms: C_6  and  N_7 
REMARK       I    between atoms: N_7  and  C_8 
REMARK       I    between atoms: C_8  and  N_10 
REMARK    4  A    between atoms: N_10  and  C_11 
ROOT
HETATM    1  N   UNL     1     -43.035 -50.146  12.477  1.00  0.00    -0.337 N 
HETATM    2  C   UNL     1     -42.763 -48.820  12.203  1.00  0.00     0.322 C 
HETATM    3  O   UNL     1     -43.370 -47.896  12.731  1.00  0.00    -0.247 OA
HETATM    4  N   UNL     1     -41.800 -48.689  11.233  1.00  0.00    -0.293 N 
HETATM    5  H   UNL     1     -42.238 -50.766  12.414  1.00  0.00     0.164 HD
HETATM    6  H   UNL     1     -41.761 -49.409  10.528  1.00  0.00     0.172 HD
ENDROOT
BRANCH   1   7
HETATM    7  C   UNL     1     -44.192 -50.510  13.320  1.00  0.00     0.099 C 
HETATM    8  C   UNL     1     -43.955 -50.431  14.851  1.00  0.00     0.059 C 
HETATM    9  C   UNL     1     -44.793 -51.742  14.987  1.00  0.00     0.133 C 
HETATM   10  C   UNL     1     -44.424 -51.987  13.528  1.00  0.00     0.006 C 
HETATM   11  C   UNL     1     -43.325 -53.013  13.290  1.00  0.00     0.014 C 
HETATM   12  C   UNL     1     -45.335 -52.741  12.590  1.00  0.00     0.014 C 
HETATM   13  C   UNL     1     -44.474 -53.989  12.916  1.00  0.00     0.002 C 
BRANCH   9  14
HETATM   14  O   UNL     1     -46.192 -51.519  15.295  1.00  0.00    -0.385 OA
BRANCH  14  15
HETATM   15  C   UNL     1     -46.640 -51.949  16.579  1.00  0.00     0.163 C 
HETATM   16  C   UNL     1     -47.919 -51.214  16.915  1.00  0.00     0.033 C 
ENDBRANCH  14  15
ENDBRANCH   9  14
ENDBRANCH   1   7
BRANCH   4  17
HETATM   17  C   UNL     1     -41.383 -47.452  10.789  1.00  0.00     0.132 A 
HETATM   18  C   UNL     1     -40.193 -46.761  11.109  1.00  0.00     0.084 A 
HETATM   19  C   UNL     1     -40.288 -45.579  10.421  1.00  0.00     0.076 A 
HETATM   20  C   UNL     1     -39.421 -44.398  10.285  1.00  0.00     0.079 C 
HETATM   21  O   UNL     1     -41.458 -45.559   9.728  1.00  0.00    -0.241 OA
HETATM   22  N   UNL     1     -42.126 -46.757   9.923  1.00  0.00    -0.245 N 
ATOM     23  HN  UNL     1     -43.004 -47.048   9.494  1.00  0.00     0.196 HD
ENDBRANCH   4  17
TORSDOF 4
ENDMDL
MODEL 7
REMARK VINA RESULT:      -5.2      2.660      8.097
REMARK  4 active torsions:
REMARK  status: ('A' for Active; 'I' for Inactive)
REMARK    1  A    between atoms: C_2  and  O_3 
REMARK    2  A    between atoms: O_3  and  C_4 
REMARK    3  A    between atoms: C_6  and  N_7 
REMARK       I    between atoms: N_7  and  C_8 
REMARK       I    between atoms: C_8  and  N_10 
REMARK    4  A    between atoms: N_10  and  C_11 
ROOT
HETATM    1  N   UNL     1     -40.927 -49.964  12.761  1.00  0.00    -0.337 N 
HETATM    2  C   UNL     1     -42.112 -50.671  12.701  1.00  0.00     0.322 C 
HETATM    3  O   UNL     1     -43.196 -50.134  12.505  1.00  0.00    -0.247 OA
HETATM    4  N   UNL     1     -41.920 -52.007  12.956  1.00  0.00    -0.293 N 
HETATM    5  H   UNL     1     -40.113 -50.469  12.435  1.00  0.00     0.164 HD
HETATM    6  H   UNL     1     -41.174 -52.248  13.591  1.00  0.00     0.172 HD
ENDROOT
BRANCH   1   7
HETATM    7  C   UNL     1     -40.940 -48.487  12.742  1.00  0.00     0.099 C 
HETATM    8  C   UNL     1     -40.731 -47.834  11.350  1.00  0.00     0.059 C 
HETATM    9  C   UNL     1     -39.842 -46.761  12.054  1.00  0.00     0.133 C 
HETATM   10  C   UNL     1     -39.655 -47.807  13.147  1.00  0.00     0.006 C 
HETATM   11  C   UNL     1     -38.321 -48.540  13.137  1.00  0.00     0.014 C 
HETATM   12  C   UNL     1     -39.435 -47.422  14.591  1.00  0.00     0.014 C 
HETATM   13  C   UNL     1     -37.921 -47.594  14.302  1.00  0.00     0.002 C 
BRANCH   9  14
HETATM   14  O   UNL     1     -40.550 -45.545  12.405  1.00  0.00    -0.385 OA
BRANCH  14  15
HETATM   15  C   UNL     1     -39.939 -44.316  12.018  1.00  0.00     0.163 C 
HETATM   16  C   UNL     1     -38.732 -44.080  12.899  1.00  0.00     0.033 C 
ENDBRANCH  14  15
ENDBRANCH   9  14
ENDBRANCH   1   7
BRANCH   4  17
HETATM   17  C   UNL     1     -42.970 -52.901  12.965  1.00  0.00     0.132 A 
HETATM   18  C   UNL     1     -43.478 -53.644  14.053  1.00  0.00     0.084 A 
HETATM   19  C   UNL     1     -44.498 -54.386  13.515  1.00  0.00     0.076 A 
HETATM   20  C   UNL     1     -45.455 -55.363  14.058  1.00  0.00     0.079 C 
HETATM   21  O   UNL     1     -44.601 -54.104  12.189  1.00  0.00    -0.241 OA
HETATM   22  N   UNL     1     -43.670 -53.136  11.851  1.00  0.00    -0.245 N 
ATOM     23  HN  UNL     1     -43.543 -52.694  10.941  1.00  0.00     0.196 HD
ENDBRANCH   4  17
TORSDOF 4
ENDMDL
MODEL 8
REMARK VINA RESULT:      -4.9     15.145     15.963
REMARK  4 active torsions:
REMARK  status: ('A' for Active; 'I' for Inactive)
REMARK    1  A    between atoms: C_2  and  O_3 
REMARK    2  A    between atoms: O_3  and  C_4 
REMARK    3  A    between atoms: C_6  and  N_7 
REMARK       I    between atoms: N_7  and  C_8 
REMARK       I    between atoms: C_8  and  N_10 
REMARK    4  A    between atoms: N_10  and  C_11 
ROOT
HETATM    1  N   UNL     1     -50.565 -51.730  -0.194  1.00  0.00    -0.337 N 
HETATM    2  C   UNL     1     -50.967 -50.452   0.139  1.00  0.00     0.322 C 
HETATM    3  O   UNL     1     -51.981 -49.936  -0.316  1.00  0.00    -0.247 OA
HETATM    4  N   UNL     1     -50.063 -49.834   0.967  1.00  0.00    -0.293 N 
HETATM    5  H   UNL     1     -50.070 -52.224   0.537  1.00  0.00     0.164 HD
HETATM    6  H   UNL     1     -49.093 -50.086   0.853  1.00  0.00     0.172 HD
ENDROOT
BRANCH   1   7
HETATM    7  C   UNL     1     -51.275 -52.483  -1.249  1.00  0.00     0.099 C 
HETATM    8  C   UNL     1     -51.991 -53.776  -0.781  1.00  0.00     0.059 C 
HETATM    9  C   UNL     1     -51.508 -54.450  -2.104  1.00  0.00     0.133 C 
HETATM   10  C   UNL     1     -50.421 -53.381  -2.111  1.00  0.00     0.006 C 
HETATM   11  C   UNL     1     -49.040 -53.843  -1.669  1.00  0.00     0.014 C 
HETATM   12  C   UNL     1     -49.834 -52.848  -3.396  1.00  0.00     0.014 C 
HETATM   13  C   UNL     1     -48.690 -53.873  -3.182  1.00  0.00     0.002 C 
BRANCH   9  14
HETATM   14  O   UNL     1     -52.486 -54.418  -3.174  1.00  0.00    -0.385 OA
BRANCH  14  15
HETATM   15  C   UNL     1     -52.743 -55.651  -3.843  1.00  0.00     0.163 C 
HETATM   16  C   UNL     1     -53.469 -56.574  -2.889  1.00  0.00     0.033 C 
ENDBRANCH  14  15
ENDBRANCH   9  14
ENDBRANCH   1   7
BRANCH   4  17
HETATM   17  C   UNL     1     -50.253 -48.543   1.413  1.00  0.00     0.132 A 
HETATM   18  C   UNL     1     -49.363 -47.449   1.336  1.00  0.00     0.084 A 
HETATM   19  C   UNL     1     -50.034 -46.418   1.943  1.00  0.00     0.076 A 
HETATM   20  C   UNL     1     -49.720 -45.006   2.212  1.00  0.00     0.079 C 
HETATM   21  O   UNL     1     -51.252 -46.862   2.356  1.00  0.00    -0.241 OA
HETATM   22  N   UNL     1     -51.408 -48.186   1.983  1.00  0.00    -0.245 N 
ATOM     23  HN  UNL     1     -52.234 -48.769   2.115  1.00  0.00     0.196 HD
ENDBRANCH   4  17
TORSDOF 4
ENDMDL
MODEL 9
REMARK VINA RESULT:      -4.9      4.178      5.395
REMARK  4 active torsions:
REMARK  status: ('A' for Active; 'I' for Inactive)
REMARK    1  A    between atoms: C_2  and  O_3 
REMARK    2  A    between atoms: O_3  and  C_4 
REMARK    3  A    between atoms: C_6  and  N_7 
REMARK       I    between atoms: N_7  and  C_8 
REMARK       I    between atoms: C_8  and  N_10 
REMARK    4  A    between atoms: N_10  and  C_11 
ROOT
HETATM    1  N   UNL     1     -39.933 -48.488  11.392  1.00  0.00    -0.337 N 
HETATM    2  C   UNL     1     -41.262 -48.588  11.030  1.00  0.00     0.322 C 
HETATM    3  O   UNL     1     -42.031 -49.391  11.546  1.00  0.00    -0.247 OA
HETATM    4  N   UNL     1     -41.572 -47.741   9.995  1.00  0.00    -0.293 N 
HETATM    5  H   UNL     1     -39.539 -47.560  11.311  1.00  0.00     0.164 HD
HETATM    6  H   UNL     1     -40.840 -47.547   9.328  1.00  0.00     0.172 HD
ENDROOT
BRANCH   1   7
HETATM    7  C   UNL     1     -39.340 -49.468  12.325  1.00  0.00     0.099 C 
HETATM    8  C   UNL     1     -40.350 -50.376  13.072  1.00  0.00     0.059 C 
HETATM    9  C   UNL     1     -39.461 -50.217  14.346  1.00  0.00     0.133 C 
HETATM   10  C   UNL     1     -38.956 -48.939  13.686  1.00  0.00     0.006 C 
HETATM   11  C   UNL     1     -39.532 -47.642  14.236  1.00  0.00     0.014 C 
HETATM   12  C   UNL     1     -37.557 -48.419  13.919  1.00  0.00     0.014 C 
HETATM   13  C   UNL     1     -38.186 -47.499  14.998  1.00  0.00     0.002 C 
BRANCH   9  14
HETATM   14  O   UNL     1     -38.507 -51.293  14.538  1.00  0.00    -0.385 OA
BRANCH  14  15
HETATM   15  C   UNL     1     -38.769 -52.195  15.611  1.00  0.00     0.163 C 
HETATM   16  C   UNL     1     -39.268 -53.501  15.033  1.00  0.00     0.033 C 
ENDBRANCH  14  15
ENDBRANCH   9  14
ENDBRANCH   1   7
BRANCH   4  17
HETATM   17  C   UNL     1     -42.842 -47.685   9.459  1.00  0.00     0.132 A 
HETATM   18  C   UNL     1     -44.037 -47.262  10.081  1.00  0.00     0.084 A 
HETATM   19  C   UNL     1     -45.000 -47.428   9.119  1.00  0.00     0.076 A 
HETATM   20  C   UNL     1     -46.451 -47.187   9.066  1.00  0.00     0.079 C 
HETATM   21  O   UNL     1     -44.422 -47.916   7.989  1.00  0.00    -0.241 OA
HETATM   22  N   UNL     1     -43.057 -48.036   8.188  1.00  0.00    -0.245 N 
ATOM     23  HN  UNL     1     -42.359 -48.331   7.505  1.00  0.00     0.196 HD
ENDBRANCH   4  17
TORSDOF 4
ENDMDL
