MODEL 1
REMARK VINA RESULT:      -5.9      0.000      0.000
REMARK  4 active torsions:
REMARK  status: ('A' for Active; 'I' for Inactive)
REMARK    1  A    between atoms: C_2  and  C_4 
REMARK    2  A    between atoms: C_4  and  N_6 
REMARK       I    between atoms: N_6  and  C_7 
REMARK    3  A    between atoms: C_7  and  C_9 
REMARK    4  A    between atoms: C_9  and  C_11 
ROOT
HETATM    1  C   UNL     1     -43.041 -48.656  13.226  1.00  0.00     0.110 C 
HETATM    2  C   UNL     1     -42.423 -47.721  14.265  1.00  0.00     0.025 C 
ENDROOT
BRANCH   1   3
HETATM    3  C   UNL     1     -43.453 -50.028  13.781  1.00  0.00     0.226 C 
HETATM    4  N   UNL     1     -44.231 -50.812  12.956  1.00  0.00    -0.356 N 
HETATM    5  H   UNL     1     -44.386 -50.524  12.000  1.00  0.00     0.162 HD
HETATM    6  O   UNL     1     -43.131 -50.387  14.915  1.00  0.00    -0.273 OA
BRANCH   4   7
HETATM    7  C   UNL     1     -44.671 -52.156  13.325  1.00  0.00     0.083 C 
HETATM    8  C   UNL     1     -44.065 -53.166  12.347  1.00  0.00     0.032 C 
BRANCH   7   9
HETATM    9  C   UNL     1     -46.221 -52.221  13.354  1.00  0.00    -0.000 C 
HETATM   10  C   UNL     1     -46.815 -51.426  14.520  1.00  0.00     0.011 C 
HETATM   11  C   UNL     1     -46.831 -51.703  12.045  1.00  0.00     0.011 C 
ENDBRANCH   7   9
ENDBRANCH   4   7
ENDBRANCH   1   3
BRANCH   1  12
HETATM   12  C   UNL     1     -42.239 -48.811  11.958  1.00  0.00     0.002 A 
HETATM   13  C   UNL     1     -42.524 -48.187  10.701  1.00  0.00     0.031 A 
HETATM   14  C   UNL     1     -43.623 -47.252  10.340  1.00  0.00     0.070 C 
HETATM   15  N   UNL     1     -41.641 -48.533   9.759  1.00  0.00    -0.304 N 
HETATM   16  N   UNL     1     -40.812 -49.375  10.380  1.00  0.00    -0.304 N 
ATOM     17  HN  UNL     1     -41.608 -48.224   8.787  1.00  0.00     0.186 HD
HETATM   18  C   UNL     1     -41.099 -49.564  11.704  1.00  0.00     0.031 A 
HETATM   19  H   UNL     1     -40.060 -49.786   9.838  1.00  0.00     0.186 HD
HETATM   20  C   UNL     1     -40.248 -50.436  12.543  1.00  0.00     0.070 C 
ENDBRANCH   1  12
TORSDOF 4
ENDMDL
MODEL 2
REMARK VINA RESULT:      -5.8      0.209      1.978
REMARK  4 active torsions:
REMARK  status: ('A' for Active; 'I' for Inactive)
REMARK    1  A    between atoms: C_2  and  C_4 
REMARK    2  A    between atoms: C_4  and  N_6 
REMARK       I    between atoms: N_6  and  C_7 
REMARK    3  A    between atoms: C_7  and  C_9 
REMARK    4  A    between atoms: C_9  and  C_11 
ROOT
HETATM    1  C   UNL     1     -42.941 -48.715  13.190  1.00  0.00     0.110 C 
HETATM    2  C   UNL     1     -42.268 -47.803  14.215  1.00  0.00     0.025 C 
ENDROOT
BRANCH   1   3
HETATM    3  C   UNL     1     -43.389 -50.073  13.755  1.00  0.00     0.226 C 
HETATM    4  N   UNL     1     -44.191 -50.840  12.938  1.00  0.00    -0.356 N 
HETATM    5  H   UNL     1     -44.342 -50.553  11.981  1.00  0.00     0.162 HD
HETATM    6  O   UNL     1     -43.072 -50.434  14.890  1.00  0.00    -0.273 OA
BRANCH   4   7
HETATM    7  C   UNL     1     -44.666 -52.169  13.317  1.00  0.00     0.083 C 
HETATM    8  C   UNL     1     -44.084 -53.203  12.348  1.00  0.00     0.032 C 
BRANCH   7   9
HETATM    9  C   UNL     1     -46.218 -52.194  13.343  1.00  0.00    -0.000 C 
HETATM   10  C   UNL     1     -46.792 -51.401  14.521  1.00  0.00     0.011 C 
HETATM   11  C   UNL     1     -46.812 -51.641  12.041  1.00  0.00     0.011 C 
ENDBRANCH   7   9
ENDBRANCH   4   7
ENDBRANCH   1   3
BRANCH   1  12
HETATM   12  C   UNL     1     -42.175 -48.899  11.905  1.00  0.00     0.002 A 
HETATM   13  C   UNL     1     -41.054 -49.768  11.710  1.00  0.00     0.031 A 
HETATM   14  C   UNL     1     -40.396 -50.688  12.676  1.00  0.00     0.070 C 
HETATM   15  N   UNL     1     -40.577 -49.699  10.463  1.00  0.00    -0.304 N 
HETATM   16  N   UNL     1     -41.354 -48.794   9.865  1.00  0.00    -0.304 N 
ATOM     17  HN  UNL     1     -39.797 -50.218  10.061  1.00  0.00     0.186 HD
HETATM   18  C   UNL     1     -42.346 -48.296  10.664  1.00  0.00     0.031 A 
HETATM   19  H   UNL     1     -41.155 -48.563   8.898  1.00  0.00     0.186 HD
HETATM   20  C   UNL     1     -43.320 -47.314  10.136  1.00  0.00     0.070 C 
ENDBRANCH   1  12
TORSDOF 4
ENDMDL
MODEL 3
REMARK VINA RESULT:      -5.5      2.461      3.118
REMARK  4 active torsions:
REMARK  status: ('A' for Active; 'I' for Inactive)
REMARK    1  A    between atoms: C_2  and  C_4 
REMARK    2  A    between atoms: C_4  and  N_6 
REMARK       I    between atoms: N_6  and  C_7 
REMARK    3  A    between atoms: C_7  and  C_9 
REMARK    4  A    between atoms: C_9  and  C_11 
ROOT
HETATM    1  C   UNL     1     -41.891 -51.712  14.813  1.00  0.00     0.110 C 
HETATM    2  C   UNL     1     -40.770 -51.735  15.852  1.00  0.00     0.025 C 
ENDROOT
BRANCH   1   3
HETATM    3  C   UNL     1     -43.131 -52.530  15.208  1.00  0.00     0.226 C 
HETATM    4  N   UNL     1     -44.172 -52.536  14.304  1.00  0.00    -0.356 N 
HETATM    5  H   UNL     1     -44.037 -52.127  13.390  1.00  0.00     0.162 HD
HETATM    6  O   UNL     1     -43.197 -53.118  16.288  1.00  0.00    -0.273 OA
BRANCH   4   7
HETATM    7  C   UNL     1     -45.401 -53.296  14.517  1.00  0.00     0.083 C 
HETATM    8  C   UNL     1     -45.342 -54.584  13.690  1.00  0.00     0.032 C 
BRANCH   7   9
HETATM    9  C   UNL     1     -46.636 -52.425  14.164  1.00  0.00    -0.000 C 
HETATM   10  C   UNL     1     -47.003 -51.453  15.289  1.00  0.00     0.011 C 
HETATM   11  C   UNL     1     -46.410 -51.624  12.875  1.00  0.00     0.011 C 
ENDBRANCH   7   9
ENDBRANCH   4   7
ENDBRANCH   1   3
BRANCH   1  12
HETATM   12  C   UNL     1     -41.458 -52.043  13.407  1.00  0.00     0.002 A 
HETATM   13  C   UNL     1     -41.546 -51.172  12.273  1.00  0.00     0.031 A 
HETATM   14  C   UNL     1     -42.047 -49.774  12.195  1.00  0.00     0.070 C 
HETATM   15  N   UNL     1     -41.098 -51.757  11.157  1.00  0.00    -0.304 N 
HETATM   16  N   UNL     1     -40.744 -52.982  11.549  1.00  0.00    -0.304 N 
ATOM     17  HN  UNL     1     -41.040 -51.357  10.221  1.00  0.00     0.186 HD
HETATM   18  C   UNL     1     -40.910 -53.209  12.888  1.00  0.00     0.031 A 
HETATM   19  H   UNL     1     -40.389 -53.620  10.846  1.00  0.00     0.186 HD
HETATM   20  C   UNL     1     -40.524 -54.506  13.487  1.00  0.00     0.070 C 
ENDBRANCH   1  12
TORSDOF 4
ENDMDL
MODEL 4
REMARK VINA RESULT:      -5.5      2.411      3.572
REMARK  4 active torsions:
REMARK  status: ('A' for Active; 'I' for Inactive)
REMARK    1  A    between atoms: C_2  and  C_4 
REMARK    2  A    between atoms: C_4  and  N_6 
REMARK       I    between atoms: N_6  and  C_7 
REMARK    3  A    between atoms: C_7  and  C_9 
REMARK    4  A    between atoms: C_9  and  C_11 
ROOT
HETATM    1  C   UNL     1     -41.866 -51.710  14.762  1.00  0.00     0.110 C 
HETATM    2  C   UNL     1     -40.691 -51.823  15.733  1.00  0.00     0.025 C 
ENDROOT
BRANCH   1   3
HETATM    3  C   UNL     1     -43.089 -52.555  15.154  1.00  0.00     0.226 C 
HETATM    4  N   UNL     1     -44.167 -52.502  14.297  1.00  0.00    -0.356 N 
HETATM    5  H   UNL     1     -44.071 -52.032  13.408  1.00  0.00     0.162 HD
HETATM    6  O   UNL     1     -43.109 -53.214  16.195  1.00  0.00    -0.273 OA
BRANCH   4   7
HETATM    7  C   UNL     1     -45.387 -53.277  14.511  1.00  0.00     0.083 C 
HETATM    8  C   UNL     1     -45.316 -54.561  13.678  1.00  0.00     0.032 C 
BRANCH   7   9
HETATM    9  C   UNL     1     -46.633 -52.419  14.167  1.00  0.00    -0.000 C 
HETATM   10  C   UNL     1     -46.987 -51.433  15.283  1.00  0.00     0.011 C 
HETATM   11  C   UNL     1     -46.434 -51.635  12.863  1.00  0.00     0.011 C 
ENDBRANCH   7   9
ENDBRANCH   4   7
ENDBRANCH   1   3
BRANCH   1  12
HETATM   12  C   UNL     1     -41.512 -51.922  13.312  1.00  0.00     0.002 A 
HETATM   13  C   UNL     1     -41.028 -53.139  12.734  1.00  0.00     0.031 A 
HETATM   14  C   UNL     1     -40.775 -54.454  13.379  1.00  0.00     0.070 C 
HETATM   15  N   UNL     1     -40.787 -53.009  11.425  1.00  0.00    -0.304 N 
HETATM   16  N   UNL     1     -41.089 -51.737  11.160  1.00  0.00    -0.304 N 
ATOM     17  HN  UNL     1     -40.449 -53.721  10.777  1.00  0.00     0.186 HD
HETATM   18  C   UNL     1     -41.554 -51.038  12.240  1.00  0.00     0.031 A 
HETATM   19  H   UNL     1     -40.959 -51.407  10.210  1.00  0.00     0.186 HD
HETATM   20  C   UNL     1     -41.973 -49.626  12.102  1.00  0.00     0.070 C 
ENDBRANCH   1  12
TORSDOF 4
ENDMDL
MODEL 5
REMARK VINA RESULT:      -5.3      2.654      3.695
REMARK  4 active torsions:
REMARK  status: ('A' for Active; 'I' for Inactive)
REMARK    1  A    between atoms: C_2  and  C_4 
REMARK    2  A    between atoms: C_4  and  N_6 
REMARK       I    between atoms: N_6  and  C_7 
REMARK    3  A    between atoms: C_7  and  C_9 
REMARK    4  A    between atoms: C_9  and  C_11 
ROOT
HETATM    1  C   UNL     1     -42.082 -51.290  14.447  1.00  0.00     0.110 C 
HETATM    2  C   UNL     1     -41.816 -51.652  15.908  1.00  0.00     0.025 C 
ENDROOT
BRANCH   1   3
HETATM    3  C   UNL     1     -43.530 -50.863  14.159  1.00  0.00     0.226 C 
HETATM    4  N   UNL     1     -44.517 -51.576  14.806  1.00  0.00    -0.356 N 
HETATM    5  H   UNL     1     -44.260 -52.241  15.520  1.00  0.00     0.162 HD
HETATM    6  O   UNL     1     -43.788 -49.955  13.367  1.00  0.00    -0.273 OA
BRANCH   4   7
HETATM    7  C   UNL     1     -45.938 -51.266  14.665  1.00  0.00     0.083 C 
HETATM    8  C   UNL     1     -46.592 -51.283  16.050  1.00  0.00     0.032 C 
BRANCH   7   9
HETATM    9  C   UNL     1     -46.608 -52.266  13.685  1.00  0.00    -0.000 C 
HETATM   10  C   UNL     1     -46.713 -51.705  12.264  1.00  0.00     0.011 C 
HETATM   11  C   UNL     1     -45.849 -53.598  13.633  1.00  0.00     0.011 C 
ENDBRANCH   7   9
ENDBRANCH   4   7
ENDBRANCH   1   3
BRANCH   1  12
HETATM   12  C   UNL     1     -41.619 -52.318  13.445  1.00  0.00     0.002 A 
HETATM   13  C   UNL     1     -40.957 -52.046  12.205  1.00  0.00     0.031 A 
HETATM   14  C   UNL     1     -40.557 -50.740  11.617  1.00  0.00     0.070 C 
HETATM   15  N   UNL     1     -40.688 -53.165  11.526  1.00  0.00    -0.304 N 
HETATM   16  N   UNL     1     -41.177 -54.141  12.294  1.00  0.00    -0.304 N 
ATOM     17  HN  UNL     1     -40.216 -53.253  10.626  1.00  0.00     0.186 HD
HETATM   18  C   UNL     1     -41.724 -53.704  13.469  1.00  0.00     0.031 A 
HETATM   19  H   UNL     1     -41.099 -55.093  11.956  1.00  0.00     0.186 HD
HETATM   20  C   UNL     1     -42.272 -54.666  14.450  1.00  0.00     0.070 C 
ENDBRANCH   1  12
TORSDOF 4
ENDMDL
MODEL 6
REMARK VINA RESULT:      -5.3      3.661      4.962
REMARK  4 active torsions:
REMARK  status: ('A' for Active; 'I' for Inactive)
REMARK    1  A    between atoms: C_2  and  C_4 
REMARK    2  A    between atoms: C_4  and  N_6 
REMARK       I    between atoms: N_6  and  C_7 
REMARK    3  A    between atoms: C_7  and  C_9 
REMARK    4  A    between atoms: C_9  and  C_11 
ROOT
HETATM    1  C   UNL     1     -42.752 -54.029  14.904  1.00  0.00     0.110 C 
HETATM    2  C   UNL     1     -43.627 -55.282  14.905  1.00  0.00     0.025 C 
ENDROOT
BRANCH   1   3
HETATM    3  C   UNL     1     -43.332 -52.856  15.710  1.00  0.00     0.226 C 
HETATM    4  N   UNL     1     -44.674 -52.929  16.015  1.00  0.00    -0.356 N 
HETATM    5  H   UNL     1     -45.181 -53.781  15.820  1.00  0.00     0.162 HD
HETATM    6  O   UNL     1     -42.637 -51.891  16.033  1.00  0.00    -0.273 OA
BRANCH   4   7
HETATM    7  C   UNL     1     -45.362 -51.912  16.806  1.00  0.00     0.083 C 
HETATM    8  C   UNL     1     -45.798 -52.527  18.140  1.00  0.00     0.032 C 
BRANCH   7   9
HETATM    9  C   UNL     1     -46.558 -51.331  16.006  1.00  0.00    -0.000 C 
HETATM   10  C   UNL     1     -46.959 -52.225  14.829  1.00  0.00     0.011 C 
HETATM   11  C   UNL     1     -47.785 -51.118  16.902  1.00  0.00     0.011 C 
ENDBRANCH   7   9
ENDBRANCH   4   7
ENDBRANCH   1   3
BRANCH   1  12
HETATM   12  C   UNL     1     -42.306 -53.570  13.538  1.00  0.00     0.002 A 
HETATM   13  C   UNL     1     -40.964 -53.599  13.038  1.00  0.00     0.031 A 
HETATM   14  C   UNL     1     -39.723 -54.084  13.697  1.00  0.00     0.070 C 
HETATM   15  N   UNL     1     -40.882 -53.108  11.797  1.00  0.00    -0.304 N 
HETATM   16  N   UNL     1     -42.134 -52.751  11.502  1.00  0.00    -0.304 N 
ATOM     17  HN  UNL     1     -40.053 -53.026  11.210  1.00  0.00     0.186 HD
HETATM   18  C   UNL     1     -43.039 -53.024  12.491  1.00  0.00     0.031 A 
HETATM   19  H   UNL     1     -42.305 -52.326  10.598  1.00  0.00     0.186 HD
HETATM   20  C   UNL     1     -44.476 -52.726  12.303  1.00  0.00     0.070 C 
ENDBRANCH   1  12
TORSDOF 4
ENDMDL
MODEL 7
REMARK VINA RESULT:      -5.2      3.667      4.654
REMARK  4 active torsions:
REMARK  status: ('A' for Active; 'I' for Inactive)
REMARK    1  A    between atoms: C_2  and  C_4 
REMARK    2  A    between atoms: C_4  and  N_6 
REMARK       I    between atoms: N_6  and  C_7 
REMARK    3  A    between atoms: C_7  and  C_9 
REMARK    4  A    between atoms: C_9  and  C_11 
ROOT
HETATM    1  C   UNL     1     -43.051 -54.237  14.760  1.00  0.00     0.110 C 
HETATM    2  C   UNL     1     -44.149 -55.267  14.499  1.00  0.00     0.025 C 
ENDROOT
BRANCH   1   3
HETATM    3  C   UNL     1     -43.472 -53.094  15.698  1.00  0.00     0.226 C 
HETATM    4  N   UNL     1     -44.824 -52.957  15.925  1.00  0.00    -0.356 N 
HETATM    5  H   UNL     1     -45.458 -53.667  15.586  1.00  0.00     0.162 HD
HETATM    6  O   UNL     1     -42.643 -52.326  16.189  1.00  0.00    -0.273 OA
BRANCH   4   7
HETATM    7  C   UNL     1     -45.378 -51.944  16.821  1.00  0.00     0.083 C 
HETATM    8  C   UNL     1     -45.886 -52.628  18.095  1.00  0.00     0.032 C 
BRANCH   7   9
HETATM    9  C   UNL     1     -46.493 -51.143  16.098  1.00  0.00    -0.000 C 
HETATM   10  C   UNL     1     -46.799 -51.700  14.705  1.00  0.00     0.011 C 
HETATM   11  C   UNL     1     -47.791 -51.120  16.915  1.00  0.00     0.011 C 
ENDBRANCH   7   9
ENDBRANCH   4   7
ENDBRANCH   1   3
BRANCH   1  12
HETATM   12  C   UNL     1     -42.385 -53.693  13.521  1.00  0.00     0.002 A 
HETATM   13  C   UNL     1     -43.040 -53.017  12.442  1.00  0.00     0.031 A 
HETATM   14  C   UNL     1     -44.478 -52.676  12.278  1.00  0.00     0.070 C 
HETATM   15  N   UNL     1     -42.183 -52.669  11.476  1.00  0.00    -0.304 N 
HETATM   16  N   UNL     1     -41.003 -53.122  11.906  1.00  0.00    -0.304 N 
ATOM     17  HN  UNL     1     -42.385 -52.171  10.610  1.00  0.00     0.186 HD
HETATM   18  C   UNL     1     -41.050 -53.721  13.135  1.00  0.00     0.031 A 
HETATM   19  H   UNL     1     -40.197 -52.983  11.308  1.00  0.00     0.186 HD
HETATM   20  C   UNL     1     -39.818 -54.239  13.770  1.00  0.00     0.070 C 
ENDBRANCH   1  12
TORSDOF 4
ENDMDL
MODEL 8
REMARK VINA RESULT:      -5.1      2.567      3.485
REMARK  4 active torsions:
REMARK  status: ('A' for Active; 'I' for Inactive)
REMARK    1  A    between atoms: C_2  and  C_4 
REMARK    2  A    between atoms: C_4  and  N_6 
REMARK       I    between atoms: N_6  and  C_7 
REMARK    3  A    between atoms: C_7  and  C_9 
REMARK    4  A    between atoms: C_9  and  C_11 
ROOT
HETATM    1  C   UNL     1     -42.034 -51.544  14.785  1.00  0.00     0.110 C 
HETATM    2  C   UNL     1     -41.949 -52.805  15.644  1.00  0.00     0.025 C 
ENDROOT
BRANCH   1   3
HETATM    3  C   UNL     1     -43.393 -50.829  14.850  1.00  0.00     0.226 C 
HETATM    4  N   UNL     1     -44.458 -51.582  15.296  1.00  0.00    -0.356 N 
HETATM    5  H   UNL     1     -44.290 -52.503  15.675  1.00  0.00     0.162 HD
HETATM    6  O   UNL     1     -43.522 -49.657  14.491  1.00  0.00    -0.273 OA
BRANCH   4   7
HETATM    7  C   UNL     1     -45.805 -51.035  15.450  1.00  0.00     0.083 C 
HETATM    8  C   UNL     1     -46.221 -51.139  16.921  1.00  0.00     0.032 C 
BRANCH   7   9
HETATM    9  C   UNL     1     -46.792 -51.771  14.505  1.00  0.00    -0.000 C 
HETATM   10  C   UNL     1     -46.475 -51.523  13.027  1.00  0.00     0.011 C 
HETATM   11  C   UNL     1     -46.794 -53.283  14.761  1.00  0.00     0.011 C 
ENDBRANCH   7   9
ENDBRANCH   4   7
ENDBRANCH   1   3
BRANCH   1  12
HETATM   12  C   UNL     1     -41.593 -51.722  13.354  1.00  0.00     0.002 A 
HETATM   13  C   UNL     1     -42.176 -52.616  12.399  1.00  0.00     0.031 A 
HETATM   14  C   UNL     1     -43.325 -53.545  12.557  1.00  0.00     0.070 C 
HETATM   15  N   UNL     1     -41.553 -52.560  11.217  1.00  0.00    -0.304 N 
HETATM   16  N   UNL     1     -40.579 -51.666  11.401  1.00  0.00    -0.304 N 
ATOM     17  HN  UNL     1     -41.773 -53.081  10.368  1.00  0.00     0.186 HD
HETATM   18  C   UNL     1     -40.564 -51.108  12.649  1.00  0.00     0.031 A 
HETATM   19  H   UNL     1     -39.956 -51.478  10.624  1.00  0.00     0.186 HD
HETATM   20  C   UNL     1     -39.571 -50.068  12.999  1.00  0.00     0.070 C 
ENDBRANCH   1  12
TORSDOF 4
ENDMDL
MODEL 9
REMARK VINA RESULT:      -5.0      1.880      2.701
REMARK  4 active torsions:
REMARK  status: ('A' for Active; 'I' for Inactive)
REMARK    1  A    between atoms: C_2  and  C_4 
REMARK    2  A    between atoms: C_4  and  N_6 
REMARK       I    between atoms: N_6  and  C_7 
REMARK    3  A    between atoms: C_7  and  C_9 
REMARK    4  A    between atoms: C_9  and  C_11 
ROOT
HETATM    1  C   UNL     1     -42.543 -49.410  13.418  1.00  0.00     0.110 C 
HETATM    2  C   UNL     1     -41.640 -49.165  14.627  1.00  0.00     0.025 C 
ENDROOT
BRANCH   1   3
HETATM    3  C   UNL     1     -43.435 -50.655  13.542  1.00  0.00     0.226 C 
HETATM    4  N   UNL     1     -42.894 -51.728  14.217  1.00  0.00    -0.356 N 
HETATM    5  H   UNL     1     -42.016 -51.617  14.703  1.00  0.00     0.162 HD
HETATM    6  O   UNL     1     -44.556 -50.697  13.034  1.00  0.00    -0.273 OA
BRANCH   4   7
HETATM    7  C   UNL     1     -43.630 -52.969  14.450  1.00  0.00     0.083 C 
HETATM    8  C   UNL     1     -44.219 -52.942  15.864  1.00  0.00     0.032 C 
BRANCH   7   9
HETATM    9  C   UNL     1     -42.702 -54.192  14.221  1.00  0.00    -0.000 C 
HETATM   10  C   UNL     1     -41.221 -53.834  14.371  1.00  0.00     0.011 C 
HETATM   11  C   UNL     1     -43.032 -55.338  15.187  1.00  0.00     0.011 C 
ENDBRANCH   7   9
ENDBRANCH   4   7
ENDBRANCH   1   3
BRANCH   1  12
HETATM   12  C   UNL     1     -41.838 -49.387  12.086  1.00  0.00     0.002 A 
HETATM   13  C   UNL     1     -42.166 -48.546  10.975  1.00  0.00     0.031 A 
HETATM   14  C   UNL     1     -43.227 -47.510  10.857  1.00  0.00     0.070 C 
HETATM   15  N   UNL     1     -41.370 -48.770   9.924  1.00  0.00    -0.304 N 
HETATM   16  N   UNL     1     -40.555 -49.745  10.333  1.00  0.00    -0.304 N 
ATOM     17  HN  UNL     1     -41.382 -48.303   9.018  1.00  0.00     0.186 HD
HETATM   18  C   UNL     1     -40.765 -50.141  11.626  1.00  0.00     0.031 A 
HETATM   19  H   UNL     1     -39.867 -50.095   9.676  1.00  0.00     0.186 HD
HETATM   20  C   UNL     1     -39.917 -51.184  12.243  1.00  0.00     0.070 C 
ENDBRANCH   1  12
TORSDOF 4
ENDMDL
