MODEL 1
REMARK VINA RESULT:      -7.1      0.000      0.000
REMARK  7 active torsions:
REMARK  status: ('A' for Active; 'I' for Inactive)
REMARK    1  A    between atoms: N_2  and  C1*_4 
REMARK    2  A    between atoms: C_7  and  N_15 
REMARK    3  A    between atoms: C2*_12  and  O2*_21 
REMARK       I    between atoms: N_15  and  C_18 
REMARK    4  A    between atoms: C3*_16  and  O3*_23 
REMARK    5  A    between atoms: C4*_17  and  C5*_24 
REMARK    6  A    between atoms: C_18  and  C_22 
REMARK    7  A    between atoms: C5*_24  and  O5*_25 
ROOT
HETATM    1  C   UNL     1     -41.038 -48.947  11.712  1.00  0.00     0.159 A 
HETATM    2  N   UNL     1     -41.170 -47.583  11.728  1.00  0.00    -0.297 N 
HETATM    3  C   UNL     1     -39.672 -49.154  11.697  1.00  0.00     0.147 A 
HETATM    4  N   UNL     1     -42.026 -49.885  11.763  1.00  0.00    -0.173 N 
ATOM      5  HN  UNL     1     -43.022 -49.662  11.763  1.00  0.00     0.186 HD
HETATM    6  C   UNL     1     -41.555 -51.103  11.814  1.00  0.00     0.689 A 
HETATM    7  N   UNL     1     -40.215 -51.421  11.783  1.00  0.00    -0.154 N 
HETATM    8  N   UNL     1     -38.971 -47.980  11.710  1.00  0.00    -0.345 N 
ATOM      9  HN  UNL     1     -37.958 -47.854  11.694  1.00  0.00     0.167 HD
HETATM   10  C   UNL     1     -39.179 -50.510  11.721  1.00  0.00     0.290 A 
HETATM   11  C   UNL     1     -39.898 -47.051  11.747  1.00  0.00     0.188 A 
HETATM   12  O   UNL     1     -38.004 -50.843  11.697  1.00  0.00    -0.265 OA
HETATM   13  H   UNL     1     -39.939 -52.399  11.822  1.00  0.00     0.187 HD
ENDROOT
BRANCH   2  14
HETATM   14  C1* UNL     1     -42.354 -46.757  11.782  1.00  0.00     0.262 C 
HETATM   15  C2* UNL     1     -42.303 -45.354  11.177  1.00  0.00     0.198 C 
HETATM   16  C3* UNL     1     -42.931 -45.521   9.794  1.00  0.00     0.182 C 
HETATM   17  C4* UNL     1     -43.627 -46.884   9.822  1.00  0.00     0.179 C 
HETATM   18  O4* UNL     1     -43.421 -47.465  11.127  1.00  0.00    -0.353 OA
BRANCH  15  19
HETATM   19  O2* UNL     1     -43.079 -44.419  11.959  1.00  0.00    -0.388 OA
HETATM   20  H2* UNL     1     -43.510 -43.779  11.364  1.00  0.00     0.210 HD
ENDBRANCH  15  19
BRANCH  16  21
HETATM   21  O3* UNL     1     -43.875 -44.490   9.494  1.00  0.00    -0.390 OA
HETATM   22  H3* UNL     1     -44.032 -43.989  10.314  1.00  0.00     0.210 HD
ENDBRANCH  16  21
BRANCH  17  23
HETATM   23  C5* UNL     1     -43.079 -47.833   8.746  1.00  0.00     0.198 C 
BRANCH  23  24
HETATM   24  O5* UNL     1     -43.079 -47.198   7.470  1.00  0.00    -0.398 OA
HETATM   25  H5* UNL     1     -42.549 -47.768   6.881  1.00  0.00     0.209 HD
ENDBRANCH  23  24
ENDBRANCH  17  23
ENDBRANCH   2  14
BRANCH   6  26
HETATM   26  N   UNL     1     -42.431 -52.165  11.918  1.00  0.00    -0.159 N 
HETATM   27  C   UNL     1     -43.315 -52.370  12.967  1.00  0.00     0.239 C 
HETATM   28  O   UNL     1     -43.372 -51.605  13.931  1.00  0.00    -0.272 OA
HETATM   29  H   UNL     1     -42.418 -52.816  11.144  1.00  0.00     0.187 HD
BRANCH  27  30
HETATM   30  C   UNL     1     -44.247 -53.573  12.848  1.00  0.00     0.070 C 
HETATM   31  C   UNL     1     -44.015 -54.583  13.966  1.00  0.00     0.019 C 
HETATM   32  C   UNL     1     -45.703 -53.092  12.881  1.00  0.00     0.019 C 
ENDBRANCH  27  30
ENDBRANCH   6  26
TORSDOF 7
ENDMDL
MODEL 2
REMARK VINA RESULT:      -7.0      2.225      6.228
REMARK  7 active torsions:
REMARK  status: ('A' for Active; 'I' for Inactive)
REMARK    1  A    between atoms: N_2  and  C1*_4 
REMARK    2  A    between atoms: C_7  and  N_15 
REMARK    3  A    between atoms: C2*_12  and  O2*_21 
REMARK       I    between atoms: N_15  and  C_18 
REMARK    4  A    between atoms: C3*_16  and  O3*_23 
REMARK    5  A    between atoms: C4*_17  and  C5*_24 
REMARK    6  A    between atoms: C_18  and  C_22 
REMARK    7  A    between atoms: C5*_24  and  O5*_25 
ROOT
HETATM    1  C   UNL     1     -41.050 -49.460  11.596  1.00  0.00     0.159 A 
HETATM    2  N   UNL     1     -40.336 -50.582  11.926  1.00  0.00    -0.297 N 
HETATM    3  C   UNL     1     -40.090 -48.475  11.463  1.00  0.00     0.147 A 
HETATM    4  N   UNL     1     -42.393 -49.353  11.386  1.00  0.00    -0.173 N 
ATOM      5  HN  UNL     1     -43.051 -50.123  11.513  1.00  0.00     0.186 HD
HETATM    6  C   UNL     1     -42.744 -48.153  11.005  1.00  0.00     0.689 A 
HETATM    7  N   UNL     1     -41.873 -47.097  10.861  1.00  0.00    -0.154 N 
HETATM    8  N   UNL     1     -38.827 -48.950  11.690  1.00  0.00    -0.345 N 
ATOM      9  HN  UNL     1     -37.949 -48.431  11.665  1.00  0.00     0.167 HD
HETATM   10  C   UNL     1     -40.509 -47.151  11.072  1.00  0.00     0.290 A 
HETATM   11  C   UNL     1     -39.004 -50.225  11.948  1.00  0.00     0.188 A 
HETATM   12  O   UNL     1     -39.777 -46.183  10.930  1.00  0.00    -0.265 OA
HETATM   13  H   UNL     1     -42.236 -46.195  10.564  1.00  0.00     0.187 HD
ENDROOT
BRANCH   2  14
HETATM   14  C1* UNL     1     -40.776 -51.938  12.161  1.00  0.00     0.262 C 
HETATM   15  C2* UNL     1     -40.044 -52.781  13.203  1.00  0.00     0.198 C 
HETATM   16  C3* UNL     1     -40.918 -52.673  14.452  1.00  0.00     0.182 C 
HETATM   17  C4* UNL     1     -42.253 -52.101  13.969  1.00  0.00     0.179 C 
HETATM   18  O4* UNL     1     -42.162 -51.896  12.544  1.00  0.00    -0.353 OA
BRANCH  15  19
HETATM   19  O2* UNL     1     -39.951 -54.163  12.788  1.00  0.00    -0.388 OA
HETATM   20  H2* UNL     1     -40.526 -54.709  13.352  1.00  0.00     0.210 HD
ENDBRANCH  15  19
BRANCH  16  21
HETATM   21  O3* UNL     1     -41.123 -53.937  15.088  1.00  0.00    -0.390 OA
HETATM   22  H3* UNL     1     -40.829 -54.628  14.468  1.00  0.00     0.210 HD
ENDBRANCH  16  21
BRANCH  17  23
HETATM   23  C5* UNL     1     -42.593 -50.772  14.658  1.00  0.00     0.198 C 
BRANCH  23  24
HETATM   24  O5* UNL     1     -43.664 -50.117  13.984  1.00  0.00    -0.398 OA
HETATM   25  H5* UNL     1     -44.258 -49.774  14.679  1.00  0.00     0.209 HD
ENDBRANCH  23  24
ENDBRANCH  17  23
ENDBRANCH   2  14
BRANCH   6  26
HETATM   26  N   UNL     1     -44.067 -47.897  10.705  1.00  0.00    -0.159 N 
HETATM   27  C   UNL     1     -44.558 -47.617   9.439  1.00  0.00     0.239 C 
HETATM   28  O   UNL     1     -43.821 -47.550   8.454  1.00  0.00    -0.272 OA
HETATM   29  H   UNL     1     -44.706 -47.947  11.487  1.00  0.00     0.187 HD
BRANCH  27  30
HETATM   30  C   UNL     1     -46.069 -47.436   9.318  1.00  0.00     0.070 C 
HETATM   31  C   UNL     1     -46.431 -46.092   8.696  1.00  0.00     0.019 C 
HETATM   32  C   UNL     1     -46.650 -48.572   8.465  1.00  0.00     0.019 C 
ENDBRANCH  27  30
ENDBRANCH   6  26
TORSDOF 7
ENDMDL
MODEL 3
REMARK VINA RESULT:      -6.9      1.998      6.472
REMARK  7 active torsions:
REMARK  status: ('A' for Active; 'I' for Inactive)
REMARK    1  A    between atoms: N_2  and  C1*_4 
REMARK    2  A    between atoms: C_7  and  N_15 
REMARK    3  A    between atoms: C2*_12  and  O2*_21 
REMARK       I    between atoms: N_15  and  C_18 
REMARK    4  A    between atoms: C3*_16  and  O3*_23 
REMARK    5  A    between atoms: C4*_17  and  C5*_24 
REMARK    6  A    between atoms: C_18  and  C_22 
REMARK    7  A    between atoms: C5*_24  and  O5*_25 
ROOT
HETATM    1  C   UNL     1     -41.634 -52.005  12.495  1.00  0.00     0.159 A 
HETATM    2  N   UNL     1     -42.409 -53.040  12.946  1.00  0.00    -0.297 N 
HETATM    3  C   UNL     1     -40.357 -52.333  12.908  1.00  0.00     0.147 A 
HETATM    4  N   UNL     1     -42.023 -50.928  11.753  1.00  0.00    -0.173 N 
ATOM      5  HN  UNL     1     -42.990 -50.740  11.489  1.00  0.00     0.186 HD
HETATM    6  C   UNL     1     -41.016 -50.165  11.418  1.00  0.00     0.689 A 
HETATM    7  N   UNL     1     -39.711 -50.388  11.793  1.00  0.00    -0.154 N 
HETATM    8  N   UNL     1     -40.322 -53.522  13.583  1.00  0.00    -0.345 N 
ATOM      9  HN  UNL     1     -39.512 -53.983  13.999  1.00  0.00     0.167 HD
HETATM   10  C   UNL     1     -39.269 -51.455  12.551  1.00  0.00     0.290 A 
HETATM   11  C   UNL     1     -41.569 -53.934  13.575  1.00  0.00     0.188 A 
HETATM   12  O   UNL     1     -38.097 -51.610  12.859  1.00  0.00    -0.265 OA
HETATM   13  H   UNL     1     -38.991 -49.737  11.490  1.00  0.00     0.187 HD
ENDROOT
BRANCH   2  14
HETATM   14  C1* UNL     1     -43.825 -53.286  12.796  1.00  0.00     0.262 C 
HETATM   15  C2* UNL     1     -44.531 -54.183  13.812  1.00  0.00     0.198 C 
HETATM   16  C3* UNL     1     -45.180 -53.203  14.788  1.00  0.00     0.182 C 
HETATM   17  C4* UNL     1     -45.130 -51.840  14.094  1.00  0.00     0.179 C 
HETATM   18  O4* UNL     1     -44.501 -52.016  12.807  1.00  0.00    -0.353 OA
BRANCH  15  19
HETATM   19  O2* UNL     1     -45.548 -54.992  13.179  1.00  0.00    -0.388 OA
HETATM   20  H2* UNL     1     -45.299 -55.155  12.252  1.00  0.00     0.210 HD
ENDBRANCH  15  19
BRANCH  16  21
HETATM   21  O3* UNL     1     -46.532 -53.552  15.096  1.00  0.00    -0.390 OA
HETATM   22  H3* UNL     1     -47.035 -53.537  14.262  1.00  0.00     0.210 HD
ENDBRANCH  16  21
BRANCH  17  23
HETATM   23  C5* UNL     1     -44.344 -50.805  14.911  1.00  0.00     0.198 C 
BRANCH  23  24
HETATM   24  O5* UNL     1     -43.749 -49.835  14.054  1.00  0.00    -0.398 OA
HETATM   25  H5* UNL     1     -43.182 -49.278  14.621  1.00  0.00     0.209 HD
ENDBRANCH  23  24
ENDBRANCH  17  23
ENDBRANCH   2  14
BRANCH   6  26
HETATM   26  N   UNL     1     -41.240 -49.058  10.623  1.00  0.00    -0.159 N 
HETATM   27  C   UNL     1     -42.308 -48.183  10.755  1.00  0.00     0.239 C 
HETATM   28  O   UNL     1     -43.182 -48.346  11.608  1.00  0.00    -0.272 OA
HETATM   29  H   UNL     1     -40.542 -48.887   9.912  1.00  0.00     0.187 HD
BRANCH  27  30
HETATM   30  C   UNL     1     -42.325 -46.982   9.814  1.00  0.00     0.070 C 
HETATM   31  C   UNL     1     -43.413 -47.106   8.754  1.00  0.00     0.019 C 
HETATM   32  C   UNL     1     -42.545 -45.701  10.631  1.00  0.00     0.019 C 
ENDBRANCH  27  30
ENDBRANCH   6  26
TORSDOF 7
ENDMDL
MODEL 4
REMARK VINA RESULT:      -6.9      1.877      2.388
REMARK  7 active torsions:
REMARK  status: ('A' for Active; 'I' for Inactive)
REMARK    1  A    between atoms: N_2  and  C1*_4 
REMARK    2  A    between atoms: C_7  and  N_15 
REMARK    3  A    between atoms: C2*_12  and  O2*_21 
REMARK       I    between atoms: N_15  and  C_18 
REMARK    4  A    between atoms: C3*_16  and  O3*_23 
REMARK    5  A    between atoms: C4*_17  and  C5*_24 
REMARK    6  A    between atoms: C_18  and  C_22 
REMARK    7  A    between atoms: C5*_24  and  O5*_25 
ROOT
HETATM    1  C   UNL     1     -41.425 -50.021  12.461  1.00  0.00     0.159 A 
HETATM    2  N   UNL     1     -40.644 -48.913  12.266  1.00  0.00    -0.297 N 
HETATM    3  C   UNL     1     -40.605 -51.079  12.119  1.00  0.00     0.147 A 
HETATM    4  N   UNL     1     -42.700 -50.073  12.943  1.00  0.00    -0.173 N 
ATOM      5  HN  UNL     1     -43.256 -49.248  13.168  1.00  0.00     0.186 HD
HETATM    6  C   UNL     1     -43.130 -51.299  13.083  1.00  0.00     0.689 A 
HETATM    7  N   UNL     1     -42.403 -52.421  12.754  1.00  0.00    -0.154 N 
HETATM    8  N   UNL     1     -39.360 -50.663  11.731  1.00  0.00    -0.345 N 
ATOM      9  HN  UNL     1     -38.576 -51.237  11.423  1.00  0.00     0.167 HD
HETATM   10  C   UNL     1     -41.116 -52.421  12.253  1.00  0.00     0.290 A 
HETATM   11  C   UNL     1     -39.406 -49.356  11.847  1.00  0.00     0.188 A 
HETATM   12  O   UNL     1     -40.512 -53.446  11.976  1.00  0.00    -0.265 OA
HETATM   13  H   UNL     1     -42.820 -53.338  12.892  1.00  0.00     0.187 HD
ENDROOT
BRANCH   2  14
HETATM   14  C1* UNL     1     -40.929 -47.514  12.485  1.00  0.00     0.262 C 
HETATM   15  C2* UNL     1     -40.181 -46.469  11.657  1.00  0.00     0.198 C 
HETATM   16  C3* UNL     1     -41.157 -46.114  10.536  1.00  0.00     0.182 C 
HETATM   17  C4* UNL     1     -42.511 -46.675  10.977  1.00  0.00     0.179 C 
HETATM   18  O4* UNL     1     -42.335 -47.306  12.262  1.00  0.00    -0.353 OA
BRANCH  15  19
HETATM   19  O2* UNL     1     -39.886 -45.292  12.442  1.00  0.00    -0.388 OA
HETATM   20  H2* UNL     1     -40.048 -45.483  13.383  1.00  0.00     0.210 HD
ENDBRANCH  15  19
BRANCH  16  21
HETATM   21  O3* UNL     1     -41.253 -44.703  10.320  1.00  0.00    -0.390 OA
HETATM   22  H3* UNL     1     -42.153 -44.517   9.998  1.00  0.00     0.210 HD
ENDBRANCH  16  21
BRANCH  17  23
HETATM   23  C5* UNL     1     -43.066 -47.696   9.975  1.00  0.00     0.198 C 
BRANCH  23  24
HETATM   24  O5* UNL     1     -42.007 -48.302   9.238  1.00  0.00    -0.398 OA
HETATM   25  H5* UNL     1     -41.813 -49.149   9.683  1.00  0.00     0.209 HD
ENDBRANCH  23  24
ENDBRANCH  17  23
ENDBRANCH   2  14
BRANCH   6  26
HETATM   26  N   UNL     1     -44.387 -51.521  13.608  1.00  0.00    -0.159 N 
HETATM   27  C   UNL     1     -45.294 -52.460  13.140  1.00  0.00     0.239 C 
HETATM   28  O   UNL     1     -45.046 -53.178  12.170  1.00  0.00    -0.272 OA
HETATM   29  H   UNL     1     -44.629 -50.953  14.410  1.00  0.00     0.187 HD
BRANCH  27  30
HETATM   30  C   UNL     1     -46.603 -52.589  13.913  1.00  0.00     0.070 C 
HETATM   31  C   UNL     1     -46.643 -53.859  14.754  1.00  0.00     0.019 C 
HETATM   32  C   UNL     1     -46.779 -51.364  14.821  1.00  0.00     0.019 C 
ENDBRANCH  27  30
ENDBRANCH   6  26
TORSDOF 7
ENDMDL
MODEL 5
REMARK VINA RESULT:      -6.7      1.912      3.079
REMARK  7 active torsions:
REMARK  status: ('A' for Active; 'I' for Inactive)
REMARK    1  A    between atoms: N_2  and  C1*_4 
REMARK    2  A    between atoms: C_7  and  N_15 
REMARK    3  A    between atoms: C2*_12  and  O2*_21 
REMARK       I    between atoms: N_15  and  C_18 
REMARK    4  A    between atoms: C3*_16  and  O3*_23 
REMARK    5  A    between atoms: C4*_17  and  C5*_24 
REMARK    6  A    between atoms: C_18  and  C_22 
REMARK    7  A    between atoms: C5*_24  and  O5*_25 
ROOT
HETATM    1  C   UNL     1     -40.822 -50.593  11.899  1.00  0.00     0.159 A 
HETATM    2  N   UNL     1     -40.150 -49.493  11.435  1.00  0.00    -0.297 N 
HETATM    3  C   UNL     1     -39.823 -51.435  12.349  1.00  0.00     0.147 A 
HETATM    4  N   UNL     1     -42.170 -50.786  11.962  1.00  0.00    -0.173 N 
ATOM      5  HN  UNL     1     -42.856 -50.124  11.601  1.00  0.00     0.186 HD
HETATM    6  C   UNL     1     -42.485 -51.917  12.537  1.00  0.00     0.689 A 
HETATM    7  N   UNL     1     -41.570 -52.836  13.001  1.00  0.00    -0.154 N 
HETATM    8  N   UNL     1     -38.577 -50.894  12.184  1.00  0.00    -0.345 N 
ATOM      9  HN  UNL     1     -37.677 -51.310  12.422  1.00  0.00     0.167 HD
HETATM   10  C   UNL     1     -40.197 -52.692  12.951  1.00  0.00     0.290 A 
HETATM   11  C   UNL     1     -38.806 -49.716  11.648  1.00  0.00     0.188 A 
HETATM   12  O   UNL     1     -39.426 -53.537  13.377  1.00  0.00    -0.265 OA
HETATM   13  H   UNL     1     -41.906 -53.693  13.431  1.00  0.00     0.187 HD
ENDROOT
BRANCH   2  14
HETATM   14  C1* UNL     1     -40.647 -48.258  10.873  1.00  0.00     0.262 C 
HETATM   15  C2* UNL     1     -42.128 -48.157  10.508  1.00  0.00     0.198 C 
HETATM   16  C3* UNL     1     -42.758 -47.439  11.700  1.00  0.00     0.182 C 
HETATM   17  C4* UNL     1     -41.587 -46.852  12.491  1.00  0.00     0.179 C 
HETATM   18  O4* UNL     1     -40.366 -47.200  11.806  1.00  0.00    -0.353 OA
BRANCH  15  19
HETATM   19  O2* UNL     1     -42.318 -47.376   9.307  1.00  0.00    -0.388 OA
HETATM   20  H2* UNL     1     -43.073 -47.733   8.806  1.00  0.00     0.210 HD
ENDBRANCH  15  19
BRANCH  16  21
HETATM   21  O3* UNL     1     -43.656 -46.400  11.301  1.00  0.00    -0.390 OA
HETATM   22  H3* UNL     1     -43.259 -45.551  11.569  1.00  0.00     0.210 HD
ENDBRANCH  16  21
BRANCH  17  23
HETATM   23  C5* UNL     1     -41.538 -47.385  13.930  1.00  0.00     0.198 C 
BRANCH  23  24
HETATM   24  O5* UNL     1     -42.435 -48.480  14.090  1.00  0.00    -0.398 OA
HETATM   25  H5* UNL     1     -43.117 -48.380  13.398  1.00  0.00     0.209 HD
ENDBRANCH  23  24
ENDBRANCH  17  23
ENDBRANCH   2  14
BRANCH   6  26
HETATM   26  N   UNL     1     -43.816 -52.236  12.721  1.00  0.00    -0.159 N 
HETATM   27  C   UNL     1     -44.716 -51.500  13.476  1.00  0.00     0.239 C 
HETATM   28  O   UNL     1     -44.380 -50.481  14.081  1.00  0.00    -0.272 OA
HETATM   29  H   UNL     1     -44.133 -53.065  12.237  1.00  0.00     0.187 HD
BRANCH  27  30
HETATM   30  C   UNL     1     -46.160 -51.994  13.488  1.00  0.00     0.070 C 
HETATM   31  C   UNL     1     -46.943 -51.433  14.669  1.00  0.00     0.019 C 
HETATM   32  C   UNL     1     -46.846 -51.589  12.175  1.00  0.00     0.019 C 
ENDBRANCH  27  30
ENDBRANCH   6  26
TORSDOF 7
ENDMDL
MODEL 6
REMARK VINA RESULT:      -6.1      4.069      8.335
REMARK  7 active torsions:
REMARK  status: ('A' for Active; 'I' for Inactive)
REMARK    1  A    between atoms: N_2  and  C1*_4 
REMARK    2  A    between atoms: C_7  and  N_15 
REMARK    3  A    between atoms: C2*_12  and  O2*_21 
REMARK       I    between atoms: N_15  and  C_18 
REMARK    4  A    between atoms: C3*_16  and  O3*_23 
REMARK    5  A    between atoms: C4*_17  and  C5*_24 
REMARK    6  A    between atoms: C_18  and  C_22 
REMARK    7  A    between atoms: C5*_24  and  O5*_25 
ROOT
HETATM    1  C   UNL     1     -42.325 -44.608  12.314  1.00  0.00     0.159 A 
HETATM    2  N   UNL     1     -42.349 -45.916  11.908  1.00  0.00    -0.297 N 
HETATM    3  C   UNL     1     -42.883 -44.636  13.578  1.00  0.00     0.147 A 
HETATM    4  N   UNL     1     -41.812 -43.533  11.650  1.00  0.00    -0.173 N 
ATOM      5  HN  UNL     1     -41.421 -43.581  10.709  1.00  0.00     0.186 HD
HETATM    6  C   UNL     1     -41.876 -42.434  12.355  1.00  0.00     0.689 A 
HETATM    7  N   UNL     1     -42.430 -42.348  13.613  1.00  0.00    -0.154 N 
HETATM    8  N   UNL     1     -43.237 -45.901  13.958  1.00  0.00    -0.345 N 
ATOM      9  HN  UNL     1     -43.674 -46.193  14.833  1.00  0.00     0.167 HD
HETATM   10  C   UNL     1     -42.971 -43.403  14.322  1.00  0.00     0.290 A 
HETATM   11  C   UNL     1     -42.888 -46.654  12.941  1.00  0.00     0.188 A 
HETATM   12  O   UNL     1     -43.451 -43.275  15.438  1.00  0.00    -0.265 OA
HETATM   13  H   UNL     1     -42.441 -41.449  14.087  1.00  0.00     0.187 HD
ENDROOT
BRANCH   2  14
HETATM   14  C1* UNL     1     -41.872 -46.528  10.689  1.00  0.00     0.262 C 
HETATM   15  C2* UNL     1     -42.440 -47.884  10.272  1.00  0.00     0.198 C 
HETATM   16  C3* UNL     1     -43.515 -47.539   9.243  1.00  0.00     0.182 C 
HETATM   17  C4* UNL     1     -43.260 -46.079   8.858  1.00  0.00     0.179 C 
HETATM   18  O4* UNL     1     -42.118 -45.613   9.606  1.00  0.00    -0.353 OA
BRANCH  15  19
HETATM   19  O2* UNL     1     -41.424 -48.712   9.662  1.00  0.00    -0.388 OA
HETATM   20  H2* UNL     1     -40.894 -48.172   9.048  1.00  0.00     0.210 HD
ENDBRANCH  15  19
BRANCH  16  21
HETATM   21  O3* UNL     1     -43.452 -48.374   8.084  1.00  0.00    -0.390 OA
HETATM   22  H3* UNL     1     -44.356 -48.451   7.729  1.00  0.00     0.210 HD
ENDBRANCH  16  21
BRANCH  17  23
HETATM   23  C5* UNL     1     -44.471 -45.184   9.158  1.00  0.00     0.198 C 
BRANCH  23  24
HETATM   24  O5* UNL     1     -44.046 -43.890   9.576  1.00  0.00    -0.398 OA
HETATM   25  H5* UNL     1     -44.818 -43.301   9.474  1.00  0.00     0.209 HD
ENDBRANCH  23  24
ENDBRANCH  17  23
ENDBRANCH   2  14
BRANCH   6  26
HETATM   26  N   UNL     1     -41.351 -41.266  11.839  1.00  0.00    -0.159 N 
HETATM   27  C   UNL     1     -42.096 -40.199  11.361  1.00  0.00     0.239 C 
HETATM   28  O   UNL     1     -43.328 -40.223  11.337  1.00  0.00    -0.272 OA
HETATM   29  H   UNL     1     -40.342 -41.205  11.845  1.00  0.00     0.187 HD
BRANCH  27  30
HETATM   30  C   UNL     1     -41.314 -38.972  10.901  1.00  0.00     0.070 C 
HETATM   31  C   UNL     1     -42.159 -37.705  10.958  1.00  0.00     0.019 C 
HETATM   32  C   UNL     1     -40.070 -38.803  11.784  1.00  0.00     0.019 C 
ENDBRANCH  27  30
ENDBRANCH   6  26
TORSDOF 7
ENDMDL
MODEL 7
REMARK VINA RESULT:      -6.0      5.406      8.644
REMARK  7 active torsions:
REMARK  status: ('A' for Active; 'I' for Inactive)
REMARK    1  A    between atoms: N_2  and  C1*_4 
REMARK    2  A    between atoms: C_7  and  N_15 
REMARK    3  A    between atoms: C2*_12  and  O2*_21 
REMARK       I    between atoms: N_15  and  C_18 
REMARK    4  A    between atoms: C3*_16  and  O3*_23 
REMARK    5  A    between atoms: C4*_17  and  C5*_24 
REMARK    6  A    between atoms: C_18  and  C_22 
REMARK    7  A    between atoms: C5*_24  and  O5*_25 
ROOT
HETATM    1  C   UNL     1     -41.706 -54.815  15.798  1.00  0.00     0.159 A 
HETATM    2  N   UNL     1     -41.834 -54.289  14.539  1.00  0.00    -0.297 N 
HETATM    3  C   UNL     1     -42.970 -54.697  16.344  1.00  0.00     0.147 A 
HETATM    4  N   UNL     1     -40.601 -55.383  16.361  1.00  0.00    -0.173 N 
ATOM      5  HN  UNL     1     -39.691 -55.429  15.903  1.00  0.00     0.186 HD
HETATM    6  C   UNL     1     -40.840 -55.862  17.553  1.00  0.00     0.689 A 
HETATM    7  N   UNL     1     -42.054 -55.779  18.197  1.00  0.00    -0.154 N 
HETATM    8  N   UNL     1     -43.859 -54.129  15.472  1.00  0.00    -0.345 N 
ATOM      9  HN  UNL     1     -44.845 -53.923  15.630  1.00  0.00     0.167 HD
HETATM   10  C   UNL     1     -43.198 -55.206  17.675  1.00  0.00     0.290 A 
HETATM   11  C   UNL     1     -43.152 -53.911  14.388  1.00  0.00     0.188 A 
HETATM   12  O   UNL     1     -44.254 -55.156  18.287  1.00  0.00    -0.265 OA
HETATM   13  H   UNL     1     -42.148 -56.175  19.128  1.00  0.00     0.187 HD
ENDROOT
BRANCH   2  14
HETATM   14  C1* UNL     1     -40.867 -54.164  13.473  1.00  0.00     0.262 C 
HETATM   15  C2* UNL     1     -40.996 -52.998  12.494  1.00  0.00     0.198 C 
HETATM   16  C3* UNL     1     -40.004 -51.959  13.017  1.00  0.00     0.182 C 
HETATM   17  C4* UNL     1     -39.118 -52.707  14.016  1.00  0.00     0.179 C 
HETATM   18  O4* UNL     1     -39.559 -54.080  14.066  1.00  0.00    -0.353 OA
BRANCH  15  19
HETATM   19  O2* UNL     1     -40.628 -53.397  11.154  1.00  0.00    -0.388 OA
HETATM   20  H2* UNL     1     -41.389 -53.273  10.559  1.00  0.00     0.210 HD
ENDBRANCH  15  19
BRANCH  16  21
HETATM   21  O3* UNL     1     -39.206 -51.391  11.975  1.00  0.00    -0.390 OA
HETATM   22  H3* UNL     1     -39.628 -51.616  11.127  1.00  0.00     0.210 HD
ENDBRANCH  16  21
BRANCH  17  23
HETATM   23  C5* UNL     1     -39.189 -52.093  15.421  1.00  0.00     0.198 C 
BRANCH  23  24
HETATM   24  O5* UNL     1     -38.705 -53.013  16.396  1.00  0.00    -0.398 OA
HETATM   25  H5* UNL     1     -37.820 -53.294  16.093  1.00  0.00     0.209 HD
ENDBRANCH  23  24
ENDBRANCH  17  23
ENDBRANCH   2  14
BRANCH   6  26
HETATM   26  N   UNL     1     -39.832 -56.513  18.236  1.00  0.00    -0.159 N 
HETATM   27  C   UNL     1     -39.346 -57.775  17.929  1.00  0.00     0.239 C 
HETATM   28  O   UNL     1     -39.810 -58.445  17.004  1.00  0.00    -0.272 OA
HETATM   29  H   UNL     1     -39.422 -55.995  19.001  1.00  0.00     0.187 HD
BRANCH  27  30
HETATM   30  C   UNL     1     -38.177 -58.279  18.770  1.00  0.00     0.070 C 
HETATM   31  C   UNL     1     -38.256 -57.782  20.209  1.00  0.00     0.019 C 
HETATM   32  C   UNL     1     -38.166 -59.814  18.755  1.00  0.00     0.019 C 
ENDBRANCH  27  30
ENDBRANCH   6  26
TORSDOF 7
ENDMDL
MODEL 8
REMARK VINA RESULT:      -6.0      3.352      5.781
REMARK  7 active torsions:
REMARK  status: ('A' for Active; 'I' for Inactive)
REMARK    1  A    between atoms: N_2  and  C1*_4 
REMARK    2  A    between atoms: C_7  and  N_15 
REMARK    3  A    between atoms: C2*_12  and  O2*_21 
REMARK       I    between atoms: N_15  and  C_18 
REMARK    4  A    between atoms: C3*_16  and  O3*_23 
REMARK    5  A    between atoms: C4*_17  and  C5*_24 
REMARK    6  A    between atoms: C_18  and  C_22 
REMARK    7  A    between atoms: C5*_24  and  O5*_25 
ROOT
HETATM    1  C   UNL     1     -42.481 -52.109  13.668  1.00  0.00     0.159 A 
HETATM    2  N   UNL     1     -41.142 -52.059  13.383  1.00  0.00    -0.297 N 
HETATM    3  C   UNL     1     -42.927 -53.234  13.001  1.00  0.00     0.147 A 
HETATM    4  N   UNL     1     -43.197 -51.276  14.476  1.00  0.00    -0.173 N 
ATOM      5  HN  UNL     1     -42.806 -50.452  14.933  1.00  0.00     0.186 HD
HETATM    6  C   UNL     1     -44.443 -51.651  14.599  1.00  0.00     0.689 A 
HETATM    7  N   UNL     1     -44.994 -52.741  13.963  1.00  0.00    -0.154 N 
HETATM    8  N   UNL     1     -41.919 -53.871  12.331  1.00  0.00    -0.345 N 
ATOM      9  HN  UNL     1     -41.982 -54.712  11.757  1.00  0.00     0.167 HD
HETATM   10  C   UNL     1     -44.315 -53.608  13.129  1.00  0.00     0.290 A 
HETATM   11  C   UNL     1     -40.852 -53.152  12.593  1.00  0.00     0.188 A 
HETATM   12  O   UNL     1     -44.849 -54.563  12.588  1.00  0.00    -0.265 OA
HETATM   13  H   UNL     1     -45.976 -52.957  14.114  1.00  0.00     0.187 HD
ENDROOT
BRANCH   2  14
HETATM   14  C1* UNL     1     -40.124 -51.130  13.819  1.00  0.00     0.262 C 
HETATM   15  C2* UNL     1     -38.734 -51.208  13.189  1.00  0.00     0.198 C 
HETATM   16  C3* UNL     1     -38.748 -50.117  12.119  1.00  0.00     0.182 C 
HETATM   17  C4* UNL     1     -39.970 -49.251  12.434  1.00  0.00     0.179 C 
HETATM   18  O4* UNL     1     -40.616 -49.796  13.603  1.00  0.00    -0.353 OA
BRANCH  15  19
HETATM   19  O2* UNL     1     -37.702 -50.929  14.161  1.00  0.00    -0.388 OA
HETATM   20  H2* UNL     1     -37.018 -51.620  14.113  1.00  0.00     0.210 HD
ENDBRANCH  15  19
BRANCH  16  21
HETATM   21  O3* UNL     1     -37.561 -49.321  12.134  1.00  0.00    -0.390 OA
HETATM   22  H3* UNL     1     -37.750 -48.504  11.638  1.00  0.00     0.210 HD
ENDBRANCH  16  21
BRANCH  17  23
HETATM   23  C5* UNL     1     -40.967 -49.214  11.266  1.00  0.00     0.198 C 
BRANCH  23  24
HETATM   24  O5* UNL     1     -40.471 -49.962  10.159  1.00  0.00    -0.398 OA
HETATM   25  H5* UNL     1     -41.182 -50.580   9.904  1.00  0.00     0.209 HD
ENDBRANCH  23  24
ENDBRANCH  17  23
ENDBRANCH   2  14
BRANCH   6  26
HETATM   26  N   UNL     1     -45.288 -50.937  15.425  1.00  0.00    -0.159 N 
HETATM   27  C   UNL     1     -45.954 -51.455  16.526  1.00  0.00     0.239 C 
HETATM   28  O   UNL     1     -45.857 -52.640  16.848  1.00  0.00    -0.272 OA
HETATM   29  H   UNL     1     -45.391 -49.957  15.197  1.00  0.00     0.187 HD
BRANCH  27  30
HETATM   30  C   UNL     1     -46.783 -50.471  17.346  1.00  0.00     0.070 C 
HETATM   31  C   UNL     1     -48.210 -50.966  17.552  1.00  0.00     0.019 C 
HETATM   32  C   UNL     1     -46.111 -50.252  18.708  1.00  0.00     0.019 C 
ENDBRANCH  27  30
ENDBRANCH   6  26
TORSDOF 7
ENDMDL
MODEL 9
REMARK VINA RESULT:      -5.9      3.603      7.324
REMARK  7 active torsions:
REMARK  status: ('A' for Active; 'I' for Inactive)
REMARK    1  A    between atoms: N_2  and  C1*_4 
REMARK    2  A    between atoms: C_7  and  N_15 
REMARK    3  A    between atoms: C2*_12  and  O2*_21 
REMARK       I    between atoms: N_15  and  C_18 
REMARK    4  A    between atoms: C3*_16  and  O3*_23 
REMARK    5  A    between atoms: C4*_17  and  C5*_24 
REMARK    6  A    between atoms: C_18  and  C_22 
REMARK    7  A    between atoms: C5*_24  and  O5*_25 
ROOT
HETATM    1  C   UNL     1     -41.538 -53.798  14.471  1.00  0.00     0.159 A 
HETATM    2  N   UNL     1     -42.691 -54.530  14.582  1.00  0.00    -0.297 N 
HETATM    3  C   UNL     1     -40.738 -54.268  15.495  1.00  0.00     0.147 A 
HETATM    4  N   UNL     1     -41.226 -52.863  13.528  1.00  0.00    -0.173 N 
ATOM      5  HN  UNL     1     -41.872 -52.554  12.801  1.00  0.00     0.186 HD
HETATM    6  C   UNL     1     -40.008 -52.409  13.659  1.00  0.00     0.689 A 
HETATM    7  N   UNL     1     -39.137 -52.794  14.654  1.00  0.00    -0.154 N 
HETATM    8  N   UNL     1     -41.350 -55.255  16.217  1.00  0.00    -0.345 N 
ATOM      9  HN  UNL     1     -40.984 -55.760  17.025  1.00  0.00     0.167 HD
HETATM   10  C   UNL     1     -39.408 -53.726  15.637  1.00  0.00     0.290 A 
HETATM   11  C   UNL     1     -42.517 -55.405  15.634  1.00  0.00     0.188 A 
HETATM   12  O   UNL     1     -38.600 -54.034  16.500  1.00  0.00    -0.265 OA
HETATM   13  H   UNL     1     -38.208 -52.383  14.683  1.00  0.00     0.187 HD
ENDROOT
BRANCH   2  14
HETATM   14  C1* UNL     1     -43.889 -54.520  13.776  1.00  0.00     0.262 C 
HETATM   15  C2* UNL     1     -45.227 -54.851  14.437  1.00  0.00     0.198 C 
HETATM   16  C3* UNL     1     -45.850 -53.485  14.720  1.00  0.00     0.182 C 
HETATM   17  C4* UNL     1     -45.036 -52.484  13.897  1.00  0.00     0.179 C 
HETATM   18  O4* UNL     1     -44.017 -53.215  13.184  1.00  0.00    -0.353 OA
BRANCH  15  19
HETATM   19  O2* UNL     1     -46.079 -55.604  13.545  1.00  0.00    -0.388 OA
HETATM   20  H2* UNL     1     -47.012 -55.434  13.769  1.00  0.00     0.210 HD
ENDBRANCH  15  19
BRANCH  16  21
HETATM   21  O3* UNL     1     -47.230 -53.425  14.348  1.00  0.00    -0.390 OA
HETATM   22  H3* UNL     1     -47.273 -53.478  13.377  1.00  0.00     0.210 HD
ENDBRANCH  16  21
BRANCH  17  23
HETATM   23  C5* UNL     1     -44.377 -51.413  14.778  1.00  0.00     0.198 C 
BRANCH  23  24
HETATM   24  O5* UNL     1     -43.346 -50.739  14.063  1.00  0.00    -0.398 OA
HETATM   25  H5* UNL     1     -43.086 -51.332  13.332  1.00  0.00     0.209 HD
ENDBRANCH  23  24
ENDBRANCH  17  23
ENDBRANCH   2  14
BRANCH   6  26
HETATM   26  N   UNL     1     -39.525 -51.491  12.749  1.00  0.00    -0.159 N 
HETATM   27  C   UNL     1     -39.935 -50.170  12.653  1.00  0.00     0.239 C 
HETATM   28  O   UNL     1     -40.811 -49.705  13.384  1.00  0.00    -0.272 OA
HETATM   29  H   UNL     1     -38.800 -51.833  12.132  1.00  0.00     0.187 HD
BRANCH  27  30
HETATM   30  C   UNL     1     -39.218 -49.306  11.620  1.00  0.00     0.070 C 
HETATM   31  C   UNL     1     -39.364 -47.819  11.923  1.00  0.00     0.019 C 
HETATM   32  C   UNL     1     -37.730 -49.682  11.589  1.00  0.00     0.019 C 
ENDBRANCH  27  30
ENDBRANCH   6  26
TORSDOF 7
ENDMDL
