MODEL 1
REMARK VINA RESULT:      -7.1      0.000      0.000
REMARK  8 active torsions:
REMARK  status: ('A' for Active; 'I' for Inactive)
REMARK    1  A    between atoms: C_4  and  N_5 
REMARK       I    between atoms: N_5  and  C_6 
REMARK       I    between atoms: C_6  and  N_8 
REMARK    2  A    between atoms: N_8  and  C_9 
REMARK    3  A    between atoms: C_9  and  C_10 
REMARK    4  A    between atoms: C_14  and  O_15 
REMARK    5  A    between atoms: N_18  and  C_19 
REMARK    6  A    between atoms: C_19  and  C_20 
REMARK    7  A    between atoms: C_20  and  C_21 
REMARK    8  A    between atoms: C_21  and  N_22 
ROOT
HETATM    1  N   UNL     1     -40.342 -50.779  11.244  1.00  0.00    -0.294 N 
HETATM    2  C   UNL     1     -41.145 -51.733  11.795  1.00  0.00     0.321 C 
HETATM    3  O   UNL     1     -40.806 -52.915  11.728  1.00  0.00    -0.247 OA
HETATM    4  N   UNL     1     -42.296 -51.319  12.389  1.00  0.00    -0.342 N 
HETATM    5  H   UNL     1     -39.499 -51.147  10.824  1.00  0.00     0.172 HD
HETATM    6  H   UNL     1     -42.453 -50.306  12.423  1.00  0.00     0.164 HD
ENDROOT
BRANCH   1   7
HETATM    7  C   UNL     1     -40.561 -49.426  11.163  1.00  0.00     0.125 A 
HETATM    8  C   UNL     1     -39.881 -48.440  11.911  1.00  0.00     0.076 A 
HETATM    9  C   UNL     1     -40.420 -47.228  11.519  1.00  0.00     0.028 A 
HETATM   10  C   UNL     1     -40.098 -45.856  11.983  1.00  0.00     0.070 C 
HETATM   11  N   UNL     1     -41.360 -47.547  10.573  1.00  0.00    -0.294 N 
HETATM   12  N   UNL     1     -41.460 -48.865  10.356  1.00  0.00    -0.283 N 
ATOM     13  HN  UNL     1     -42.091 -49.338   9.709  1.00  0.00     0.189 HD
BRANCH  11  14
HETATM   14  C   UNL     1     -42.258 -46.692   9.823  1.00  0.00     0.161 C 
BRANCH  14  15
HETATM   15  C   UNL     1     -43.336 -47.447   9.069  1.00  0.00     0.125 C 
BRANCH  15  16
HETATM   16  C   UNL     1     -44.672 -46.733   8.944  1.00  0.00    -0.076 C 
BRANCH  16  17
HETATM   17  N   UNL     1     -45.781 -46.142   8.840  1.00  0.00    -0.370 N 
ATOM     18  HN2 UNL     1     -44.864 -46.571   8.962  1.00  0.00     0.165 HD
ATOM     19  HN1 UNL     1     -46.679 -45.665   8.756  1.00  0.00     0.165 HD
ENDBRANCH  16  17
ENDBRANCH  15  16
ENDBRANCH  14  15
ENDBRANCH  11  14
ENDBRANCH   1   7
BRANCH   4  20
HETATM   20  C   UNL     1     -43.284 -52.187  12.999  1.00  0.00     0.131 C 
BRANCH  20  21
HETATM   21  C   UNL     1     -44.624 -51.503  13.302  1.00  0.00     0.032 C 
HETATM   22  C   UNL     1     -44.950 -51.390  14.798  1.00  0.00     0.009 C 
HETATM   23  C   UNL     1     -46.471 -51.406  14.915  1.00  0.00     0.003 C 
HETATM   24  C   UNL     1     -47.016 -51.590  13.498  1.00  0.00     0.032 C 
HETATM   25  C   UNL     1     -45.856 -52.153  12.673  1.00  0.00     0.123 C 
BRANCH  25  26
HETATM   26  O   UNL     1     -45.776 -53.563  12.725  1.00  0.00    -0.395 OA
HETATM   27  H   UNL     1     -44.873 -53.761  13.057  1.00  0.00     0.210 HD
ENDBRANCH  25  26
ENDBRANCH  20  21
ENDBRANCH   4  20
TORSDOF 8
ENDMDL
MODEL 2
REMARK VINA RESULT:      -6.8      2.695      6.024
REMARK  8 active torsions:
REMARK  status: ('A' for Active; 'I' for Inactive)
REMARK    1  A    between atoms: C_4  and  N_5 
REMARK       I    between atoms: N_5  and  C_6 
REMARK       I    between atoms: C_6  and  N_8 
REMARK    2  A    between atoms: N_8  and  C_9 
REMARK    3  A    between atoms: C_9  and  C_10 
REMARK    4  A    between atoms: C_14  and  O_15 
REMARK    5  A    between atoms: N_18  and  C_19 
REMARK    6  A    between atoms: C_19  and  C_20 
REMARK    7  A    between atoms: C_20  and  C_21 
REMARK    8  A    between atoms: C_21  and  N_22 
ROOT
HETATM    1  N   UNL     1     -40.931 -51.811  11.540  1.00  0.00    -0.294 N 
HETATM    2  C   UNL     1     -40.654 -50.487  11.699  1.00  0.00     0.321 C 
HETATM    3  O   UNL     1     -39.784 -49.967  11.001  1.00  0.00    -0.247 OA
HETATM    4  N   UNL     1     -41.360 -49.806  12.642  1.00  0.00    -0.342 N 
HETATM    5  H   UNL     1     -40.380 -52.261  10.821  1.00  0.00     0.172 HD
HETATM    6  H   UNL     1     -42.090 -50.333  13.134  1.00  0.00     0.164 HD
ENDROOT
BRANCH   1   7
HETATM    7  C   UNL     1     -41.816 -52.587  12.248  1.00  0.00     0.125 A 
HETATM    8  C   UNL     1     -41.486 -53.409  13.349  1.00  0.00     0.076 A 
HETATM    9  C   UNL     1     -42.669 -54.007  13.744  1.00  0.00     0.028 A 
HETATM   10  C   UNL     1     -42.919 -54.977  14.838  1.00  0.00     0.070 C 
HETATM   11  N   UNL     1     -43.619 -53.512  12.888  1.00  0.00    -0.294 N 
HETATM   12  N   UNL     1     -43.118 -52.664  11.980  1.00  0.00    -0.283 N 
ATOM     13  HN  UNL     1     -43.627 -52.180  11.240  1.00  0.00     0.189 HD
BRANCH  11  14
HETATM   14  C   UNL     1     -45.039 -53.794  12.805  1.00  0.00     0.161 C 
BRANCH  14  15
HETATM   15  C   UNL     1     -45.920 -52.607  13.146  1.00  0.00     0.125 C 
BRANCH  15  16
HETATM   16  C   UNL     1     -46.654 -51.977  11.973  1.00  0.00    -0.076 C 
BRANCH  16  17
HETATM   17  N   UNL     1     -47.264 -51.455  11.001  1.00  0.00    -0.370 N 
ATOM     18  HN2 UNL     1     -46.729 -51.828  11.785  1.00  0.00     0.165 HD
ATOM     19  HN1 UNL     1     -47.759 -51.034  10.214  1.00  0.00     0.165 HD
ENDBRANCH  16  17
ENDBRANCH  15  16
ENDBRANCH  14  15
ENDBRANCH  11  14
ENDBRANCH   1   7
BRANCH   4  20
HETATM   20  C   UNL     1     -41.184 -48.406  12.973  1.00  0.00     0.131 C 
BRANCH  20  21
HETATM   21  C   UNL     1     -42.167 -47.462  12.267  1.00  0.00     0.032 C 
HETATM   22  C   UNL     1     -43.360 -48.172  11.611  1.00  0.00     0.009 C 
HETATM   23  C   UNL     1     -43.780 -47.312  10.423  1.00  0.00     0.003 C 
HETATM   24  C   UNL     1     -42.794 -46.145  10.360  1.00  0.00     0.032 C 
HETATM   25  C   UNL     1     -41.570 -46.585  11.167  1.00  0.00     0.123 C 
BRANCH  25  26
HETATM   26  O   UNL     1     -40.629 -47.302  10.393  1.00  0.00    -0.395 OA
HETATM   27  H   UNL     1     -40.578 -48.194  10.804  1.00  0.00     0.210 HD
ENDBRANCH  25  26
ENDBRANCH  20  21
ENDBRANCH   4  20
TORSDOF 8
ENDMDL
MODEL 3
REMARK VINA RESULT:      -6.8      2.025      3.524
REMARK  8 active torsions:
REMARK  status: ('A' for Active; 'I' for Inactive)
REMARK    1  A    between atoms: C_4  and  N_5 
REMARK       I    between atoms: N_5  and  C_6 
REMARK       I    between atoms: C_6  and  N_8 
REMARK    2  A    between atoms: N_8  and  C_9 
REMARK    3  A    between atoms: C_9  and  C_10 
REMARK    4  A    between atoms: C_14  and  O_15 
REMARK    5  A    between atoms: N_18  and  C_19 
REMARK    6  A    between atoms: C_19  and  C_20 
REMARK    7  A    between atoms: C_20  and  C_21 
REMARK    8  A    between atoms: C_21  and  N_22 
ROOT
HETATM    1  N   UNL     1     -42.822 -53.706  12.524  1.00  0.00    -0.294 N 
HETATM    2  C   UNL     1     -44.174 -53.547  12.589  1.00  0.00     0.321 C 
HETATM    3  O   UNL     1     -44.901 -54.534  12.482  1.00  0.00    -0.247 OA
HETATM    4  N   UNL     1     -44.650 -52.285  12.765  1.00  0.00    -0.342 N 
HETATM    5  H   UNL     1     -42.529 -54.665  12.400  1.00  0.00     0.172 HD
HETATM    6  H   UNL     1     -43.949 -51.545  12.885  1.00  0.00     0.164 HD
ENDROOT
BRANCH   1   7
HETATM    7  C   UNL     1     -41.848 -52.738  12.565  1.00  0.00     0.125 A 
HETATM    8  C   UNL     1     -40.910 -52.565  13.607  1.00  0.00     0.076 A 
HETATM    9  C   UNL     1     -40.134 -51.480  13.241  1.00  0.00     0.028 A 
HETATM   10  C   UNL     1     -39.005 -50.840  13.959  1.00  0.00     0.070 C 
HETATM   11  N   UNL     1     -40.631 -51.083  12.026  1.00  0.00    -0.294 N 
HETATM   12  N   UNL     1     -41.665 -51.825  11.613  1.00  0.00    -0.283 N 
ATOM     13  HN  UNL     1     -42.200 -51.715  10.752  1.00  0.00     0.189 HD
BRANCH  11  14
HETATM   14  C   UNL     1     -40.231 -49.985  11.168  1.00  0.00     0.161 C 
BRANCH  14  15
HETATM   15  C   UNL     1     -41.040 -48.718  11.377  1.00  0.00     0.125 C 
BRANCH  15  16
HETATM   16  C   UNL     1     -41.873 -48.269  10.188  1.00  0.00    -0.076 C 
BRANCH  16  17
HETATM   17  N   UNL     1     -42.566 -47.895   9.202  1.00  0.00    -0.370 N 
ATOM     18  HN2 UNL     1     -42.054 -48.178  10.038  1.00  0.00     0.165 HD
ATOM     19  HN1 UNL     1     -43.125 -47.594   8.404  1.00  0.00     0.165 HD
ENDBRANCH  16  17
ENDBRANCH  15  16
ENDBRANCH  14  15
ENDBRANCH  11  14
ENDBRANCH   1   7
BRANCH   4  20
HETATM   20  C   UNL     1     -46.052 -51.918  12.828  1.00  0.00     0.131 C 
BRANCH  20  21
HETATM   21  C   UNL     1     -46.518 -51.445  14.212  1.00  0.00     0.032 C 
HETATM   22  C   UNL     1     -45.399 -50.862  15.087  1.00  0.00     0.009 C 
HETATM   23  C   UNL     1     -45.796 -51.129  16.536  1.00  0.00     0.003 C 
HETATM   24  C   UNL     1     -47.107 -51.916  16.492  1.00  0.00     0.032 C 
HETATM   25  C   UNL     1     -47.195 -52.504  15.081  1.00  0.00     0.123 C 
BRANCH  25  26
HETATM   26  O   UNL     1     -46.547 -53.755  14.964  1.00  0.00    -0.395 OA
HETATM   27  H   UNL     1     -46.801 -54.098  14.079  1.00  0.00     0.210 HD
ENDBRANCH  25  26
ENDBRANCH  20  21
ENDBRANCH   4  20
TORSDOF 8
ENDMDL
MODEL 4
REMARK VINA RESULT:      -6.4      2.687      3.319
REMARK  8 active torsions:
REMARK  status: ('A' for Active; 'I' for Inactive)
REMARK    1  A    between atoms: C_4  and  N_5 
REMARK       I    between atoms: N_5  and  C_6 
REMARK       I    between atoms: C_6  and  N_8 
REMARK    2  A    between atoms: N_8  and  C_9 
REMARK    3  A    between atoms: C_9  and  C_10 
REMARK    4  A    between atoms: C_14  and  O_15 
REMARK    5  A    between atoms: N_18  and  C_19 
REMARK    6  A    between atoms: C_19  and  C_20 
REMARK    7  A    between atoms: C_20  and  C_21 
REMARK    8  A    between atoms: C_21  and  N_22 
ROOT
HETATM    1  N   UNL     1     -38.580 -49.018  11.265  1.00  0.00    -0.294 N 
HETATM    2  C   UNL     1     -38.304 -50.166  11.946  1.00  0.00     0.321 C 
HETATM    3  O   UNL     1     -37.236 -50.743  11.742  1.00  0.00    -0.247 OA
HETATM    4  N   UNL     1     -39.243 -50.619  12.819  1.00  0.00    -0.342 N 
HETATM    5  H   UNL     1     -37.843 -48.727  10.637  1.00  0.00     0.172 HD
HETATM    6  H   UNL     1     -40.076 -50.032  12.939  1.00  0.00     0.164 HD
ENDROOT
BRANCH   1   7
HETATM    7  C   UNL     1     -39.724 -48.259  11.305  1.00  0.00     0.125 A 
HETATM    8  C   UNL     1     -39.836 -46.975  11.884  1.00  0.00     0.076 A 
HETATM    9  C   UNL     1     -41.153 -46.592  11.705  1.00  0.00     0.028 A 
HETATM   10  C   UNL     1     -41.840 -45.346  12.124  1.00  0.00     0.070 C 
HETATM   11  N   UNL     1     -41.738 -47.636  11.035  1.00  0.00    -0.294 N 
HETATM   12  N   UNL     1     -40.892 -48.646  10.796  1.00  0.00    -0.283 N 
ATOM     13  HN  UNL     1     -41.099 -49.526  10.323  1.00  0.00     0.189 HD
BRANCH  11  14
HETATM   14  C   UNL     1     -43.107 -47.811  10.594  1.00  0.00     0.161 C 
BRANCH  14  15
HETATM   15  C   UNL     1     -43.357 -47.346   9.171  1.00  0.00     0.125 C 
BRANCH  15  16
HETATM   16  C   UNL     1     -44.641 -46.563   8.954  1.00  0.00    -0.076 C 
BRANCH  16  17
HETATM   17  N   UNL     1     -45.707 -45.914   8.771  1.00  0.00    -0.370 N 
ATOM     18  HN2 UNL     1     -44.871 -46.463   8.973  1.00  0.00     0.165 HD
ATOM     19  HN1 UNL     1     -46.568 -45.388   8.622  1.00  0.00     0.165 HD
ENDBRANCH  16  17
ENDBRANCH  15  16
ENDBRANCH  14  15
ENDBRANCH  11  14
ENDBRANCH   1   7
BRANCH   4  20
HETATM   20  C   UNL     1     -39.139 -51.832  13.607  1.00  0.00     0.131 C 
BRANCH  20  21
HETATM   21  C   UNL     1     -40.484 -52.507  13.907  1.00  0.00     0.032 C 
HETATM   22  C   UNL     1     -40.369 -53.821  14.692  1.00  0.00     0.009 C 
HETATM   23  C   UNL     1     -41.563 -54.679  14.285  1.00  0.00     0.003 C 
HETATM   24  C   UNL     1     -42.328 -53.885  13.224  1.00  0.00     0.032 C 
HETATM   25  C   UNL     1     -41.343 -52.843  12.689  1.00  0.00     0.123 C 
BRANCH  25  26
HETATM   26  O   UNL     1     -40.553 -53.329  11.622  1.00  0.00    -0.395 OA
HETATM   27  H   UNL     1     -41.048 -54.097  11.259  1.00  0.00     0.210 HD
ENDBRANCH  25  26
ENDBRANCH  20  21
ENDBRANCH   4  20
TORSDOF 8
ENDMDL
MODEL 5
REMARK VINA RESULT:      -6.1      3.759      6.890
REMARK  8 active torsions:
REMARK  status: ('A' for Active; 'I' for Inactive)
REMARK    1  A    between atoms: C_4  and  N_5 
REMARK       I    between atoms: N_5  and  C_6 
REMARK       I    between atoms: C_6  and  N_8 
REMARK    2  A    between atoms: N_8  and  C_9 
REMARK    3  A    between atoms: C_9  and  C_10 
REMARK    4  A    between atoms: C_14  and  O_15 
REMARK    5  A    between atoms: N_18  and  C_19 
REMARK    6  A    between atoms: C_19  and  C_20 
REMARK    7  A    between atoms: C_20  and  C_21 
REMARK    8  A    between atoms: C_21  and  N_22 
ROOT
HETATM    1  N   UNL     1     -42.305 -48.468  10.439  1.00  0.00    -0.294 N 
HETATM    2  C   UNL     1     -42.175 -47.165  10.061  1.00  0.00     0.321 C 
HETATM    3  O   UNL     1     -42.976 -46.690   9.257  1.00  0.00    -0.247 OA
HETATM    4  N   UNL     1     -41.146 -46.455  10.597  1.00  0.00    -0.342 N 
HETATM    5  H   UNL     1     -43.091 -48.941  10.014  1.00  0.00     0.172 HD
HETATM    6  H   UNL     1     -40.567 -46.943  11.290  1.00  0.00     0.164 HD
ENDROOT
BRANCH   1   7
HETATM    7  C   UNL     1     -41.493 -49.197  11.273  1.00  0.00     0.125 A 
HETATM    8  C   UNL     1     -41.845 -49.661  12.560  1.00  0.00     0.076 A 
HETATM    9  C   UNL     1     -40.736 -50.336  13.037  1.00  0.00     0.028 A 
HETATM   10  C   UNL     1     -40.530 -51.016  14.339  1.00  0.00     0.070 C 
HETATM   11  N   UNL     1     -39.809 -50.251  12.028  1.00  0.00    -0.294 N 
HETATM   12  N   UNL     1     -40.249 -49.564  10.967  1.00  0.00    -0.283 N 
ATOM     13  HN  UNL     1     -39.740 -49.363  10.107  1.00  0.00     0.189 HD
BRANCH  11  14
HETATM   14  C   UNL     1     -38.451 -50.754  11.964  1.00  0.00     0.161 C 
BRANCH  14  15
HETATM   15  C   UNL     1     -37.458 -49.762  11.389  1.00  0.00     0.125 C 
BRANCH  15  16
HETATM   16  C   UNL     1     -36.925 -50.096  10.005  1.00  0.00    -0.076 C 
BRANCH  16  17
HETATM   17  N   UNL     1     -36.483 -50.371   8.857  1.00  0.00    -0.370 N 
ATOM     18  HN2 UNL     1     -36.898 -50.173   9.767  1.00  0.00     0.165 HD
ATOM     19  HN1 UNL     1     -36.123 -50.593   7.928  1.00  0.00     0.165 HD
ENDBRANCH  16  17
ENDBRANCH  15  16
ENDBRANCH  14  15
ENDBRANCH  11  14
ENDBRANCH   1   7
BRANCH   4  20
HETATM   20  C   UNL     1     -40.833 -45.072  10.293  1.00  0.00     0.131 C 
BRANCH  20  21
HETATM   21  C   UNL     1     -41.284 -44.073  11.366  1.00  0.00     0.032 C 
HETATM   22  C   UNL     1     -41.629 -44.713  12.718  1.00  0.00     0.009 C 
HETATM   23  C   UNL     1     -42.684 -43.822  13.367  1.00  0.00     0.003 C 
HETATM   24  C   UNL     1     -42.990 -42.708  12.364  1.00  0.00     0.032 C 
HETATM   25  C   UNL     1     -42.500 -43.219  11.007  1.00  0.00     0.123 C 
BRANCH  25  26
HETATM   26  O   UNL     1     -43.475 -43.978  10.320  1.00  0.00    -0.395 OA
HETATM   27  H   UNL     1     -43.573 -43.543   9.443  1.00  0.00     0.210 HD
ENDBRANCH  25  26
ENDBRANCH  20  21
ENDBRANCH   4  20
TORSDOF 8
ENDMDL
MODEL 6
REMARK VINA RESULT:      -6.0      2.974      6.287
REMARK  8 active torsions:
REMARK  status: ('A' for Active; 'I' for Inactive)
REMARK    1  A    between atoms: C_4  and  N_5 
REMARK       I    between atoms: N_5  and  C_6 
REMARK       I    between atoms: C_6  and  N_8 
REMARK    2  A    between atoms: N_8  and  C_9 
REMARK    3  A    between atoms: C_9  and  C_10 
REMARK    4  A    between atoms: C_14  and  O_15 
REMARK    5  A    between atoms: N_18  and  C_19 
REMARK    6  A    between atoms: C_19  and  C_20 
REMARK    7  A    between atoms: C_20  and  C_21 
REMARK    8  A    between atoms: C_21  and  N_22 
ROOT
HETATM    1  N   UNL     1     -42.070 -54.350  13.579  1.00  0.00    -0.294 N 
HETATM    2  C   UNL     1     -41.102 -53.493  13.148  1.00  0.00     0.321 C 
HETATM    3  O   UNL     1     -40.098 -53.948  12.601  1.00  0.00    -0.247 OA
HETATM    4  N   UNL     1     -41.301 -52.164  13.358  1.00  0.00    -0.342 N 
HETATM    5  H   UNL     1     -41.870 -55.323  13.389  1.00  0.00     0.172 HD
HETATM    6  H   UNL     1     -42.196 -51.898  13.784  1.00  0.00     0.164 HD
ENDROOT
BRANCH   1   7
HETATM    7  C   UNL     1     -43.229 -54.055  14.255  1.00  0.00     0.125 A 
HETATM    8  C   UNL     1     -43.435 -54.228  15.642  1.00  0.00     0.076 A 
HETATM    9  C   UNL     1     -44.732 -53.815  15.887  1.00  0.00     0.028 A 
HETATM   10  C   UNL     1     -45.491 -53.788  17.161  1.00  0.00     0.070 C 
HETATM   11  N   UNL     1     -45.213 -53.417  14.665  1.00  0.00    -0.294 N 
HETATM   12  N   UNL     1     -44.323 -53.564  13.677  1.00  0.00    -0.283 N 
ATOM     13  HN  UNL     1     -44.455 -53.345  12.689  1.00  0.00     0.189 HD
BRANCH  11  14
HETATM   14  C   UNL     1     -46.521 -52.909  14.298  1.00  0.00     0.161 C 
BRANCH  14  15
HETATM   15  C   UNL     1     -46.482 -51.551  13.622  1.00  0.00     0.125 C 
BRANCH  15  16
HETATM   16  C   UNL     1     -46.860 -51.541  12.150  1.00  0.00    -0.076 C 
BRANCH  16  17
HETATM   17  N   UNL     1     -47.172 -51.532  10.928  1.00  0.00    -0.370 N 
ATOM     18  HN2 UNL     1     -46.983 -51.545  11.930  1.00  0.00     0.165 HD
ATOM     19  HN1 UNL     1     -47.422 -51.526   9.939  1.00  0.00     0.165 HD
ENDBRANCH  16  17
ENDBRANCH  15  16
ENDBRANCH  14  15
ENDBRANCH  11  14
ENDBRANCH   1   7
BRANCH   4  20
HETATM   20  C   UNL     1     -40.374 -51.110  12.996  1.00  0.00     0.131 C 
BRANCH  20  21
HETATM   21  C   UNL     1     -41.038 -49.757  12.708  1.00  0.00     0.032 C 
HETATM   22  C   UNL     1     -42.573 -49.795  12.713  1.00  0.00     0.009 C 
HETATM   23  C   UNL     1     -43.039 -48.704  11.754  1.00  0.00     0.003 C 
HETATM   24  C   UNL     1     -41.776 -48.082  11.154  1.00  0.00     0.032 C 
HETATM   25  C   UNL     1     -40.659 -49.102  11.380  1.00  0.00     0.123 C 
BRANCH  25  26
HETATM   26  O   UNL     1     -40.568 -50.059  10.344  1.00  0.00    -0.395 OA
HETATM   27  H   UNL     1     -39.611 -50.268  10.265  1.00  0.00     0.210 HD
ENDBRANCH  25  26
ENDBRANCH  20  21
ENDBRANCH   4  20
TORSDOF 8
ENDMDL
MODEL 7
REMARK VINA RESULT:      -5.8      2.694      5.989
REMARK  8 active torsions:
REMARK  status: ('A' for Active; 'I' for Inactive)
REMARK    1  A    between atoms: C_4  and  N_5 
REMARK       I    between atoms: N_5  and  C_6 
REMARK       I    between atoms: C_6  and  N_8 
REMARK    2  A    between atoms: N_8  and  C_9 
REMARK    3  A    between atoms: C_9  and  C_10 
REMARK    4  A    between atoms: C_14  and  O_15 
REMARK    5  A    between atoms: N_18  and  C_19 
REMARK    6  A    between atoms: C_19  and  C_20 
REMARK    7  A    between atoms: C_20  and  C_21 
REMARK    8  A    between atoms: C_21  and  N_22 
ROOT
HETATM    1  N   UNL     1     -40.349 -52.782  13.606  1.00  0.00    -0.294 N 
HETATM    2  C   UNL     1     -39.791 -51.759  12.900  1.00  0.00     0.321 C 
HETATM    3  O   UNL     1     -38.565 -51.665  12.845  1.00  0.00    -0.247 OA
HETATM    4  N   UNL     1     -40.634 -50.881  12.293  1.00  0.00    -0.342 N 
HETATM    5  H   UNL     1     -39.673 -53.405  14.028  1.00  0.00     0.172 HD
HETATM    6  H   UNL     1     -41.638 -51.084  12.371  1.00  0.00     0.164 HD
ENDROOT
BRANCH   1   7
HETATM    7  C   UNL     1     -41.680 -53.032  13.836  1.00  0.00     0.125 A 
HETATM    8  C   UNL     1     -42.339 -54.256  13.584  1.00  0.00     0.076 A 
HETATM    9  C   UNL     1     -43.658 -54.059  13.950  1.00  0.00     0.028 A 
HETATM   10  C   UNL     1     -44.807 -54.996  13.890  1.00  0.00     0.070 C 
HETATM   11  N   UNL     1     -43.711 -52.764  14.402  1.00  0.00    -0.294 N 
HETATM   12  N   UNL     1     -42.531 -52.135  14.330  1.00  0.00    -0.283 N 
ATOM     13  HN  UNL     1     -42.328 -51.172  14.598  1.00  0.00     0.189 HD
BRANCH  11  14
HETATM   14  C   UNL     1     -44.834 -51.993  14.896  1.00  0.00     0.161 C 
BRANCH  14  15
HETATM   15  C   UNL     1     -45.418 -51.037  13.872  1.00  0.00     0.125 C 
BRANCH  15  16
HETATM   16  C   UNL     1     -46.155 -51.688  12.713  1.00  0.00    -0.076 C 
BRANCH  16  17
HETATM   17  N   UNL     1     -46.765 -52.229  11.751  1.00  0.00    -0.370 N 
ATOM     18  HN2 UNL     1     -46.250 -51.747  12.488  1.00  0.00     0.165 HD
ATOM     19  HN1 UNL     1     -47.260 -52.667  10.974  1.00  0.00     0.165 HD
ENDBRANCH  16  17
ENDBRANCH  15  16
ENDBRANCH  14  15
ENDBRANCH  11  14
ENDBRANCH   1   7
BRANCH   4  20
HETATM   20  C   UNL     1     -40.227 -49.720  11.527  1.00  0.00     0.131 C 
BRANCH  20  21
HETATM   21  C   UNL     1     -41.388 -48.833  11.059  1.00  0.00     0.032 C 
HETATM   22  C   UNL     1     -41.033 -47.345  10.931  1.00  0.00     0.009 C 
HETATM   23  C   UNL     1     -42.318 -46.565  11.192  1.00  0.00     0.003 C 
HETATM   24  C   UNL     1     -43.395 -47.599  11.529  1.00  0.00     0.032 C 
HETATM   25  C   UNL     1     -42.643 -48.871  11.931  1.00  0.00     0.123 C 
BRANCH  25  26
HETATM   26  O   UNL     1     -42.312 -48.904  13.305  1.00  0.00    -0.395 OA
HETATM   27  H   UNL     1     -42.232 -47.963  13.577  1.00  0.00     0.210 HD
ENDBRANCH  25  26
ENDBRANCH  20  21
ENDBRANCH   4  20
TORSDOF 8
ENDMDL
MODEL 8
REMARK VINA RESULT:      -5.7      3.594      6.949
REMARK  8 active torsions:
REMARK  status: ('A' for Active; 'I' for Inactive)
REMARK    1  A    between atoms: C_4  and  N_5 
REMARK       I    between atoms: N_5  and  C_6 
REMARK       I    between atoms: C_6  and  N_8 
REMARK    2  A    between atoms: N_8  and  C_9 
REMARK    3  A    between atoms: C_9  and  C_10 
REMARK    4  A    between atoms: C_14  and  O_15 
REMARK    5  A    between atoms: N_18  and  C_19 
REMARK    6  A    between atoms: C_19  and  C_20 
REMARK    7  A    between atoms: C_20  and  C_21 
REMARK    8  A    between atoms: C_21  and  N_22 
ROOT
HETATM    1  N   UNL     1     -41.967 -54.374  13.996  1.00  0.00    -0.294 N 
HETATM    2  C   UNL     1     -41.085 -53.589  13.316  1.00  0.00     0.321 C 
HETATM    3  O   UNL     1     -40.043 -54.087  12.890  1.00  0.00    -0.247 OA
HETATM    4  N   UNL     1     -41.408 -52.279  13.151  1.00  0.00    -0.342 N 
HETATM    5  H   UNL     1     -41.677 -55.339  14.081  1.00  0.00     0.172 HD
HETATM    6  H   UNL     1     -42.323 -51.985  13.511  1.00  0.00     0.164 HD
ENDROOT
BRANCH   1   7
HETATM    7  C   UNL     1     -43.148 -54.006  14.594  1.00  0.00     0.125 A 
HETATM    8  C   UNL     1     -43.378 -53.951  15.987  1.00  0.00     0.076 A 
HETATM    9  C   UNL     1     -44.691 -53.543  16.139  1.00  0.00     0.028 A 
HETATM   10  C   UNL     1     -45.477 -53.327  17.378  1.00  0.00     0.070 C 
HETATM   11  N   UNL     1     -45.157 -53.370  14.860  1.00  0.00    -0.294 N 
HETATM   12  N   UNL     1     -44.243 -53.652  13.925  1.00  0.00    -0.283 N 
ATOM     13  HN  UNL     1     -44.360 -53.606  12.912  1.00  0.00     0.189 HD
BRANCH  11  14
HETATM   14  C   UNL     1     -46.470 -52.971  14.392  1.00  0.00     0.161 C 
BRANCH  14  15
HETATM   15  C   UNL     1     -46.495 -51.609  13.725  1.00  0.00     0.125 C 
BRANCH  15  16
HETATM   16  C   UNL     1     -46.826 -51.611  12.242  1.00  0.00    -0.076 C 
BRANCH  16  17
HETATM   17  N   UNL     1     -47.099 -51.613  11.011  1.00  0.00    -0.370 N 
ATOM     18  HN2 UNL     1     -46.920 -51.562  12.014  1.00  0.00     0.165 HD
ATOM     19  HN1 UNL     1     -47.320 -51.617  10.015  1.00  0.00     0.165 HD
ENDBRANCH  16  17
ENDBRANCH  15  16
ENDBRANCH  14  15
ENDBRANCH  11  14
ENDBRANCH   1   7
BRANCH   4  20
HETATM   20  C   UNL     1     -40.584 -51.290  12.483  1.00  0.00     0.131 C 
BRANCH  20  21
HETATM   21  C   UNL     1     -39.694 -50.470  13.427  1.00  0.00     0.032 C 
HETATM   22  C   UNL     1     -39.211 -49.136  12.837  1.00  0.00     0.009 C 
HETATM   23  C   UNL     1     -37.866 -48.832  13.490  1.00  0.00     0.003 C 
HETATM   24  C   UNL     1     -37.548 -50.016  14.406  1.00  0.00     0.032 C 
HETATM   25  C   UNL     1     -38.428 -51.170  13.919  1.00  0.00     0.123 C 
BRANCH  25  26
HETATM   26  O   UNL     1     -37.825 -51.925  12.887  1.00  0.00    -0.395 OA
HETATM   27  H   UNL     1     -36.862 -51.916  13.085  1.00  0.00     0.210 HD
ENDBRANCH  25  26
ENDBRANCH  20  21
ENDBRANCH   4  20
TORSDOF 8
ENDMDL
MODEL 9
REMARK VINA RESULT:      -5.7      3.149      4.161
REMARK  8 active torsions:
REMARK  status: ('A' for Active; 'I' for Inactive)
REMARK    1  A    between atoms: C_4  and  N_5 
REMARK       I    between atoms: N_5  and  C_6 
REMARK       I    between atoms: C_6  and  N_8 
REMARK    2  A    between atoms: N_8  and  C_9 
REMARK    3  A    between atoms: C_9  and  C_10 
REMARK    4  A    between atoms: C_14  and  O_15 
REMARK    5  A    between atoms: N_18  and  C_19 
REMARK    6  A    between atoms: C_19  and  C_20 
REMARK    7  A    between atoms: C_20  and  C_21 
REMARK    8  A    between atoms: C_21  and  N_22 
ROOT
HETATM    1  N   UNL     1     -38.599 -49.974  11.352  1.00  0.00    -0.294 N 
HETATM    2  C   UNL     1     -38.293 -50.870  12.331  1.00  0.00     0.321 C 
HETATM    3  O   UNL     1     -37.295 -51.579  12.207  1.00  0.00    -0.247 OA
HETATM    4  N   UNL     1     -39.126 -50.937  13.404  1.00  0.00    -0.342 N 
HETATM    5  H   UNL     1     -37.941 -49.965  10.585  1.00  0.00     0.172 HD
HETATM    6  H   UNL     1     -39.904 -50.267  13.421  1.00  0.00     0.164 HD
ENDROOT
BRANCH   1   7
HETATM    7  C   UNL     1     -39.686 -49.138  11.272  1.00  0.00     0.125 A 
HETATM    8  C   UNL     1     -41.033 -49.526  11.449  1.00  0.00     0.076 A 
HETATM    9  C   UNL     1     -41.784 -48.378  11.277  1.00  0.00     0.028 A 
HETATM   10  C   UNL     1     -43.255 -48.192  11.334  1.00  0.00     0.070 C 
HETATM   11  N   UNL     1     -40.867 -47.389  11.025  1.00  0.00    -0.294 N 
HETATM   12  N   UNL     1     -39.605 -47.834  11.012  1.00  0.00    -0.283 N 
ATOM     13  HN  UNL     1     -38.760 -47.290  10.840  1.00  0.00     0.189 HD
BRANCH  11  14
HETATM   14  C   UNL     1     -41.067 -45.981  10.745  1.00  0.00     0.161 C 
BRANCH  14  15
HETATM   15  C   UNL     1     -39.798 -45.153  10.834  1.00  0.00     0.125 C 
BRANCH  15  16
HETATM   16  C   UNL     1     -39.133 -44.827   9.507  1.00  0.00    -0.076 C 
BRANCH  16  17
HETATM   17  N   UNL     1     -38.582 -44.559   8.405  1.00  0.00    -0.370 N 
ATOM     18  HN2 UNL     1     -38.992 -44.729   9.323  1.00  0.00     0.165 HD
ATOM     19  HN1 UNL     1     -38.137 -44.342   7.513  1.00  0.00     0.165 HD
ENDBRANCH  16  17
ENDBRANCH  15  16
ENDBRANCH  14  15
ENDBRANCH  11  14
ENDBRANCH   1   7
BRANCH   4  20
HETATM   20  C   UNL     1     -38.979 -51.846  14.525  1.00  0.00     0.131 C 
BRANCH  20  21
HETATM   21  C   UNL     1     -40.053 -52.939  14.595  1.00  0.00     0.032 C 
HETATM   22  C   UNL     1     -40.271 -53.695  13.276  1.00  0.00     0.009 C 
HETATM   23  C   UNL     1     -41.727 -54.151  13.270  1.00  0.00     0.003 C 
HETATM   24  C   UNL     1     -42.359 -53.608  14.553  1.00  0.00     0.032 C 
HETATM   25  C   UNL     1     -41.445 -52.475  15.024  1.00  0.00     0.123 C 
BRANCH  25  26
HETATM   26  O   UNL     1     -41.770 -51.227  14.445  1.00  0.00    -0.395 OA
HETATM   27  H   UNL     1     -42.421 -51.430  13.737  1.00  0.00     0.210 HD
ENDBRANCH  25  26
ENDBRANCH  20  21
ENDBRANCH   4  20
TORSDOF 8
ENDMDL
