MODEL 1
REMARK VINA RESULT:      -6.0      0.000      0.000
REMARK  7 active torsions:
REMARK  status: ('A' for Active; 'I' for Inactive)
REMARK    1  A    between atoms: C_2  and  C_3 
REMARK    2  A    between atoms: C_3  and  C_4 
REMARK    3  A    between atoms: C_4  and  N_5 
REMARK       I    between atoms: N_5  and  C_6 
REMARK    4  A    between atoms: C_6  and  C_8 
REMARK    5  A    between atoms: C_8  and  C_9 
REMARK    6  A    between atoms: C_13  and  C_14 
REMARK    7  A    between atoms: C_14  and  N_15 
ROOT
HETATM    1  C   UNL     1     -41.394 -50.625  11.652  1.00  0.00     0.112 A 
HETATM    2  N   UNL     1     -40.840 -51.830  11.449  1.00  0.00    -0.247 N 
ATOM      3  HN  UNL     1     -39.988 -52.057  10.937  1.00  0.00     0.196 HD
HETATM    4  O   UNL     1     -41.712 -52.699  12.111  1.00  0.00    -0.221 OA
HETATM    5  C   UNL     1     -42.684 -51.921  12.671  1.00  0.00     0.176 A 
HETATM    6  N   UNL     1     -42.528 -50.636  12.426  1.00  0.00    -0.325 N 
ATOM      7  HN  UNL     1     -43.102 -49.852  12.733  1.00  0.00     0.169 HD
ENDROOT
BRANCH   1   8
HETATM    8  C   UNL     1     -40.764 -49.370  11.186  1.00  0.00     0.181 C 
BRANCH   8   9
HETATM    9  C   UNL     1     -41.784 -48.269  10.980  1.00  0.00     0.224 C 
HETATM   10  N   UNL     1     -42.131 -48.038   9.665  1.00  0.00    -0.361 N 
HETATM   11  H   UNL     1     -41.797 -48.681   8.954  1.00  0.00     0.162 HD
HETATM   12  O   UNL     1     -42.215 -47.596  11.913  1.00  0.00    -0.273 OA
BRANCH  10  13
HETATM   13  C   UNL     1     -43.108 -47.042   9.280  1.00  0.00     0.122 C 
BRANCH  13  14
HETATM   14  C   UNL     1     -44.312 -47.647   8.560  1.00  0.00     0.019 C 
BRANCH  14  15
HETATM   15  C   UNL     1     -45.615 -47.465   9.343  1.00  0.00    -0.003 C 
HETATM   16  C   UNL     1     -46.696 -48.418   8.861  1.00  0.00     0.005 C 
ENDBRANCH  14  15
ENDBRANCH  13  14
ENDBRANCH  10  13
ENDBRANCH   8   9
ENDBRANCH   1   8
BRANCH   5  17
HETATM   17  C   UNL     1     -43.682 -52.599  13.552  1.00  0.00     0.358 C 
BRANCH  17  18
HETATM   18  N   UNL     1     -44.863 -53.164  12.859  1.00  0.00     0.100 N 
HETATM   19  C   UNL     1     -45.988 -52.206  12.747  1.00  0.00     0.299 C 
HETATM   20  C   UNL     1     -46.660 -51.879  14.090  1.00  0.00     0.198 C 
HETATM   21  O   UNL     1     -47.128 -53.070  14.738  1.00  0.00    -0.388 OA
HETATM   22  C   UNL     1     -46.070 -54.018  14.922  1.00  0.00     0.198 C 
HETATM   23  C   UNL     1     -45.370 -54.352  13.590  1.00  0.00     0.299 C 
ENDBRANCH  17  18
ENDBRANCH   5  17
TORSDOF 7
ENDMDL
MODEL 2
REMARK VINA RESULT:      -5.9      2.081      2.769
REMARK  7 active torsions:
REMARK  status: ('A' for Active; 'I' for Inactive)
REMARK    1  A    between atoms: C_2  and  C_3 
REMARK    2  A    between atoms: C_3  and  C_4 
REMARK    3  A    between atoms: C_4  and  N_5 
REMARK       I    between atoms: N_5  and  C_6 
REMARK    4  A    between atoms: C_6  and  C_8 
REMARK    5  A    between atoms: C_8  and  C_9 
REMARK    6  A    between atoms: C_13  and  C_14 
REMARK    7  A    between atoms: C_14  and  N_15 
ROOT
HETATM    1  C   UNL     1     -41.907 -48.688  11.124  1.00  0.00     0.112 A 
HETATM    2  N   UNL     1     -40.816 -49.296  10.633  1.00  0.00    -0.247 N 
ATOM      3  HN  UNL     1     -40.158 -48.949   9.935  1.00  0.00     0.196 HD
HETATM    4  O   UNL     1     -40.800 -50.519  11.309  1.00  0.00    -0.221 OA
HETATM    5  C   UNL     1     -41.866 -50.506  12.161  1.00  0.00     0.176 A 
HETATM    6  N   UNL     1     -42.573 -49.396  12.092  1.00  0.00    -0.325 N 
ATOM      7  HN  UNL     1     -43.402 -49.132  12.624  1.00  0.00     0.169 HD
ENDROOT
BRANCH   1   8
HETATM    8  C   UNL     1     -42.288 -47.309  10.744  1.00  0.00     0.181 C 
BRANCH   8   9
HETATM    9  C   UNL     1     -43.260 -47.293   9.581  1.00  0.00     0.224 C 
HETATM   10  N   UNL     1     -44.421 -46.584   9.805  1.00  0.00    -0.361 N 
HETATM   11  H   UNL     1     -44.496 -46.028  10.651  1.00  0.00     0.162 HD
HETATM   12  O   UNL     1     -43.048 -47.921   8.546  1.00  0.00    -0.273 OA
BRANCH  10  13
HETATM   13  C   UNL     1     -45.452 -46.441   8.800  1.00  0.00     0.122 C 
BRANCH  13  14
HETATM   14  C   UNL     1     -46.775 -47.079   9.220  1.00  0.00     0.019 C 
BRANCH  14  15
HETATM   15  C   UNL     1     -46.780 -48.597   9.030  1.00  0.00    -0.003 C 
HETATM   16  C   UNL     1     -46.374 -48.985   7.616  1.00  0.00     0.005 C 
ENDBRANCH  14  15
ENDBRANCH  13  14
ENDBRANCH  10  13
ENDBRANCH   8   9
ENDBRANCH   1   8
BRANCH   5  17
HETATM   17  C   UNL     1     -42.004 -51.656  13.104  1.00  0.00     0.358 C 
BRANCH  17  18
HETATM   18  N   UNL     1     -42.273 -52.968  12.470  1.00  0.00     0.100 N 
HETATM   19  C   UNL     1     -43.672 -53.425  12.642  1.00  0.00     0.299 C 
HETATM   20  C   UNL     1     -44.028 -53.804  14.089  1.00  0.00     0.198 C 
HETATM   21  O   UNL     1     -43.146 -54.817  14.589  1.00  0.00    -0.388 OA
HETATM   22  C   UNL     1     -41.775 -54.412  14.498  1.00  0.00     0.198 C 
HETATM   23  C   UNL     1     -41.396 -54.013  13.058  1.00  0.00     0.299 C 
ENDBRANCH  17  18
ENDBRANCH   5  17
TORSDOF 7
ENDMDL
MODEL 3
REMARK VINA RESULT:      -5.9      1.339      1.832
REMARK  7 active torsions:
REMARK  status: ('A' for Active; 'I' for Inactive)
REMARK    1  A    between atoms: C_2  and  C_3 
REMARK    2  A    between atoms: C_3  and  C_4 
REMARK    3  A    between atoms: C_4  and  N_5 
REMARK       I    between atoms: N_5  and  C_6 
REMARK    4  A    between atoms: C_6  and  C_8 
REMARK    5  A    between atoms: C_8  and  C_9 
REMARK    6  A    between atoms: C_13  and  C_14 
REMARK    7  A    between atoms: C_14  and  N_15 
ROOT
HETATM    1  C   UNL     1     -40.714 -50.331  11.659  1.00  0.00     0.112 A 
HETATM    2  N   UNL     1     -39.779 -51.267  11.883  1.00  0.00    -0.247 N 
ATOM      3  HN  UNL     1     -38.764 -51.166  11.865  1.00  0.00     0.196 HD
HETATM    4  O   UNL     1     -40.532 -52.415  12.148  1.00  0.00    -0.221 OA
HETATM    5  C   UNL     1     -41.843 -52.041  12.087  1.00  0.00     0.176 A 
HETATM    6  N   UNL     1     -42.008 -50.766  11.799  1.00  0.00    -0.325 N 
ATOM      7  HN  UNL     1     -42.875 -50.238  11.706  1.00  0.00     0.169 HD
ENDROOT
BRANCH   1   8
HETATM    8  C   UNL     1     -40.376 -48.912  11.406  1.00  0.00     0.181 C 
BRANCH   8   9
HETATM    9  C   UNL     1     -41.613 -48.072  11.167  1.00  0.00     0.224 C 
HETATM   10  N   UNL     1     -41.725 -47.553   9.894  1.00  0.00    -0.361 N 
HETATM   11  H   UNL     1     -41.068 -47.860   9.184  1.00  0.00     0.162 HD
HETATM   12  O   UNL     1     -42.417 -47.825  12.063  1.00  0.00    -0.273 OA
BRANCH  10  13
HETATM   13  C   UNL     1     -42.853 -46.747   9.477  1.00  0.00     0.122 C 
BRANCH  13  14
HETATM   14  C   UNL     1     -43.943 -47.571   8.795  1.00  0.00     0.019 C 
BRANCH  14  15
HETATM   15  C   UNL     1     -45.257 -47.567   9.580  1.00  0.00    -0.003 C 
HETATM   16  C   UNL     1     -46.394 -48.174   8.772  1.00  0.00     0.005 C 
ENDBRANCH  14  15
ENDBRANCH  13  14
ENDBRANCH  10  13
ENDBRANCH   8   9
ENDBRANCH   1   8
BRANCH   5  17
HETATM   17  C   UNL     1     -42.865 -53.063  12.462  1.00  0.00     0.358 C 
BRANCH  17  18
HETATM   18  N   UNL     1     -43.592 -52.803  13.727  1.00  0.00     0.100 N 
HETATM   19  C   UNL     1     -42.972 -53.458  14.902  1.00  0.00     0.299 C 
HETATM   20  C   UNL     1     -43.092 -54.991  14.893  1.00  0.00     0.198 C 
HETATM   21  O   UNL     1     -44.463 -55.401  14.804  1.00  0.00    -0.388 OA
HETATM   22  C   UNL     1     -45.106 -54.839  13.654  1.00  0.00     0.198 C 
HETATM   23  C   UNL     1     -44.987 -53.303  13.631  1.00  0.00     0.299 C 
ENDBRANCH  17  18
ENDBRANCH   5  17
TORSDOF 7
ENDMDL
MODEL 4
REMARK VINA RESULT:      -5.8      1.963      6.278
REMARK  7 active torsions:
REMARK  status: ('A' for Active; 'I' for Inactive)
REMARK    1  A    between atoms: C_2  and  C_3 
REMARK    2  A    between atoms: C_3  and  C_4 
REMARK    3  A    between atoms: C_4  and  N_5 
REMARK       I    between atoms: N_5  and  C_6 
REMARK    4  A    between atoms: C_6  and  C_8 
REMARK    5  A    between atoms: C_8  and  C_9 
REMARK    6  A    between atoms: C_13  and  C_14 
REMARK    7  A    between atoms: C_14  and  N_15 
ROOT
HETATM    1  C   UNL     1     -40.961 -51.169  11.769  1.00  0.00     0.112 A 
HETATM    2  N   UNL     1     -39.664 -50.854  11.632  1.00  0.00    -0.247 N 
ATOM      3  HN  UNL     1     -38.854 -51.473  11.678  1.00  0.00     0.196 HD
HETATM    4  O   UNL     1     -39.691 -49.474  11.411  1.00  0.00    -0.221 OA
HETATM    5  C   UNL     1     -41.005 -49.108  11.405  1.00  0.00     0.176 A 
HETATM    6  N   UNL     1     -41.828 -50.116  11.611  1.00  0.00    -0.325 N 
ATOM      7  HN  UNL     1     -42.847 -50.115  11.644  1.00  0.00     0.169 HD
ENDROOT
BRANCH   1   8
HETATM    8  C   UNL     1     -41.428 -52.562  11.948  1.00  0.00     0.181 C 
BRANCH   8   9
HETATM    9  C   UNL     1     -42.695 -52.629  12.777  1.00  0.00     0.224 C 
HETATM   10  N   UNL     1     -43.754 -53.268  12.166  1.00  0.00    -0.361 N 
HETATM   11  H   UNL     1     -43.590 -53.750  11.288  1.00  0.00     0.162 HD
HETATM   12  O   UNL     1     -42.782 -52.096  13.880  1.00  0.00    -0.273 OA
BRANCH  10  13
HETATM   13  C   UNL     1     -45.035 -53.447  12.815  1.00  0.00     0.122 C 
BRANCH  13  14
HETATM   14  C   UNL     1     -46.050 -52.377  12.416  1.00  0.00     0.019 C 
BRANCH  14  15
HETATM   15  C   UNL     1     -46.167 -51.262  13.459  1.00  0.00    -0.003 C 
HETATM   16  C   UNL     1     -46.836 -51.755  14.733  1.00  0.00     0.005 C 
ENDBRANCH  14  15
ENDBRANCH  13  14
ENDBRANCH  10  13
ENDBRANCH   8   9
ENDBRANCH   1   8
BRANCH   5  17
HETATM   17  C   UNL     1     -41.320 -47.690  11.057  1.00  0.00     0.358 C 
BRANCH  17  18
HETATM   18  N   UNL     1     -42.704 -47.254  11.354  1.00  0.00     0.100 N 
HETATM   19  C   UNL     1     -43.599 -47.309  10.175  1.00  0.00     0.299 C 
HETATM   20  C   UNL     1     -43.269 -46.265   9.095  1.00  0.00     0.198 C 
HETATM   21  O   UNL     1     -43.295 -44.937   9.635  1.00  0.00    -0.388 OA
HETATM   22  C   UNL     1     -42.407 -44.806  10.751  1.00  0.00     0.198 C 
HETATM   23  C   UNL     1     -42.709 -45.852  11.842  1.00  0.00     0.299 C 
ENDBRANCH  17  18
ENDBRANCH   5  17
TORSDOF 7
ENDMDL
MODEL 5
REMARK VINA RESULT:      -5.5      3.118      6.636
REMARK  7 active torsions:
REMARK  status: ('A' for Active; 'I' for Inactive)
REMARK    1  A    between atoms: C_2  and  C_3 
REMARK    2  A    between atoms: C_3  and  C_4 
REMARK    3  A    between atoms: C_4  and  N_5 
REMARK       I    between atoms: N_5  and  C_6 
REMARK    4  A    between atoms: C_6  and  C_8 
REMARK    5  A    between atoms: C_8  and  C_9 
REMARK    6  A    between atoms: C_13  and  C_14 
REMARK    7  A    between atoms: C_14  and  N_15 
ROOT
HETATM    1  C   UNL     1     -42.096 -53.893  13.387  1.00  0.00     0.112 A 
HETATM    2  N   UNL     1     -41.139 -54.364  12.573  1.00  0.00    -0.247 N 
ATOM      3  HN  UNL     1     -40.884 -55.335  12.391  1.00  0.00     0.196 HD
HETATM    4  O   UNL     1     -40.576 -53.203  12.036  1.00  0.00    -0.221 OA
HETATM    5  C   UNL     1     -41.277 -52.155  12.558  1.00  0.00     0.176 A 
HETATM    6  N   UNL     1     -42.230 -52.527  13.387  1.00  0.00    -0.325 N 
ATOM      7  HN  UNL     1     -42.896 -51.948  13.898  1.00  0.00     0.169 HD
ENDROOT
BRANCH   1   8
HETATM    8  C   UNL     1     -43.021 -54.781  14.127  1.00  0.00     0.181 C 
BRANCH   8   9
HETATM    9  C   UNL     1     -44.470 -54.478  13.808  1.00  0.00     0.224 C 
HETATM   10  N   UNL     1     -45.226 -54.062  14.883  1.00  0.00    -0.361 N 
HETATM   11  H   UNL     1     -44.757 -53.864  15.761  1.00  0.00     0.162 HD
HETATM   12  O   UNL     1     -44.941 -54.654  12.687  1.00  0.00    -0.273 OA
BRANCH  10  13
HETATM   13  C   UNL     1     -46.624 -53.706  14.762  1.00  0.00     0.122 C 
BRANCH  13  14
HETATM   14  C   UNL     1     -46.870 -52.212  14.971  1.00  0.00     0.019 C 
BRANCH  14  15
HETATM   15  C   UNL     1     -46.133 -51.348  13.945  1.00  0.00    -0.003 C 
HETATM   16  C   UNL     1     -46.643 -51.597  12.534  1.00  0.00     0.005 C 
ENDBRANCH  14  15
ENDBRANCH  13  14
ENDBRANCH  10  13
ENDBRANCH   8   9
ENDBRANCH   1   8
BRANCH   5  17
HETATM   17  C   UNL     1     -40.956 -50.791  12.040  1.00  0.00     0.358 C 
BRANCH  17  18
HETATM   18  N   UNL     1     -40.567 -49.796  13.067  1.00  0.00     0.100 N 
HETATM   19  C   UNL     1     -40.036 -48.539  12.491  1.00  0.00     0.299 C 
HETATM   20  C   UNL     1     -38.665 -48.698  11.812  1.00  0.00     0.198 C 
HETATM   21  O   UNL     1     -37.697 -49.236  12.724  1.00  0.00    -0.388 OA
HETATM   22  C   UNL     1     -38.133 -50.483  13.277  1.00  0.00     0.198 C 
HETATM   23  C   UNL     1     -39.513 -50.353  13.951  1.00  0.00     0.299 C 
ENDBRANCH  17  18
ENDBRANCH   5  17
TORSDOF 7
ENDMDL
MODEL 6
REMARK VINA RESULT:      -5.4      3.182      6.654
REMARK  7 active torsions:
REMARK  status: ('A' for Active; 'I' for Inactive)
REMARK    1  A    between atoms: C_2  and  C_3 
REMARK    2  A    between atoms: C_3  and  C_4 
REMARK    3  A    between atoms: C_4  and  N_5 
REMARK       I    between atoms: N_5  and  C_6 
REMARK    4  A    between atoms: C_6  and  C_8 
REMARK    5  A    between atoms: C_8  and  C_9 
REMARK    6  A    between atoms: C_13  and  C_14 
REMARK    7  A    between atoms: C_14  and  N_15 
ROOT
HETATM    1  C   UNL     1     -42.024 -53.697  13.248  1.00  0.00     0.112 A 
HETATM    2  N   UNL     1     -41.039 -54.274  12.543  1.00  0.00    -0.247 N 
ATOM      3  HN  UNL     1     -40.850 -55.268  12.416  1.00  0.00     0.196 HD
HETATM    4  O   UNL     1     -40.335 -53.184  12.024  1.00  0.00    -0.221 OA
HETATM    5  C   UNL     1     -40.991 -52.063  12.444  1.00  0.00     0.176 A 
HETATM    6  N   UNL     1     -42.043 -52.325  13.192  1.00  0.00    -0.325 N 
ATOM      7  HN  UNL     1     -42.702 -51.676  13.620  1.00  0.00     0.169 HD
ENDROOT
BRANCH   1   8
HETATM    8  C   UNL     1     -43.082 -54.479  13.926  1.00  0.00     0.181 C 
BRANCH   8   9
HETATM    9  C   UNL     1     -44.468 -54.000  13.545  1.00  0.00     0.224 C 
HETATM   10  N   UNL     1     -45.314 -53.766  14.610  1.00  0.00    -0.361 N 
HETATM   11  H   UNL     1     -44.933 -53.800  15.550  1.00  0.00     0.162 HD
HETATM   12  O   UNL     1     -44.822 -53.893  12.373  1.00  0.00    -0.273 OA
BRANCH  10  13
HETATM   13  C   UNL     1     -46.667 -53.282  14.437  1.00  0.00     0.122 C 
BRANCH  13  14
HETATM   14  C   UNL     1     -46.757 -51.758  14.491  1.00  0.00     0.019 C 
BRANCH  14  15
HETATM   15  C   UNL     1     -46.526 -51.207  15.900  1.00  0.00    -0.003 C 
HETATM   16  C   UNL     1     -47.804 -51.227  16.726  1.00  0.00     0.005 C 
ENDBRANCH  14  15
ENDBRANCH  13  14
ENDBRANCH  10  13
ENDBRANCH   8   9
ENDBRANCH   1   8
BRANCH   5  17
HETATM   17  C   UNL     1     -40.512 -50.750  11.916  1.00  0.00     0.358 C 
BRANCH  17  18
HETATM   18  N   UNL     1     -39.514 -50.051  12.759  1.00  0.00     0.100 N 
HETATM   19  C   UNL     1     -40.107 -49.408  13.954  1.00  0.00     0.299 C 
HETATM   20  C   UNL     1     -41.002 -48.201  13.631  1.00  0.00     0.198 C 
HETATM   21  O   UNL     1     -40.284 -47.212  12.880  1.00  0.00    -0.388 OA
HETATM   22  C   UNL     1     -39.728 -47.763  11.681  1.00  0.00     0.198 C 
HETATM   23  C   UNL     1     -38.837 -48.985  11.978  1.00  0.00     0.299 C 
ENDBRANCH  17  18
ENDBRANCH   5  17
TORSDOF 7
ENDMDL
MODEL 7
REMARK VINA RESULT:      -5.2      1.592      2.513
REMARK  7 active torsions:
REMARK  status: ('A' for Active; 'I' for Inactive)
REMARK    1  A    between atoms: C_2  and  C_3 
REMARK    2  A    between atoms: C_3  and  C_4 
REMARK    3  A    between atoms: C_4  and  N_5 
REMARK       I    between atoms: N_5  and  C_6 
REMARK    4  A    between atoms: C_6  and  C_8 
REMARK    5  A    between atoms: C_8  and  C_9 
REMARK    6  A    between atoms: C_13  and  C_14 
REMARK    7  A    between atoms: C_14  and  N_15 
ROOT
HETATM    1  C   UNL     1     -41.359 -51.023  11.911  1.00  0.00     0.112 A 
HETATM    2  N   UNL     1     -40.932 -52.188  11.399  1.00  0.00    -0.247 N 
ATOM      3  HN  UNL     1     -40.162 -52.351  10.752  1.00  0.00     0.196 HD
HETATM    4  O   UNL     1     -41.800 -53.125  11.969  1.00  0.00    -0.221 OA
HETATM    5  C   UNL     1     -42.638 -52.427  12.791  1.00  0.00     0.176 A 
HETATM    6  N   UNL     1     -42.401 -51.132  12.798  1.00  0.00    -0.325 N 
ATOM      7  HN  UNL     1     -42.871 -50.398  13.327  1.00  0.00     0.169 HD
ENDROOT
BRANCH   1   8
HETATM    8  C   UNL     1     -40.678 -49.737  11.640  1.00  0.00     0.181 C 
BRANCH   8   9
HETATM    9  C   UNL     1     -41.667 -48.614  11.404  1.00  0.00     0.224 C 
HETATM   10  N   UNL     1     -41.373 -47.799  10.331  1.00  0.00    -0.361 N 
HETATM   11  H   UNL     1     -40.617 -48.066   9.709  1.00  0.00     0.162 HD
HETATM   12  O   UNL     1     -42.619 -48.415  12.155  1.00  0.00    -0.273 OA
BRANCH  10  13
HETATM   13  C   UNL     1     -42.218 -46.690   9.942  1.00  0.00     0.122 C 
BRANCH  13  14
HETATM   14  C   UNL     1     -41.714 -45.351  10.477  1.00  0.00     0.019 C 
BRANCH  14  15
HETATM   15  C   UNL     1     -40.234 -45.395  10.865  1.00  0.00    -0.003 C 
HETATM   16  C   UNL     1     -39.358 -44.740   9.808  1.00  0.00     0.005 C 
ENDBRANCH  14  15
ENDBRANCH  13  14
ENDBRANCH  10  13
ENDBRANCH   8   9
ENDBRANCH   1   8
BRANCH   5  17
HETATM   17  C   UNL     1     -43.590 -53.217  13.628  1.00  0.00     0.358 C 
BRANCH  17  18
HETATM   18  N   UNL     1     -44.776 -53.746  12.916  1.00  0.00     0.100 N 
HETATM   19  C   UNL     1     -45.802 -52.714  12.643  1.00  0.00     0.299 C 
HETATM   20  C   UNL     1     -46.517 -52.201  13.904  1.00  0.00     0.198 C 
HETATM   21  O   UNL     1     -47.125 -53.279  14.628  1.00  0.00    -0.388 OA
HETATM   22  C   UNL     1     -46.169 -54.290  14.967  1.00  0.00     0.198 C 
HETATM   23  C   UNL     1     -45.428 -54.811  13.720  1.00  0.00     0.299 C 
ENDBRANCH  17  18
ENDBRANCH   5  17
TORSDOF 7
ENDMDL
MODEL 8
REMARK VINA RESULT:      -5.0      2.005      2.419
REMARK  7 active torsions:
REMARK  status: ('A' for Active; 'I' for Inactive)
REMARK    1  A    between atoms: C_2  and  C_3 
REMARK    2  A    between atoms: C_3  and  C_4 
REMARK    3  A    between atoms: C_4  and  N_5 
REMARK       I    between atoms: N_5  and  C_6 
REMARK    4  A    between atoms: C_6  and  C_8 
REMARK    5  A    between atoms: C_8  and  C_9 
REMARK    6  A    between atoms: C_13  and  C_14 
REMARK    7  A    between atoms: C_14  and  N_15 
ROOT
HETATM    1  C   UNL     1     -40.852 -51.102  12.204  1.00  0.00     0.112 A 
HETATM    2  N   UNL     1     -41.042 -52.081  11.306  1.00  0.00    -0.247 N 
ATOM      3  HN  UNL     1     -40.453 -52.339  10.515  1.00  0.00     0.196 HD
HETATM    4  O   UNL     1     -42.245 -52.663  11.718  1.00  0.00    -0.221 OA
HETATM    5  C   UNL     1     -42.635 -51.993  12.841  1.00  0.00     0.176 A 
HETATM    6  N   UNL     1     -41.806 -51.030  13.187  1.00  0.00    -0.325 N 
ATOM      7  HN  UNL     1     -41.860 -50.394  13.982  1.00  0.00     0.169 HD
ENDROOT
BRANCH   1   8
HETATM    8  C   UNL     1     -39.641 -50.251  12.208  1.00  0.00     0.181 C 
BRANCH   8   9
HETATM    9  C   UNL     1     -39.985 -48.783  12.367  1.00  0.00     0.224 C 
HETATM   10  N   UNL     1     -39.812 -48.021  11.230  1.00  0.00    -0.361 N 
HETATM   11  H   UNL     1     -39.601 -48.492  10.356  1.00  0.00     0.162 HD
HETATM   12  O   UNL     1     -40.328 -48.307  13.446  1.00  0.00    -0.273 OA
BRANCH  10  13
HETATM   13  C   UNL     1     -40.113 -46.606  11.189  1.00  0.00     0.122 C 
BRANCH  13  14
HETATM   14  C   UNL     1     -41.439 -46.308  10.490  1.00  0.00     0.019 C 
BRANCH  14  15
HETATM   15  C   UNL     1     -42.640 -46.458  11.427  1.00  0.00    -0.003 C 
HETATM   16  C   UNL     1     -43.390 -47.756  11.172  1.00  0.00     0.005 C 
ENDBRANCH  14  15
ENDBRANCH  13  14
ENDBRANCH  10  13
ENDBRANCH   8   9
ENDBRANCH   1   8
BRANCH   5  17
HETATM   17  C   UNL     1     -43.838 -52.507  13.562  1.00  0.00     0.358 C 
BRANCH  17  18
HETATM   18  N   UNL     1     -43.955 -53.982  13.634  1.00  0.00     0.100 N 
HETATM   19  C   UNL     1     -45.357 -54.455  13.693  1.00  0.00     0.299 C 
HETATM   20  C   UNL     1     -46.073 -54.116  15.010  1.00  0.00     0.198 C 
HETATM   21  O   UNL     1     -45.359 -54.643  16.137  1.00  0.00    -0.388 OA
HETATM   22  C   UNL     1     -44.004 -54.178  16.165  1.00  0.00     0.198 C 
HETATM   23  C   UNL     1     -43.269 -54.494  14.848  1.00  0.00     0.299 C 
ENDBRANCH  17  18
ENDBRANCH   5  17
TORSDOF 7
ENDMDL
MODEL 9
REMARK VINA RESULT:      -4.9      2.927      3.941
REMARK  7 active torsions:
REMARK  status: ('A' for Active; 'I' for Inactive)
REMARK    1  A    between atoms: C_2  and  C_3 
REMARK    2  A    between atoms: C_3  and  C_4 
REMARK    3  A    between atoms: C_4  and  N_5 
REMARK       I    between atoms: N_5  and  C_6 
REMARK    4  A    between atoms: C_6  and  C_8 
REMARK    5  A    between atoms: C_8  and  C_9 
REMARK    6  A    between atoms: C_13  and  C_14 
REMARK    7  A    between atoms: C_14  and  N_15 
ROOT
HETATM    1  C   UNL     1     -40.730 -50.228  11.648  1.00  0.00     0.112 A 
HETATM    2  N   UNL     1     -39.708 -51.083  11.806  1.00  0.00    -0.247 N 
ATOM      3  HN  UNL     1     -38.709 -50.901  11.712  1.00  0.00     0.196 HD
HETATM    4  O   UNL     1     -40.344 -52.285  12.131  1.00  0.00    -0.221 OA
HETATM    5  C   UNL     1     -41.682 -52.018  12.168  1.00  0.00     0.176 A 
HETATM    6  N   UNL     1     -41.971 -50.764  11.887  1.00  0.00    -0.325 N 
ATOM      7  HN  UNL     1     -42.882 -50.309  11.857  1.00  0.00     0.169 HD
ENDROOT
BRANCH   1   8
HETATM    8  C   UNL     1     -40.528 -48.789  11.365  1.00  0.00     0.181 C 
BRANCH   8   9
HETATM    9  C   UNL     1     -40.175 -48.013  12.617  1.00  0.00     0.224 C 
HETATM   10  N   UNL     1     -39.650 -46.757  12.392  1.00  0.00    -0.361 N 
HETATM   11  H   UNL     1     -39.654 -46.391  11.445  1.00  0.00     0.162 HD
HETATM   12  O   UNL     1     -40.290 -48.498  13.739  1.00  0.00    -0.273 OA
BRANCH  10  13
HETATM   13  C   UNL     1     -39.277 -45.864  13.468  1.00  0.00     0.122 C 
BRANCH  13  14
HETATM   14  C   UNL     1     -39.025 -44.437  12.986  1.00  0.00     0.019 C 
BRANCH  14  15
HETATM   15  C   UNL     1     -40.317 -43.711  12.605  1.00  0.00    -0.003 C 
HETATM   16  C   UNL     1     -40.395 -43.454  11.108  1.00  0.00     0.005 C 
ENDBRANCH  14  15
ENDBRANCH  13  14
ENDBRANCH  10  13
ENDBRANCH   8   9
ENDBRANCH   1   8
BRANCH   5  17
HETATM   17  C   UNL     1     -42.587 -53.116  12.623  1.00  0.00     0.358 C 
BRANCH  17  18
HETATM   18  N   UNL     1     -43.384 -52.821  13.836  1.00  0.00     0.100 N 
HETATM   19  C   UNL     1     -42.927 -53.568  15.031  1.00  0.00     0.299 C 
HETATM   20  C   UNL     1     -43.193 -55.080  14.958  1.00  0.00     0.198 C 
HETATM   21  O   UNL     1     -44.586 -55.350  14.748  1.00  0.00    -0.388 OA
HETATM   22  C   UNL     1     -45.077 -54.695  13.573  1.00  0.00     0.198 C 
HETATM   23  C   UNL     1     -44.809 -53.178  13.615  1.00  0.00     0.299 C 
ENDBRANCH  17  18
ENDBRANCH   5  17
TORSDOF 7
ENDMDL
