MODEL 1
REMARK VINA RESULT:      -7.1      0.000      0.000
REMARK  5 active torsions:
REMARK  status: ('A' for Active; 'I' for Inactive)
REMARK    1  A    between atoms: C_2  and  C_3 
REMARK       I    between atoms: C_2  and  N_12 
REMARK    2  A    between atoms: C_3  and  N_4 
REMARK    3  A    between atoms: N_12  and  C_13 
REMARK    4  A    between atoms: C_13  and  C_14 
REMARK    5  A    between atoms: C_14  and  C_15 
ROOT
HETATM    1  O   UNL     1     -43.119 -46.844  12.244  1.00  0.00    -0.272 OA
HETATM    2  C   UNL     1     -42.937 -47.586  11.283  1.00  0.00     0.235 C 
HETATM    3  N   UNL     1     -42.726 -48.947  11.400  1.00  0.00    -0.360 N 
HETATM    4  H   UNL     1     -42.321 -49.435  10.607  1.00  0.00     0.162 HD
ENDROOT
BRANCH   3   5
HETATM    5  C   UNL     1     -42.686 -49.619  12.686  1.00  0.00     0.123 C 
BRANCH   5   6
HETATM    6  C   UNL     1     -43.021 -51.113  12.569  1.00  0.00     0.029 C 
BRANCH   6   7
HETATM    7  C   UNL     1     -44.106 -51.623  13.557  1.00  0.00    -0.038 C 
HETATM    8  C   UNL     1     -43.857 -53.102  13.950  1.00  0.00     0.014 C 
HETATM    9  C   UNL     1     -44.922 -53.593  14.946  1.00  0.00    -0.013 C 
HETATM   10  C   UNL     1     -46.312 -53.462  14.299  1.00  0.00     0.009 C 
HETATM   11  C   UNL     1     -44.867 -52.733  16.216  1.00  0.00     0.009 C 
HETATM   12  C   UNL     1     -46.593 -51.993  13.948  1.00  0.00    -0.013 C 
HETATM   13  C   UNL     1     -46.530 -51.143  15.227  1.00  0.00     0.009 C 
HETATM   14  C   UNL     1     -45.529 -51.499  12.953  1.00  0.00     0.014 C 
HETATM   15  C   UNL     1     -45.136 -51.261  15.864  1.00  0.00    -0.013 C 
HETATM   16  C   UNL     1     -44.073 -50.774  14.860  1.00  0.00     0.014 C 
ENDBRANCH   6   7
ENDBRANCH   5   6
ENDBRANCH   3   5
BRANCH   2  17
HETATM   17  C   UNL     1     -42.964 -47.079   9.838  1.00  0.00     0.235 C 
BRANCH  17  18
HETATM   18  N   UNL     1     -44.106 -47.566   9.067  1.00  0.00    -0.301 N 
HETATM   19  C   UNL     1     -45.360 -47.607   9.643  1.00  0.00     0.102 C 
HETATM   20  C   UNL     1     -46.396 -48.177   9.024  1.00  0.00     0.092 C 
HETATM   21  C   UNL     1     -46.191 -48.778   7.697  1.00  0.00     0.250 C 
HETATM   22  O   UNL     1     -47.073 -49.430   7.151  1.00  0.00    -0.268 OA
HETATM   23  N   UNL     1     -44.960 -48.572   7.142  1.00  0.00    -0.275 N 
HETATM   24  C   UNL     1     -43.876 -48.028   7.780  1.00  0.00     0.329 C 
HETATM   25  H   UNL     1     -44.796 -48.980   6.234  1.00  0.00     0.173 HD
HETATM   26  O   UNL     1     -42.774 -47.996   7.231  1.00  0.00    -0.246 OA
ENDBRANCH  17  18
ENDBRANCH   2  17
TORSDOF 5
ENDMDL
MODEL 2
REMARK VINA RESULT:      -6.7      3.539      5.548
REMARK  5 active torsions:
REMARK  status: ('A' for Active; 'I' for Inactive)
REMARK    1  A    between atoms: C_2  and  C_3 
REMARK       I    between atoms: C_2  and  N_12 
REMARK    2  A    between atoms: C_3  and  N_4 
REMARK    3  A    between atoms: N_12  and  C_13 
REMARK    4  A    between atoms: C_13  and  C_14 
REMARK    5  A    between atoms: C_14  and  C_15 
ROOT
HETATM    1  O   UNL     1     -40.983 -52.611  16.227  1.00  0.00    -0.272 OA
HETATM    2  C   UNL     1     -40.667 -53.204  15.199  1.00  0.00     0.235 C 
HETATM    3  N   UNL     1     -41.338 -54.314  14.722  1.00  0.00    -0.360 N 
HETATM    4  H   UNL     1     -40.866 -54.897  14.038  1.00  0.00     0.162 HD
ENDROOT
BRANCH   3   5
HETATM    5  C   UNL     1     -42.477 -54.889  15.413  1.00  0.00     0.123 C 
BRANCH   5   6
HETATM    6  C   UNL     1     -43.750 -54.861  14.554  1.00  0.00     0.029 C 
BRANCH   6   7
HETATM    7  C   UNL     1     -44.490 -53.495  14.517  1.00  0.00    -0.038 C 
HETATM    8  C   UNL     1     -43.910 -52.571  13.416  1.00  0.00     0.014 C 
HETATM    9  C   UNL     1     -44.661 -51.230  13.371  1.00  0.00    -0.013 C 
HETATM   10  C   UNL     1     -44.533 -50.538  14.738  1.00  0.00     0.009 C 
HETATM   11  C   UNL     1     -46.143 -51.487  13.065  1.00  0.00     0.009 C 
HETATM   12  C   UNL     1     -45.149 -51.421  15.836  1.00  0.00    -0.013 C 
HETATM   13  C   UNL     1     -46.630 -51.673  15.514  1.00  0.00     0.009 C 
HETATM   14  C   UNL     1     -44.399 -52.763  15.882  1.00  0.00     0.014 C 
HETATM   15  C   UNL     1     -46.756 -52.380  14.155  1.00  0.00    -0.013 C 
HETATM   16  C   UNL     1     -45.996 -53.720  14.204  1.00  0.00     0.014 C 
ENDBRANCH   6   7
ENDBRANCH   5   6
ENDBRANCH   3   5
BRANCH   2  17
HETATM   17  C   UNL     1     -39.507 -52.743  14.311  1.00  0.00     0.235 C 
BRANCH  17  18
HETATM   18  N   UNL     1     -39.881 -51.710  13.348  1.00  0.00    -0.301 N 
HETATM   19  C   UNL     1     -39.669 -50.380  13.645  1.00  0.00     0.102 C 
HETATM   20  C   UNL     1     -40.127 -49.403  12.858  1.00  0.00     0.092 C 
HETATM   21  C   UNL     1     -40.879 -49.761  11.645  1.00  0.00     0.250 C 
HETATM   22  O   UNL     1     -41.434 -48.904  10.967  1.00  0.00    -0.268 OA
HETATM   23  N   UNL     1     -40.924 -51.093  11.352  1.00  0.00    -0.275 N 
HETATM   24  C   UNL     1     -40.498 -52.108  12.170  1.00  0.00     0.329 C 
HETATM   25  H   UNL     1     -41.439 -51.361  10.527  1.00  0.00     0.173 HD
HETATM   26  O   UNL     1     -40.693 -53.285  11.867  1.00  0.00    -0.246 OA
ENDBRANCH  17  18
ENDBRANCH   2  17
TORSDOF 5
ENDMDL
MODEL 3
REMARK VINA RESULT:      -6.7      2.385      3.310
REMARK  5 active torsions:
REMARK  status: ('A' for Active; 'I' for Inactive)
REMARK    1  A    between atoms: C_2  and  C_3 
REMARK       I    between atoms: C_2  and  N_12 
REMARK    2  A    between atoms: C_3  and  N_4 
REMARK    3  A    between atoms: N_12  and  C_13 
REMARK    4  A    between atoms: C_13  and  C_14 
REMARK    5  A    between atoms: C_14  and  C_15 
ROOT
HETATM    1  O   UNL     1     -42.256 -49.181  12.847  1.00  0.00    -0.272 OA
HETATM    2  C   UNL     1     -41.729 -49.683  11.857  1.00  0.00     0.235 C 
HETATM    3  N   UNL     1     -41.583 -51.046  11.680  1.00  0.00    -0.360 N 
HETATM    4  H   UNL     1     -40.912 -51.366  10.989  1.00  0.00     0.162 HD
ENDROOT
BRANCH   3   5
HETATM    5  C   UNL     1     -42.030 -52.010  12.670  1.00  0.00     0.123 C 
BRANCH   5   6
HETATM    6  C   UNL     1     -43.445 -52.528  12.375  1.00  0.00     0.029 C 
BRANCH   6   7
HETATM    7  C   UNL     1     -44.423 -52.495  13.581  1.00  0.00    -0.038 C 
HETATM    8  C   UNL     1     -45.574 -51.483  13.346  1.00  0.00     0.014 C 
HETATM    9  C   UNL     1     -46.549 -51.473  14.535  1.00  0.00    -0.013 C 
HETATM   10  C   UNL     1     -45.782 -51.086  15.810  1.00  0.00     0.009 C 
HETATM   11  C   UNL     1     -47.156 -52.873  14.708  1.00  0.00     0.009 C 
HETATM   12  C   UNL     1     -44.667 -52.109  16.085  1.00  0.00    -0.013 C 
HETATM   13  C   UNL     1     -45.287 -53.504  16.251  1.00  0.00     0.009 C 
HETATM   14  C   UNL     1     -43.690 -52.121  14.897  1.00  0.00     0.014 C 
HETATM   15  C   UNL     1     -46.040 -53.898  14.970  1.00  0.00    -0.013 C 
HETATM   16  C   UNL     1     -45.060 -53.900  13.781  1.00  0.00     0.014 C 
ENDBRANCH   6   7
ENDBRANCH   5   6
ENDBRANCH   3   5
BRANCH   2  17
HETATM   17  C   UNL     1     -41.212 -48.841  10.687  1.00  0.00     0.235 C 
BRANCH  17  18
HETATM   18  N   UNL     1     -42.026 -47.660  10.410  1.00  0.00    -0.301 N 
HETATM   19  C   UNL     1     -43.188 -47.781   9.675  1.00  0.00     0.102 C 
HETATM   20  C   UNL     1     -43.881 -46.710   9.278  1.00  0.00     0.092 C 
HETATM   21  C   UNL     1     -43.387 -45.370   9.635  1.00  0.00     0.250 C 
HETATM   22  O   UNL     1     -43.910 -44.359   9.181  1.00  0.00    -0.268 OA
HETATM   23  N   UNL     1     -42.313 -45.344  10.477  1.00  0.00    -0.275 N 
HETATM   24  C   UNL     1     -41.566 -46.430  10.857  1.00  0.00     0.329 C 
HETATM   25  H   UNL     1     -41.955 -44.436  10.730  1.00  0.00     0.173 HD
HETATM   26  O   UNL     1     -40.542 -46.287  11.523  1.00  0.00    -0.246 OA
ENDBRANCH  17  18
ENDBRANCH   2  17
TORSDOF 5
ENDMDL
MODEL 4
REMARK VINA RESULT:      -6.6      1.958      3.088
REMARK  5 active torsions:
REMARK  status: ('A' for Active; 'I' for Inactive)
REMARK    1  A    between atoms: C_2  and  C_3 
REMARK       I    between atoms: C_2  and  N_12 
REMARK    2  A    between atoms: C_3  and  N_4 
REMARK    3  A    between atoms: N_12  and  C_13 
REMARK    4  A    between atoms: C_13  and  C_14 
REMARK    5  A    between atoms: C_14  and  C_15 
ROOT
HETATM    1  O   UNL     1     -43.077 -47.606  14.263  1.00  0.00    -0.272 OA
HETATM    2  C   UNL     1     -42.018 -48.021  13.799  1.00  0.00     0.235 C 
HETATM    3  N   UNL     1     -41.469 -49.245  14.129  1.00  0.00    -0.360 N 
HETATM    4  H   UNL     1     -40.486 -49.396  13.926  1.00  0.00     0.162 HD
ENDROOT
BRANCH   3   5
HETATM    5  C   UNL     1     -42.099 -50.148  15.076  1.00  0.00     0.123 C 
BRANCH   5   6
HETATM    6  C   UNL     1     -42.327 -51.545  14.479  1.00  0.00     0.029 C 
BRANCH   6   7
HETATM    7  C   UNL     1     -43.816 -51.941  14.280  1.00  0.00    -0.038 C 
HETATM    8  C   UNL     1     -44.570 -50.882  13.435  1.00  0.00     0.014 C 
HETATM    9  C   UNL     1     -46.038 -51.292  13.224  1.00  0.00    -0.013 C 
HETATM   10  C   UNL     1     -46.721 -51.434  14.594  1.00  0.00     0.009 C 
HETATM   11  C   UNL     1     -46.090 -52.636  12.485  1.00  0.00     0.009 C 
HETATM   12  C   UNL     1     -46.014 -52.515  15.426  1.00  0.00    -0.013 C 
HETATM   13  C   UNL     1     -46.069 -53.853  14.674  1.00  0.00     0.009 C 
HETATM   14  C   UNL     1     -44.545 -52.108  15.638  1.00  0.00     0.014 C 
HETATM   15  C   UNL     1     -45.372 -53.716  13.311  1.00  0.00    -0.013 C 
HETATM   16  C   UNL     1     -43.904 -53.299  13.528  1.00  0.00     0.014 C 
ENDBRANCH   6   7
ENDBRANCH   5   6
ENDBRANCH   3   5
BRANCH   2  17
HETATM   17  C   UNL     1     -41.210 -47.230  12.767  1.00  0.00     0.235 C 
BRANCH  17  18
HETATM   18  N   UNL     1     -41.798 -47.239  11.429  1.00  0.00    -0.301 N 
HETATM   19  C   UNL     1     -42.592 -46.188  11.017  1.00  0.00     0.102 C 
HETATM   20  C   UNL     1     -43.262 -46.227   9.864  1.00  0.00     0.092 C 
HETATM   21  C   UNL     1     -43.150 -47.424   9.015  1.00  0.00     0.250 C 
HETATM   22  O   UNL     1     -43.850 -47.564   8.018  1.00  0.00    -0.268 OA
HETATM   23  N   UNL     1     -42.240 -48.355   9.426  1.00  0.00    -0.275 N 
HETATM   24  C   UNL     1     -41.578 -48.350  10.627  1.00  0.00     0.329 C 
HETATM   25  H   UNL     1     -42.151 -49.185   8.862  1.00  0.00     0.173 HD
HETATM   26  O   UNL     1     -40.868 -49.299  10.958  1.00  0.00    -0.246 OA
ENDBRANCH  17  18
ENDBRANCH   2  17
TORSDOF 5
ENDMDL
MODEL 5
REMARK VINA RESULT:      -6.5      2.988      3.745
REMARK  5 active torsions:
REMARK  status: ('A' for Active; 'I' for Inactive)
REMARK    1  A    between atoms: C_2  and  C_3 
REMARK       I    between atoms: C_2  and  N_12 
REMARK    2  A    between atoms: C_3  and  N_4 
REMARK    3  A    between atoms: N_12  and  C_13 
REMARK    4  A    between atoms: C_13  and  C_14 
REMARK    5  A    between atoms: C_14  and  C_15 
ROOT
HETATM    1  O   UNL     1     -40.953 -50.359  13.361  1.00  0.00    -0.272 OA
HETATM    2  C   UNL     1     -40.856 -50.670  12.177  1.00  0.00     0.235 C 
HETATM    3  N   UNL     1     -41.342 -51.856  11.658  1.00  0.00    -0.360 N 
HETATM    4  H   UNL     1     -40.992 -52.157  10.755  1.00  0.00     0.162 HD
ENDROOT
BRANCH   3   5
HETATM    5  C   UNL     1     -41.999 -52.853  12.484  1.00  0.00     0.123 C 
BRANCH   5   6
HETATM    6  C   UNL     1     -43.505 -52.940  12.196  1.00  0.00     0.029 C 
BRANCH   6   7
HETATM    7  C   UNL     1     -44.423 -52.764  13.437  1.00  0.00    -0.038 C 
HETATM    8  C   UNL     1     -45.137 -54.091  13.801  1.00  0.00     0.014 C 
HETATM    9  C   UNL     1     -46.026 -53.914  15.044  1.00  0.00    -0.013 C 
HETATM   10  C   UNL     1     -47.079 -52.830  14.757  1.00  0.00     0.009 C 
HETATM   11  C   UNL     1     -45.159 -53.481  16.234  1.00  0.00     0.009 C 
HETATM   12  C   UNL     1     -46.387 -51.494  14.441  1.00  0.00    -0.013 C 
HETATM   13  C   UNL     1     -45.519 -51.076  15.638  1.00  0.00     0.009 C 
HETATM   14  C   UNL     1     -45.496 -51.669  13.199  1.00  0.00     0.014 C 
HETATM   15  C   UNL     1     -44.457 -52.152  15.914  1.00  0.00    -0.013 C 
HETATM   16  C   UNL     1     -43.572 -52.329  14.664  1.00  0.00     0.014 C 
ENDBRANCH   6   7
ENDBRANCH   5   6
ENDBRANCH   3   5
BRANCH   2  17
HETATM   17  C   UNL     1     -40.217 -49.747  11.136  1.00  0.00     0.235 C 
BRANCH  17  18
HETATM   18  N   UNL     1     -40.847 -48.431  11.054  1.00  0.00    -0.301 N 
HETATM   19  C   UNL     1     -41.972 -48.252  10.277  1.00  0.00     0.102 C 
HETATM   20  C   UNL     1     -42.490 -47.040  10.061  1.00  0.00     0.092 C 
HETATM   21  C   UNL     1     -41.839 -45.869  10.669  1.00  0.00     0.250 C 
HETATM   22  O   UNL     1     -42.193 -44.729  10.391  1.00  0.00    -0.268 OA
HETATM   23  N   UNL     1     -40.818 -46.145  11.533  1.00  0.00    -0.275 N 
HETATM   24  C   UNL     1     -40.249 -47.377  11.731  1.00  0.00     0.329 C 
HETATM   25  H   UNL     1     -40.354 -45.357  11.957  1.00  0.00     0.173 HD
HETATM   26  O   UNL     1     -39.251 -47.502  12.441  1.00  0.00    -0.246 OA
ENDBRANCH  17  18
ENDBRANCH   2  17
TORSDOF 5
ENDMDL
MODEL 6
REMARK VINA RESULT:      -6.5      2.625      3.359
REMARK  5 active torsions:
REMARK  status: ('A' for Active; 'I' for Inactive)
REMARK    1  A    between atoms: C_2  and  C_3 
REMARK       I    between atoms: C_2  and  N_12 
REMARK    2  A    between atoms: C_3  and  N_4 
REMARK    3  A    between atoms: N_12  and  C_13 
REMARK    4  A    between atoms: C_13  and  C_14 
REMARK    5  A    between atoms: C_14  and  C_15 
ROOT
HETATM    1  O   UNL     1     -41.059 -49.258  13.690  1.00  0.00    -0.272 OA
HETATM    2  C   UNL     1     -40.418 -49.476  12.665  1.00  0.00     0.235 C 
HETATM    3  N   UNL     1     -40.164 -50.746  12.181  1.00  0.00    -0.360 N 
HETATM    4  H   UNL     1     -39.417 -50.856  11.503  1.00  0.00     0.162 HD
ENDROOT
BRANCH   3   5
HETATM    5  C   UNL     1     -40.627 -51.942  12.862  1.00  0.00     0.123 C 
BRANCH   5   6
HETATM    6  C   UNL     1     -41.850 -52.564  12.171  1.00  0.00     0.029 C 
BRANCH   6   7
HETATM    7  C   UNL     1     -42.971 -53.049  13.130  1.00  0.00    -0.038 C 
HETATM    8  C   UNL     1     -42.555 -54.345  13.871  1.00  0.00     0.014 C 
HETATM    9  C   UNL     1     -43.662 -54.807  14.835  1.00  0.00    -0.013 C 
HETATM   10  C   UNL     1     -44.949 -55.066  14.035  1.00  0.00     0.009 C 
HETATM   11  C   UNL     1     -43.920 -53.709  15.877  1.00  0.00     0.009 C 
HETATM   12  C   UNL     1     -45.401 -53.776  13.333  1.00  0.00    -0.013 C 
HETATM   13  C   UNL     1     -45.652 -52.685  14.386  1.00  0.00     0.009 C 
HETATM   14  C   UNL     1     -44.297 -53.312  12.368  1.00  0.00     0.014 C 
HETATM   15  C   UNL     1     -44.361 -52.415  15.174  1.00  0.00    -0.013 C 
HETATM   16  C   UNL     1     -43.254 -51.959  14.203  1.00  0.00     0.014 C 
ENDBRANCH   6   7
ENDBRANCH   5   6
ENDBRANCH   3   5
BRANCH   2  17
HETATM   17  C   UNL     1     -39.862 -48.350  11.789  1.00  0.00     0.235 C 
BRANCH  17  18
HETATM   18  N   UNL     1     -40.890 -47.619  11.052  1.00  0.00    -0.301 N 
HETATM   19  C   UNL     1     -41.990 -48.287  10.555  1.00  0.00     0.102 C 
HETATM   20  C   UNL     1     -42.874 -47.686   9.757  1.00  0.00     0.092 C 
HETATM   21  C   UNL     1     -42.665 -46.274   9.398  1.00  0.00     0.250 C 
HETATM   22  O   UNL     1     -43.370 -45.719   8.563  1.00  0.00    -0.268 OA
HETATM   23  N   UNL     1     -41.634 -45.650  10.041  1.00  0.00    -0.275 N 
HETATM   24  C   UNL     1     -40.694 -46.263  10.828  1.00  0.00     0.329 C 
HETATM   25  H   UNL     1     -41.470 -44.683   9.807  1.00  0.00     0.173 HD
HETATM   26  O   UNL     1     -39.731 -45.633  11.265  1.00  0.00    -0.246 OA
ENDBRANCH  17  18
ENDBRANCH   2  17
TORSDOF 5
ENDMDL
MODEL 7
REMARK VINA RESULT:      -6.3      2.487      3.500
REMARK  5 active torsions:
REMARK  status: ('A' for Active; 'I' for Inactive)
REMARK    1  A    between atoms: C_2  and  C_3 
REMARK       I    between atoms: C_2  and  N_12 
REMARK    2  A    between atoms: C_3  and  N_4 
REMARK    3  A    between atoms: N_12  and  C_13 
REMARK    4  A    between atoms: C_13  and  C_14 
REMARK    5  A    between atoms: C_14  and  C_15 
ROOT
HETATM    1  O   UNL     1     -40.668 -49.119  12.983  1.00  0.00    -0.272 OA
HETATM    2  C   UNL     1     -41.360 -49.334  11.991  1.00  0.00     0.235 C 
HETATM    3  N   UNL     1     -42.423 -50.218  11.981  1.00  0.00    -0.360 N 
HETATM    4  H   UNL     1     -42.764 -50.540  11.081  1.00  0.00     0.162 HD
ENDROOT
BRANCH   3   5
HETATM    5  C   UNL     1     -42.804 -50.987  13.151  1.00  0.00     0.123 C 
BRANCH   5   6
HETATM    6  C   UNL     1     -43.830 -50.246  14.021  1.00  0.00     0.029 C 
BRANCH   6   7
HETATM    7  C   UNL     1     -44.795 -51.161  14.824  1.00  0.00    -0.038 C 
HETATM    8  C   UNL     1     -44.151 -52.541  15.113  1.00  0.00     0.014 C 
HETATM    9  C   UNL     1     -45.104 -53.434  15.927  1.00  0.00    -0.013 C 
HETATM   10  C   UNL     1     -46.405 -53.633  15.132  1.00  0.00     0.009 C 
HETATM   11  C   UNL     1     -45.422 -52.751  17.264  1.00  0.00     0.009 C 
HETATM   12  C   UNL     1     -47.082 -52.277  14.879  1.00  0.00    -0.013 C 
HETATM   13  C   UNL     1     -47.390 -51.604  16.225  1.00  0.00     0.009 C 
HETATM   14  C   UNL     1     -46.131 -51.382  14.066  1.00  0.00     0.014 C 
HETATM   15  C   UNL     1     -46.087 -51.389  17.012  1.00  0.00    -0.013 C 
HETATM   16  C   UNL     1     -45.134 -50.500  16.190  1.00  0.00     0.014 C 
ENDBRANCH   6   7
ENDBRANCH   5   6
ENDBRANCH   3   5
BRANCH   2  17
HETATM   17  C   UNL     1     -41.137 -48.607  10.662  1.00  0.00     0.235 C 
BRANCH  17  18
HETATM   18  N   UNL     1     -41.521 -47.198  10.693  1.00  0.00    -0.301 N 
HETATM   19  C   UNL     1     -40.559 -46.224  10.866  1.00  0.00     0.102 C 
HETATM   20  C   UNL     1     -40.883 -44.942  11.044  1.00  0.00     0.092 C 
HETATM   21  C   UNL     1     -42.306 -44.563  11.059  1.00  0.00     0.250 C 
HETATM   22  O   UNL     1     -42.657 -43.426  11.354  1.00  0.00    -0.268 OA
HETATM   23  N   UNL     1     -43.184 -45.559  10.743  1.00  0.00    -0.275 N 
HETATM   24  C   UNL     1     -42.870 -46.886  10.601  1.00  0.00     0.329 C 
HETATM   25  H   UNL     1     -44.164 -45.323  10.752  1.00  0.00     0.173 HD
HETATM   26  O   UNL     1     -43.753 -47.728  10.436  1.00  0.00    -0.246 OA
ENDBRANCH  17  18
ENDBRANCH   2  17
TORSDOF 5
ENDMDL
MODEL 8
REMARK VINA RESULT:      -6.3      2.814      3.741
REMARK  5 active torsions:
REMARK  status: ('A' for Active; 'I' for Inactive)
REMARK    1  A    between atoms: C_2  and  C_3 
REMARK       I    between atoms: C_2  and  N_12 
REMARK    2  A    between atoms: C_3  and  N_4 
REMARK    3  A    between atoms: N_12  and  C_13 
REMARK    4  A    between atoms: C_13  and  C_14 
REMARK    5  A    between atoms: C_14  and  C_15 
ROOT
HETATM    1  O   UNL     1     -42.056 -46.239  12.253  1.00  0.00    -0.272 OA
HETATM    2  C   UNL     1     -41.469 -46.480  11.202  1.00  0.00     0.235 C 
HETATM    3  N   UNL     1     -40.270 -47.165  11.139  1.00  0.00    -0.360 N 
HETATM    4  H   UNL     1     -39.723 -47.088  10.287  1.00  0.00     0.162 HD
ENDROOT
BRANCH   3   5
HETATM    5  C   UNL     1     -39.588 -47.647  12.326  1.00  0.00     0.123 C 
BRANCH   5   6
HETATM    6  C   UNL     1     -39.008 -49.056  12.128  1.00  0.00     0.029 C 
BRANCH   6   7
HETATM    7  C   UNL     1     -39.878 -50.211  12.695  1.00  0.00    -0.038 C 
HETATM    8  C   UNL     1     -38.998 -51.383  13.198  1.00  0.00     0.014 C 
HETATM    9  C   UNL     1     -39.866 -52.514  13.777  1.00  0.00    -0.013 C 
HETATM   10  C   UNL     1     -40.821 -53.023  12.685  1.00  0.00     0.009 C 
HETATM   11  C   UNL     1     -40.682 -51.973  14.959  1.00  0.00     0.009 C 
HETATM   12  C   UNL     1     -41.735 -51.882  12.211  1.00  0.00    -0.013 C 
HETATM   13  C   UNL     1     -42.543 -51.348  13.404  1.00  0.00     0.009 C 
HETATM   14  C   UNL     1     -40.870 -50.750  11.631  1.00  0.00     0.014 C 
HETATM   15  C   UNL     1     -41.588 -50.824  14.488  1.00  0.00    -0.013 C 
HETATM   16  C   UNL     1     -40.717 -49.696  13.900  1.00  0.00     0.014 C 
ENDBRANCH   6   7
ENDBRANCH   5   6
ENDBRANCH   3   5
BRANCH   2  17
HETATM   17  C   UNL     1     -42.032 -46.077   9.836  1.00  0.00     0.235 C 
BRANCH  17  18
HETATM   18  N   UNL     1     -43.454 -46.375   9.678  1.00  0.00    -0.301 N 
HETATM   19  C   UNL     1     -43.916 -47.660   9.878  1.00  0.00     0.102 C 
HETATM   20  C   UNL     1     -45.177 -48.002   9.603  1.00  0.00     0.092 C 
HETATM   21  C   UNL     1     -46.092 -46.980   9.071  1.00  0.00     0.250 C 
HETATM   22  O   UNL     1     -47.215 -47.276   8.677  1.00  0.00    -0.268 OA
HETATM   23  N   UNL     1     -45.597 -45.708   9.035  1.00  0.00    -0.275 N 
HETATM   24  C   UNL     1     -44.295 -45.349   9.271  1.00  0.00     0.329 C 
HETATM   25  H   UNL     1     -46.206 -44.993   8.669  1.00  0.00     0.173 HD
HETATM   26  O   UNL     1     -43.920 -44.190   9.094  1.00  0.00    -0.246 OA
ENDBRANCH  17  18
ENDBRANCH   2  17
TORSDOF 5
ENDMDL
MODEL 9
REMARK VINA RESULT:      -6.3      5.004      6.376
REMARK  5 active torsions:
REMARK  status: ('A' for Active; 'I' for Inactive)
REMARK    1  A    between atoms: C_2  and  C_3 
REMARK       I    between atoms: C_2  and  N_12 
REMARK    2  A    between atoms: C_3  and  N_4 
REMARK    3  A    between atoms: N_12  and  C_13 
REMARK    4  A    between atoms: C_13  and  C_14 
REMARK    5  A    between atoms: C_14  and  C_15 
ROOT
HETATM    1  O   UNL     1     -40.540 -52.896  12.120  1.00  0.00    -0.272 OA
HETATM    2  C   UNL     1     -40.363 -53.278  13.274  1.00  0.00     0.235 C 
HETATM    3  N   UNL     1     -41.288 -54.024  13.979  1.00  0.00    -0.360 N 
HETATM    4  H   UNL     1     -41.194 -54.066  14.989  1.00  0.00     0.162 HD
ENDROOT
BRANCH   3   5
HETATM    5  C   UNL     1     -42.568 -54.411  13.414  1.00  0.00     0.123 C 
BRANCH   5   6
HETATM    6  C   UNL     1     -43.630 -54.653  14.497  1.00  0.00     0.029 C 
BRANCH   6   7
HETATM    7  C   UNL     1     -44.533 -53.430  14.818  1.00  0.00    -0.038 C 
HETATM    8  C   UNL     1     -46.033 -53.819  14.798  1.00  0.00     0.014 C 
HETATM    9  C   UNL     1     -46.920 -52.609  15.138  1.00  0.00    -0.013 C 
HETATM   10  C   UNL     1     -46.667 -51.496  14.107  1.00  0.00     0.009 C 
HETATM   11  C   UNL     1     -46.565 -52.096  16.540  1.00  0.00     0.009 C 
HETATM   12  C   UNL     1     -45.192 -51.065  14.148  1.00  0.00    -0.013 C 
HETATM   13  C   UNL     1     -44.850 -50.558  15.558  1.00  0.00     0.009 C 
HETATM   14  C   UNL     1     -44.303 -52.274  13.809  1.00  0.00     0.014 C 
HETATM   15  C   UNL     1     -45.087 -51.676  16.586  1.00  0.00    -0.013 C 
HETATM   16  C   UNL     1     -44.201 -52.888  16.237  1.00  0.00     0.014 C 
ENDBRANCH   6   7
ENDBRANCH   5   6
ENDBRANCH   3   5
BRANCH   2  17
HETATM   17  C   UNL     1     -39.069 -52.995  14.042  1.00  0.00     0.235 C 
BRANCH  17  18
HETATM   18  N   UNL     1     -38.732 -51.575  14.119  1.00  0.00    -0.301 N 
HETATM   19  C   UNL     1     -39.416 -50.750  14.988  1.00  0.00     0.102 C 
HETATM   20  C   UNL     1     -39.239 -49.426  14.984  1.00  0.00     0.092 C 
HETATM   21  C   UNL     1     -38.290 -48.838  14.024  1.00  0.00     0.250 C 
HETATM   22  O   UNL     1     -38.194 -47.624  13.889  1.00  0.00    -0.268 OA
HETATM   23  N   UNL     1     -37.555 -49.732  13.300  1.00  0.00    -0.275 N 
HETATM   24  C   UNL     1     -37.756 -51.088  13.261  1.00  0.00     0.329 C 
HETATM   25  H   UNL     1     -36.903 -49.350  12.633  1.00  0.00     0.173 HD
HETATM   26  O   UNL     1     -37.119 -51.796  12.482  1.00  0.00    -0.246 OA
ENDBRANCH  17  18
ENDBRANCH   2  17
TORSDOF 5
ENDMDL
