MODEL 1
REMARK VINA RESULT:      -7.1      0.000      0.000
REMARK  2 active torsions:
REMARK  status: ('A' for Active; 'I' for Inactive)
REMARK    1  A    between atoms: C_8  and  N_9 
REMARK       I    between atoms: N_9  and  C_10 
REMARK       I    between atoms: C_10  and  N_12 
REMARK    2  A    between atoms: N_12  and  C_13 
ROOT
HETATM    1  N   UNL     1     -42.426 -48.265   9.585  1.00  0.00    -0.306 N 
HETATM    2  C   UNL     1     -41.846 -48.488  10.812  1.00  0.00     0.321 C 
HETATM    3  O   UNL     1     -42.247 -48.050  11.886  1.00  0.00    -0.247 OA
HETATM    4  N   UNL     1     -40.711 -49.260  10.724  1.00  0.00    -0.338 N 
HETATM    5  H   UNL     1     -42.122 -48.836   8.808  1.00  0.00     0.171 HD
HETATM    6  H   UNL     1     -40.569 -49.804   9.886  1.00  0.00     0.164 HD
ENDROOT
BRANCH   1   7
HETATM    7  C   UNL     1     -43.531 -47.415   9.335  1.00  0.00     0.077 A 
HETATM    8  C   UNL     1     -43.315 -46.038   9.292  1.00  0.00     0.158 A 
HETATM    9  F   UNL     1     -42.085 -45.533   9.471  1.00  0.00    -0.202 F 
HETATM   10  C   UNL     1     -44.386 -45.195   9.044  1.00  0.00     0.132 A 
HETATM   11  N   UNL     1     -45.653 -45.628   8.852  1.00  0.00    -0.372 N 
HETATM   12  C   UNL     1     -45.845 -46.963   8.914  1.00  0.00     0.090 A 
ATOM     13  HN  UNL     1     -46.421 -44.982   8.671  1.00  0.00     0.164 HD
HETATM   14  C   UNL     1     -44.830 -47.881   9.151  1.00  0.00     0.050 A 
ENDBRANCH   1   7
BRANCH   4  15
HETATM   15  C   UNL     1     -39.987 -49.667  11.925  1.00  0.00     0.092 C 
HETATM   16  C   UNL     1     -38.538 -49.138  11.870  1.00  0.00     0.026 C 
HETATM   17  C   UNL     1     -37.650 -49.679  13.000  1.00  0.00     0.004 C 
HETATM   18  C   UNL     1     -37.705 -51.206  13.095  1.00  0.00     0.032 C 
HETATM   19  C   UNL     1     -39.153 -51.622  13.259  1.00  0.00     0.127 C 
HETATM   20  O   UNL     1     -39.371 -53.032  13.320  1.00  0.00    -0.385 OA
HETATM   21  C   UNL     1     -39.980 -51.187  12.066  1.00  0.00     0.039 C 
HETATM   22  C   UNL     1     -40.757 -53.231  12.954  1.00  0.00     0.168 C 
HETATM   23  C   UNL     1     -41.272 -51.910  12.379  1.00  0.00     0.035 C 
ENDBRANCH   4  15
TORSDOF 2
ENDMDL
MODEL 2
REMARK VINA RESULT:      -6.5      3.204      4.746
REMARK  2 active torsions:
REMARK  status: ('A' for Active; 'I' for Inactive)
REMARK    1  A    between atoms: C_8  and  N_9 
REMARK       I    between atoms: N_9  and  C_10 
REMARK       I    between atoms: C_10  and  N_12 
REMARK    2  A    between atoms: N_12  and  C_13 
ROOT
HETATM    1  N   UNL     1     -41.849 -49.503  11.064  1.00  0.00    -0.306 N 
HETATM    2  C   UNL     1     -42.224 -50.087  12.251  1.00  0.00     0.321 C 
HETATM    3  O   UNL     1     -42.395 -49.503  13.316  1.00  0.00    -0.247 OA
HETATM    4  N   UNL     1     -42.374 -51.451  12.140  1.00  0.00    -0.338 N 
HETATM    5  H   UNL     1     -41.934 -50.051  10.219  1.00  0.00     0.171 HD
HETATM    6  H   UNL     1     -42.482 -51.844  11.218  1.00  0.00     0.164 HD
ENDROOT
BRANCH   1   7
HETATM    7  C   UNL     1     -41.504 -48.140  10.886  1.00  0.00     0.077 A 
HETATM    8  C   UNL     1     -42.426 -47.295  10.273  1.00  0.00     0.158 A 
HETATM    9  F   UNL     1     -43.619 -47.760   9.872  1.00  0.00    -0.202 F 
HETATM   10  C   UNL     1     -42.104 -45.958  10.097  1.00  0.00     0.132 A 
HETATM   11  N   UNL     1     -40.924 -45.415  10.475  1.00  0.00    -0.372 N 
HETATM   12  C   UNL     1     -40.037 -46.254  11.053  1.00  0.00     0.090 A 
ATOM     13  HN  UNL     1     -40.716 -44.427  10.332  1.00  0.00     0.164 HD
HETATM   14  C   UNL     1     -40.279 -47.603  11.275  1.00  0.00     0.050 A 
ENDBRANCH   1   7
BRANCH   4  15
HETATM   15  C   UNL     1     -42.835 -52.248  13.274  1.00  0.00     0.092 C 
HETATM   16  C   UNL     1     -42.028 -53.560  13.357  1.00  0.00     0.026 C 
HETATM   17  C   UNL     1     -42.573 -54.544  14.402  1.00  0.00     0.004 C 
HETATM   18  C   UNL     1     -44.072 -54.797  14.227  1.00  0.00     0.032 C 
HETATM   19  C   UNL     1     -44.790 -53.463  14.272  1.00  0.00     0.127 C 
HETATM   20  O   UNL     1     -46.203 -53.534  14.079  1.00  0.00    -0.385 OA
HETATM   21  C   UNL     1     -44.323 -52.560  13.148  1.00  0.00     0.039 C 
HETATM   22  C   UNL     1     -46.606 -52.214  13.642  1.00  0.00     0.168 C 
HETATM   23  C   UNL     1     -45.333 -51.441  13.290  1.00  0.00     0.035 C 
ENDBRANCH   4  15
TORSDOF 2
ENDMDL
MODEL 3
REMARK VINA RESULT:      -6.4      4.238      6.028
REMARK  2 active torsions:
REMARK  status: ('A' for Active; 'I' for Inactive)
REMARK    1  A    between atoms: C_8  and  N_9 
REMARK       I    between atoms: N_9  and  C_10 
REMARK       I    between atoms: C_10  and  N_12 
REMARK    2  A    between atoms: N_12  and  C_13 
ROOT
HETATM    1  N   UNL     1     -44.135 -52.072  12.431  1.00  0.00    -0.306 N 
HETATM    2  C   UNL     1     -43.277 -51.164  13.007  1.00  0.00     0.321 C 
HETATM    3  O   UNL     1     -43.037 -51.064  14.205  1.00  0.00    -0.247 OA
HETATM    4  N   UNL     1     -42.703 -50.324  12.080  1.00  0.00    -0.338 N 
HETATM    5  H   UNL     1     -44.098 -52.187  11.427  1.00  0.00     0.171 HD
HETATM    6  H   UNL     1     -42.719 -50.603  11.111  1.00  0.00     0.164 HD
ENDROOT
BRANCH   1   7
HETATM    7  C   UNL     1     -44.963 -52.985  13.130  1.00  0.00     0.077 A 
HETATM    8  C   UNL     1     -46.101 -52.496  13.770  1.00  0.00     0.158 A 
HETATM    9  F   UNL     1     -46.409 -51.192  13.714  1.00  0.00    -0.202 F 
HETATM   10  C   UNL     1     -46.922 -53.379  14.453  1.00  0.00     0.132 A 
HETATM   11  N   UNL     1     -46.679 -54.705  14.553  1.00  0.00    -0.372 N 
HETATM   12  C   UNL     1     -45.563 -55.157  13.940  1.00  0.00     0.090 A 
ATOM     13  HN  UNL     1     -47.303 -55.330  15.064  1.00  0.00     0.164 HD
HETATM   14  C   UNL     1     -44.689 -54.347  13.229  1.00  0.00     0.050 A 
ENDBRANCH   1   7
BRANCH   4  15
HETATM   15  C   UNL     1     -41.708 -49.334  12.483  1.00  0.00     0.092 C 
HETATM   16  C   UNL     1     -42.140 -47.931  12.006  1.00  0.00     0.026 C 
HETATM   17  C   UNL     1     -41.062 -46.859  12.218  1.00  0.00     0.004 C 
HETATM   18  C   UNL     1     -39.711 -47.277  11.635  1.00  0.00     0.032 C 
HETATM   19  C   UNL     1     -39.318 -48.607  12.246  1.00  0.00     0.127 C 
HETATM   20  O   UNL     1     -38.089 -49.152  11.765  1.00  0.00    -0.385 OA
HETATM   21  C   UNL     1     -40.337 -49.678  11.910  1.00  0.00     0.039 C 
HETATM   22  C   UNL     1     -38.155 -50.572  12.039  1.00  0.00     0.168 C 
HETATM   23  C   UNL     1     -39.600 -50.896  12.426  1.00  0.00     0.035 C 
ENDBRANCH   4  15
TORSDOF 2
ENDMDL
MODEL 4
REMARK VINA RESULT:      -6.2      2.635      7.244
REMARK  2 active torsions:
REMARK  status: ('A' for Active; 'I' for Inactive)
REMARK    1  A    between atoms: C_8  and  N_9 
REMARK       I    between atoms: N_9  and  C_10 
REMARK       I    between atoms: C_10  and  N_12 
REMARK    2  A    between atoms: N_12  and  C_13 
ROOT
HETATM    1  N   UNL     1     -40.689 -50.630  11.320  1.00  0.00    -0.306 N 
HETATM    2  C   UNL     1     -41.626 -49.646  11.530  1.00  0.00     0.321 C 
HETATM    3  O   UNL     1     -42.279 -49.484  12.556  1.00  0.00    -0.247 OA
HETATM    4  N   UNL     1     -41.792 -48.836  10.431  1.00  0.00    -0.338 N 
HETATM    5  H   UNL     1     -40.080 -50.540  10.518  1.00  0.00     0.171 HD
HETATM    6  H   UNL     1     -41.070 -48.836   9.726  1.00  0.00     0.164 HD
ENDROOT
BRANCH   1   7
HETATM    7  C   UNL     1     -40.383 -51.685  12.215  1.00  0.00     0.077 A 
HETATM    8  C   UNL     1     -39.380 -51.484  13.162  1.00  0.00     0.158 A 
HETATM    9  F   UNL     1     -38.729 -50.314  13.231  1.00  0.00    -0.202 F 
HETATM   10  C   UNL     1     -39.073 -52.506  14.047  1.00  0.00     0.132 A 
HETATM   11  N   UNL     1     -39.685 -53.712  14.041  1.00  0.00    -0.372 N 
HETATM   12  C   UNL     1     -40.643 -53.893  13.106  1.00  0.00     0.090 A 
ATOM     13  HN  UNL     1     -39.437 -54.445  14.706  1.00  0.00     0.164 HD
HETATM   14  C   UNL     1     -41.019 -52.924  12.185  1.00  0.00     0.050 A 
ENDBRANCH   1   7
BRANCH   4  15
HETATM   15  C   UNL     1     -42.693 -47.688  10.476  1.00  0.00     0.092 C 
HETATM   16  C   UNL     1     -43.678 -47.746   9.290  1.00  0.00     0.026 C 
HETATM   17  C   UNL     1     -44.536 -46.480   9.150  1.00  0.00     0.004 C 
HETATM   18  C   UNL     1     -43.687 -45.207   9.134  1.00  0.00     0.032 C 
HETATM   19  C   UNL     1     -42.838 -45.184  10.390  1.00  0.00     0.127 C 
HETATM   20  O   UNL     1     -41.954 -44.069  10.499  1.00  0.00    -0.385 OA
HETATM   21  C   UNL     1     -41.908 -46.380  10.436  1.00  0.00     0.039 C 
HETATM   22  C   UNL     1     -40.917 -44.478  11.423  1.00  0.00     0.168 C 
HETATM   23  C   UNL     1     -41.055 -45.988  11.623  1.00  0.00     0.035 C 
ENDBRANCH   4  15
TORSDOF 2
ENDMDL
MODEL 5
REMARK VINA RESULT:      -6.1      4.433      6.156
REMARK  2 active torsions:
REMARK  status: ('A' for Active; 'I' for Inactive)
REMARK    1  A    between atoms: C_8  and  N_9 
REMARK       I    between atoms: N_9  and  C_10 
REMARK       I    between atoms: C_10  and  N_12 
REMARK    2  A    between atoms: N_12  and  C_13 
ROOT
HETATM    1  N   UNL     1     -44.589 -51.565  12.582  1.00  0.00    -0.306 N 
HETATM    2  C   UNL     1     -43.631 -50.737  13.120  1.00  0.00     0.321 C 
HETATM    3  O   UNL     1     -43.202 -50.787  14.268  1.00  0.00    -0.247 OA
HETATM    4  N   UNL     1     -43.193 -49.790  12.223  1.00  0.00    -0.338 N 
HETATM    5  H   UNL     1     -44.713 -51.555  11.579  1.00  0.00     0.171 HD
HETATM    6  H   UNL     1     -43.369 -49.946  11.242  1.00  0.00     0.164 HD
ENDROOT
BRANCH   1   7
HETATM    7  C   UNL     1     -45.315 -52.557  13.287  1.00  0.00     0.077 A 
HETATM    8  C   UNL     1     -44.926 -53.888  13.150  1.00  0.00     0.158 A 
HETATM    9  F   UNL     1     -43.881 -54.220  12.378  1.00  0.00    -0.202 F 
HETATM   10  C   UNL     1     -45.624 -54.869  13.838  1.00  0.00     0.132 A 
HETATM   11  N   UNL     1     -46.687 -54.613  14.636  1.00  0.00    -0.372 N 
HETATM   12  C   UNL     1     -47.057 -53.319  14.742  1.00  0.00     0.090 A 
ATOM     13  HN  UNL     1     -47.180 -55.357  15.129  1.00  0.00     0.164 HD
HETATM   14  C   UNL     1     -46.413 -52.273  14.096  1.00  0.00     0.050 A 
ENDBRANCH   1   7
BRANCH   4  15
HETATM   15  C   UNL     1     -42.126 -48.859  12.580  1.00  0.00     0.092 C 
HETATM   16  C   UNL     1     -42.502 -47.431  12.130  1.00  0.00     0.026 C 
HETATM   17  C   UNL     1     -41.357 -46.422  12.292  1.00  0.00     0.004 C 
HETATM   18  C   UNL     1     -40.061 -46.911  11.642  1.00  0.00     0.032 C 
HETATM   19  C   UNL     1     -39.714 -48.265  12.228  1.00  0.00     0.127 C 
HETATM   20  O   UNL     1     -38.542 -48.873  11.684  1.00  0.00    -0.385 OA
HETATM   21  C   UNL     1     -40.806 -49.275  11.938  1.00  0.00     0.039 C 
HETATM   22  C   UNL     1     -38.674 -50.289  11.955  1.00  0.00     0.168 C 
HETATM   23  C   UNL     1     -40.113 -50.535  12.412  1.00  0.00     0.035 C 
ENDBRANCH   4  15
TORSDOF 2
ENDMDL
MODEL 6
REMARK VINA RESULT:      -5.9      3.755      5.826
REMARK  2 active torsions:
REMARK  status: ('A' for Active; 'I' for Inactive)
REMARK    1  A    between atoms: C_8  and  N_9 
REMARK       I    between atoms: N_9  and  C_10 
REMARK       I    between atoms: C_10  and  N_12 
REMARK    2  A    between atoms: N_12  and  C_13 
ROOT
HETATM    1  N   UNL     1     -43.351 -52.820  11.986  1.00  0.00    -0.306 N 
HETATM    2  C   UNL     1     -42.343 -51.984  12.404  1.00  0.00     0.321 C 
HETATM    3  O   UNL     1     -42.191 -51.557  13.544  1.00  0.00    -0.247 OA
HETATM    4  N   UNL     1     -41.494 -51.632  11.380  1.00  0.00    -0.338 N 
HETATM    5  H   UNL     1     -43.257 -53.258  11.080  1.00  0.00     0.171 HD
HETATM    6  H   UNL     1     -41.496 -52.198  10.545  1.00  0.00     0.164 HD
ENDROOT
BRANCH   1   7
HETATM    7  C   UNL     1     -44.443 -53.257  12.775  1.00  0.00     0.077 A 
HETATM    8  C   UNL     1     -45.449 -52.343  13.084  1.00  0.00     0.158 A 
HETATM    9  F   UNL     1     -45.389 -51.082  12.633  1.00  0.00    -0.202 F 
HETATM   10  C   UNL     1     -46.526 -52.759  13.851  1.00  0.00     0.132 A 
HETATM   11  N   UNL     1     -46.659 -54.013  14.341  1.00  0.00    -0.372 N 
HETATM   12  C   UNL     1     -45.666 -54.879  14.045  1.00  0.00     0.090 A 
ATOM     13  HN  UNL     1     -47.464 -54.288  14.904  1.00  0.00     0.164 HD
HETATM   14  C   UNL     1     -44.556 -54.551  13.279  1.00  0.00     0.050 A 
ENDBRANCH   1   7
BRANCH   4  15
HETATM   15  C   UNL     1     -40.317 -50.804  11.634  1.00  0.00     0.092 C 
HETATM   16  C   UNL     1     -39.528 -51.367  12.835  1.00  0.00     0.026 C 
HETATM   17  C   UNL     1     -38.384 -50.451  13.292  1.00  0.00     0.004 C 
HETATM   18  C   UNL     1     -38.855 -49.015  13.531  1.00  0.00     0.032 C 
HETATM   19  C   UNL     1     -39.515 -48.512  12.263  1.00  0.00     0.127 C 
HETATM   20  O   UNL     1     -40.048 -47.190  12.345  1.00  0.00    -0.385 OA
HETATM   21  C   UNL     1     -40.721 -49.359  11.908  1.00  0.00     0.039 C 
HETATM   22  C   UNL     1     -41.042 -47.101  11.297  1.00  0.00     0.168 C 
HETATM   23  C   UNL     1     -41.294 -48.521  10.785  1.00  0.00     0.035 C 
ENDBRANCH   4  15
TORSDOF 2
ENDMDL
MODEL 7
REMARK VINA RESULT:      -5.7      4.280      6.771
REMARK  2 active torsions:
REMARK  status: ('A' for Active; 'I' for Inactive)
REMARK    1  A    between atoms: C_8  and  N_9 
REMARK       I    between atoms: N_9  and  C_10 
REMARK       I    between atoms: C_10  and  N_12 
REMARK    2  A    between atoms: N_12  and  C_13 
ROOT
HETATM    1  N   UNL     1     -44.415 -50.491  14.216  1.00  0.00    -0.306 N 
HETATM    2  C   UNL     1     -43.431 -50.294  13.275  1.00  0.00     0.321 C 
HETATM    3  O   UNL     1     -42.913 -51.166  12.586  1.00  0.00    -0.247 OA
HETATM    4  N   UNL     1     -43.045 -48.977  13.188  1.00  0.00    -0.338 N 
HETATM    5  H   UNL     1     -44.898 -49.677  14.573  1.00  0.00     0.171 HD
HETATM    6  H   UNL     1     -43.661 -48.274  13.567  1.00  0.00     0.164 HD
ENDROOT
BRANCH   1   7
HETATM    7  C   UNL     1     -44.934 -51.746  14.620  1.00  0.00     0.077 A 
HETATM    8  C   UNL     1     -46.277 -52.023  14.368  1.00  0.00     0.158 A 
HETATM    9  F   UNL     1     -47.055 -51.125  13.746  1.00  0.00    -0.202 F 
HETATM   10  C   UNL     1     -46.796 -53.249  14.753  1.00  0.00     0.132 A 
HETATM   11  N   UNL     1     -46.076 -54.205  15.383  1.00  0.00    -0.372 N 
HETATM   12  C   UNL     1     -44.781 -53.911  15.632  1.00  0.00     0.090 A 
ATOM     13  HN  UNL     1     -46.487 -55.098  15.654  1.00  0.00     0.164 HD
HETATM   14  C   UNL     1     -44.176 -52.713  15.276  1.00  0.00     0.050 A 
ENDBRANCH   1   7
BRANCH   4  15
HETATM   15  C   UNL     1     -42.059 -48.550  12.198  1.00  0.00     0.092 C 
HETATM   16  C   UNL     1     -40.722 -48.222  12.896  1.00  0.00     0.026 C 
HETATM   17  C   UNL     1     -39.688 -47.583  11.958  1.00  0.00     0.004 C 
HETATM   18  C   UNL     1     -40.259 -46.379  11.206  1.00  0.00     0.032 C 
HETATM   19  C   UNL     1     -41.503 -46.824  10.464  1.00  0.00     0.127 C 
HETATM   20  O   UNL     1     -42.176 -45.792   9.744  1.00  0.00    -0.385 OA
HETATM   21  C   UNL     1     -42.556 -47.330  11.429  1.00  0.00     0.039 C 
HETATM   22  C   UNL     1     -43.535 -46.260   9.566  1.00  0.00     0.168 C 
HETATM   23  C   UNL     1     -43.721 -47.477  10.473  1.00  0.00     0.035 C 
ENDBRANCH   4  15
TORSDOF 2
ENDMDL
MODEL 8
REMARK VINA RESULT:      -5.5      4.890      7.530
REMARK  2 active torsions:
REMARK  status: ('A' for Active; 'I' for Inactive)
REMARK    1  A    between atoms: C_8  and  N_9 
REMARK       I    between atoms: N_9  and  C_10 
REMARK       I    between atoms: C_10  and  N_12 
REMARK    2  A    between atoms: N_12  and  C_13 
ROOT
HETATM    1  N   UNL     1     -38.959 -52.020  14.381  1.00  0.00    -0.306 N 
HETATM    2  C   UNL     1     -39.165 -53.378  14.463  1.00  0.00     0.321 C 
HETATM    3  O   UNL     1     -39.326 -54.138  13.513  1.00  0.00    -0.247 OA
HETATM    4  N   UNL     1     -39.201 -53.826  15.763  1.00  0.00    -0.338 N 
HETATM    5  H   UNL     1     -38.644 -51.539  15.212  1.00  0.00     0.171 HD
HETATM    6  H   UNL     1     -38.811 -53.234  16.481  1.00  0.00     0.164 HD
ENDROOT
BRANCH   1   7
HETATM    7  C   UNL     1     -38.991 -51.249  13.193  1.00  0.00     0.077 A 
HETATM    8  C   UNL     1     -37.781 -50.852  12.625  1.00  0.00     0.158 A 
HETATM    9  F   UNL     1     -36.615 -51.203  13.186  1.00  0.00    -0.202 F 
HETATM   10  C   UNL     1     -37.797 -50.101  11.460  1.00  0.00     0.132 A 
HETATM   11  N   UNL     1     -38.931 -49.710  10.836  1.00  0.00    -0.372 N 
HETATM   12  C   UNL     1     -40.093 -50.091  11.410  1.00  0.00     0.090 A 
ATOM     13  HN  UNL     1     -38.911 -49.157   9.978  1.00  0.00     0.164 HD
HETATM   14  C   UNL     1     -40.171 -50.848  12.571  1.00  0.00     0.050 A 
ENDBRANCH   1   7
BRANCH   4  15
HETATM   15  C   UNL     1     -39.342 -55.249  16.061  1.00  0.00     0.092 C 
HETATM   16  C   UNL     1     -40.810 -55.570  16.408  1.00  0.00     0.026 C 
HETATM   17  C   UNL     1     -41.014 -57.003  16.920  1.00  0.00     0.004 C 
HETATM   18  C   UNL     1     -40.061 -57.346  18.067  1.00  0.00     0.032 C 
HETATM   19  C   UNL     1     -38.641 -57.106  17.595  1.00  0.00     0.127 C 
HETATM   20  O   UNL     1     -37.632 -57.344  18.577  1.00  0.00    -0.385 OA
HETATM   21  C   UNL     1     -38.434 -55.653  17.219  1.00  0.00     0.039 C 
HETATM   22  C   UNL     1     -36.474 -56.593  18.140  1.00  0.00     0.168 C 
HETATM   23  C   UNL     1     -36.933 -55.656  17.021  1.00  0.00     0.035 C 
ENDBRANCH   4  15
TORSDOF 2
ENDMDL
MODEL 9
REMARK VINA RESULT:      -5.2      2.920      4.570
REMARK  2 active torsions:
REMARK  status: ('A' for Active; 'I' for Inactive)
REMARK    1  A    between atoms: C_8  and  N_9 
REMARK       I    between atoms: N_9  and  C_10 
REMARK       I    between atoms: C_10  and  N_12 
REMARK    2  A    between atoms: N_12  and  C_13 
ROOT
HETATM    1  N   UNL     1     -42.541 -48.864  12.533  1.00  0.00    -0.306 N 
HETATM    2  C   UNL     1     -42.366 -50.218  12.362  1.00  0.00     0.321 C 
HETATM    3  O   UNL     1     -41.577 -50.747  11.587  1.00  0.00    -0.247 OA
HETATM    4  N   UNL     1     -43.210 -50.960  13.157  1.00  0.00    -0.338 N 
HETATM    5  H   UNL     1     -43.072 -48.553  13.336  1.00  0.00     0.171 HD
HETATM    6  H   UNL     1     -43.640 -50.506  13.948  1.00  0.00     0.164 HD
ENDROOT
BRANCH   1   7
HETATM    7  C   UNL     1     -41.908 -47.847  11.776  1.00  0.00     0.077 A 
HETATM    8  C   UNL     1     -42.603 -47.284  10.707  1.00  0.00     0.158 A 
HETATM    9  F   UNL     1     -43.847 -47.689  10.411  1.00  0.00    -0.202 F 
HETATM   10  C   UNL     1     -41.999 -46.285   9.961  1.00  0.00     0.132 A 
HETATM   11  N   UNL     1     -40.750 -45.822  10.198  1.00  0.00    -0.372 N 
HETATM   12  C   UNL     1     -40.087 -46.391  11.229  1.00  0.00     0.090 A 
ATOM     13  HN  UNL     1     -40.332 -45.085   9.631  1.00  0.00     0.164 HD
HETATM   14  C   UNL     1     -40.617 -47.392  12.032  1.00  0.00     0.050 A 
ENDBRANCH   1   7
BRANCH   4  15
HETATM   15  C   UNL     1     -43.132 -52.418  13.173  1.00  0.00     0.092 C 
HETATM   16  C   UNL     1     -44.549 -53.021  13.062  1.00  0.00     0.026 C 
HETATM   17  C   UNL     1     -44.579 -54.542  13.263  1.00  0.00     0.004 C 
HETATM   18  C   UNL     1     -43.869 -54.967  14.550  1.00  0.00     0.032 C 
HETATM   19  C   UNL     1     -42.454 -54.425  14.516  1.00  0.00     0.127 C 
HETATM   20  O   UNL     1     -41.673 -54.707  15.678  1.00  0.00    -0.385 OA
HETATM   21  C   UNL     1     -42.456 -52.911  14.448  1.00  0.00     0.039 C 
HETATM   22  C   UNL     1     -40.617 -53.716  15.691  1.00  0.00     0.168 C 
HETATM   23  C   UNL     1     -40.980 -52.649  14.657  1.00  0.00     0.035 C 
ENDBRANCH   4  15
TORSDOF 2
ENDMDL
