MODEL 1
REMARK VINA RESULT:      -5.8      0.000      0.000
REMARK  6 active torsions:
REMARK  status: ('A' for Active; 'I' for Inactive)
REMARK    1  A    between atoms: C_2  and  C_5 
REMARK    2  A    between atoms: C_5  and  O_6 
REMARK    3  A    between atoms: O_6  and  C_7 
REMARK    4  A    between atoms: C_7  and  C_8 
REMARK       I    between atoms: C_8  and  N_10 
REMARK    5  A    between atoms: N_10  and  C_11 
REMARK    6  A    between atoms: C_17  and  N_18 
ROOT
HETATM    1  C   UNL     1     -39.721 -50.397  12.841  1.00  0.00     0.079 A 
HETATM    2  C   UNL     1     -38.551 -51.156  13.041  1.00  0.00     0.035 A 
HETATM    3  C   UNL     1     -37.408 -50.862  12.313  1.00  0.00     0.019 A 
HETATM    4  C   UNL     1     -37.477 -49.821  11.413  1.00  0.00     0.090 A 
HETATM    5  N   UNL     1     -38.576 -49.053  11.222  1.00  0.00    -0.351 N 
ATOM      6  HN  UNL     1     -38.559 -48.293  10.543  1.00  0.00     0.166 HD
HETATM    7  C   UNL     1     -39.708 -49.301  11.944  1.00  0.00     0.130 A 
ENDROOT
BRANCH   1   8
HETATM    8  N   UNL     1     -40.904 -50.869  13.458  1.00  0.00    -0.322 N 
HETATM    9  C   UNL     1     -41.743 -51.801  12.874  1.00  0.00     0.245 C 
HETATM   10  O   UNL     1     -41.559 -52.330  11.782  1.00  0.00    -0.271 OA
HETATM   11  H   UNL     1     -41.054 -50.603  14.425  1.00  0.00     0.169 HD
BRANCH   9  12
HETATM   12  C   UNL     1     -42.888 -52.241  13.787  1.00  0.00     0.271 C 
BRANCH  12  13
HETATM   13  O   UNL     1     -44.111 -52.376  13.076  1.00  0.00    -0.373 OA
BRANCH  13  14
HETATM   14  C   UNL     1     -44.979 -51.255  13.307  1.00  0.00     0.285 C 
BRANCH  14  15
HETATM   15  C   UNL     1     -46.466 -51.626  13.303  1.00  0.00     0.408 C 
HETATM   16  F   UNL     1     -47.084 -51.305  12.148  1.00  0.00    -0.169 F 
HETATM   17  F   UNL     1     -47.118 -50.994  14.307  1.00  0.00    -0.169 F 
HETATM   18  F   UNL     1     -46.625 -52.957  13.497  1.00  0.00    -0.169 F 
ENDBRANCH  14  15
ENDBRANCH  13  14
ENDBRANCH  12  13
ENDBRANCH   9  12
ENDBRANCH   1   8
BRANCH   7  19
HETATM   19  N   UNL     1     -40.722 -48.378  11.802  1.00  0.00    -0.361 N 
HETATM   20  C   UNL     1     -41.732 -48.607  10.759  1.00  0.00     0.150 C 
HETATM   21  C   UNL     1     -42.237 -47.282  10.168  1.00  0.00     0.187 C 
HETATM   22  O   UNL     1     -42.678 -46.381  11.196  1.00  0.00    -0.388 OA
HETATM   23  C   UNL     1     -41.570 -46.057  12.044  1.00  0.00     0.187 C 
HETATM   24  C   UNL     1     -41.002 -47.300  12.750  1.00  0.00     0.150 C 
ENDBRANCH   7  19
TORSDOF 6
ENDMDL
MODEL 2
REMARK VINA RESULT:      -5.7      2.491      4.900
REMARK  6 active torsions:
REMARK  status: ('A' for Active; 'I' for Inactive)
REMARK    1  A    between atoms: C_2  and  C_5 
REMARK    2  A    between atoms: C_5  and  O_6 
REMARK    3  A    between atoms: O_6  and  C_7 
REMARK    4  A    between atoms: C_7  and  C_8 
REMARK       I    between atoms: C_8  and  N_10 
REMARK    5  A    between atoms: N_10  and  C_11 
REMARK    6  A    between atoms: C_17  and  N_18 
ROOT
HETATM    1  C   UNL     1     -39.537 -50.010  11.617  1.00  0.00     0.079 A 
HETATM    2  C   UNL     1     -38.168 -49.809  11.352  1.00  0.00     0.035 A 
HETATM    3  C   UNL     1     -37.217 -50.438  12.141  1.00  0.00     0.019 A 
HETATM    4  C   UNL     1     -37.668 -51.242  13.164  1.00  0.00     0.090 A 
HETATM    5  N   UNL     1     -38.976 -51.480  13.422  1.00  0.00    -0.351 N 
ATOM      6  HN  UNL     1     -39.243 -52.092  14.193  1.00  0.00     0.166 HD
HETATM    7  C   UNL     1     -39.935 -50.897  12.646  1.00  0.00     0.130 A 
ENDROOT
BRANCH   1   8
HETATM    8  N   UNL     1     -40.452 -49.190  10.914  1.00  0.00    -0.322 N 
HETATM    9  C   UNL     1     -40.867 -47.953  11.373  1.00  0.00     0.245 C 
HETATM   10  O   UNL     1     -40.489 -47.422  12.413  1.00  0.00    -0.271 OA
HETATM   11  H   UNL     1     -40.697 -49.479   9.974  1.00  0.00     0.169 HD
BRANCH   9  12
HETATM   12  C   UNL     1     -41.760 -47.208  10.381  1.00  0.00     0.271 C 
BRANCH  12  13
HETATM   13  O   UNL     1     -42.953 -47.928  10.097  1.00  0.00    -0.373 OA
BRANCH  13  14
HETATM   14  C   UNL     1     -43.530 -47.515   8.847  1.00  0.00     0.285 C 
BRANCH  14  15
HETATM   15  C   UNL     1     -45.062 -47.532   8.850  1.00  0.00     0.408 C 
HETATM   16  F   UNL     1     -45.580 -48.318   7.883  1.00  0.00    -0.169 F 
HETATM   17  F   UNL     1     -45.554 -46.284   8.672  1.00  0.00    -0.169 F 
HETATM   18  F   UNL     1     -45.532 -47.983  10.038  1.00  0.00    -0.169 F 
ENDBRANCH  14  15
ENDBRANCH  13  14
ENDBRANCH  12  13
ENDBRANCH   9  12
ENDBRANCH   1   8
BRANCH   7  19
HETATM   19  N   UNL     1     -41.229 -51.317  12.878  1.00  0.00    -0.361 N 
HETATM   20  C   UNL     1     -42.027 -50.593  13.877  1.00  0.00     0.150 C 
HETATM   21  C   UNL     1     -42.999 -51.534  14.606  1.00  0.00     0.187 C 
HETATM   22  O   UNL     1     -43.797 -52.286  13.679  1.00  0.00    -0.388 OA
HETATM   23  C   UNL     1     -42.940 -53.115  12.885  1.00  0.00     0.187 C 
HETATM   24  C   UNL     1     -41.948 -52.286  12.052  1.00  0.00     0.150 C 
ENDBRANCH   7  19
TORSDOF 6
ENDMDL
MODEL 3
REMARK VINA RESULT:      -5.7      2.520      4.495
REMARK  6 active torsions:
REMARK  status: ('A' for Active; 'I' for Inactive)
REMARK    1  A    between atoms: C_2  and  C_5 
REMARK    2  A    between atoms: C_5  and  O_6 
REMARK    3  A    between atoms: O_6  and  C_7 
REMARK    4  A    between atoms: C_7  and  C_8 
REMARK       I    between atoms: C_8  and  N_10 
REMARK    5  A    between atoms: N_10  and  C_11 
REMARK    6  A    between atoms: C_17  and  N_18 
ROOT
HETATM    1  C   UNL     1     -42.713 -49.669  12.611  1.00  0.00     0.079 A 
HETATM    2  C   UNL     1     -43.391 -48.563  12.062  1.00  0.00     0.035 A 
HETATM    3  C   UNL     1     -42.828 -47.870  11.001  1.00  0.00     0.019 A 
HETATM    4  C   UNL     1     -41.610 -48.307  10.529  1.00  0.00     0.090 A 
HETATM    5  N   UNL     1     -40.950 -49.386  11.015  1.00  0.00    -0.351 N 
ATOM      6  HN  UNL     1     -40.053 -49.660  10.615  1.00  0.00     0.166 HD
HETATM    7  C   UNL     1     -41.492 -50.105  12.040  1.00  0.00     0.130 A 
ENDROOT
BRANCH   1   8
HETATM    8  N   UNL     1     -43.234 -50.208  13.812  1.00  0.00    -0.322 N 
HETATM    9  C   UNL     1     -44.406 -50.939  13.868  1.00  0.00     0.245 C 
HETATM   10  O   UNL     1     -45.114 -51.215  12.903  1.00  0.00    -0.271 OA
HETATM   11  H   UNL     1     -42.638 -50.161  14.631  1.00  0.00     0.169 HD
BRANCH   9  12
HETATM   12  C   UNL     1     -44.695 -51.516  15.254  1.00  0.00     0.271 C 
BRANCH  12  13
HETATM   13  O   UNL     1     -44.199 -52.841  15.390  1.00  0.00    -0.373 OA
BRANCH  13  14
HETATM   14  C   UNL     1     -45.221 -53.814  15.117  1.00  0.00     0.285 C 
BRANCH  14  15
HETATM   15  C   UNL     1     -44.802 -54.861  14.079  1.00  0.00     0.408 C 
HETATM   16  F   UNL     1     -44.424 -54.314  12.906  1.00  0.00    -0.169 F 
HETATM   17  F   UNL     1     -45.820 -55.715  13.825  1.00  0.00    -0.169 F 
HETATM   18  F   UNL     1     -43.764 -55.599  14.539  1.00  0.00    -0.169 F 
ENDBRANCH  14  15
ENDBRANCH  13  14
ENDBRANCH  12  13
ENDBRANCH   9  12
ENDBRANCH   1   8
BRANCH   7  19
HETATM   19  N   UNL     1     -40.835 -51.273  12.365  1.00  0.00    -0.361 N 
HETATM   20  C   UNL     1     -41.393 -52.544  11.881  1.00  0.00     0.150 C 
HETATM   21  C   UNL     1     -41.142 -53.683  12.881  1.00  0.00     0.187 C 
HETATM   22  O   UNL     1     -39.754 -53.773  13.238  1.00  0.00    -0.388 OA
HETATM   23  C   UNL     1     -39.357 -52.560  13.889  1.00  0.00     0.187 C 
HETATM   24  C   UNL     1     -39.504 -51.338  12.967  1.00  0.00     0.150 C 
ENDBRANCH   7  19
TORSDOF 6
ENDMDL
MODEL 4
REMARK VINA RESULT:      -5.6      3.622      6.677
REMARK  6 active torsions:
REMARK  status: ('A' for Active; 'I' for Inactive)
REMARK    1  A    between atoms: C_2  and  C_5 
REMARK    2  A    between atoms: C_5  and  O_6 
REMARK    3  A    between atoms: O_6  and  C_7 
REMARK    4  A    between atoms: C_7  and  C_8 
REMARK       I    between atoms: C_8  and  N_10 
REMARK    5  A    between atoms: N_10  and  C_11 
REMARK    6  A    between atoms: C_17  and  N_18 
ROOT
HETATM    1  C   UNL     1     -44.656 -51.526  13.625  1.00  0.00     0.079 A 
HETATM    2  C   UNL     1     -46.013 -51.236  13.868  1.00  0.00     0.035 A 
HETATM    3  C   UNL     1     -46.784 -52.125  14.601  1.00  0.00     0.019 A 
HETATM    4  C   UNL     1     -46.172 -53.269  15.062  1.00  0.00     0.090 A 
HETATM    5  N   UNL     1     -44.863 -53.559  14.873  1.00  0.00    -0.351 N 
ATOM      6  HN  UNL     1     -44.470 -54.423  15.247  1.00  0.00     0.166 HD
HETATM    7  C   UNL     1     -44.071 -52.691  14.180  1.00  0.00     0.130 A 
ENDROOT
BRANCH   1   8
HETATM    8  N   UNL     1     -43.976 -50.688  12.708  1.00  0.00    -0.322 N 
HETATM    9  C   UNL     1     -43.298 -49.544  13.087  1.00  0.00     0.245 C 
HETATM   10  O   UNL     1     -43.193 -49.134  14.240  1.00  0.00    -0.271 OA
HETATM   11  H   UNL     1     -43.880 -51.031  11.759  1.00  0.00     0.169 HD
BRANCH   9  12
HETATM   12  C   UNL     1     -42.544 -48.878  11.936  1.00  0.00     0.271 C 
BRANCH  12  13
HETATM   13  O   UNL     1     -43.419 -48.169  11.070  1.00  0.00    -0.373 OA
BRANCH  13  14
HETATM   14  C   UNL     1     -42.726 -47.678   9.910  1.00  0.00     0.285 C 
BRANCH  14  15
HETATM   15  C   UNL     1     -43.637 -47.486   8.693  1.00  0.00     0.408 C 
HETATM   16  F   UNL     1     -43.719 -46.199   8.297  1.00  0.00    -0.169 F 
HETATM   17  F   UNL     1     -44.893 -47.912   8.965  1.00  0.00    -0.169 F 
HETATM   18  F   UNL     1     -43.186 -48.210   7.641  1.00  0.00    -0.169 F 
ENDBRANCH  14  15
ENDBRANCH  13  14
ENDBRANCH  12  13
ENDBRANCH   9  12
ENDBRANCH   1   8
BRANCH   7  19
HETATM   19  N   UNL     1     -42.724 -52.986  14.170  1.00  0.00    -0.361 N 
HETATM   20  C   UNL     1     -41.861 -52.336  15.167  1.00  0.00     0.150 C 
HETATM   21  C   UNL     1     -40.456 -52.071  14.605  1.00  0.00     0.187 C 
HETATM   22  O   UNL     1     -39.880 -53.262  14.047  1.00  0.00    -0.388 OA
HETATM   23  C   UNL     1     -40.686 -53.704  12.948  1.00  0.00     0.187 C 
HETATM   24  C   UNL     1     -42.115 -54.062  13.390  1.00  0.00     0.150 C 
ENDBRANCH   7  19
TORSDOF 6
ENDMDL
MODEL 5
REMARK VINA RESULT:      -5.6      1.664      3.700
REMARK  6 active torsions:
REMARK  status: ('A' for Active; 'I' for Inactive)
REMARK    1  A    between atoms: C_2  and  C_5 
REMARK    2  A    between atoms: C_5  and  O_6 
REMARK    3  A    between atoms: O_6  and  C_7 
REMARK    4  A    between atoms: C_7  and  C_8 
REMARK       I    between atoms: C_8  and  N_10 
REMARK    5  A    between atoms: N_10  and  C_11 
REMARK    6  A    between atoms: C_17  and  N_18 
ROOT
HETATM    1  C   UNL     1     -41.196 -48.996  11.157  1.00  0.00     0.079 A 
HETATM    2  C   UNL     1     -42.058 -48.204  10.374  1.00  0.00     0.035 A 
HETATM    3  C   UNL     1     -41.827 -46.841  10.263  1.00  0.00     0.019 A 
HETATM    4  C   UNL     1     -40.744 -46.322  10.938  1.00  0.00     0.090 A 
HETATM    5  N   UNL     1     -39.879 -47.063  11.671  1.00  0.00    -0.351 N 
ATOM      6  HN  UNL     1     -39.093 -46.616  12.142  1.00  0.00     0.166 HD
HETATM    7  C   UNL     1     -40.065 -48.411  11.777  1.00  0.00     0.130 A 
ENDROOT
BRANCH   1   8
HETATM    8  N   UNL     1     -41.595 -50.334  11.396  1.00  0.00    -0.322 N 
HETATM    9  C   UNL     1     -42.260 -50.732  12.542  1.00  0.00     0.245 C 
HETATM   10  O   UNL     1     -42.589 -49.988  13.462  1.00  0.00    -0.271 OA
HETATM   11  H   UNL     1     -41.502 -50.984  10.625  1.00  0.00     0.169 HD
BRANCH   9  12
HETATM   12  C   UNL     1     -42.691 -52.198  12.513  1.00  0.00     0.271 C 
BRANCH  12  13
HETATM   13  O   UNL     1     -43.688 -52.477  13.486  1.00  0.00    -0.373 OA
BRANCH  13  14
HETATM   14  C   UNL     1     -44.964 -52.726  12.873  1.00  0.00     0.285 C 
BRANCH  14  15
HETATM   15  C   UNL     1     -46.076 -51.806  13.388  1.00  0.00     0.408 C 
HETATM   16  F   UNL     1     -45.618 -50.833  14.202  1.00  0.00    -0.169 F 
HETATM   17  F   UNL     1     -47.002 -52.515  14.077  1.00  0.00    -0.169 F 
HETATM   18  F   UNL     1     -46.716 -51.208  12.355  1.00  0.00    -0.169 F 
ENDBRANCH  14  15
ENDBRANCH  13  14
ENDBRANCH  12  13
ENDBRANCH   9  12
ENDBRANCH   1   8
BRANCH   7  19
HETATM   19  N   UNL     1     -39.054 -49.106  12.407  1.00  0.00    -0.361 N 
HETATM   20  C   UNL     1     -37.936 -49.601  11.592  1.00  0.00     0.150 C 
HETATM   21  C   UNL     1     -37.389 -50.929  12.139  1.00  0.00     0.187 C 
HETATM   22  O   UNL     1     -37.074 -50.833  13.537  1.00  0.00    -0.388 OA
HETATM   23  C   UNL     1     -38.271 -50.548  14.270  1.00  0.00     0.187 C 
HETATM   24  C   UNL     1     -38.893 -49.204  13.857  1.00  0.00     0.150 C 
ENDBRANCH   7  19
TORSDOF 6
ENDMDL
MODEL 6
REMARK VINA RESULT:      -5.6      2.200      4.284
REMARK  6 active torsions:
REMARK  status: ('A' for Active; 'I' for Inactive)
REMARK    1  A    between atoms: C_2  and  C_5 
REMARK    2  A    between atoms: C_5  and  O_6 
REMARK    3  A    between atoms: O_6  and  C_7 
REMARK    4  A    between atoms: C_7  and  C_8 
REMARK       I    between atoms: C_8  and  N_10 
REMARK    5  A    between atoms: N_10  and  C_11 
REMARK    6  A    between atoms: C_17  and  N_18 
ROOT
HETATM    1  C   UNL     1     -42.530 -49.399  12.559  1.00  0.00     0.079 A 
HETATM    2  C   UNL     1     -43.255 -48.336  11.986  1.00  0.00     0.035 A 
HETATM    3  C   UNL     1     -42.817 -47.767  10.800  1.00  0.00     0.019 A 
HETATM    4  C   UNL     1     -41.672 -48.280  10.232  1.00  0.00     0.090 A 
HETATM    5  N   UNL     1     -40.972 -49.321  10.742  1.00  0.00    -0.351 N 
ATOM      6  HN  UNL     1     -40.134 -49.656  10.268  1.00  0.00     0.166 HD
HETATM    7  C   UNL     1     -41.393 -49.920  11.893  1.00  0.00     0.130 A 
ENDROOT
BRANCH   1   8
HETATM    8  N   UNL     1     -42.907 -49.803  13.863  1.00  0.00    -0.322 N 
HETATM    9  C   UNL     1     -43.842 -50.791  14.108  1.00  0.00     0.245 C 
HETATM   10  O   UNL     1     -44.433 -51.434  13.246  1.00  0.00    -0.271 OA
HETATM   11  H   UNL     1     -42.359 -49.434  14.633  1.00  0.00     0.169 HD
BRANCH   9  12
HETATM   12  C   UNL     1     -43.988 -51.131  15.592  1.00  0.00     0.271 C 
BRANCH  12  13
HETATM   13  O   UNL     1     -45.070 -50.433  16.192  1.00  0.00    -0.373 OA
BRANCH  13  14
HETATM   14  C   UNL     1     -46.006 -51.338  16.801  1.00  0.00     0.285 C 
BRANCH  14  15
HETATM   15  C   UNL     1     -47.185 -51.697  15.891  1.00  0.00     0.408 C 
HETATM   16  F   UNL     1     -47.192 -52.997  15.529  1.00  0.00    -0.169 F 
HETATM   17  F   UNL     1     -47.157 -50.956  14.758  1.00  0.00    -0.169 F 
HETATM   18  F   UNL     1     -48.361 -51.439  16.510  1.00  0.00    -0.169 F 
ENDBRANCH  14  15
ENDBRANCH  13  14
ENDBRANCH  12  13
ENDBRANCH   9  12
ENDBRANCH   1   8
BRANCH   7  19
HETATM   19  N   UNL     1     -40.716 -51.067  12.254  1.00  0.00    -0.361 N 
HETATM   20  C   UNL     1     -41.274 -52.363  11.842  1.00  0.00     0.150 C 
HETATM   21  C   UNL     1     -40.986 -53.453  12.887  1.00  0.00     0.187 C 
HETATM   22  O   UNL     1     -39.589 -53.514  13.213  1.00  0.00    -0.388 OA
HETATM   23  C   UNL     1     -39.188 -52.268  13.797  1.00  0.00     0.187 C 
HETATM   24  C   UNL     1     -39.370 -51.092  12.824  1.00  0.00     0.150 C 
ENDBRANCH   7  19
TORSDOF 6
ENDMDL
MODEL 7
REMARK VINA RESULT:      -5.6      1.637      2.133
REMARK  6 active torsions:
REMARK  status: ('A' for Active; 'I' for Inactive)
REMARK    1  A    between atoms: C_2  and  C_5 
REMARK    2  A    between atoms: C_5  and  O_6 
REMARK    3  A    between atoms: O_6  and  C_7 
REMARK    4  A    between atoms: C_7  and  C_8 
REMARK       I    between atoms: C_8  and  N_10 
REMARK    5  A    between atoms: N_10  and  C_11 
REMARK    6  A    between atoms: C_17  and  N_18 
ROOT
HETATM    1  C   UNL     1     -39.712 -50.133  12.887  1.00  0.00     0.079 A 
HETATM    2  C   UNL     1     -38.633 -50.959  13.259  1.00  0.00     0.035 A 
HETATM    3  C   UNL     1     -37.463 -50.937  12.515  1.00  0.00     0.019 A 
HETATM    4  C   UNL     1     -37.416 -50.093  11.428  1.00  0.00     0.090 A 
HETATM    5  N   UNL     1     -38.424 -49.265  11.065  1.00  0.00    -0.351 N 
ATOM      6  HN  UNL     1     -38.322 -48.660  10.250  1.00  0.00     0.166 HD
HETATM    7  C   UNL     1     -39.577 -49.243  11.794  1.00  0.00     0.130 A 
ENDROOT
BRANCH   1   8
HETATM    8  N   UNL     1     -40.941 -50.345  13.557  1.00  0.00    -0.322 N 
HETATM    9  C   UNL     1     -41.915 -51.212  13.096  1.00  0.00     0.245 C 
HETATM   10  O   UNL     1     -41.827 -51.898  12.081  1.00  0.00    -0.271 OA
HETATM   11  H   UNL     1     -41.035 -49.938  14.481  1.00  0.00     0.169 HD
BRANCH   9  12
HETATM   12  C   UNL     1     -43.097 -51.359  14.054  1.00  0.00     0.271 C 
BRANCH  12  13
HETATM   13  O   UNL     1     -44.260 -51.839  13.393  1.00  0.00    -0.373 OA
BRANCH  13  14
HETATM   14  C   UNL     1     -44.825 -52.968  14.078  1.00  0.00     0.285 C 
BRANCH  14  15
HETATM   15  C   UNL     1     -44.462 -54.312  13.438  1.00  0.00     0.408 C 
HETATM   16  F   UNL     1     -45.460 -55.216  13.513  1.00  0.00    -0.169 F 
HETATM   17  F   UNL     1     -43.375 -54.849  14.041  1.00  0.00    -0.169 F 
HETATM   18  F   UNL     1     -44.155 -54.150  12.129  1.00  0.00    -0.169 F 
ENDBRANCH  14  15
ENDBRANCH  13  14
ENDBRANCH  12  13
ENDBRANCH   9  12
ENDBRANCH   1   8
BRANCH   7  19
HETATM   19  N   UNL     1     -40.484 -48.262  11.450  1.00  0.00    -0.361 N 
HETATM   20  C   UNL     1     -40.180 -46.873  11.821  1.00  0.00     0.150 C 
HETATM   21  C   UNL     1     -41.461 -46.088  12.144  1.00  0.00     0.187 C 
HETATM   22  O   UNL     1     -42.426 -46.195  11.086  1.00  0.00    -0.388 OA
HETATM   23  C   UNL     1     -42.811 -47.566  10.939  1.00  0.00     0.187 C 
HETATM   24  C   UNL     1     -41.621 -48.460  10.553  1.00  0.00     0.150 C 
ENDBRANCH   7  19
TORSDOF 6
ENDMDL
MODEL 8
REMARK VINA RESULT:      -5.5      4.403      6.301
REMARK  6 active torsions:
REMARK  status: ('A' for Active; 'I' for Inactive)
REMARK    1  A    between atoms: C_2  and  C_5 
REMARK    2  A    between atoms: C_5  and  O_6 
REMARK    3  A    between atoms: O_6  and  C_7 
REMARK    4  A    between atoms: C_7  and  C_8 
REMARK       I    between atoms: C_8  and  N_10 
REMARK    5  A    between atoms: N_10  and  C_11 
REMARK    6  A    between atoms: C_17  and  N_18 
ROOT
HETATM    1  C   UNL     1     -42.574 -47.356   9.900  1.00  0.00     0.079 A 
HETATM    2  C   UNL     1     -43.508 -47.688   8.899  1.00  0.00     0.035 A 
HETATM    3  C   UNL     1     -44.427 -46.740   8.477  1.00  0.00     0.019 A 
HETATM    4  C   UNL     1     -44.380 -45.498   9.071  1.00  0.00     0.090 A 
HETATM    5  N   UNL     1     -43.475 -45.140  10.012  1.00  0.00    -0.351 N 
ATOM      6  HN  UNL     1     -43.491 -44.201  10.407  1.00  0.00     0.166 HD
HETATM    7  C   UNL     1     -42.539 -46.042  10.427  1.00  0.00     0.130 A 
ENDROOT
BRANCH   1   8
HETATM    8  N   UNL     1     -41.799 -48.416  10.430  1.00  0.00    -0.322 N 
HETATM    9  C   UNL     1     -42.138 -49.097  11.586  1.00  0.00     0.245 C 
HETATM   10  O   UNL     1     -43.135 -48.879  12.268  1.00  0.00    -0.271 OA
HETATM   11  H   UNL     1     -41.043 -48.765   9.852  1.00  0.00     0.169 HD
BRANCH   9  12
HETATM   12  C   UNL     1     -41.213 -50.277  11.885  1.00  0.00     0.271 C 
BRANCH  12  13
HETATM   13  O   UNL     1     -39.844 -49.893  11.876  1.00  0.00    -0.373 OA
BRANCH  13  14
HETATM   14  C   UNL     1     -39.010 -50.912  12.452  1.00  0.00     0.285 C 
BRANCH  14  15
HETATM   15  C   UNL     1     -37.534 -50.510  12.544  1.00  0.00     0.408 C 
HETATM   16  F   UNL     1     -36.695 -51.553  12.384  1.00  0.00    -0.169 F 
HETATM   17  F   UNL     1     -37.266 -49.947  13.745  1.00  0.00    -0.169 F 
HETATM   18  F   UNL     1     -37.230 -49.592  11.595  1.00  0.00    -0.169 F 
ENDBRANCH  14  15
ENDBRANCH  13  14
ENDBRANCH  12  13
ENDBRANCH   9  12
ENDBRANCH   1   8
BRANCH   7  19
HETATM   19  N   UNL     1     -41.563 -45.548  11.267  1.00  0.00    -0.361 N 
HETATM   20  C   UNL     1     -41.828 -45.534  12.712  1.00  0.00     0.150 C 
HETATM   21  C   UNL     1     -41.158 -44.330  13.393  1.00  0.00     0.187 C 
HETATM   22  O   UNL     1     -39.760 -44.255  13.072  1.00  0.00    -0.388 OA
HETATM   23  C   UNL     1     -39.612 -44.064  11.661  1.00  0.00     0.187 C 
HETATM   24  C   UNL     1     -40.194 -45.238  10.857  1.00  0.00     0.150 C 
ENDBRANCH   7  19
TORSDOF 6
ENDMDL
MODEL 9
REMARK VINA RESULT:      -5.4      3.193      4.891
REMARK  6 active torsions:
REMARK  status: ('A' for Active; 'I' for Inactive)
REMARK    1  A    between atoms: C_2  and  C_5 
REMARK    2  A    between atoms: C_5  and  O_6 
REMARK    3  A    between atoms: O_6  and  C_7 
REMARK    4  A    between atoms: C_7  and  C_8 
REMARK       I    between atoms: C_8  and  N_10 
REMARK    5  A    between atoms: N_10  and  C_11 
REMARK    6  A    between atoms: C_17  and  N_18 
ROOT
HETATM    1  C   UNL     1     -40.736 -54.358  16.015  1.00  0.00     0.079 A 
HETATM    2  C   UNL     1     -40.305 -55.131  17.111  1.00  0.00     0.035 A 
HETATM    3  C   UNL     1     -39.097 -55.809  17.041  1.00  0.00     0.019 A 
HETATM    4  C   UNL     1     -38.367 -55.690  15.879  1.00  0.00     0.090 A 
HETATM    5  N   UNL     1     -38.739 -54.929  14.822  1.00  0.00    -0.351 N 
ATOM      6  HN  UNL     1     -38.148 -54.880  13.993  1.00  0.00     0.166 HD
HETATM    7  C   UNL     1     -39.909 -54.228  14.873  1.00  0.00     0.130 A 
ENDROOT
BRANCH   1   8
HETATM    8  N   UNL     1     -42.059 -53.857  16.065  1.00  0.00    -0.322 N 
HETATM    9  C   UNL     1     -43.159 -54.582  15.646  1.00  0.00     0.245 C 
HETATM   10  O   UNL     1     -43.124 -55.727  15.203  1.00  0.00    -0.271 OA
HETATM   11  H   UNL     1     -42.199 -52.982  16.557  1.00  0.00     0.169 HD
BRANCH   9  12
HETATM   12  C   UNL     1     -44.488 -53.875  15.913  1.00  0.00     0.271 C 
BRANCH  12  13
HETATM   13  O   UNL     1     -44.683 -52.767  15.044  1.00  0.00    -0.373 OA
BRANCH  13  14
HETATM   14  C   UNL     1     -45.828 -52.960  14.197  1.00  0.00     0.285 C 
BRANCH  14  15
HETATM   15  C   UNL     1     -46.280 -51.680  13.486  1.00  0.00     0.408 C 
HETATM   16  F   UNL     1     -45.257 -50.850  13.198  1.00  0.00    -0.169 F 
HETATM   17  F   UNL     1     -47.162 -50.995  14.251  1.00  0.00    -0.169 F 
HETATM   18  F   UNL     1     -46.905 -51.977  12.322  1.00  0.00    -0.169 F 
ENDBRANCH  14  15
ENDBRANCH  13  14
ENDBRANCH  12  13
ENDBRANCH   9  12
ENDBRANCH   1   8
BRANCH   7  19
HETATM   19  N   UNL     1     -40.132 -53.360  13.824  1.00  0.00    -0.361 N 
HETATM   20  C   UNL     1     -39.323 -52.135  13.750  1.00  0.00     0.150 C 
HETATM   21  C   UNL     1     -40.125 -50.970  13.149  1.00  0.00     0.187 C 
HETATM   22  O   UNL     1     -40.720 -51.334  11.893  1.00  0.00    -0.388 OA
HETATM   23  C   UNL     1     -41.647 -52.405  12.105  1.00  0.00     0.187 C 
HETATM   24  C   UNL     1     -40.957 -53.664  12.655  1.00  0.00     0.150 C 
ENDBRANCH   7  19
TORSDOF 6
ENDMDL
