MODEL 1
REMARK VINA RESULT:      -5.6      0.000      0.000
REMARK  4 active torsions:
REMARK  status: ('A' for Active; 'I' for Inactive)
REMARK    1  A    between atoms: N_7  and  C_8 
REMARK    2  A    between atoms: C_8  and  C_9 
REMARK       I    between atoms: C_9  and  N_11 
REMARK    3  A    between atoms: N_11  and  C_12 
REMARK    4  A    between atoms: C_12  and  C_13 
ROOT
HETATM    1  C   UNL     1     -44.219 -53.834  12.651  1.00  0.00     0.235 C 
ENDROOT
BRANCH   1   2
HETATM    2  N   UNL     1     -45.159 -53.242  13.612  1.00  0.00    -0.301 N 
HETATM    3  C   UNL     1     -45.814 -52.071  13.290  1.00  0.00     0.102 C 
HETATM    4  C   UNL     1     -46.640 -51.471  14.143  1.00  0.00     0.092 C 
HETATM    5  C   UNL     1     -46.821 -52.031  15.492  1.00  0.00     0.252 C 
HETATM    6  N   UNL     1     -46.068 -53.151  15.787  1.00  0.00    -0.271 N 
HETATM    7  O   UNL     1     -47.600 -51.477  16.262  1.00  0.00    -0.268 OA
HETATM    8  C   UNL     1     -46.098 -53.674  17.138  1.00  0.00     0.164 C 
HETATM    9  C   UNL     1     -45.296 -53.844  14.858  1.00  0.00     0.331 C 
HETATM   10  O   UNL     1     -44.749 -54.915  15.131  1.00  0.00    -0.246 OA
ENDBRANCH   1   2
BRANCH   1  11
HETATM   11  C   UNL     1     -42.783 -53.314  12.748  1.00  0.00     0.236 C 
HETATM   12  O   UNL     1     -41.982 -53.755  13.573  1.00  0.00    -0.272 OA
HETATM   13  N   UNL     1     -42.442 -52.330  11.838  1.00  0.00    -0.357 N 
HETATM   14  H   UNL     1     -43.186 -51.734  11.487  1.00  0.00     0.162 HD
BRANCH  13  15
HETATM   15  C   UNL     1     -41.114 -51.741  11.908  1.00  0.00     0.154 C 
BRANCH  15  16
HETATM   16  C   UNL     1     -41.138 -50.220  12.053  1.00  0.00     0.139 C 
HETATM   17  C   UNL     1     -42.517 -49.698  12.427  1.00  0.00     0.035 C 
HETATM   18  C   UNL     1     -42.653 -48.390  11.681  1.00  0.00     0.029 C 
HETATM   19  C   UNL     1     -41.406 -48.292  10.826  1.00  0.00     0.168 C 
HETATM   20  O   UNL     1     -40.822 -49.597  10.797  1.00  0.00    -0.384 OA
ENDBRANCH  15  16
ENDBRANCH  13  15
ENDBRANCH   1  11
TORSDOF 4
ENDMDL
MODEL 2
REMARK VINA RESULT:      -5.5      4.054      7.232
REMARK  4 active torsions:
REMARK  status: ('A' for Active; 'I' for Inactive)
REMARK    1  A    between atoms: N_7  and  C_8 
REMARK    2  A    between atoms: C_8  and  C_9 
REMARK       I    between atoms: C_9  and  N_11 
REMARK    3  A    between atoms: N_11  and  C_12 
REMARK    4  A    between atoms: C_12  and  C_13 
ROOT
HETATM    1  C   UNL     1     -40.937 -48.712  10.996  1.00  0.00     0.235 C 
ENDROOT
BRANCH   1   2
HETATM    2  N   UNL     1     -41.809 -47.623  10.538  1.00  0.00    -0.301 N 
HETATM    3  C   UNL     1     -42.607 -47.811   9.428  1.00  0.00     0.102 C 
HETATM    4  C   UNL     1     -43.381 -46.842   8.947  1.00  0.00     0.092 C 
HETATM    5  C   UNL     1     -43.348 -45.510   9.572  1.00  0.00     0.252 C 
HETATM    6  N   UNL     1     -42.462 -45.357  10.621  1.00  0.00    -0.271 N 
HETATM    7  O   UNL     1     -44.081 -44.631   9.129  1.00  0.00    -0.268 OA
HETATM    8  C   UNL     1     -42.284 -44.039  11.194  1.00  0.00     0.164 C 
HETATM    9  C   UNL     1     -41.742 -46.400  11.197  1.00  0.00     0.331 C 
HETATM   10  O   UNL     1     -41.066 -46.243  12.217  1.00  0.00    -0.246 OA
ENDBRANCH   1   2
BRANCH   1  11
HETATM   11  C   UNL     1     -41.650 -49.839  11.748  1.00  0.00     0.236 C 
HETATM   12  O   UNL     1     -42.489 -49.613  12.620  1.00  0.00    -0.272 OA
HETATM   13  N   UNL     1     -41.300 -51.122  11.371  1.00  0.00    -0.357 N 
HETATM   14  H   UNL     1     -40.370 -51.264  10.986  1.00  0.00     0.162 HD
BRANCH  13  15
HETATM   15  C   UNL     1     -41.887 -52.246  12.083  1.00  0.00     0.154 C 
BRANCH  15  16
HETATM   16  C   UNL     1     -40.851 -53.259  12.567  1.00  0.00     0.139 C 
HETATM   17  C   UNL     1     -41.396 -54.163  13.662  1.00  0.00     0.035 C 
HETATM   18  C   UNL     1     -40.231 -54.383  14.601  1.00  0.00     0.029 C 
HETATM   19  C   UNL     1     -39.122 -53.499  14.067  1.00  0.00     0.168 C 
HETATM   20  O   UNL     1     -39.730 -52.578  13.157  1.00  0.00    -0.384 OA
ENDBRANCH  15  16
ENDBRANCH  13  15
ENDBRANCH   1  11
TORSDOF 4
ENDMDL
MODEL 3
REMARK VINA RESULT:      -5.5      2.339      3.808
REMARK  4 active torsions:
REMARK  status: ('A' for Active; 'I' for Inactive)
REMARK    1  A    between atoms: N_7  and  C_8 
REMARK    2  A    between atoms: C_8  and  C_9 
REMARK       I    between atoms: C_9  and  N_11 
REMARK    3  A    between atoms: N_11  and  C_12 
REMARK    4  A    between atoms: C_12  and  C_13 
ROOT
HETATM    1  C   UNL     1     -44.728 -53.307  12.556  1.00  0.00     0.235 C 
ENDROOT
BRANCH   1   2
HETATM    2  N   UNL     1     -45.503 -52.939  13.747  1.00  0.00    -0.301 N 
HETATM    3  C   UNL     1     -46.214 -51.756  13.758  1.00  0.00     0.102 C 
HETATM    4  C   UNL     1     -46.895 -51.355  14.827  1.00  0.00     0.092 C 
HETATM    5  C   UNL     1     -46.847 -52.157  16.060  1.00  0.00     0.252 C 
HETATM    6  N   UNL     1     -46.044 -53.281  16.018  1.00  0.00    -0.271 N 
HETATM    7  O   UNL     1     -47.495 -51.785  17.034  1.00  0.00    -0.268 OA
HETATM    8  C   UNL     1     -45.847 -54.041  17.236  1.00  0.00     0.164 C 
HETATM    9  C   UNL     1     -45.428 -53.762  14.866  1.00  0.00     0.331 C 
HETATM   10  O   UNL     1     -44.832 -54.842  14.845  1.00  0.00    -0.246 OA
ENDBRANCH   1   2
BRANCH   1  11
HETATM   11  C   UNL     1     -43.231 -52.994  12.637  1.00  0.00     0.236 C 
HETATM   12  O   UNL     1     -42.799 -51.845  12.547  1.00  0.00    -0.272 OA
HETATM   13  N   UNL     1     -42.404 -54.085  12.833  1.00  0.00    -0.357 N 
HETATM   14  H   UNL     1     -42.726 -54.988  12.497  1.00  0.00     0.162 HD
BRANCH  13  15
HETATM   15  C   UNL     1     -40.965 -53.876  12.857  1.00  0.00     0.154 C 
BRANCH  15  16
HETATM   16  C   UNL     1     -40.377 -53.896  14.267  1.00  0.00     0.139 C 
HETATM   17  C   UNL     1     -39.004 -54.551  14.310  1.00  0.00     0.035 C 
HETATM   18  C   UNL     1     -38.973 -55.302  15.623  1.00  0.00     0.029 C 
HETATM   19  C   UNL     1     -40.365 -55.143  16.201  1.00  0.00     0.168 C 
HETATM   20  O   UNL     1     -41.205 -54.687  15.137  1.00  0.00    -0.384 OA
ENDBRANCH  15  16
ENDBRANCH  13  15
ENDBRANCH   1  11
TORSDOF 4
ENDMDL
MODEL 4
REMARK VINA RESULT:      -5.5      2.372      3.289
REMARK  4 active torsions:
REMARK  status: ('A' for Active; 'I' for Inactive)
REMARK    1  A    between atoms: N_7  and  C_8 
REMARK    2  A    between atoms: C_8  and  C_9 
REMARK       I    between atoms: C_9  and  N_11 
REMARK    3  A    between atoms: N_11  and  C_12 
REMARK    4  A    between atoms: C_12  and  C_13 
ROOT
HETATM    1  C   UNL     1     -41.183 -52.733  11.948  1.00  0.00     0.235 C 
ENDROOT
BRANCH   1   2
HETATM    2  N   UNL     1     -42.244 -53.418  12.697  1.00  0.00    -0.301 N 
HETATM    3  C   UNL     1     -43.564 -53.211  12.351  1.00  0.00     0.102 C 
HETATM    4  C   UNL     1     -44.563 -53.771  13.027  1.00  0.00     0.092 C 
HETATM    5  C   UNL     1     -44.267 -54.589  14.215  1.00  0.00     0.252 C 
HETATM    6  N   UNL     1     -42.934 -54.683  14.565  1.00  0.00    -0.271 N 
HETATM    7  O   UNL     1     -45.198 -55.115  14.817  1.00  0.00    -0.268 OA
HETATM    8  C   UNL     1     -42.585 -55.361  15.797  1.00  0.00     0.164 C 
HETATM    9  C   UNL     1     -41.883 -54.195  13.793  1.00  0.00     0.331 C 
HETATM   10  O   UNL     1     -40.704 -54.419  14.076  1.00  0.00    -0.246 OA
ENDBRANCH   1   2
BRANCH   1  11
HETATM   11  C   UNL     1     -41.045 -51.237  12.243  1.00  0.00     0.236 C 
HETATM   12  O   UNL     1     -41.289 -50.766  13.354  1.00  0.00    -0.272 OA
HETATM   13  N   UNL     1     -40.613 -50.457  11.186  1.00  0.00    -0.357 N 
HETATM   14  H   UNL     1     -40.819 -50.782  10.246  1.00  0.00     0.162 HD
BRANCH  13  15
HETATM   15  C   UNL     1     -40.518 -49.018  11.371  1.00  0.00     0.154 C 
BRANCH  15  16
HETATM   16  C   UNL     1     -41.551 -48.238  10.559  1.00  0.00     0.139 C 
HETATM   17  C   UNL     1     -41.315 -46.736  10.616  1.00  0.00     0.035 C 
HETATM   18  C   UNL     1     -42.699 -46.126  10.641  1.00  0.00     0.029 C 
HETATM   19  C   UNL     1     -43.648 -47.304  10.723  1.00  0.00     0.168 C 
HETATM   20  O   UNL     1     -42.865 -48.440  11.105  1.00  0.00    -0.384 OA
ENDBRANCH  15  16
ENDBRANCH  13  15
ENDBRANCH   1  11
TORSDOF 4
ENDMDL
MODEL 5
REMARK VINA RESULT:      -5.4      2.845      7.185
REMARK  4 active torsions:
REMARK  status: ('A' for Active; 'I' for Inactive)
REMARK    1  A    between atoms: N_7  and  C_8 
REMARK    2  A    between atoms: C_8  and  C_9 
REMARK       I    between atoms: C_9  and  N_11 
REMARK    3  A    between atoms: N_11  and  C_12 
REMARK    4  A    between atoms: C_12  and  C_13 
ROOT
HETATM    1  C   UNL     1     -41.025 -49.542  11.212  1.00  0.00     0.235 C 
ENDROOT
BRANCH   1   2
HETATM    2  N   UNL     1     -41.533 -48.189  10.953  1.00  0.00    -0.301 N 
HETATM    3  C   UNL     1     -42.834 -48.021  10.520  1.00  0.00     0.102 C 
HETATM    4  C   UNL     1     -43.328 -46.822  10.229  1.00  0.00     0.092 C 
HETATM    5  C   UNL     1     -42.455 -45.639  10.308  1.00  0.00     0.252 C 
HETATM    6  N   UNL     1     -41.140 -45.882  10.657  1.00  0.00    -0.271 N 
HETATM    7  O   UNL     1     -42.929 -44.536  10.054  1.00  0.00    -0.268 OA
HETATM    8  C   UNL     1     -40.198 -44.781  10.624  1.00  0.00     0.164 C 
HETATM    9  C   UNL     1     -40.655 -47.118  11.074  1.00  0.00     0.331 C 
HETATM   10  O   UNL     1     -39.508 -47.259  11.505  1.00  0.00    -0.246 OA
ENDBRANCH   1   2
BRANCH   1  11
HETATM   11  C   UNL     1     -41.691 -50.269  12.383  1.00  0.00     0.236 C 
HETATM   12  O   UNL     1     -41.646 -49.832  13.533  1.00  0.00    -0.272 OA
HETATM   13  N   UNL     1     -42.357 -51.437  12.059  1.00  0.00    -0.357 N 
HETATM   14  H   UNL     1     -42.035 -51.953  11.245  1.00  0.00     0.162 HD
BRANCH  13  15
HETATM   15  C   UNL     1     -42.961 -52.218  13.127  1.00  0.00     0.154 C 
BRANCH  15  16
HETATM   16  C   UNL     1     -44.471 -52.384  12.970  1.00  0.00     0.139 C 
HETATM   17  C   UNL     1     -45.229 -51.107  13.300  1.00  0.00     0.035 C 
HETATM   18  C   UNL     1     -46.497 -51.574  13.982  1.00  0.00     0.029 C 
HETATM   19  C   UNL     1     -46.342 -53.075  14.118  1.00  0.00     0.168 C 
HETATM   20  O   UNL     1     -44.960 -53.370  13.896  1.00  0.00    -0.384 OA
ENDBRANCH  15  16
ENDBRANCH  13  15
ENDBRANCH   1  11
TORSDOF 4
ENDMDL
MODEL 6
REMARK VINA RESULT:      -5.3      2.693      3.652
REMARK  4 active torsions:
REMARK  status: ('A' for Active; 'I' for Inactive)
REMARK    1  A    between atoms: N_7  and  C_8 
REMARK    2  A    between atoms: C_8  and  C_9 
REMARK       I    between atoms: C_9  and  N_11 
REMARK    3  A    between atoms: N_11  and  C_12 
REMARK    4  A    between atoms: C_12  and  C_13 
ROOT
HETATM    1  C   UNL     1     -41.156 -54.139  12.911  1.00  0.00     0.235 C 
ENDROOT
BRANCH   1   2
HETATM    2  N   UNL     1     -42.317 -54.150  13.810  1.00  0.00    -0.301 N 
HETATM    3  C   UNL     1     -42.212 -54.748  15.049  1.00  0.00     0.102 C 
HETATM    4  C   UNL     1     -43.247 -54.825  15.882  1.00  0.00     0.092 C 
HETATM    5  C   UNL     1     -44.560 -54.315  15.456  1.00  0.00     0.252 C 
HETATM    6  N   UNL     1     -44.624 -53.812  14.170  1.00  0.00    -0.271 N 
HETATM    7  O   UNL     1     -45.501 -54.376  16.241  1.00  0.00    -0.268 OA
HETATM    8  C   UNL     1     -45.914 -53.416  13.642  1.00  0.00     0.164 C 
HETATM    9  C   UNL     1     -43.518 -53.625  13.345  1.00  0.00     0.331 C 
HETATM   10  O   UNL     1     -43.603 -53.048  12.258  1.00  0.00    -0.246 OA
ENDBRANCH   1   2
BRANCH   1  11
HETATM   11  C   UNL     1     -39.862 -53.606  13.533  1.00  0.00     0.236 C 
HETATM   12  O   UNL     1     -38.886 -54.330  13.730  1.00  0.00    -0.272 OA
HETATM   13  N   UNL     1     -39.860 -52.259  13.842  1.00  0.00    -0.357 N 
HETATM   14  H   UNL     1     -40.753 -51.821  14.050  1.00  0.00     0.162 HD
BRANCH  13  15
HETATM   15  C   UNL     1     -38.690 -51.692  14.494  1.00  0.00     0.154 C 
BRANCH  15  16
HETATM   16  C   UNL     1     -37.928 -50.705  13.612  1.00  0.00     0.139 C 
HETATM   17  C   UNL     1     -38.800 -49.542  13.162  1.00  0.00     0.035 C 
HETATM   18  C   UNL     1     -38.350 -49.243  11.749  1.00  0.00     0.029 C 
HETATM   19  C   UNL     1     -37.339 -50.323  11.420  1.00  0.00     0.168 C 
HETATM   20  O   UNL     1     -37.499 -51.351  12.401  1.00  0.00    -0.384 OA
ENDBRANCH  15  16
ENDBRANCH  13  15
ENDBRANCH   1  11
TORSDOF 4
ENDMDL
MODEL 7
REMARK VINA RESULT:      -5.3      2.098      6.226
REMARK  4 active torsions:
REMARK  status: ('A' for Active; 'I' for Inactive)
REMARK    1  A    between atoms: N_7  and  C_8 
REMARK    2  A    between atoms: C_8  and  C_9 
REMARK       I    between atoms: C_9  and  N_11 
REMARK    3  A    between atoms: N_11  and  C_12 
REMARK    4  A    between atoms: C_12  and  C_13 
ROOT
HETATM    1  C   UNL     1     -41.290 -52.160  11.696  1.00  0.00     0.235 C 
ENDROOT
BRANCH   1   2
HETATM    2  N   UNL     1     -40.949 -50.845  12.253  1.00  0.00    -0.301 N 
HETATM    3  C   UNL     1     -41.912 -49.858  12.308  1.00  0.00     0.102 C 
HETATM    4  C   UNL     1     -41.642 -48.637  12.760  1.00  0.00     0.092 C 
HETATM    5  C   UNL     1     -40.267 -48.300  13.161  1.00  0.00     0.252 C 
HETATM    6  N   UNL     1     -39.328 -49.300  12.997  1.00  0.00    -0.271 N 
HETATM    7  O   UNL     1     -40.036 -47.175  13.595  1.00  0.00    -0.268 OA
HETATM    8  C   UNL     1     -37.934 -48.994  13.247  1.00  0.00     0.164 C 
HETATM    9  C   UNL     1     -39.632 -50.609  12.635  1.00  0.00     0.331 C 
HETATM   10  O   UNL     1     -38.781 -51.502  12.632  1.00  0.00    -0.246 OA
ENDBRANCH   1   2
BRANCH   1  11
HETATM   11  C   UNL     1     -42.223 -53.007  12.565  1.00  0.00     0.236 C 
HETATM   12  O   UNL     1     -41.840 -53.544  13.605  1.00  0.00    -0.272 OA
HETATM   13  N   UNL     1     -43.526 -53.114  12.113  1.00  0.00    -0.357 N 
HETATM   14  H   UNL     1     -43.687 -53.026  11.114  1.00  0.00     0.162 HD
BRANCH  13  15
HETATM   15  C   UNL     1     -44.456 -53.954  12.851  1.00  0.00     0.154 C 
BRANCH  15  16
HETATM   16  C   UNL     1     -45.762 -53.242  13.198  1.00  0.00     0.139 C 
HETATM   17  C   UNL     1     -45.580 -51.739  13.342  1.00  0.00     0.035 C 
HETATM   18  C   UNL     1     -46.505 -51.341  14.470  1.00  0.00     0.029 C 
HETATM   19  C   UNL     1     -47.072 -52.645  14.994  1.00  0.00     0.168 C 
HETATM   20  O   UNL     1     -46.247 -53.692  14.475  1.00  0.00    -0.384 OA
ENDBRANCH  15  16
ENDBRANCH  13  15
ENDBRANCH   1  11
TORSDOF 4
ENDMDL
MODEL 8
REMARK VINA RESULT:      -5.3      1.916      2.403
REMARK  4 active torsions:
REMARK  status: ('A' for Active; 'I' for Inactive)
REMARK    1  A    between atoms: N_7  and  C_8 
REMARK    2  A    between atoms: C_8  and  C_9 
REMARK       I    between atoms: C_9  and  N_11 
REMARK    3  A    between atoms: N_11  and  C_12 
REMARK    4  A    between atoms: C_12  and  C_13 
ROOT
HETATM    1  C   UNL     1     -45.524 -54.762  14.290  1.00  0.00     0.235 C 
ENDROOT
BRANCH   1   2
HETATM    2  N   UNL     1     -46.033 -53.652  15.105  1.00  0.00    -0.301 N 
HETATM    3  C   UNL     1     -46.564 -52.540  14.484  1.00  0.00     0.102 C 
HETATM    4  C   UNL     1     -46.997 -51.489  15.175  1.00  0.00     0.092 C 
HETATM    5  C   UNL     1     -46.855 -51.476  16.640  1.00  0.00     0.252 C 
HETATM    6  N   UNL     1     -46.232 -52.577  17.195  1.00  0.00    -0.271 N 
HETATM    7  O   UNL     1     -47.276 -50.508  17.265  1.00  0.00    -0.268 OA
HETATM    8  C   UNL     1     -45.942 -52.569  18.615  1.00  0.00     0.164 C 
HETATM    9  C   UNL     1     -45.887 -53.724  16.486  1.00  0.00     0.331 C 
HETATM   10  O   UNL     1     -45.457 -54.735  17.046  1.00  0.00    -0.246 OA
ENDBRANCH   1   2
BRANCH   1  11
HETATM   11  C   UNL     1     -44.351 -54.406  13.373  1.00  0.00     0.236 C 
HETATM   12  O   UNL     1     -44.509 -54.152  12.179  1.00  0.00    -0.272 OA
HETATM   13  N   UNL     1     -43.109 -54.373  13.979  1.00  0.00    -0.357 N 
HETATM   14  H   UNL     1     -42.967 -54.960  14.796  1.00  0.00     0.162 HD
BRANCH  13  15
HETATM   15  C   UNL     1     -41.937 -54.104  13.160  1.00  0.00     0.154 C 
BRANCH  15  16
HETATM   16  C   UNL     1     -41.404 -52.681  13.321  1.00  0.00     0.139 C 
HETATM   17  C   UNL     1     -42.016 -51.720  12.313  1.00  0.00     0.035 C 
HETATM   18  C   UNL     1     -40.892 -50.774  11.948  1.00  0.00     0.029 C 
HETATM   19  C   UNL     1     -39.672 -51.315  12.665  1.00  0.00     0.168 C 
HETATM   20  O   UNL     1     -39.989 -52.650  13.069  1.00  0.00    -0.384 OA
ENDBRANCH  15  16
ENDBRANCH  13  15
ENDBRANCH   1  11
TORSDOF 4
ENDMDL
MODEL 9
REMARK VINA RESULT:      -5.3      2.345      3.390
REMARK  4 active torsions:
REMARK  status: ('A' for Active; 'I' for Inactive)
REMARK    1  A    between atoms: N_7  and  C_8 
REMARK    2  A    between atoms: C_8  and  C_9 
REMARK       I    between atoms: C_9  and  N_11 
REMARK    3  A    between atoms: N_11  and  C_12 
REMARK    4  A    between atoms: C_12  and  C_13 
ROOT
HETATM    1  C   UNL     1     -41.696 -52.911  12.463  1.00  0.00     0.235 C 
ENDROOT
BRANCH   1   2
HETATM    2  N   UNL     1     -42.550 -53.338  13.579  1.00  0.00    -0.301 N 
HETATM    3  C   UNL     1     -42.047 -53.325  14.864  1.00  0.00     0.102 C 
HETATM    4  C   UNL     1     -42.763 -53.744  15.903  1.00  0.00     0.092 C 
HETATM    5  C   UNL     1     -44.110 -54.296  15.680  1.00  0.00     0.252 C 
HETATM    6  N   UNL     1     -44.521 -54.369  14.363  1.00  0.00    -0.271 N 
HETATM    7  O   UNL     1     -44.767 -54.662  16.650  1.00  0.00    -0.268 OA
HETATM    8  C   UNL     1     -45.779 -55.022  14.063  1.00  0.00     0.164 C 
HETATM    9  C   UNL     1     -43.821 -53.824  13.291  1.00  0.00     0.331 C 
HETATM   10  O   UNL     1     -44.290 -53.793  12.151  1.00  0.00    -0.246 OA
ENDBRANCH   1   2
BRANCH   1  11
HETATM   11  C   UNL     1     -41.710 -51.407  12.177  1.00  0.00     0.236 C 
HETATM   12  O   UNL     1     -42.576 -50.663  12.638  1.00  0.00    -0.272 OA
HETATM   13  N   UNL     1     -40.679 -50.942  11.382  1.00  0.00    -0.357 N 
HETATM   14  H   UNL     1     -40.264 -51.591  10.720  1.00  0.00     0.162 HD
BRANCH  13  15
HETATM   15  C   UNL     1     -40.659 -49.535  11.014  1.00  0.00     0.154 C 
BRANCH  15  16
HETATM   16  C   UNL     1     -39.583 -48.736  11.748  1.00  0.00     0.139 C 
HETATM   17  C   UNL     1     -38.300 -49.533  11.934  1.00  0.00     0.035 C 
HETATM   18  C   UNL     1     -37.782 -49.121  13.294  1.00  0.00     0.029 C 
HETATM   19  C   UNL     1     -38.851 -48.213  13.866  1.00  0.00     0.168 C 
HETATM   20  O   UNL     1     -40.027 -48.411  13.076  1.00  0.00    -0.384 OA
ENDBRANCH  15  16
ENDBRANCH  13  15
ENDBRANCH   1  11
TORSDOF 4
ENDMDL
