MODEL 1
REMARK VINA RESULT:      -6.2      0.000      0.000
REMARK  5 active torsions:
REMARK  status: ('A' for Active; 'I' for Inactive)
REMARK    1  A    between atoms: C_2  and  C_3 
REMARK    2  A    between atoms: C_3  and  C_4 
REMARK    3  A    between atoms: C_6  and  N_7 
REMARK       I    between atoms: N_7  and  C_8 
REMARK       I    between atoms: C_8  and  N_10 
REMARK    4  A    between atoms: N_10  and  C_11 
REMARK    5  A    between atoms: C_21  and  O_22 
ROOT
HETATM    1  N   UNL     1     -43.425 -51.288  13.093  1.00  0.00    -0.337 N 
HETATM    2  C   UNL     1     -43.015 -49.991  12.875  1.00  0.00     0.321 C 
HETATM    3  O   UNL     1     -43.129 -49.124  13.737  1.00  0.00    -0.247 OA
HETATM    4  N   UNL     1     -42.533 -49.789  11.600  1.00  0.00    -0.308 N 
HETATM    5  H   UNL     1     -42.981 -51.997  12.526  1.00  0.00     0.164 HD
HETATM    6  H   UNL     1     -42.820 -50.474  10.917  1.00  0.00     0.170 HD
ENDROOT
BRANCH   1   7
HETATM    7  C   UNL     1     -43.985 -51.628  14.419  1.00  0.00     0.103 C 
HETATM    8  C   UNL     1     -44.098 -53.135  14.824  1.00  0.00     0.006 C 
HETATM    9  C   UNL     1     -45.510 -52.744  15.450  1.00  0.00     0.137 C 
HETATM   10  C   UNL     1     -45.526 -51.483  14.530  1.00  0.00     0.035 C 
HETATM   11  C   UNL     1     -46.445 -51.467  13.317  1.00  0.00     0.015 C 
BRANCH   8  12
HETATM   12  C   UNL     1     -43.051 -53.527  15.892  1.00  0.00     0.010 C 
HETATM   13  C   UNL     1     -42.056 -54.575  15.424  1.00  0.00     0.006 C 
ENDBRANCH   8  12
BRANCH   8  14
HETATM   14  C   UNL     1     -44.136 -54.125  13.632  1.00  0.00     0.010 C 
HETATM   15  C   UNL     1     -45.329 -55.070  13.638  1.00  0.00     0.006 C 
ENDBRANCH   8  14
BRANCH   9  16
HETATM   16  O   UNL     1     -45.557 -52.338  16.844  1.00  0.00    -0.389 OA
HETATM   17  C   UNL     1     -46.382 -53.047  17.748  1.00  0.00     0.202 C 
ENDBRANCH   9  16
ENDBRANCH   1   7
BRANCH   4  18
HETATM   18  C   UNL     1     -42.046 -48.587  11.128  1.00  0.00     0.052 A 
HETATM   19  C   UNL     1     -40.795 -48.140  11.341  1.00  0.00     0.121 A 
HETATM   20  N   UNL     1     -40.402 -46.901  10.908  1.00  0.00    -0.331 N 
HETATM   21  C   UNL     1     -41.223 -46.014  10.263  1.00  0.00     0.251 A 
HETATM   22  H   UNL     1     -39.463 -46.575  11.107  1.00  0.00     0.168 HD
HETATM   23  O   UNL     1     -40.834 -44.902   9.925  1.00  0.00    -0.268 OA
HETATM   24  C   UNL     1     -42.616 -46.492   9.999  1.00  0.00     0.008 A 
HETATM   25  C   UNL     1     -43.571 -45.549   9.345  1.00  0.00     0.054 C 
HETATM   26  C   UNL     1     -42.963 -47.734  10.391  1.00  0.00     0.043 A 
ENDBRANCH   4  18
TORSDOF 5
ENDMDL
MODEL 2
REMARK VINA RESULT:      -6.0      1.695      2.185
REMARK  5 active torsions:
REMARK  status: ('A' for Active; 'I' for Inactive)
REMARK    1  A    between atoms: C_2  and  C_3 
REMARK    2  A    between atoms: C_3  and  C_4 
REMARK    3  A    between atoms: C_6  and  N_7 
REMARK       I    between atoms: N_7  and  C_8 
REMARK       I    between atoms: C_8  and  N_10 
REMARK    4  A    between atoms: N_10  and  C_11 
REMARK    5  A    between atoms: C_21  and  O_22 
ROOT
HETATM    1  N   UNL     1     -43.327 -51.159  12.962  1.00  0.00    -0.337 N 
HETATM    2  C   UNL     1     -42.646 -49.980  12.755  1.00  0.00     0.321 C 
HETATM    3  O   UNL     1     -41.650 -49.685  13.410  1.00  0.00    -0.247 OA
HETATM    4  N   UNL     1     -43.235 -49.183  11.797  1.00  0.00    -0.308 N 
HETATM    5  H   UNL     1     -43.872 -51.501  12.184  1.00  0.00     0.164 HD
HETATM    6  H   UNL     1     -44.205 -49.382  11.608  1.00  0.00     0.170 HD
ENDROOT
BRANCH   1   7
HETATM    7  C   UNL     1     -42.807 -52.094  13.985  1.00  0.00     0.103 C 
HETATM    8  C   UNL     1     -43.112 -53.621  13.833  1.00  0.00     0.006 C 
HETATM    9  C   UNL     1     -43.342 -53.615  15.410  1.00  0.00     0.137 C 
HETATM   10  C   UNL     1     -43.574 -52.074  15.333  1.00  0.00     0.035 C 
HETATM   11  C   UNL     1     -44.990 -51.534  15.471  1.00  0.00     0.015 C 
BRANCH   8  12
HETATM   12  C   UNL     1     -41.860 -54.421  13.406  1.00  0.00     0.010 C 
HETATM   13  C   UNL     1     -40.666 -53.552  13.048  1.00  0.00     0.006 C 
ENDBRANCH   8  12
BRANCH   8  14
HETATM   14  C   UNL     1     -44.357 -53.949  12.969  1.00  0.00     0.010 C 
HETATM   15  C   UNL     1     -45.315 -54.949  13.601  1.00  0.00     0.006 C 
ENDBRANCH   8  14
BRANCH   9  16
HETATM   16  O   UNL     1     -42.208 -53.901  16.271  1.00  0.00    -0.389 OA
HETATM   17  C   UNL     1     -42.282 -54.976  17.187  1.00  0.00     0.202 C 
ENDBRANCH   9  16
ENDBRANCH   1   7
BRANCH   4  18
HETATM   18  C   UNL     1     -42.747 -47.958  11.390  1.00  0.00     0.052 A 
HETATM   19  C   UNL     1     -42.072 -47.754  10.244  1.00  0.00     0.121 A 
HETATM   20  N   UNL     1     -41.549 -46.525   9.939  1.00  0.00    -0.331 N 
HETATM   21  C   UNL     1     -41.634 -45.427  10.755  1.00  0.00     0.251 A 
HETATM   22  H   UNL     1     -41.018 -46.404   9.084  1.00  0.00     0.168 HD
HETATM   23  O   UNL     1     -41.119 -44.356  10.453  1.00  0.00    -0.268 OA
HETATM   24  C   UNL     1     -42.394 -45.622  12.029  1.00  0.00     0.008 A 
HETATM   25  C   UNL     1     -42.475 -44.475  12.982  1.00  0.00     0.054 C 
HETATM   26  C   UNL     1     -42.941 -46.827  12.282  1.00  0.00     0.043 A 
ENDBRANCH   4  18
TORSDOF 5
ENDMDL
MODEL 3
REMARK VINA RESULT:      -5.9      1.822      3.211
REMARK  5 active torsions:
REMARK  status: ('A' for Active; 'I' for Inactive)
REMARK    1  A    between atoms: C_2  and  C_3 
REMARK    2  A    between atoms: C_3  and  C_4 
REMARK    3  A    between atoms: C_6  and  N_7 
REMARK       I    between atoms: N_7  and  C_8 
REMARK       I    between atoms: C_8  and  N_10 
REMARK    4  A    between atoms: N_10  and  C_11 
REMARK    5  A    between atoms: C_21  and  O_22 
ROOT
HETATM    1  N   UNL     1     -43.764 -49.764  13.376  1.00  0.00    -0.337 N 
HETATM    2  C   UNL     1     -42.846 -49.138  12.562  1.00  0.00     0.321 C 
HETATM    3  O   UNL     1     -41.991 -49.770  11.947  1.00  0.00    -0.247 OA
HETATM    4  N   UNL     1     -42.972 -47.766  12.569  1.00  0.00    -0.308 N 
HETATM    5  H   UNL     1     -44.627 -49.266  13.540  1.00  0.00     0.164 HD
HETATM    6  H   UNL     1     -43.463 -47.383  13.363  1.00  0.00     0.170 HD
ENDROOT
BRANCH   1   7
HETATM    7  C   UNL     1     -43.718 -51.240  13.472  1.00  0.00     0.103 C 
HETATM    8  C   UNL     1     -45.032 -52.012  13.823  1.00  0.00     0.006 C 
HETATM    9  C   UNL     1     -44.111 -52.932  14.743  1.00  0.00     0.137 C 
HETATM   10  C   UNL     1     -43.051 -51.787  14.762  1.00  0.00     0.035 C 
HETATM   11  C   UNL     1     -42.888 -50.954  16.026  1.00  0.00     0.015 C 
BRANCH   8  12
HETATM   12  C   UNL     1     -45.607 -52.763  12.600  1.00  0.00     0.010 C 
HETATM   13  C   UNL     1     -46.708 -52.006  11.875  1.00  0.00     0.006 C 
ENDBRANCH   8  12
BRANCH   8  14
HETATM   14  C   UNL     1     -46.100 -51.169  14.565  1.00  0.00     0.010 C 
HETATM   15  C   UNL     1     -46.848 -51.920  15.657  1.00  0.00     0.006 C 
ENDBRANCH   8  14
BRANCH   9  16
HETATM   16  O   UNL     1     -43.533 -54.129  14.158  1.00  0.00    -0.389 OA
HETATM   17  C   UNL     1     -43.259 -55.244  14.983  1.00  0.00     0.202 C 
ENDBRANCH   9  16
ENDBRANCH   1   7
BRANCH   4  18
HETATM   18  C   UNL     1     -42.187 -46.903  11.831  1.00  0.00     0.052 A 
HETATM   19  C   UNL     1     -42.243 -46.786  10.492  1.00  0.00     0.121 A 
HETATM   20  N   UNL     1     -41.381 -45.965   9.816  1.00  0.00    -0.331 N 
HETATM   21  C   UNL     1     -40.391 -45.228  10.412  1.00  0.00     0.251 A 
HETATM   22  H   UNL     1     -41.423 -45.917   8.804  1.00  0.00     0.168 HD
HETATM   23  O   UNL     1     -39.620 -44.533   9.760  1.00  0.00    -0.268 OA
HETATM   24  C   UNL     1     -40.317 -45.327  11.903  1.00  0.00     0.008 A 
HETATM   25  C   UNL     1     -39.226 -44.586  12.603  1.00  0.00     0.054 C 
HETATM   26  C   UNL     1     -41.209 -46.104  12.549  1.00  0.00     0.043 A 
ENDBRANCH   4  18
TORSDOF 5
ENDMDL
MODEL 4
REMARK VINA RESULT:      -5.7      1.567      2.290
REMARK  5 active torsions:
REMARK  status: ('A' for Active; 'I' for Inactive)
REMARK    1  A    between atoms: C_2  and  C_3 
REMARK    2  A    between atoms: C_3  and  C_4 
REMARK    3  A    between atoms: C_6  and  N_7 
REMARK       I    between atoms: N_7  and  C_8 
REMARK       I    between atoms: C_8  and  N_10 
REMARK    4  A    between atoms: N_10  and  C_11 
REMARK    5  A    between atoms: C_21  and  O_22 
ROOT
HETATM    1  N   UNL     1     -42.089 -51.683  12.685  1.00  0.00    -0.337 N 
HETATM    2  C   UNL     1     -41.981 -50.314  12.574  1.00  0.00     0.321 C 
HETATM    3  O   UNL     1     -42.242 -49.567  13.513  1.00  0.00    -0.247 OA
HETATM    4  N   UNL     1     -41.611 -49.908  11.310  1.00  0.00    -0.308 N 
HETATM    5  H   UNL     1     -41.528 -52.228  12.046  1.00  0.00     0.164 HD
HETATM    6  H   UNL     1     -41.773 -50.581  10.576  1.00  0.00     0.170 HD
ENDROOT
BRANCH   1   7
HETATM    7  C   UNL     1     -42.502 -52.246  13.990  1.00  0.00     0.103 C 
HETATM    8  C   UNL     1     -41.667 -53.418  14.602  1.00  0.00     0.006 C 
HETATM    9  C   UNL     1     -43.069 -54.044  15.028  1.00  0.00     0.137 C 
HETATM   10  C   UNL     1     -43.752 -53.165  13.934  1.00  0.00     0.035 C 
HETATM   11  C   UNL     1     -44.235 -53.827  12.652  1.00  0.00     0.015 C 
BRANCH   8  12
HETATM   12  C   UNL     1     -40.819 -52.955  15.809  1.00  0.00     0.010 C 
HETATM   13  C   UNL     1     -40.887 -51.460  16.072  1.00  0.00     0.006 C 
ENDBRANCH   8  12
BRANCH   8  14
HETATM   14  C   UNL     1     -40.847 -54.236  13.571  1.00  0.00     0.010 C 
HETATM   15  C   UNL     1     -39.380 -54.414  13.935  1.00  0.00     0.006 C 
ENDBRANCH   8  14
BRANCH   9  16
HETATM   16  O   UNL     1     -43.604 -53.707  16.336  1.00  0.00    -0.389 OA
HETATM   17  C   UNL     1     -43.622 -54.688  17.354  1.00  0.00     0.202 C 
ENDBRANCH   9  16
ENDBRANCH   1   7
BRANCH   4  18
HETATM   18  C   UNL     1     -41.419 -48.593  10.936  1.00  0.00     0.052 A 
HETATM   19  C   UNL     1     -40.309 -47.883  11.207  1.00  0.00     0.121 A 
HETATM   20  N   UNL     1     -40.217 -46.558  10.872  1.00  0.00    -0.331 N 
HETATM   21  C   UNL     1     -41.221 -45.842  10.274  1.00  0.00     0.251 A 
HETATM   22  H   UNL     1     -39.382 -46.036  11.115  1.00  0.00     0.168 HD
HETATM   23  O   UNL     1     -41.103 -44.648  10.024  1.00  0.00    -0.268 OA
HETATM   24  C   UNL     1     -42.460 -46.613   9.946  1.00  0.00     0.008 A 
HETATM   25  C   UNL     1     -43.608 -45.873   9.339  1.00  0.00     0.054 C 
HETATM   26  C   UNL     1     -42.507 -47.927  10.241  1.00  0.00     0.043 A 
ENDBRANCH   4  18
TORSDOF 5
ENDMDL
MODEL 5
REMARK VINA RESULT:      -5.5      1.925      3.478
REMARK  5 active torsions:
REMARK  status: ('A' for Active; 'I' for Inactive)
REMARK    1  A    between atoms: C_2  and  C_3 
REMARK    2  A    between atoms: C_3  and  C_4 
REMARK    3  A    between atoms: C_6  and  N_7 
REMARK       I    between atoms: N_7  and  C_8 
REMARK       I    between atoms: C_8  and  N_10 
REMARK    4  A    between atoms: N_10  and  C_11 
REMARK    5  A    between atoms: C_21  and  O_22 
ROOT
HETATM    1  N   UNL     1     -41.661 -50.841  12.946  1.00  0.00    -0.337 N 
HETATM    2  C   UNL     1     -41.855 -49.618  12.342  1.00  0.00     0.321 C 
HETATM    3  O   UNL     1     -42.919 -49.326  11.803  1.00  0.00    -0.247 OA
HETATM    4  N   UNL     1     -40.731 -48.821  12.373  1.00  0.00    -0.308 N 
HETATM    5  H   UNL     1     -40.949 -50.876  13.662  1.00  0.00     0.164 HD
HETATM    6  H   UNL     1     -39.861 -49.309  12.523  1.00  0.00     0.170 HD
ENDROOT
BRANCH   1   7
HETATM    7  C   UNL     1     -42.788 -51.799  12.960  1.00  0.00     0.103 C 
HETATM    8  C   UNL     1     -43.795 -51.758  14.156  1.00  0.00     0.006 C 
HETATM    9  C   UNL     1     -43.763 -53.350  14.090  1.00  0.00     0.137 C 
HETATM   10  C   UNL     1     -42.400 -53.254  13.336  1.00  0.00     0.035 C 
HETATM   11  C   UNL     1     -41.120 -53.602  14.082  1.00  0.00     0.015 C 
BRANCH   8  12
HETATM   12  C   UNL     1     -45.161 -51.163  13.743  1.00  0.00     0.010 C 
HETATM   13  C   UNL     1     -46.283 -51.453  14.726  1.00  0.00     0.006 C 
ENDBRANCH   8  12
BRANCH   8  14
HETATM   14  C   UNL     1     -43.234 -51.123  15.454  1.00  0.00     0.010 C 
HETATM   15  C   UNL     1     -43.520 -49.636  15.602  1.00  0.00     0.006 C 
ENDBRANCH   8  14
BRANCH   9  16
HETATM   16  O   UNL     1     -44.742 -54.024  13.255  1.00  0.00    -0.389 OA
HETATM   17  C   UNL     1     -45.524 -55.067  13.802  1.00  0.00     0.202 C 
ENDBRANCH   9  16
ENDBRANCH   1   7
BRANCH   4  18
HETATM   18  C   UNL     1     -40.662 -47.546  11.852  1.00  0.00     0.052 A 
HETATM   19  C   UNL     1     -41.130 -47.196  10.640  1.00  0.00     0.121 A 
HETATM   20  N   UNL     1     -40.959 -45.926  10.153  1.00  0.00    -0.331 N 
HETATM   21  C   UNL     1     -40.294 -44.930  10.818  1.00  0.00     0.251 A 
HETATM   22  H   UNL     1     -41.294 -45.696   9.225  1.00  0.00     0.168 HD
HETATM   23  O   UNL     1     -40.137 -43.818  10.326  1.00  0.00    -0.268 OA
HETATM   24  C   UNL     1     -39.778 -45.287  12.176  1.00  0.00     0.008 A 
HETATM   25  C   UNL     1     -38.999 -44.256  12.926  1.00  0.00     0.054 C 
HETATM   26  C   UNL     1     -40.002 -46.528  12.652  1.00  0.00     0.043 A 
ENDBRANCH   4  18
TORSDOF 5
ENDMDL
MODEL 6
REMARK VINA RESULT:      -5.4      2.878      8.092
REMARK  5 active torsions:
REMARK  status: ('A' for Active; 'I' for Inactive)
REMARK    1  A    between atoms: C_2  and  C_3 
REMARK    2  A    between atoms: C_3  and  C_4 
REMARK    3  A    between atoms: C_6  and  N_7 
REMARK       I    between atoms: N_7  and  C_8 
REMARK       I    between atoms: C_8  and  N_10 
REMARK    4  A    between atoms: N_10  and  C_11 
REMARK    5  A    between atoms: C_21  and  O_22 
ROOT
HETATM    1  N   UNL     1     -41.665 -47.132  13.386  1.00  0.00    -0.337 N 
HETATM    2  C   UNL     1     -42.450 -48.152  12.894  1.00  0.00     0.321 C 
HETATM    3  O   UNL     1     -43.171 -47.996  11.912  1.00  0.00    -0.247 OA
HETATM    4  N   UNL     1     -42.367 -49.302  13.648  1.00  0.00    -0.308 N 
HETATM    5  H   UNL     1     -40.856 -47.412  13.923  1.00  0.00     0.164 HD
HETATM    6  H   UNL     1     -42.028 -49.177  14.590  1.00  0.00     0.170 HD
ENDROOT
BRANCH   1   7
HETATM    7  C   UNL     1     -41.684 -45.834  12.676  1.00  0.00     0.103 C 
HETATM    8  C   UNL     1     -40.488 -44.847  12.881  1.00  0.00     0.006 C 
HETATM    9  C   UNL     1     -41.590 -43.697  12.917  1.00  0.00     0.137 C 
HETATM   10  C   UNL     1     -42.655 -44.781  13.273  1.00  0.00     0.035 C 
HETATM   11  C   UNL     1     -43.182 -44.857  14.699  1.00  0.00     0.015 C 
BRANCH   8  12
HETATM   12  C   UNL     1     -39.578 -44.774  11.633  1.00  0.00     0.010 C 
HETATM   13  C   UNL     1     -39.953 -45.759  10.539  1.00  0.00     0.006 C 
ENDBRANCH   8  12
BRANCH   8  14
HETATM   14  C   UNL     1     -39.689 -45.060  14.193  1.00  0.00     0.010 C 
HETATM   15  C   UNL     1     -38.544 -46.055  14.076  1.00  0.00     0.006 C 
ENDBRANCH   8  14
BRANCH   9  16
HETATM   16  O   UNL     1     -41.947 -43.047  11.668  1.00  0.00    -0.389 OA
HETATM   17  C   UNL     1     -41.704 -41.663  11.510  1.00  0.00     0.202 C 
ENDBRANCH   9  16
ENDBRANCH   1   7
BRANCH   4  18
HETATM   18  C   UNL     1     -43.040 -50.473  13.366  1.00  0.00     0.052 A 
HETATM   19  C   UNL     1     -42.539 -51.475  12.622  1.00  0.00     0.121 A 
HETATM   20  N   UNL     1     -43.292 -52.578  12.318  1.00  0.00    -0.331 N 
HETATM   21  C   UNL     1     -44.596 -52.751  12.704  1.00  0.00     0.251 A 
HETATM   22  H   UNL     1     -42.902 -53.305  11.730  1.00  0.00     0.168 HD
HETATM   23  O   UNL     1     -45.240 -53.742  12.378  1.00  0.00    -0.268 OA
HETATM   24  C   UNL     1     -45.173 -51.659  13.548  1.00  0.00     0.008 A 
HETATM   25  C   UNL     1     -46.606 -51.769  13.956  1.00  0.00     0.054 C 
HETATM   26  C   UNL     1     -44.395 -50.608  13.874  1.00  0.00     0.043 A 
ENDBRANCH   4  18
TORSDOF 5
ENDMDL
MODEL 7
REMARK VINA RESULT:      -5.4      2.080      8.029
REMARK  5 active torsions:
REMARK  status: ('A' for Active; 'I' for Inactive)
REMARK    1  A    between atoms: C_2  and  C_3 
REMARK    2  A    between atoms: C_3  and  C_4 
REMARK    3  A    between atoms: C_6  and  N_7 
REMARK       I    between atoms: N_7  and  C_8 
REMARK       I    between atoms: C_8  and  N_10 
REMARK    4  A    between atoms: N_10  and  C_11 
REMARK    5  A    between atoms: C_21  and  O_22 
ROOT
HETATM    1  N   UNL     1     -42.798 -49.131  11.837  1.00  0.00    -0.337 N 
HETATM    2  C   UNL     1     -42.437 -50.270  12.523  1.00  0.00     0.321 C 
HETATM    3  O   UNL     1     -41.263 -50.531  12.769  1.00  0.00    -0.247 OA
HETATM    4  N   UNL     1     -43.514 -51.071  12.835  1.00  0.00    -0.308 N 
HETATM    5  H   UNL     1     -43.739 -48.797  11.993  1.00  0.00     0.164 HD
HETATM    6  H   UNL     1     -44.342 -50.915  12.280  1.00  0.00     0.170 HD
ENDROOT
BRANCH   1   7
HETATM    7  C   UNL     1     -41.727 -48.197  11.425  1.00  0.00     0.103 C 
HETATM    8  C   UNL     1     -41.366 -47.003  12.368  1.00  0.00     0.006 C 
HETATM    9  C   UNL     1     -41.246 -46.135  11.037  1.00  0.00     0.137 C 
HETATM   10  C   UNL     1     -42.133 -47.194  10.312  1.00  0.00     0.035 C 
HETATM   11  C   UNL     1     -43.582 -46.851   9.995  1.00  0.00     0.015 C 
BRANCH   8  12
HETATM   12  C   UNL     1     -40.007 -47.215  13.076  1.00  0.00     0.010 C 
HETATM   13  C   UNL     1     -39.432 -45.953  13.696  1.00  0.00     0.006 C 
ENDBRANCH   8  12
BRANCH   8  14
HETATM   14  C   UNL     1     -42.493 -46.587  13.348  1.00  0.00     0.010 C 
HETATM   15  C   UNL     1     -42.801 -45.097  13.356  1.00  0.00     0.006 C 
ENDBRANCH   8  14
BRANCH   9  16
HETATM   16  O   UNL     1     -39.950 -46.048  10.387  1.00  0.00    -0.389 OA
HETATM   17  C   UNL     1     -39.444 -44.782  10.012  1.00  0.00     0.202 C 
ENDBRANCH   9  16
ENDBRANCH   1   7
BRANCH   4  18
HETATM   18  C   UNL     1     -43.430 -52.260  13.530  1.00  0.00     0.052 A 
HETATM   19  C   UNL     1     -42.360 -52.643  14.249  1.00  0.00     0.121 A 
HETATM   20  N   UNL     1     -42.315 -53.872  14.852  1.00  0.00    -0.331 N 
HETATM   21  C   UNL     1     -43.308 -54.812  14.762  1.00  0.00     0.251 A 
HETATM   22  H   UNL     1     -41.484 -54.150  15.363  1.00  0.00     0.168 HD
HETATM   23  O   UNL     1     -43.206 -55.913  15.292  1.00  0.00    -0.268 OA
HETATM   24  C   UNL     1     -44.517 -54.405  13.981  1.00  0.00     0.008 A 
HETATM   25  C   UNL     1     -45.611 -55.408  13.806  1.00  0.00     0.054 C 
HETATM   26  C   UNL     1     -44.558 -53.172  13.440  1.00  0.00     0.043 A 
ENDBRANCH   4  18
TORSDOF 5
ENDMDL
MODEL 8
REMARK VINA RESULT:      -5.0     13.928     16.755
REMARK  5 active torsions:
REMARK  status: ('A' for Active; 'I' for Inactive)
REMARK    1  A    between atoms: C_2  and  C_3 
REMARK    2  A    between atoms: C_3  and  C_4 
REMARK    3  A    between atoms: C_6  and  N_7 
REMARK       I    between atoms: N_7  and  C_8 
REMARK       I    between atoms: C_8  and  N_10 
REMARK    4  A    between atoms: N_10  and  C_11 
REMARK    5  A    between atoms: C_21  and  O_22 
ROOT
HETATM    1  N   UNL     1     -50.254 -49.093  -0.792  1.00  0.00    -0.337 N 
HETATM    2  C   UNL     1     -49.911 -50.413  -0.603  1.00  0.00     0.321 C 
HETATM    3  O   UNL     1     -49.519 -50.829   0.484  1.00  0.00    -0.247 OA
HETATM    4  N   UNL     1     -50.008 -51.162  -1.756  1.00  0.00    -0.308 N 
HETATM    5  H   UNL     1     -50.895 -48.903  -1.550  1.00  0.00     0.164 HD
HETATM    6  H   UNL     1     -49.997 -50.633  -2.615  1.00  0.00     0.170 HD
ENDROOT
BRANCH   1   7
HETATM    7  C   UNL     1     -50.170 -48.178   0.367  1.00  0.00     0.103 C 
HETATM    8  C   UNL     1     -51.166 -46.974   0.450  1.00  0.00     0.006 C 
HETATM    9  C   UNL     1     -49.922 -46.127   0.974  1.00  0.00     0.137 C 
HETATM   10  C   UNL     1     -48.976 -47.187   0.328  1.00  0.00     0.035 C 
HETATM   11  C   UNL     1     -48.238 -46.832  -0.955  1.00  0.00     0.015 C 
BRANCH   8  12
HETATM   12  C   UNL     1     -52.249 -47.192   1.531  1.00  0.00     0.010 C 
HETATM   13  C   UNL     1     -53.508 -47.868   1.014  1.00  0.00     0.006 C 
ENDBRANCH   8  12
BRANCH   8  14
HETATM   14  C   UNL     1     -51.760 -46.530  -0.912  1.00  0.00     0.010 C 
HETATM   15  C   UNL     1     -51.986 -45.031  -1.041  1.00  0.00     0.006 C 
ENDBRANCH   8  14
BRANCH   9  16
HETATM   16  O   UNL     1     -49.687 -46.065   2.407  1.00  0.00    -0.389 OA
HETATM   17  C   UNL     1     -49.212 -44.865   2.982  1.00  0.00     0.202 C 
ENDBRANCH   9  16
ENDBRANCH   1   7
BRANCH   4  18
HETATM   18  C   UNL     1     -49.735 -52.512  -1.838  1.00  0.00     0.052 A 
HETATM   19  C   UNL     1     -48.527 -53.057  -1.606  1.00  0.00     0.121 A 
HETATM   20  N   UNL     1     -48.309 -54.398  -1.780  1.00  0.00    -0.331 N 
HETATM   21  C   UNL     1     -49.260 -55.283  -2.219  1.00  0.00     0.251 A 
HETATM   22  H   UNL     1     -47.382 -54.779  -1.629  1.00  0.00     0.168 HD
HETATM   23  O   UNL     1     -49.007 -56.470  -2.392  1.00  0.00    -0.268 OA
HETATM   24  C   UNL     1     -50.617 -54.706  -2.467  1.00  0.00     0.008 A 
HETATM   25  C   UNL     1     -51.680 -55.613  -2.996  1.00  0.00     0.054 C 
HETATM   26  C   UNL     1     -50.818 -53.393  -2.241  1.00  0.00     0.043 A 
ENDBRANCH   4  18
TORSDOF 5
ENDMDL
MODEL 9
REMARK VINA RESULT:      -4.9      4.071      8.330
REMARK  5 active torsions:
REMARK  status: ('A' for Active; 'I' for Inactive)
REMARK    1  A    between atoms: C_2  and  C_3 
REMARK    2  A    between atoms: C_3  and  C_4 
REMARK    3  A    between atoms: C_6  and  N_7 
REMARK       I    between atoms: N_7  and  C_8 
REMARK       I    between atoms: C_8  and  N_10 
REMARK    4  A    between atoms: N_10  and  C_11 
REMARK    5  A    between atoms: C_21  and  O_22 
ROOT
HETATM    1  N   UNL     1     -41.080 -49.010  13.165  1.00  0.00    -0.337 N 
HETATM    2  C   UNL     1     -40.210 -50.060  13.363  1.00  0.00     0.321 C 
HETATM    3  O   UNL     1     -39.022 -49.980  13.064  1.00  0.00    -0.247 OA
HETATM    4  N   UNL     1     -40.832 -51.182  13.867  1.00  0.00    -0.308 N 
HETATM    5  H   UNL     1     -41.905 -48.999  13.748  1.00  0.00     0.164 HD
HETATM    6  H   UNL     1     -41.831 -51.219  13.731  1.00  0.00     0.170 HD
ENDROOT
BRANCH   1   7
HETATM    7  C   UNL     1     -40.538 -47.752  12.605  1.00  0.00     0.103 C 
HETATM    8  C   UNL     1     -41.249 -46.404  12.957  1.00  0.00     0.006 C 
HETATM    9  C   UNL     1     -41.001 -46.006  11.434  1.00  0.00     0.137 C 
HETATM   10  C   UNL     1     -40.848 -47.524  11.102  1.00  0.00     0.035 C 
HETATM   11  C   UNL     1     -41.979 -48.235  10.373  1.00  0.00     0.015 C 
BRANCH   8  12
HETATM   12  C   UNL     1     -40.420 -45.554  13.948  1.00  0.00     0.010 C 
HETATM   13  C   UNL     1     -39.154 -46.239  14.436  1.00  0.00     0.006 C 
ENDBRANCH   8  12
BRANCH   8  14
HETATM   14  C   UNL     1     -42.732 -46.547  13.386  1.00  0.00     0.010 C 
HETATM   15  C   UNL     1     -42.983 -46.315  14.869  1.00  0.00     0.006 C 
ENDBRANCH   8  14
BRANCH   9  16
HETATM   16  O   UNL     1     -39.775 -45.303  11.098  1.00  0.00    -0.389 OA
HETATM   17  C   UNL     1     -39.848 -44.038  10.471  1.00  0.00     0.202 C 
ENDBRANCH   9  16
ENDBRANCH   1   7
BRANCH   4  18
HETATM   18  C   UNL     1     -40.188 -52.364  14.169  1.00  0.00     0.052 A 
HETATM   19  C   UNL     1     -40.109 -53.418  13.337  1.00  0.00     0.121 A 
HETATM   20  N   UNL     1     -39.520 -54.590  13.731  1.00  0.00    -0.331 N 
HETATM   21  C   UNL     1     -38.995 -54.808  14.978  1.00  0.00     0.251 A 
HETATM   22  H   UNL     1     -39.501 -55.380  13.097  1.00  0.00     0.168 HD
HETATM   23  O   UNL     1     -38.507 -55.887  15.295  1.00  0.00    -0.268 OA
HETATM   24  C   UNL     1     -39.054 -53.645  15.919  1.00  0.00     0.008 A 
HETATM   25  C   UNL     1     -38.542 -53.839  17.309  1.00  0.00     0.054 C 
HETATM   26  C   UNL     1     -39.594 -52.488  15.490  1.00  0.00     0.043 A 
ENDBRANCH   4  18
TORSDOF 5
ENDMDL
