MODEL 1
REMARK VINA RESULT:      -5.8      0.000      0.000
REMARK  5 active torsions:
REMARK  status: ('A' for Active; 'I' for Inactive)
REMARK    1  A    between atoms: O_1  and  C_2 
REMARK    2  A    between atoms: C_2  and  C_3 
REMARK    3  A    between atoms: C_3  and  N_4 
REMARK    4  A    between atoms: C_5  and  C_6 
REMARK    5  A    between atoms: C_6  and  N_7 
ROOT
HETATM    1  N   UNL     1     -42.044 -52.627  12.550  1.00  0.00    -0.331 N 
HETATM    2  C   UNL     1     -41.866 -51.276  12.307  1.00  0.00     0.113 A 
HETATM    3  N   UNL     1     -42.947 -50.608  12.667  1.00  0.00    -0.342 N 
ATOM      4  HN  UNL     1     -43.076 -49.597  12.638  1.00  0.00     0.167 HD
HETATM    5  C   UNL     1     -43.858 -51.533  13.083  1.00  0.00     0.060 A 
HETATM    6  C   UNL     1     -45.176 -51.339  13.520  1.00  0.00     0.033 A 
HETATM    7  C   UNL     1     -45.931 -52.454  13.895  1.00  0.00     0.026 A 
HETATM    8  C   UNL     1     -45.375 -53.733  13.836  1.00  0.00     0.036 A 
HETATM    9 CL   UNL     1     -46.330 -55.087  14.309  1.00  0.00    -0.084 Cl
HETATM   10  C   UNL     1     -44.061 -53.948  13.398  1.00  0.00     0.056 A 
HETATM   11  C   UNL     1     -43.325 -52.816  13.024  1.00  0.00     0.064 A 
ENDROOT
BRANCH   2  12
HETATM   12  C   UNL     1     -40.613 -50.705  11.683  1.00  0.00     0.348 C 
BRANCH  12  13
HETATM   13  N   UNL     1     -39.880 -49.739  12.524  1.00  0.00     0.095 N 
HETATM   14  C   UNL     1     -38.766 -49.064  11.838  1.00  0.00     0.273 C 
HETATM   15  C   UNL     1     -37.574 -49.978  11.554  1.00  0.00     0.030 C 
HETATM   16  C   UNL     1     -37.072 -50.625  12.838  1.00  0.00     0.003 C 
HETATM   17  C   UNL     1     -38.214 -51.294  13.598  1.00  0.00     0.030 C 
HETATM   18  C   UNL     1     -39.407 -50.348  13.776  1.00  0.00     0.273 C 
ENDBRANCH  12  13
ENDBRANCH   2  12
BRANCH   1  19
HETATM   19  C   UNL     1     -41.060 -53.672  12.362  1.00  0.00     0.156 C 
BRANCH  19  20
HETATM   20  C   UNL     1     -40.369 -54.081  13.656  1.00  0.00     0.184 C 
BRANCH  20  21
HETATM   21  O   UNL     1     -39.114 -54.678  13.346  1.00  0.00    -0.399 OA
HETATM   22  H   UNL     1     -39.292 -55.459  12.792  1.00  0.00     0.209 HD
ENDBRANCH  20  21
ENDBRANCH  19  20
ENDBRANCH   1  19
TORSDOF 5
ENDMDL
MODEL 2
REMARK VINA RESULT:      -5.7      3.809      6.263
REMARK  5 active torsions:
REMARK  status: ('A' for Active; 'I' for Inactive)
REMARK    1  A    between atoms: O_1  and  C_2 
REMARK    2  A    between atoms: C_2  and  C_3 
REMARK    3  A    between atoms: C_3  and  N_4 
REMARK    4  A    between atoms: C_5  and  C_6 
REMARK    5  A    between atoms: C_6  and  N_7 
ROOT
HETATM    1  N   UNL     1     -39.938 -49.088  11.811  1.00  0.00    -0.331 N 
HETATM    2  C   UNL     1     -40.947 -50.017  11.624  1.00  0.00     0.113 A 
HETATM    3  N   UNL     1     -41.970 -49.450  11.010  1.00  0.00    -0.342 N 
ATOM      4  HN  UNL     1     -42.830 -49.909  10.710  1.00  0.00     0.167 HD
HETATM    5  C   UNL     1     -41.654 -48.132  10.857  1.00  0.00     0.060 A 
HETATM    6  C   UNL     1     -42.425 -47.098  10.307  1.00  0.00     0.033 A 
HETATM    7  C   UNL     1     -41.885 -45.809  10.262  1.00  0.00     0.026 A 
HETATM    8  C   UNL     1     -40.603 -45.565  10.755  1.00  0.00     0.036 A 
HETATM    9 CL   UNL     1     -39.965 -43.966  10.682  1.00  0.00    -0.084 Cl
HETATM   10  C   UNL     1     -39.819 -46.584  11.313  1.00  0.00     0.056 A 
HETATM   11  C   UNL     1     -40.381 -47.867  11.350  1.00  0.00     0.064 A 
ENDROOT
BRANCH   2  12
HETATM   12  C   UNL     1     -40.856 -51.447  12.104  1.00  0.00     0.348 C 
BRANCH  12  13
HETATM   13  N   UNL     1     -41.391 -51.686  13.459  1.00  0.00     0.095 N 
HETATM   14  C   UNL     1     -40.934 -52.943  14.074  1.00  0.00     0.273 C 
HETATM   15  C   UNL     1     -41.533 -54.195  13.435  1.00  0.00     0.030 C 
HETATM   16  C   UNL     1     -43.054 -54.135  13.452  1.00  0.00     0.003 C 
HETATM   17  C   UNL     1     -43.559 -52.822  12.862  1.00  0.00     0.030 C 
HETATM   18  C   UNL     1     -42.859 -51.612  13.491  1.00  0.00     0.273 C 
ENDBRANCH  12  13
ENDBRANCH   2  12
BRANCH   1  19
HETATM   19  C   UNL     1     -38.629 -49.342  12.377  1.00  0.00     0.156 C 
BRANCH  19  20
HETATM   20  C   UNL     1     -37.592 -49.729  11.330  1.00  0.00     0.184 C 
BRANCH  20  21
HETATM   21  O   UNL     1     -37.390 -51.138  11.372  1.00  0.00    -0.399 OA
HETATM   22  H   UNL     1     -38.251 -51.551  11.565  1.00  0.00     0.209 HD
ENDBRANCH  20  21
ENDBRANCH  19  20
ENDBRANCH   1  19
TORSDOF 5
ENDMDL
MODEL 3
REMARK VINA RESULT:      -5.6      3.333      4.943
REMARK  5 active torsions:
REMARK  status: ('A' for Active; 'I' for Inactive)
REMARK    1  A    between atoms: O_1  and  C_2 
REMARK    2  A    between atoms: C_2  and  C_3 
REMARK    3  A    between atoms: C_3  and  N_4 
REMARK    4  A    between atoms: C_5  and  C_6 
REMARK    5  A    between atoms: C_6  and  N_7 
ROOT
HETATM    1  N   UNL     1     -40.035 -50.482  12.550  1.00  0.00    -0.331 N 
HETATM    2  C   UNL     1     -41.162 -50.127  11.830  1.00  0.00     0.113 A 
HETATM    3  N   UNL     1     -42.052 -51.102  11.880  1.00  0.00    -0.342 N 
ATOM      4  HN  UNL     1     -42.988 -51.093  11.475  1.00  0.00     0.167 HD
HETATM    5  C   UNL     1     -41.477 -52.122  12.578  1.00  0.00     0.060 A 
HETATM    6  C   UNL     1     -41.992 -53.394  12.867  1.00  0.00     0.033 A 
HETATM    7  C   UNL     1     -41.205 -54.286  13.602  1.00  0.00     0.026 A 
HETATM    8  C   UNL     1     -39.934 -53.909  14.038  1.00  0.00     0.036 A 
HETATM    9 CL   UNL     1     -38.991 -55.030  14.946  1.00  0.00    -0.084 Cl
HETATM   10  C   UNL     1     -39.400 -52.644  13.757  1.00  0.00     0.056 A 
HETATM   11  C   UNL     1     -40.205 -51.768  13.016  1.00  0.00     0.064 A 
ENDROOT
BRANCH   2  12
HETATM   12  C   UNL     1     -41.291 -48.819  11.083  1.00  0.00     0.348 C 
BRANCH  12  13
HETATM   13  N   UNL     1     -42.158 -47.814  11.726  1.00  0.00     0.095 N 
HETATM   14  C   UNL     1     -43.552 -47.828  11.252  1.00  0.00     0.273 C 
HETATM   15  C   UNL     1     -43.722 -47.308   9.825  1.00  0.00     0.030 C 
HETATM   16  C   UNL     1     -43.145 -45.905   9.689  1.00  0.00     0.003 C 
HETATM   17  C   UNL     1     -41.714 -45.846  10.216  1.00  0.00     0.030 C 
HETATM   18  C   UNL     1     -41.601 -46.457  11.617  1.00  0.00     0.273 C 
ENDBRANCH  12  13
ENDBRANCH   2  12
BRANCH   1  19
HETATM   19  C   UNL     1     -38.874 -49.652  12.795  1.00  0.00     0.156 C 
BRANCH  19  20
HETATM   20  C   UNL     1     -37.666 -50.054  11.959  1.00  0.00     0.184 C 
BRANCH  20  21
HETATM   21  O   UNL     1     -38.034 -50.072  10.584  1.00  0.00    -0.399 OA
HETATM   22  H   UNL     1     -38.763 -50.712  10.486  1.00  0.00     0.209 HD
ENDBRANCH  20  21
ENDBRANCH  19  20
ENDBRANCH   1  19
TORSDOF 5
ENDMDL
MODEL 4
REMARK VINA RESULT:      -5.5      3.054      4.478
REMARK  5 active torsions:
REMARK  status: ('A' for Active; 'I' for Inactive)
REMARK    1  A    between atoms: O_1  and  C_2 
REMARK    2  A    between atoms: C_2  and  C_3 
REMARK    3  A    between atoms: C_3  and  N_4 
REMARK    4  A    between atoms: C_5  and  C_6 
REMARK    5  A    between atoms: C_6  and  N_7 
ROOT
HETATM    1  N   UNL     1     -39.822 -50.453  12.369  1.00  0.00    -0.331 N 
HETATM    2  C   UNL     1     -40.937 -49.998  11.688  1.00  0.00     0.113 A 
HETATM    3  N   UNL     1     -41.922 -50.871  11.806  1.00  0.00    -0.342 N 
ATOM      4  HN  UNL     1     -42.869 -50.773  11.441  1.00  0.00     0.167 HD
HETATM    5  C   UNL     1     -41.426 -51.928  12.509  1.00  0.00     0.060 A 
HETATM    6  C   UNL     1     -42.058 -53.130  12.859  1.00  0.00     0.033 A 
HETATM    7  C   UNL     1     -41.337 -54.081  13.587  1.00  0.00     0.026 A 
HETATM    8  C   UNL     1     -40.015 -53.831  13.956  1.00  0.00     0.036 A 
HETATM    9 CL   UNL     1     -39.154 -55.022  14.857  1.00  0.00    -0.084 Cl
HETATM   10  C   UNL     1     -39.364 -52.638  13.613  1.00  0.00     0.056 A 
HETATM   11  C   UNL     1     -40.105 -51.701  12.881  1.00  0.00     0.064 A 
ENDROOT
BRANCH   2  12
HETATM   12  C   UNL     1     -40.961 -48.704  10.907  1.00  0.00     0.348 C 
BRANCH  12  13
HETATM   13  N   UNL     1     -41.831 -47.652  11.466  1.00  0.00     0.095 N 
HETATM   14  C   UNL     1     -41.969 -46.464  10.608  1.00  0.00     0.273 C 
HETATM   15  C   UNL     1     -40.704 -45.611  10.530  1.00  0.00     0.030 C 
HETATM   16  C   UNL     1     -40.248 -45.192  11.922  1.00  0.00     0.003 C 
HETATM   17  C   UNL     1     -40.141 -46.398  12.851  1.00  0.00     0.030 C 
HETATM   18  C   UNL     1     -41.412 -47.253  12.817  1.00  0.00     0.273 C 
ENDBRANCH  12  13
ENDBRANCH   2  12
BRANCH   1  19
HETATM   19  C   UNL     1     -38.570 -49.745  12.538  1.00  0.00     0.156 C 
BRANCH  19  20
HETATM   20  C   UNL     1     -37.442 -50.317  11.689  1.00  0.00     0.184 C 
BRANCH  20  21
HETATM   21  O   UNL     1     -37.685 -50.008  10.320  1.00  0.00    -0.399 OA
HETATM   22  H   UNL     1     -36.827 -50.029   9.860  1.00  0.00     0.209 HD
ENDBRANCH  20  21
ENDBRANCH  19  20
ENDBRANCH   1  19
TORSDOF 5
ENDMDL
MODEL 5
REMARK VINA RESULT:      -5.5      3.115      4.835
REMARK  5 active torsions:
REMARK  status: ('A' for Active; 'I' for Inactive)
REMARK    1  A    between atoms: O_1  and  C_2 
REMARK    2  A    between atoms: C_2  and  C_3 
REMARK    3  A    between atoms: C_3  and  N_4 
REMARK    4  A    between atoms: C_5  and  C_6 
REMARK    5  A    between atoms: C_6  and  N_7 
ROOT
HETATM    1  N   UNL     1     -43.059 -53.182  14.187  1.00  0.00    -0.331 N 
HETATM    2  C   UNL     1     -42.821 -52.980  15.536  1.00  0.00     0.113 A 
HETATM    3  N   UNL     1     -43.871 -52.407  16.096  1.00  0.00    -0.342 N 
ATOM      4  HN  UNL     1     -43.988 -52.182  17.084  1.00  0.00     0.167 HD
HETATM    5  C   UNL     1     -44.770 -52.175  15.097  1.00  0.00     0.060 A 
HETATM    6  C   UNL     1     -46.022 -51.547  15.165  1.00  0.00     0.033 A 
HETATM    7  C   UNL     1     -46.772 -51.416  13.993  1.00  0.00     0.026 A 
HETATM    8  C   UNL     1     -46.278 -51.905  12.783  1.00  0.00     0.036 A 
HETATM    9 CL   UNL     1     -47.229 -51.731  11.355  1.00  0.00    -0.084 Cl
HETATM   10  C   UNL     1     -45.028 -52.532  12.693  1.00  0.00     0.056 A 
HETATM   11  C   UNL     1     -44.293 -52.650  13.880  1.00  0.00     0.064 A 
ENDROOT
BRANCH   2  12
HETATM   12  C   UNL     1     -41.518 -53.343  16.211  1.00  0.00     0.348 C 
BRANCH  12  13
HETATM   13  N   UNL     1     -41.656 -54.116  17.460  1.00  0.00     0.095 N 
HETATM   14  C   UNL     1     -40.377 -54.548  18.047  1.00  0.00     0.273 C 
HETATM   15  C   UNL     1     -39.673 -55.644  17.248  1.00  0.00     0.030 C 
HETATM   16  C   UNL     1     -40.587 -56.848  17.060  1.00  0.00     0.003 C 
HETATM   17  C   UNL     1     -41.941 -56.426  16.497  1.00  0.00     0.030 C 
HETATM   18  C   UNL     1     -42.552 -55.270  17.296  1.00  0.00     0.273 C 
ENDBRANCH  12  13
ENDBRANCH   2  12
BRANCH   1  19
HETATM   19  C   UNL     1     -42.181 -53.851  13.250  1.00  0.00     0.156 C 
BRANCH  19  20
HETATM   20  C   UNL     1     -41.318 -52.885  12.448  1.00  0.00     0.184 C 
BRANCH  20  21
HETATM   21  O   UNL     1     -40.554 -53.621  11.498  1.00  0.00    -0.399 OA
HETATM   22  H   UNL     1     -39.942 -52.996  11.068  1.00  0.00     0.209 HD
ENDBRANCH  20  21
ENDBRANCH  19  20
ENDBRANCH   1  19
TORSDOF 5
ENDMDL
MODEL 6
REMARK VINA RESULT:      -5.5      3.849      6.201
REMARK  5 active torsions:
REMARK  status: ('A' for Active; 'I' for Inactive)
REMARK    1  A    between atoms: O_1  and  C_2 
REMARK    2  A    between atoms: C_2  and  C_3 
REMARK    3  A    between atoms: C_3  and  N_4 
REMARK    4  A    between atoms: C_5  and  C_6 
REMARK    5  A    between atoms: C_6  and  N_7 
ROOT
HETATM    1  N   UNL     1     -40.775 -49.183  12.399  1.00  0.00    -0.331 N 
HETATM    2  C   UNL     1     -41.986 -49.851  12.450  1.00  0.00     0.113 A 
HETATM    3  N   UNL     1     -42.891 -49.196  11.746  1.00  0.00    -0.342 N 
ATOM      4  HN  UNL     1     -43.855 -49.481  11.577  1.00  0.00     0.167 HD
HETATM    5  C   UNL     1     -42.285 -48.062  11.289  1.00  0.00     0.060 A 
HETATM    6  C   UNL     1     -42.831 -47.014  10.534  1.00  0.00     0.033 A 
HETATM    7  C   UNL     1     -42.007 -45.940  10.184  1.00  0.00     0.026 A 
HETATM    8  C   UNL     1     -40.669 -45.920  10.581  1.00  0.00     0.036 A 
HETATM    9 CL   UNL     1     -39.679 -44.583  10.130  1.00  0.00    -0.084 Cl
HETATM   10  C   UNL     1     -40.107 -46.955  11.339  1.00  0.00     0.056 A 
HETATM   11  C   UNL     1     -40.951 -48.021  11.680  1.00  0.00     0.064 A 
ENDROOT
BRANCH   2  12
HETATM   12  C   UNL     1     -42.199 -51.121  13.243  1.00  0.00     0.348 C 
BRANCH  12  13
HETATM   13  N   UNL     1     -42.317 -52.350  12.436  1.00  0.00     0.095 N 
HETATM   14  C   UNL     1     -43.632 -53.006  12.523  1.00  0.00     0.273 C 
HETATM   15  C   UNL     1     -43.902 -53.666  13.875  1.00  0.00     0.030 C 
HETATM   16  C   UNL     1     -42.804 -54.665  14.217  1.00  0.00     0.003 C 
HETATM   17  C   UNL     1     -41.423 -54.027  14.090  1.00  0.00     0.030 C 
HETATM   18  C   UNL     1     -41.251 -53.314  12.744  1.00  0.00     0.273 C 
ENDBRANCH  12  13
ENDBRANCH   2  12
BRANCH   1  19
HETATM   19  C   UNL     1     -39.524 -49.625  12.979  1.00  0.00     0.156 C 
BRANCH  19  20
HETATM   20  C   UNL     1     -38.791 -50.641  12.113  1.00  0.00     0.184 C 
BRANCH  20  21
HETATM   21  O   UNL     1     -38.373 -50.010  10.906  1.00  0.00    -0.399 OA
HETATM   22  H   UNL     1     -38.551 -49.057  10.998  1.00  0.00     0.209 HD
ENDBRANCH  20  21
ENDBRANCH  19  20
ENDBRANCH   1  19
TORSDOF 5
ENDMDL
MODEL 7
REMARK VINA RESULT:      -5.3      2.046      2.555
REMARK  5 active torsions:
REMARK  status: ('A' for Active; 'I' for Inactive)
REMARK    1  A    between atoms: O_1  and  C_2 
REMARK    2  A    between atoms: C_2  and  C_3 
REMARK    3  A    between atoms: C_3  and  N_4 
REMARK    4  A    between atoms: C_5  and  C_6 
REMARK    5  A    between atoms: C_6  and  N_7 
ROOT
HETATM    1  N   UNL     1     -42.351 -51.609  12.457  1.00  0.00    -0.331 N 
HETATM    2  C   UNL     1     -42.569 -50.243  12.495  1.00  0.00     0.113 A 
HETATM    3  N   UNL     1     -43.765 -49.992  12.998  1.00  0.00    -0.342 N 
ATOM      4  HN  UNL     1     -44.169 -49.074  13.180  1.00  0.00     0.167 HD
HETATM    5  C   UNL     1     -44.354 -51.200  13.227  1.00  0.00     0.060 A 
HETATM    6  C   UNL     1     -45.641 -51.477  13.712  1.00  0.00     0.033 A 
HETATM    7  C   UNL     1     -46.030 -52.811  13.859  1.00  0.00     0.026 A 
HETATM    8  C   UNL     1     -45.149 -53.842  13.530  1.00  0.00     0.036 A 
HETATM    9 CL   UNL     1     -45.658 -55.477  13.727  1.00  0.00    -0.084 Cl
HETATM   10  C   UNL     1     -43.861 -53.587  13.041  1.00  0.00     0.056 A 
HETATM   11  C   UNL     1     -43.493 -52.242  12.899  1.00  0.00     0.064 A 
ENDROOT
BRANCH   2  12
HETATM   12  C   UNL     1     -41.569 -49.229  11.986  1.00  0.00     0.348 C 
BRANCH  12  13
HETATM   13  N   UNL     1     -42.104 -47.869  11.788  1.00  0.00     0.095 N 
HETATM   14  C   UNL     1     -41.453 -47.117  10.703  1.00  0.00     0.273 C 
HETATM   15  C   UNL     1     -40.021 -46.690  11.022  1.00  0.00     0.030 C 
HETATM   16  C   UNL     1     -39.973 -45.880  12.311  1.00  0.00     0.003 C 
HETATM   17  C   UNL     1     -40.682 -46.612  13.446  1.00  0.00     0.030 C 
HETATM   18  C   UNL     1     -42.080 -47.083  13.031  1.00  0.00     0.273 C 
ENDBRANCH  12  13
ENDBRANCH   2  12
BRANCH   1  19
HETATM   19  C   UNL     1     -41.133 -52.274  12.045  1.00  0.00     0.156 C 
BRANCH  19  20
HETATM   20  C   UNL     1     -40.318 -52.804  13.217  1.00  0.00     0.184 C 
BRANCH  20  21
HETATM   21  O   UNL     1     -39.901 -54.136  12.932  1.00  0.00    -0.399 OA
HETATM   22  H   UNL     1     -39.118 -54.079  12.354  1.00  0.00     0.209 HD
ENDBRANCH  20  21
ENDBRANCH  19  20
ENDBRANCH   1  19
TORSDOF 5
ENDMDL
MODEL 8
REMARK VINA RESULT:      -5.0      5.300      7.540
REMARK  5 active torsions:
REMARK  status: ('A' for Active; 'I' for Inactive)
REMARK    1  A    between atoms: O_1  and  C_2 
REMARK    2  A    between atoms: C_2  and  C_3 
REMARK    3  A    between atoms: C_3  and  N_4 
REMARK    4  A    between atoms: C_5  and  C_6 
REMARK    5  A    between atoms: C_6  and  N_7 
ROOT
HETATM    1  N   UNL     1     -39.621 -46.990  12.759  1.00  0.00    -0.331 N 
HETATM    2  C   UNL     1     -40.102 -47.259  11.490  1.00  0.00     0.113 A 
HETATM    3  N   UNL     1     -39.743 -48.475  11.122  1.00  0.00    -0.342 N 
ATOM      4  HN  UNL     1     -39.995 -48.948  10.254  1.00  0.00     0.167 HD
HETATM    5  C   UNL     1     -38.969 -48.976  12.126  1.00  0.00     0.060 A 
HETATM    6  C   UNL     1     -38.308 -50.211  12.199  1.00  0.00     0.033 A 
HETATM    7  C   UNL     1     -37.559 -50.505  13.342  1.00  0.00     0.026 A 
HETATM    8  C   UNL     1     -37.477 -49.584  14.387  1.00  0.00     0.036 A 
HETATM    9 CL   UNL     1     -36.548 -49.978  15.784  1.00  0.00    -0.084 Cl
HETATM   10  C   UNL     1     -38.127 -48.344  14.332  1.00  0.00     0.056 A 
HETATM   11  C   UNL     1     -38.870 -48.069  13.176  1.00  0.00     0.064 A 
ENDROOT
BRANCH   2  12
HETATM   12  C   UNL     1     -40.885 -46.257  10.672  1.00  0.00     0.348 C 
BRANCH  12  13
HETATM   13  N   UNL     1     -42.201 -45.888  11.228  1.00  0.00     0.095 N 
HETATM   14  C   UNL     1     -42.988 -47.028  11.725  1.00  0.00     0.273 C 
HETATM   15  C   UNL     1     -43.523 -47.936  10.618  1.00  0.00     0.030 C 
HETATM   16  C   UNL     1     -44.347 -47.138   9.616  1.00  0.00     0.003 C 
HETATM   17  C   UNL     1     -43.575 -45.920   9.116  1.00  0.00     0.030 C 
HETATM   18  C   UNL     1     -42.998 -45.101  10.276  1.00  0.00     0.273 C 
ENDBRANCH  12  13
ENDBRANCH   2  12
BRANCH   1  19
HETATM   19  C   UNL     1     -39.868 -45.795  13.538  1.00  0.00     0.156 C 
BRANCH  19  20
HETATM   20  C   UNL     1     -38.861 -44.686  13.264  1.00  0.00     0.184 C 
BRANCH  20  21
HETATM   21  O   UNL     1     -39.379 -43.453  13.754  1.00  0.00    -0.399 OA
HETATM   22  H   UNL     1     -39.522 -42.871  12.986  1.00  0.00     0.209 HD
ENDBRANCH  20  21
ENDBRANCH  19  20
ENDBRANCH   1  19
TORSDOF 5
ENDMDL
MODEL 9
REMARK VINA RESULT:      -4.9      2.853      6.205
REMARK  5 active torsions:
REMARK  status: ('A' for Active; 'I' for Inactive)
REMARK    1  A    between atoms: O_1  and  C_2 
REMARK    2  A    between atoms: C_2  and  C_3 
REMARK    3  A    between atoms: C_3  and  N_4 
REMARK    4  A    between atoms: C_5  and  C_6 
REMARK    5  A    between atoms: C_6  and  N_7 
ROOT
HETATM    1  N   UNL     1     -41.661 -52.245  12.933  1.00  0.00    -0.331 N 
HETATM    2  C   UNL     1     -42.970 -51.799  12.899  1.00  0.00     0.113 A 
HETATM    3  N   UNL     1     -43.018 -50.587  12.376  1.00  0.00    -0.342 N 
ATOM      4  HN  UNL     1     -43.855 -50.035  12.192  1.00  0.00     0.167 HD
HETATM    5  C   UNL     1     -41.729 -50.215  12.130  1.00  0.00     0.060 A 
HETATM    6  C   UNL     1     -41.242 -49.003  11.621  1.00  0.00     0.033 A 
HETATM    7  C   UNL     1     -39.861 -48.849  11.460  1.00  0.00     0.026 A 
HETATM    8  C   UNL     1     -38.993 -49.887  11.799  1.00  0.00     0.036 A 
HETATM    9 CL   UNL     1     -37.296 -49.667  11.585  1.00  0.00    -0.084 Cl
HETATM   10  C   UNL     1     -39.459 -51.104  12.313  1.00  0.00     0.056 A 
HETATM   11  C   UNL     1     -40.846 -51.235  12.468  1.00  0.00     0.064 A 
ENDROOT
BRANCH   2  12
HETATM   12  C   UNL     1     -44.135 -52.603  13.431  1.00  0.00     0.348 C 
BRANCH  12  13
HETATM   13  N   UNL     1     -44.385 -52.459  14.878  1.00  0.00     0.095 N 
HETATM   14  C   UNL     1     -45.018 -53.633  15.501  1.00  0.00     0.273 C 
HETATM   15  C   UNL     1     -46.478 -53.831  15.097  1.00  0.00     0.030 C 
HETATM   16  C   UNL     1     -47.297 -52.582  15.399  1.00  0.00     0.003 C 
HETATM   17  C   UNL     1     -46.640 -51.339  14.806  1.00  0.00     0.030 C 
HETATM   18  C   UNL     1     -45.158 -51.246  15.184  1.00  0.00     0.273 C 
ENDBRANCH  12  13
ENDBRANCH   2  12
BRANCH   1  19
HETATM   19  C   UNL     1     -41.209 -53.552  13.364  1.00  0.00     0.156 C 
BRANCH  19  20
HETATM   20  C   UNL     1     -40.801 -53.588  14.831  1.00  0.00     0.184 C 
BRANCH  20  21
HETATM   21  O   UNL     1     -40.176 -54.837  15.111  1.00  0.00    -0.399 OA
HETATM   22  H   UNL     1     -39.951 -54.845  16.059  1.00  0.00     0.209 HD
ENDBRANCH  20  21
ENDBRANCH  19  20
ENDBRANCH   1  19
TORSDOF 5
ENDMDL
