MODEL 1
REMARK VINA RESULT:      -6.8      0.000      0.000
REMARK  3 active torsions:
REMARK  status: ('A' for Active; 'I' for Inactive)
REMARK    1  A    between atoms: C_6  and  C_8 
REMARK       I    between atoms: C_8  and  N_10 
REMARK    2  A    between atoms: N_10  and  C_11 
REMARK    3  A    between atoms: C_13  and  C_18 
ROOT
HETATM    1  C   UNL     1     -43.564 -46.603   9.635  1.00  0.00     0.108 A 
HETATM    2  C   UNL     1     -44.830 -47.165   9.752  1.00  0.00     0.064 A 
HETATM    3  C   UNL     1     -45.314 -47.969   8.720  1.00  0.00     0.052 A 
HETATM    4  C   UNL     1     -44.481 -48.222   7.629  1.00  0.00     0.033 A 
HETATM    5  C   UNL     1     -43.244 -47.598   7.586  1.00  0.00     0.090 A 
HETATM    6  N   UNL     1     -42.791 -46.760   8.545  1.00  0.00    -0.352 N 
ATOM      7  HN  UNL     1     -41.902 -46.269   8.446  1.00  0.00     0.166 HD
ENDROOT
BRANCH   1   8
HETATM    8  N   UNL     1     -43.027 -45.807  10.646  1.00  0.00    -0.311 N 
HETATM    9  C   UNL     1     -43.048 -44.427  10.616  1.00  0.00     0.254 C 
HETATM   10  O   UNL     1     -43.541 -43.751   9.719  1.00  0.00    -0.270 OA
HETATM   11  H   UNL     1     -42.981 -46.237  11.564  1.00  0.00     0.170 HD
BRANCH   9  12
HETATM   12  C   UNL     1     -42.333 -43.787  11.813  1.00  0.00     0.241 C 
HETATM   13  O   UNL     1     -43.209 -43.010  12.643  1.00  0.00    -0.373 OA
HETATM   14  C   UNL     1     -42.486 -42.502  13.777  1.00  0.00     0.199 C 
HETATM   15  C   UNL     1     -41.283 -41.642  13.347  1.00  0.00     0.298 C 
HETATM   16  N   UNL     1     -40.364 -42.310  12.404  1.00  0.00     0.089 N 
HETATM   17  C   UNL     1     -39.518 -43.301  13.066  1.00  0.00     0.310 C 
HETATM   18  C   UNL     1     -41.158 -42.921  11.311  1.00  0.00     0.313 C 
ENDBRANCH   9  12
ENDBRANCH   1   8
BRANCH   3  19
HETATM   19  C   UNL     1     -46.694 -48.551   8.773  1.00  0.00     0.417 C 
HETATM   20  F   UNL     1     -46.869 -49.474   9.762  1.00  0.00    -0.166 F 
HETATM   21  F   UNL     1     -47.650 -47.599   8.989  1.00  0.00    -0.166 F 
HETATM   22  F   UNL     1     -47.049 -49.172   7.617  1.00  0.00    -0.166 F 
ENDBRANCH   3  19
TORSDOF 3
ENDMDL
MODEL 2
REMARK VINA RESULT:      -6.2      6.043      7.022
REMARK  3 active torsions:
REMARK  status: ('A' for Active; 'I' for Inactive)
REMARK    1  A    between atoms: C_6  and  C_8 
REMARK       I    between atoms: C_8  and  N_10 
REMARK    2  A    between atoms: N_10  and  C_11 
REMARK    3  A    between atoms: C_13  and  C_18 
ROOT
HETATM    1  C   UNL     1     -41.883 -51.963  12.299  1.00  0.00     0.108 A 
HETATM    2  C   UNL     1     -43.024 -52.556  12.829  1.00  0.00     0.064 A 
HETATM    3  C   UNL     1     -42.907 -53.774  13.499  1.00  0.00     0.052 A 
HETATM    4  C   UNL     1     -41.635 -54.326  13.658  1.00  0.00     0.033 A 
HETATM    5  C   UNL     1     -40.558 -53.677  13.074  1.00  0.00     0.090 A 
HETATM    6  N   UNL     1     -40.666 -52.534  12.361  1.00  0.00    -0.352 N 
ATOM      7  HN  UNL     1     -39.860 -52.121  11.891  1.00  0.00     0.166 HD
ENDROOT
BRANCH   1   8
HETATM    8  N   UNL     1     -41.943 -50.738  11.636  1.00  0.00    -0.311 N 
HETATM    9  C   UNL     1     -41.035 -49.720  11.844  1.00  0.00     0.254 C 
HETATM   10  O   UNL     1     -40.081 -49.774  12.613  1.00  0.00    -0.270 OA
HETATM   11  H   UNL     1     -42.407 -50.750  10.735  1.00  0.00     0.170 HD
BRANCH   9  12
HETATM   12  C   UNL     1     -41.359 -48.451  11.044  1.00  0.00     0.241 C 
HETATM   13  O   UNL     1     -40.565 -47.321  11.435  1.00  0.00    -0.373 OA
HETATM   14  C   UNL     1     -40.874 -46.193  10.599  1.00  0.00     0.199 C 
HETATM   15  C   UNL     1     -42.368 -45.825  10.667  1.00  0.00     0.298 C 
HETATM   16  N   UNL     1     -43.284 -46.947  10.382  1.00  0.00     0.089 N 
HETATM   17  C   UNL     1     -43.347 -47.260   8.955  1.00  0.00     0.310 C 
HETATM   18  C   UNL     1     -42.862 -48.126  11.176  1.00  0.00     0.313 C 
ENDBRANCH   9  12
ENDBRANCH   1   8
BRANCH   3  19
HETATM   19  C   UNL     1     -44.114 -54.480  14.038  1.00  0.00     0.417 C 
HETATM   20  F   UNL     1     -45.025 -54.831  13.085  1.00  0.00    -0.166 F 
HETATM   21  F   UNL     1     -43.791 -55.643  14.679  1.00  0.00    -0.166 F 
HETATM   22  F   UNL     1     -44.796 -53.737  14.950  1.00  0.00    -0.166 F 
ENDBRANCH   3  19
TORSDOF 3
ENDMDL
MODEL 3
REMARK VINA RESULT:      -6.1      3.622      4.327
REMARK  3 active torsions:
REMARK  status: ('A' for Active; 'I' for Inactive)
REMARK    1  A    between atoms: C_6  and  C_8 
REMARK       I    between atoms: C_8  and  N_10 
REMARK    2  A    between atoms: N_10  and  C_11 
REMARK    3  A    between atoms: C_13  and  C_18 
ROOT
HETATM    1  C   UNL     1     -42.977 -47.015  10.149  1.00  0.00     0.108 A 
HETATM    2  C   UNL     1     -44.069 -47.835   9.887  1.00  0.00     0.064 A 
HETATM    3  C   UNL     1     -45.189 -47.293   9.254  1.00  0.00     0.052 A 
HETATM    4  C   UNL     1     -45.145 -45.955   8.858  1.00  0.00     0.033 A 
HETATM    5  C   UNL     1     -44.024 -45.209   9.184  1.00  0.00     0.090 A 
HETATM    6  N   UNL     1     -42.962 -45.702   9.860  1.00  0.00    -0.352 N 
ATOM      7  HN  UNL     1     -42.184 -45.104  10.139  1.00  0.00     0.166 HD
ENDROOT
BRANCH   1   8
HETATM    8  N   UNL     1     -41.828 -47.512  10.764  1.00  0.00    -0.311 N 
HETATM    9  C   UNL     1     -41.178 -46.861  11.792  1.00  0.00     0.254 C 
HETATM   10  O   UNL     1     -41.532 -45.795  12.284  1.00  0.00    -0.270 OA
HETATM   11  H   UNL     1     -41.709 -48.519  10.721  1.00  0.00     0.170 HD
BRANCH   9  12
HETATM   12  C   UNL     1     -39.902 -47.580  12.249  1.00  0.00     0.241 C 
HETATM   13  O   UNL     1     -39.636 -48.780  11.509  1.00  0.00    -0.373 OA
HETATM   14  C   UNL     1     -38.393 -49.358  11.944  1.00  0.00     0.199 C 
HETATM   15  C   UNL     1     -38.406 -49.672  13.452  1.00  0.00     0.298 C 
HETATM   16  N   UNL     1     -38.773 -48.526  14.308  1.00  0.00     0.089 N 
HETATM   17  C   UNL     1     -37.680 -47.564  14.439  1.00  0.00     0.310 C 
HETATM   18  C   UNL     1     -39.992 -47.886  13.759  1.00  0.00     0.313 C 
ENDBRANCH   9  12
ENDBRANCH   1   8
BRANCH   3  19
HETATM   19  C   UNL     1     -46.412 -48.121   9.001  1.00  0.00     0.417 C 
HETATM   20  F   UNL     1     -47.582 -47.424   9.086  1.00  0.00    -0.166 F 
HETATM   21  F   UNL     1     -46.410 -48.679   7.753  1.00  0.00    -0.166 F 
HETATM   22  F   UNL     1     -46.534 -49.161   9.868  1.00  0.00    -0.166 F 
ENDBRANCH   3  19
TORSDOF 3
ENDMDL
MODEL 4
REMARK VINA RESULT:      -6.0      6.746      7.541
REMARK  3 active torsions:
REMARK  status: ('A' for Active; 'I' for Inactive)
REMARK    1  A    between atoms: C_6  and  C_8 
REMARK       I    between atoms: C_8  and  N_10 
REMARK    2  A    between atoms: N_10  and  C_11 
REMARK    3  A    between atoms: C_13  and  C_18 
ROOT
HETATM    1  C   UNL     1     -43.432 -52.203  12.831  1.00  0.00     0.108 A 
HETATM    2  C   UNL     1     -44.449 -51.705  13.637  1.00  0.00     0.064 A 
HETATM    3  C   UNL     1     -45.525 -52.533  13.963  1.00  0.00     0.052 A 
HETATM    4  C   UNL     1     -45.508 -53.853  13.507  1.00  0.00     0.033 A 
HETATM    5  C   UNL     1     -44.465 -54.253  12.688  1.00  0.00     0.090 A 
HETATM    6  N   UNL     1     -43.454 -53.441  12.306  1.00  0.00    -0.352 N 
ATOM      7  HN  UNL     1     -42.739 -53.754  11.648  1.00  0.00     0.166 HD
ENDROOT
BRANCH   1   8
HETATM    8  N   UNL     1     -42.328 -51.422  12.491  1.00  0.00    -0.311 N 
HETATM    9  C   UNL     1     -41.026 -51.866  12.593  1.00  0.00     0.254 C 
HETATM   10  O   UNL     1     -40.692 -52.981  12.980  1.00  0.00    -0.270 OA
HETATM   11  H   UNL     1     -42.502 -50.691  11.808  1.00  0.00     0.170 HD
BRANCH   9  12
HETATM   12  C   UNL     1     -39.992 -50.795  12.223  1.00  0.00     0.241 C 
HETATM   13  O   UNL     1     -38.645 -51.290  12.216  1.00  0.00    -0.373 OA
HETATM   14  C   UNL     1     -37.744 -50.253  11.794  1.00  0.00     0.199 C 
HETATM   15  C   UNL     1     -37.835 -49.013  12.703  1.00  0.00     0.298 C 
HETATM   16  N   UNL     1     -39.202 -48.477  12.866  1.00  0.00     0.089 N 
HETATM   17  C   UNL     1     -39.650 -47.741  11.685  1.00  0.00     0.310 C 
HETATM   18  C   UNL     1     -40.122 -49.595  13.186  1.00  0.00     0.313 C 
ENDBRANCH   9  12
ENDBRANCH   1   8
BRANCH   3  19
HETATM   19  C   UNL     1     -46.673 -52.026  14.782  1.00  0.00     0.417 C 
HETATM   20  F   UNL     1     -47.649 -52.954  15.003  1.00  0.00    -0.166 F 
HETATM   21  F   UNL     1     -46.279 -51.608  16.022  1.00  0.00    -0.166 F 
HETATM   22  F   UNL     1     -47.295 -50.959  14.214  1.00  0.00    -0.166 F 
ENDBRANCH   3  19
TORSDOF 3
ENDMDL
MODEL 5
REMARK VINA RESULT:      -6.0      6.564      7.605
REMARK  3 active torsions:
REMARK  status: ('A' for Active; 'I' for Inactive)
REMARK    1  A    between atoms: C_6  and  C_8 
REMARK       I    between atoms: C_8  and  N_10 
REMARK    2  A    between atoms: N_10  and  C_11 
REMARK    3  A    between atoms: C_13  and  C_18 
ROOT
HETATM    1  C   UNL     1     -41.847 -51.784  12.259  1.00  0.00     0.108 A 
HETATM    2  C   UNL     1     -40.715 -52.326  12.856  1.00  0.00     0.064 A 
HETATM    3  C   UNL     1     -40.814 -53.556  13.508  1.00  0.00     0.052 A 
HETATM    4  C   UNL     1     -42.041 -54.221  13.489  1.00  0.00     0.033 A 
HETATM    5  C   UNL     1     -43.122 -53.592  12.892  1.00  0.00     0.090 A 
HETATM    6  N   UNL     1     -43.057 -52.369  12.319  1.00  0.00    -0.352 N 
ATOM      7  HN  UNL     1     -43.890 -51.911  11.947  1.00  0.00     0.166 HD
ENDROOT
BRANCH   1   8
HETATM    8  N   UNL     1     -41.798 -50.567  11.580  1.00  0.00    -0.311 N 
HETATM    9  C   UNL     1     -42.386 -49.412  12.052  1.00  0.00     0.254 C 
HETATM   10  O   UNL     1     -43.002 -49.317  13.108  1.00  0.00    -0.270 OA
HETATM   11  H   UNL     1     -41.009 -50.447  10.953  1.00  0.00     0.170 HD
BRANCH   9  12
HETATM   12  C   UNL     1     -42.247 -48.227  11.087  1.00  0.00     0.241 C 
HETATM   13  O   UNL     1     -41.341 -47.219  11.560  1.00  0.00    -0.373 OA
HETATM   14  C   UNL     1     -41.209 -46.179  10.576  1.00  0.00     0.199 C 
HETATM   15  C   UNL     1     -42.567 -45.537  10.239  1.00  0.00     0.298 C 
HETATM   16  N   UNL     1     -43.613 -46.499   9.838  1.00  0.00     0.089 N 
HETATM   17  C   UNL     1     -43.418 -46.989   8.474  1.00  0.00     0.310 C 
HETATM   18  C   UNL     1     -43.638 -47.616  10.813  1.00  0.00     0.313 C 
ENDBRANCH   9  12
ENDBRANCH   1   8
BRANCH   3  19
HETATM   19  C   UNL     1     -39.636 -54.155  14.214  1.00  0.00     0.417 C 
HETATM   20  F   UNL     1     -39.926 -54.660  15.449  1.00  0.00    -0.166 F 
HETATM   21  F   UNL     1     -39.086 -55.193  13.516  1.00  0.00    -0.166 F 
HETATM   22  F   UNL     1     -38.626 -53.265  14.404  1.00  0.00    -0.166 F 
ENDBRANCH   3  19
TORSDOF 3
ENDMDL
MODEL 6
REMARK VINA RESULT:      -6.0      6.349      7.973
REMARK  3 active torsions:
REMARK  status: ('A' for Active; 'I' for Inactive)
REMARK    1  A    between atoms: C_6  and  C_8 
REMARK       I    between atoms: C_8  and  N_10 
REMARK    2  A    between atoms: N_10  and  C_11 
REMARK    3  A    between atoms: C_13  and  C_18 
ROOT
HETATM    1  C   UNL     1     -41.690 -48.389  11.010  1.00  0.00     0.108 A 
HETATM    2  C   UNL     1     -40.767 -47.362  11.168  1.00  0.00     0.064 A 
HETATM    3  C   UNL     1     -41.012 -46.129  10.561  1.00  0.00     0.052 A 
HETATM    4  C   UNL     1     -42.207 -45.960   9.860  1.00  0.00     0.033 A 
HETATM    5  C   UNL     1     -43.055 -47.049   9.733  1.00  0.00     0.090 A 
HETATM    6  N   UNL     1     -42.797 -48.268  10.255  1.00  0.00    -0.352 N 
ATOM      7  HN  UNL     1     -43.415 -49.062  10.085  1.00  0.00     0.166 HD
ENDROOT
BRANCH   1   8
HETATM    8  N   UNL     1     -41.501 -49.634  11.610  1.00  0.00    -0.311 N 
HETATM    9  C   UNL     1     -42.380 -50.175  12.525  1.00  0.00     0.254 C 
HETATM   10  O   UNL     1     -43.417 -49.640  12.904  1.00  0.00    -0.270 OA
HETATM   11  H   UNL     1     -40.937 -50.293  11.083  1.00  0.00     0.170 HD
BRANCH   9  12
HETATM   12  C   UNL     1     -41.912 -51.523  13.088  1.00  0.00     0.241 C 
HETATM   13  O   UNL     1     -40.527 -51.793  12.824  1.00  0.00    -0.373 OA
HETATM   14  C   UNL     1     -40.144 -53.034  13.439  1.00  0.00     0.199 C 
HETATM   15  C   UNL     1     -41.005 -54.209  12.937  1.00  0.00     0.298 C 
HETATM   16  N   UNL     1     -42.460 -53.994  13.064  1.00  0.00     0.089 N 
HETATM   17  C   UNL     1     -42.922 -54.145  14.443  1.00  0.00     0.310 C 
HETATM   18  C   UNL     1     -42.798 -52.655  12.525  1.00  0.00     0.313 C 
ENDBRANCH   9  12
ENDBRANCH   1   8
BRANCH   3  19
HETATM   19  C   UNL     1     -40.021 -45.009  10.656  1.00  0.00     0.417 C 
HETATM   20  F   UNL     1     -39.261 -45.033  11.788  1.00  0.00    -0.166 F 
HETATM   21  F   UNL     1     -39.131 -45.015   9.619  1.00  0.00    -0.166 F 
HETATM   22  F   UNL     1     -40.608 -43.783  10.628  1.00  0.00    -0.166 F 
ENDBRANCH   3  19
TORSDOF 3
ENDMDL
MODEL 7
REMARK VINA RESULT:      -5.8      7.013      7.867
REMARK  3 active torsions:
REMARK  status: ('A' for Active; 'I' for Inactive)
REMARK    1  A    between atoms: C_6  and  C_8 
REMARK       I    between atoms: C_8  and  N_10 
REMARK    2  A    between atoms: N_10  and  C_11 
REMARK    3  A    between atoms: C_13  and  C_18 
ROOT
HETATM    1  C   UNL     1     -44.216 -50.854  13.781  1.00  0.00     0.108 A 
HETATM    2  C   UNL     1     -44.790 -50.882  15.047  1.00  0.00     0.064 A 
HETATM    3  C   UNL     1     -46.129 -51.254  15.177  1.00  0.00     0.052 A 
HETATM    4  C   UNL     1     -46.826 -51.637  14.030  1.00  0.00     0.033 A 
HETATM    5  C   UNL     1     -46.179 -51.553  12.807  1.00  0.00     0.090 A 
HETATM    6  N   UNL     1     -44.905 -51.127  12.658  1.00  0.00    -0.352 N 
ATOM      7  HN  UNL     1     -44.485 -51.016  11.735  1.00  0.00     0.166 HD
ENDROOT
BRANCH   1   8
HETATM    8  N   UNL     1     -42.878 -50.506  13.598  1.00  0.00    -0.311 N 
HETATM    9  C   UNL     1     -42.014 -51.218  12.792  1.00  0.00     0.254 C 
HETATM   10  O   UNL     1     -42.316 -52.215  12.145  1.00  0.00    -0.270 OA
HETATM   11  H   UNL     1     -42.657 -49.526  13.742  1.00  0.00     0.170 HD
BRANCH   9  12
HETATM   12  C   UNL     1     -40.580 -50.671  12.813  1.00  0.00     0.241 C 
HETATM   13  O   UNL     1     -40.156 -50.153  11.544  1.00  0.00    -0.373 OA
HETATM   14  C   UNL     1     -38.835 -49.597  11.659  1.00  0.00     0.199 C 
HETATM   15  C   UNL     1     -37.818 -50.641  12.158  1.00  0.00     0.298 C 
HETATM   16  N   UNL     1     -38.207 -51.317  13.412  1.00  0.00     0.089 N 
HETATM   17  C   UNL     1     -38.019 -50.460  14.582  1.00  0.00     0.310 C 
HETATM   18  C   UNL     1     -39.613 -51.773  13.297  1.00  0.00     0.313 C 
ENDBRANCH   9  12
ENDBRANCH   1   8
BRANCH   3  19
HETATM   19  C   UNL     1     -46.809 -51.246  16.512  1.00  0.00     0.417 C 
HETATM   20  F   UNL     1     -46.778 -52.447  17.158  1.00  0.00    -0.166 F 
HETATM   21  F   UNL     1     -46.242 -50.352  17.377  1.00  0.00    -0.166 F 
HETATM   22  F   UNL     1     -48.121 -50.899  16.433  1.00  0.00    -0.166 F 
ENDBRANCH   3  19
TORSDOF 3
ENDMDL
MODEL 8
REMARK VINA RESULT:      -5.8      7.346      9.196
REMARK  3 active torsions:
REMARK  status: ('A' for Active; 'I' for Inactive)
REMARK    1  A    between atoms: C_6  and  C_8 
REMARK       I    between atoms: C_8  and  N_10 
REMARK    2  A    between atoms: N_10  and  C_11 
REMARK    3  A    between atoms: C_13  and  C_18 
ROOT
HETATM    1  C   UNL     1     -41.718 -50.573  12.134  1.00  0.00     0.108 A 
HETATM    2  C   UNL     1     -40.407 -50.922  12.436  1.00  0.00     0.064 A 
HETATM    3  C   UNL     1     -39.369 -50.089  12.017  1.00  0.00     0.052 A 
HETATM    4  C   UNL     1     -39.695 -48.904  11.354  1.00  0.00     0.033 A 
HETATM    5  C   UNL     1     -41.028 -48.651  11.074  1.00  0.00     0.090 A 
HETATM    6  N   UNL     1     -42.038 -49.484  11.412  1.00  0.00    -0.352 N 
ATOM      7  HN  UNL     1     -43.001 -49.295  11.131  1.00  0.00     0.166 HD
ENDROOT
BRANCH   1   8
HETATM    8  N   UNL     1     -42.792 -51.362  12.546  1.00  0.00    -0.311 N 
HETATM    9  C   UNL     1     -43.741 -50.936  13.452  1.00  0.00     0.254 C 
HETATM   10  O   UNL     1     -43.757 -49.832  13.987  1.00  0.00    -0.270 OA
HETATM   11  H   UNL     1     -43.086 -52.078  11.890  1.00  0.00     0.170 HD
BRANCH   9  12
HETATM   12  C   UNL     1     -44.780 -52.014  13.789  1.00  0.00     0.241 C 
HETATM   13  O   UNL     1     -45.904 -51.504  14.521  1.00  0.00    -0.373 OA
HETATM   14  C   UNL     1     -46.863 -52.552  14.738  1.00  0.00     0.199 C 
HETATM   15  C   UNL     1     -46.247 -53.741  15.499  1.00  0.00     0.298 C 
HETATM   16  N   UNL     1     -45.017 -54.283  14.887  1.00  0.00     0.089 N 
HETATM   17  C   UNL     1     -45.300 -55.089  13.700  1.00  0.00     0.310 C 
HETATM   18  C   UNL     1     -44.102 -53.160  14.570  1.00  0.00     0.313 C 
ENDBRANCH   9  12
ENDBRANCH   1   8
BRANCH   3  19
HETATM   19  C   UNL     1     -37.936 -50.449  12.269  1.00  0.00     0.417 C 
HETATM   20  F   UNL     1     -37.771 -51.580  13.014  1.00  0.00    -0.166 F 
HETATM   21  F   UNL     1     -37.247 -50.672  11.110  1.00  0.00    -0.166 F 
HETATM   22  F   UNL     1     -37.253 -49.471  12.920  1.00  0.00    -0.166 F 
ENDBRANCH   3  19
TORSDOF 3
ENDMDL
MODEL 9
REMARK VINA RESULT:      -5.7      5.403      7.365
REMARK  3 active torsions:
REMARK  status: ('A' for Active; 'I' for Inactive)
REMARK    1  A    between atoms: C_6  and  C_8 
REMARK       I    between atoms: C_8  and  N_10 
REMARK    2  A    between atoms: N_10  and  C_11 
REMARK    3  A    between atoms: C_13  and  C_18 
ROOT
HETATM    1  C   UNL     1     -42.899 -48.352  11.763  1.00  0.00     0.108 A 
HETATM    2  C   UNL     1     -43.574 -47.821  10.670  1.00  0.00     0.064 A 
HETATM    3  C   UNL     1     -43.104 -46.642  10.089  1.00  0.00     0.052 A 
HETATM    4  C   UNL     1     -41.937 -46.071  10.599  1.00  0.00     0.033 A 
HETATM    5  C   UNL     1     -41.346 -46.657  11.707  1.00  0.00     0.090 A 
HETATM    6  N   UNL     1     -41.830 -47.758  12.323  1.00  0.00    -0.352 N 
ATOM      7  HN  UNL     1     -41.405 -48.122  13.176  1.00  0.00     0.166 HD
ENDROOT
BRANCH   1   8
HETATM    8  N   UNL     1     -43.318 -49.537  12.368  1.00  0.00    -0.311 N 
HETATM    9  C   UNL     1     -42.501 -50.638  12.523  1.00  0.00     0.254 C 
HETATM   10  O   UNL     1     -41.330 -50.701  12.162  1.00  0.00    -0.270 OA
HETATM   11  H   UNL     1     -44.079 -49.444  13.033  1.00  0.00     0.170 HD
BRANCH   9  12
HETATM   12  C   UNL     1     -43.218 -51.837  13.158  1.00  0.00     0.241 C 
HETATM   13  O   UNL     1     -43.459 -52.905  12.230  1.00  0.00    -0.373 OA
HETATM   14  C   UNL     1     -44.068 -54.015  12.910  1.00  0.00     0.199 C 
HETATM   15  C   UNL     1     -45.390 -53.613  13.590  1.00  0.00     0.298 C 
HETATM   16  N   UNL     1     -45.280 -52.450  14.493  1.00  0.00     0.089 N 
HETATM   17  C   UNL     1     -44.642 -52.796  15.763  1.00  0.00     0.310 C 
HETATM   18  C   UNL     1     -44.543 -51.368  13.797  1.00  0.00     0.313 C 
ENDBRANCH   9  12
ENDBRANCH   1   8
BRANCH   3  19
HETATM   19  C   UNL     1     -43.828 -45.999   8.946  1.00  0.00     0.417 C 
HETATM   20  F   UNL     1     -43.139 -46.022   7.768  1.00  0.00    -0.166 F 
HETATM   21  F   UNL     1     -45.022 -46.608   8.681  1.00  0.00    -0.166 F 
HETATM   22  F   UNL     1     -44.125 -44.693   9.178  1.00  0.00    -0.166 F 
ENDBRANCH   3  19
TORSDOF 3
ENDMDL
