MODEL 1
REMARK VINA RESULT:      -5.7      0.000      0.000
REMARK  3 active torsions:
REMARK  status: ('A' for Active; 'I' for Inactive)
REMARK    1  A    between atoms: C_2  and  N_3 
REMARK    2  A    between atoms: C_8  and  N_9 
REMARK       I    between atoms: N_9  and  C_10 
REMARK       I    between atoms: C_10  and  N_12 
REMARK    3  A    between atoms: N_12  and  C_13 
ROOT
HETATM    1  N   UNL     1     -41.592 -49.465  11.046  1.00  0.00    -0.304 N 
HETATM    2  C   UNL     1     -41.856 -50.046  12.260  1.00  0.00     0.321 C 
HETATM    3  O   UNL     1     -42.438 -49.506  13.194  1.00  0.00    -0.247 OA
HETATM    4  N   UNL     1     -41.371 -51.331  12.371  1.00  0.00    -0.338 N 
HETATM    5  H   UNL     1     -41.059 -49.983  10.358  1.00  0.00     0.171 HD
HETATM    6  H   UNL     1     -41.269 -51.861  11.517  1.00  0.00     0.164 HD
ENDROOT
BRANCH   1   7
HETATM    7  C   UNL     1     -41.931 -48.179  10.673  1.00  0.00     0.102 A 
HETATM    8  C   UNL     1     -40.939 -47.080  10.926  1.00  0.00     0.201 A 
HETATM    9  C   UNL     1     -41.313 -45.697  10.520  1.00  0.00     0.074 A 
HETATM   10  O   UNL     1     -39.849 -47.314  11.445  1.00  0.00    -0.286 OA
HETATM   11  C   UNL     1     -42.500 -45.504   9.930  1.00  0.00     0.094 A 
HETATM   12  N   UNL     1     -43.413 -46.517   9.687  1.00  0.00    -0.364 N 
HETATM   13  C   UNL     1     -43.077 -47.806  10.084  1.00  0.00     0.124 A 
BRANCH  12  14
HETATM   14  C   UNL     1     -44.638 -46.305   8.898  1.00  0.00     0.123 C 
HETATM   15  C   UNL     1     -45.698 -47.322   9.301  1.00  0.00     0.027 C 
ENDBRANCH  12  14
ENDBRANCH   1   7
BRANCH   4  16
HETATM   16  C   UNL     1     -41.629 -52.062  13.612  1.00  0.00     0.086 C 
HETATM   17  C   UNL     1     -40.442 -51.985  14.572  1.00  0.00     0.025 C 
HETATM   18  C   UNL     1     -39.278 -52.878  14.154  1.00  0.00     0.002 C 
HETATM   19  C   UNL     1     -39.728 -54.315  13.909  1.00  0.00     0.000 C 
HETATM   20  C   UNL     1     -40.871 -54.386  12.902  1.00  0.00     0.002 C 
HETATM   21  C   UNL     1     -42.047 -53.513  13.333  1.00  0.00     0.025 C 
ENDBRANCH   4  16
TORSDOF 3
ENDMDL
MODEL 2
REMARK VINA RESULT:      -5.6      1.733      2.256
REMARK  3 active torsions:
REMARK  status: ('A' for Active; 'I' for Inactive)
REMARK    1  A    between atoms: C_2  and  N_3 
REMARK    2  A    between atoms: C_8  and  N_9 
REMARK       I    between atoms: N_9  and  C_10 
REMARK       I    between atoms: C_10  and  N_12 
REMARK    3  A    between atoms: N_12  and  C_13 
ROOT
HETATM    1  N   UNL     1     -42.250 -49.791  11.649  1.00  0.00    -0.304 N 
HETATM    2  C   UNL     1     -42.869 -50.118  12.829  1.00  0.00     0.321 C 
HETATM    3  O   UNL     1     -43.323 -49.317  13.638  1.00  0.00    -0.247 OA
HETATM    4  N   UNL     1     -42.920 -51.474  13.065  1.00  0.00    -0.338 N 
HETATM    5  H   UNL     1     -41.865 -50.531  11.074  1.00  0.00     0.171 HD
HETATM    6  H   UNL     1     -42.913 -52.084  12.260  1.00  0.00     0.164 HD
ENDROOT
BRANCH   1   7
HETATM    7  C   UNL     1     -42.030 -48.512  11.177  1.00  0.00     0.102 A 
HETATM    8  C   UNL     1     -40.716 -47.855  11.488  1.00  0.00     0.201 A 
HETATM    9  C   UNL     1     -40.488 -46.476  10.974  1.00  0.00     0.074 A 
HETATM   10  O   UNL     1     -39.852 -48.439  12.138  1.00  0.00    -0.286 OA
HETATM   11  C   UNL     1     -41.452 -45.900  10.243  1.00  0.00     0.094 A 
HETATM   12  N   UNL     1     -42.662 -46.507   9.948  1.00  0.00    -0.364 N 
HETATM   13  C   UNL     1     -42.887 -47.785  10.443  1.00  0.00     0.124 A 
BRANCH  12  14
HETATM   14  C   UNL     1     -43.635 -45.917   9.014  1.00  0.00     0.123 C 
HETATM   15  C   UNL     1     -44.916 -46.741   9.010  1.00  0.00     0.027 C 
ENDBRANCH  12  14
ENDBRANCH   1   7
BRANCH   4  16
HETATM   16  C   UNL     1     -43.594 -51.940  14.278  1.00  0.00     0.086 C 
HETATM   17  C   UNL     1     -42.844 -53.102  14.931  1.00  0.00     0.025 C 
HETATM   18  C   UNL     1     -43.025 -54.420  14.188  1.00  0.00     0.002 C 
HETATM   19  C   UNL     1     -44.498 -54.743  13.958  1.00  0.00     0.000 C 
HETATM   20  C   UNL     1     -45.223 -53.603  13.249  1.00  0.00     0.002 C 
HETATM   21  C   UNL     1     -45.065 -52.287  14.007  1.00  0.00     0.025 C 
ENDBRANCH   4  16
TORSDOF 3
ENDMDL
MODEL 3
REMARK VINA RESULT:      -5.6      1.724      7.057
REMARK  3 active torsions:
REMARK  status: ('A' for Active; 'I' for Inactive)
REMARK    1  A    between atoms: C_2  and  N_3 
REMARK    2  A    between atoms: C_8  and  N_9 
REMARK       I    between atoms: N_9  and  C_10 
REMARK       I    between atoms: C_10  and  N_12 
REMARK    3  A    between atoms: N_12  and  C_13 
ROOT
HETATM    1  N   UNL     1     -41.759 -50.940  11.766  1.00  0.00    -0.304 N 
HETATM    2  C   UNL     1     -42.565 -49.870  12.064  1.00  0.00     0.321 C 
HETATM    3  O   UNL     1     -43.188 -49.721  13.109  1.00  0.00    -0.247 OA
HETATM    4  N   UNL     1     -42.651 -48.947  11.046  1.00  0.00    -0.338 N 
HETATM    5  H   UNL     1     -41.327 -50.991  10.852  1.00  0.00     0.171 HD
HETATM    6  H   UNL     1     -41.868 -48.886  10.409  1.00  0.00     0.164 HD
ENDROOT
BRANCH   1   7
HETATM    7  C   UNL     1     -41.518 -52.025  12.585  1.00  0.00     0.102 A 
HETATM    8  C   UNL     1     -40.101 -52.303  13.000  1.00  0.00     0.201 A 
HETATM    9  C   UNL     1     -39.852 -53.476  13.884  1.00  0.00     0.074 A 
HETATM   10  O   UNL     1     -39.178 -51.583  12.629  1.00  0.00    -0.286 OA
HETATM   11  C   UNL     1     -40.900 -54.208  14.285  1.00  0.00     0.094 A 
HETATM   12  N   UNL     1     -42.209 -53.948  13.911  1.00  0.00    -0.364 N 
HETATM   13  C   UNL     1     -42.444 -52.868  13.069  1.00  0.00     0.124 A 
BRANCH  12  14
HETATM   14  C   UNL     1     -43.354 -54.670  14.490  1.00  0.00     0.123 C 
HETATM   15  C   UNL     1     -44.569 -54.528  13.582  1.00  0.00     0.027 C 
ENDBRANCH  12  14
ENDBRANCH   1   7
BRANCH   4  16
HETATM   16  C   UNL     1     -43.454 -47.745  11.269  1.00  0.00     0.086 C 
HETATM   17  C   UNL     1     -44.601 -47.635  10.263  1.00  0.00     0.025 C 
HETATM   18  C   UNL     1     -44.137 -47.205   8.875  1.00  0.00     0.002 C 
HETATM   19  C   UNL     1     -43.295 -45.934   8.929  1.00  0.00     0.000 C 
HETATM   20  C   UNL     1     -42.117 -46.077   9.888  1.00  0.00     0.002 C 
HETATM   21  C   UNL     1     -42.582 -46.481  11.285  1.00  0.00     0.025 C 
ENDBRANCH   4  16
TORSDOF 3
ENDMDL
MODEL 4
REMARK VINA RESULT:      -5.4      2.173      6.883
REMARK  3 active torsions:
REMARK  status: ('A' for Active; 'I' for Inactive)
REMARK    1  A    between atoms: C_2  and  N_3 
REMARK    2  A    between atoms: C_8  and  N_9 
REMARK       I    between atoms: N_9  and  C_10 
REMARK       I    between atoms: C_10  and  N_12 
REMARK    3  A    between atoms: N_12  and  C_13 
ROOT
HETATM    1  N   UNL     1     -42.071 -50.580  11.964  1.00  0.00    -0.304 N 
HETATM    2  C   UNL     1     -41.856 -49.428  12.677  1.00  0.00     0.321 C 
HETATM    3  O   UNL     1     -41.866 -49.338  13.900  1.00  0.00    -0.247 OA
HETATM    4  N   UNL     1     -41.648 -48.321  11.884  1.00  0.00    -0.338 N 
HETATM    5  H   UNL     1     -42.090 -50.536  10.953  1.00  0.00     0.171 HD
HETATM    6  H   UNL     1     -41.263 -48.479  10.963  1.00  0.00     0.164 HD
ENDROOT
BRANCH   1   7
HETATM    7  C   UNL     1     -42.337 -51.825  12.499  1.00  0.00     0.102 A 
HETATM    8  C   UNL     1     -41.191 -52.776  12.693  1.00  0.00     0.201 A 
HETATM    9  C   UNL     1     -41.488 -54.116  13.270  1.00  0.00     0.074 A 
HETATM   10  O   UNL     1     -40.043 -52.457  12.392  1.00  0.00    -0.286 OA
HETATM   11  C   UNL     1     -42.753 -54.399  13.610  1.00  0.00     0.094 A 
HETATM   12  N   UNL     1     -43.810 -53.521  13.440  1.00  0.00    -0.364 N 
HETATM   13  C   UNL     1     -43.541 -52.277  12.882  1.00  0.00     0.124 A 
BRANCH  12  14
HETATM   14  C   UNL     1     -45.158 -53.795  13.965  1.00  0.00     0.123 C 
HETATM   15  C   UNL     1     -45.488 -55.273  13.803  1.00  0.00     0.027 C 
ENDBRANCH  12  14
ENDBRANCH   1   7
BRANCH   4  16
HETATM   16  C   UNL     1     -41.371 -47.043  12.539  1.00  0.00     0.086 C 
HETATM   17  C   UNL     1     -42.443 -45.999  12.222  1.00  0.00     0.025 C 
HETATM   18  C   UNL     1     -42.324 -45.432  10.812  1.00  0.00     0.002 C 
HETATM   19  C   UNL     1     -40.917 -44.916  10.527  1.00  0.00     0.000 C 
HETATM   20  C   UNL     1     -39.859 -45.985  10.785  1.00  0.00     0.002 C 
HETATM   21  C   UNL     1     -39.960 -46.535  12.206  1.00  0.00     0.025 C 
ENDBRANCH   4  16
TORSDOF 3
ENDMDL
MODEL 5
REMARK VINA RESULT:      -5.4      2.932      4.827
REMARK  3 active torsions:
REMARK  status: ('A' for Active; 'I' for Inactive)
REMARK    1  A    between atoms: C_2  and  N_3 
REMARK    2  A    between atoms: C_8  and  N_9 
REMARK       I    between atoms: N_9  and  C_10 
REMARK       I    between atoms: C_10  and  N_12 
REMARK    3  A    between atoms: N_12  and  C_13 
ROOT
HETATM    1  N   UNL     1     -42.352 -51.162  12.223  1.00  0.00    -0.304 N 
HETATM    2  C   UNL     1     -42.579 -51.738  13.447  1.00  0.00     0.321 C 
HETATM    3  O   UNL     1     -41.991 -51.455  14.485  1.00  0.00    -0.247 OA
HETATM    4  N   UNL     1     -43.538 -52.726  13.420  1.00  0.00    -0.338 N 
HETATM    5  H   UNL     1     -42.859 -51.504  11.416  1.00  0.00     0.171 HD
HETATM    6  H   UNL     1     -44.246 -52.662  12.701  1.00  0.00     0.164 HD
ENDROOT
BRANCH   1   7
HETATM    7  C   UNL     1     -41.425 -50.173  11.953  1.00  0.00     0.102 A 
HETATM    8  C   UNL     1     -41.913 -48.759  11.815  1.00  0.00     0.201 A 
HETATM    9  C   UNL     1     -40.907 -47.701  11.524  1.00  0.00     0.074 A 
HETATM   10  O   UNL     1     -43.103 -48.482  11.945  1.00  0.00    -0.286 OA
HETATM   11  C   UNL     1     -39.618 -48.055  11.424  1.00  0.00     0.094 A 
HETATM   12  N   UNL     1     -39.164 -49.357  11.560  1.00  0.00    -0.364 N 
HETATM   13  C   UNL     1     -40.103 -50.351  11.810  1.00  0.00     0.124 A 
BRANCH  12  14
HETATM   14  C   UNL     1     -37.732 -49.695  11.603  1.00  0.00     0.123 C 
HETATM   15  C   UNL     1     -37.494 -50.822  12.599  1.00  0.00     0.027 C 
ENDBRANCH  12  14
ENDBRANCH   1   7
BRANCH   4  16
HETATM   16  C   UNL     1     -43.890 -53.384  14.678  1.00  0.00     0.086 C 
HETATM   17  C   UNL     1     -44.086 -54.889  14.495  1.00  0.00     0.025 C 
HETATM   18  C   UNL     1     -45.404 -55.239  13.812  1.00  0.00     0.002 C 
HETATM   19  C   UNL     1     -46.593 -54.585  14.509  1.00  0.00     0.000 C 
HETATM   20  C   UNL     1     -46.416 -53.074  14.630  1.00  0.00     0.002 C 
HETATM   21  C   UNL     1     -45.109 -52.723  15.338  1.00  0.00     0.025 C 
ENDBRANCH   4  16
TORSDOF 3
ENDMDL
MODEL 6
REMARK VINA RESULT:      -5.4      2.214      3.500
REMARK  3 active torsions:
REMARK  status: ('A' for Active; 'I' for Inactive)
REMARK    1  A    between atoms: C_2  and  N_3 
REMARK    2  A    between atoms: C_8  and  N_9 
REMARK       I    between atoms: N_9  and  C_10 
REMARK       I    between atoms: C_10  and  N_12 
REMARK    3  A    between atoms: N_12  and  C_13 
ROOT
HETATM    1  N   UNL     1     -42.497 -49.243  11.446  1.00  0.00    -0.304 N 
HETATM    2  C   UNL     1     -43.004 -49.700  12.636  1.00  0.00     0.321 C 
HETATM    3  O   UNL     1     -43.306 -48.999  13.594  1.00  0.00    -0.247 OA
HETATM    4  N   UNL     1     -43.125 -51.071  12.690  1.00  0.00    -0.338 N 
HETATM    5  H   UNL     1     -42.232 -49.912  10.734  1.00  0.00     0.171 HD
HETATM    6  H   UNL     1     -43.251 -51.559  11.814  1.00  0.00     0.164 HD
ENDROOT
BRANCH   1   7
HETATM    7  C   UNL     1     -42.240 -47.923  11.130  1.00  0.00     0.102 A 
HETATM    8  C   UNL     1     -43.291 -47.153  10.382  1.00  0.00     0.201 A 
HETATM    9  C   UNL     1     -43.004 -45.731  10.046  1.00  0.00     0.074 A 
HETATM   10  O   UNL     1     -44.356 -47.676  10.064  1.00  0.00    -0.286 OA
HETATM   11  C   UNL     1     -41.840 -45.202  10.446  1.00  0.00     0.094 A 
HETATM   12  N   UNL     1     -40.873 -45.908  11.143  1.00  0.00    -0.364 N 
HETATM   13  C   UNL     1     -41.126 -47.241  11.439  1.00  0.00     0.124 A 
BRANCH  12  14
HETATM   14  C   UNL     1     -39.675 -45.262  11.705  1.00  0.00     0.123 C 
HETATM   15  C   UNL     1     -39.961 -43.794  11.990  1.00  0.00     0.027 C 
ENDBRANCH  12  14
ENDBRANCH   1   7
BRANCH   4  16
HETATM   16  C   UNL     1     -43.692 -51.668  13.900  1.00  0.00     0.086 C 
HETATM   17  C   UNL     1     -42.951 -52.944  14.302  1.00  0.00     0.025 C 
HETATM   18  C   UNL     1     -43.294 -54.136  13.416  1.00  0.00     0.002 C 
HETATM   19  C   UNL     1     -44.801 -54.353  13.318  1.00  0.00     0.000 C 
HETATM   20  C   UNL     1     -45.524 -53.092  12.855  1.00  0.00     0.002 C 
HETATM   21  C   UNL     1     -45.202 -51.903  13.757  1.00  0.00     0.025 C 
ENDBRANCH   4  16
TORSDOF 3
ENDMDL
MODEL 7
REMARK VINA RESULT:      -5.4      1.721      7.567
REMARK  3 active torsions:
REMARK  status: ('A' for Active; 'I' for Inactive)
REMARK    1  A    between atoms: C_2  and  N_3 
REMARK    2  A    between atoms: C_8  and  N_9 
REMARK       I    between atoms: N_9  and  C_10 
REMARK       I    between atoms: C_10  and  N_12 
REMARK    3  A    between atoms: N_12  and  C_13 
ROOT
HETATM    1  N   UNL     1     -41.942 -50.956  11.964  1.00  0.00    -0.304 N 
HETATM    2  C   UNL     1     -42.723 -49.853  12.201  1.00  0.00     0.321 C 
HETATM    3  O   UNL     1     -43.380 -49.654  13.216  1.00  0.00    -0.247 OA
HETATM    4  N   UNL     1     -42.742 -48.959  11.154  1.00  0.00    -0.338 N 
HETATM    5  H   UNL     1     -41.479 -51.048  11.068  1.00  0.00     0.171 HD
HETATM    6  H   UNL     1     -41.936 -48.942  10.545  1.00  0.00     0.164 HD
ENDROOT
BRANCH   1   7
HETATM    7  C   UNL     1     -41.767 -52.024  12.822  1.00  0.00     0.102 A 
HETATM    8  C   UNL     1     -42.814 -53.100  12.842  1.00  0.00     0.201 A 
HETATM    9  C   UNL     1     -42.616 -54.247  13.771  1.00  0.00     0.074 A 
HETATM   10  O   UNL     1     -43.800 -53.041  12.111  1.00  0.00    -0.286 OA
HETATM   11  C   UNL     1     -41.507 -54.276  14.522  1.00  0.00     0.094 A 
HETATM   12  N   UNL     1     -40.535 -53.289  14.499  1.00  0.00    -0.364 N 
HETATM   13  C   UNL     1     -40.726 -52.206  13.650  1.00  0.00     0.124 A 
BRANCH  12  14
HETATM   14  C   UNL     1     -39.255 -53.422  15.215  1.00  0.00     0.123 C 
HETATM   15  C   UNL     1     -38.848 -54.888  15.283  1.00  0.00     0.027 C 
ENDBRANCH  12  14
ENDBRANCH   1   7
BRANCH   4  16
HETATM   16  C   UNL     1     -43.514 -47.726  11.312  1.00  0.00     0.086 C 
HETATM   17  C   UNL     1     -44.607 -47.602  10.250  1.00  0.00     0.025 C 
HETATM   18  C   UNL     1     -44.064 -47.220   8.877  1.00  0.00     0.002 C 
HETATM   19  C   UNL     1     -43.183 -45.977   8.943  1.00  0.00     0.000 C 
HETATM   20  C   UNL     1     -42.057 -46.135   9.960  1.00  0.00     0.002 C 
HETATM   21  C   UNL     1     -42.601 -46.491  11.342  1.00  0.00     0.025 C 
ENDBRANCH   4  16
TORSDOF 3
ENDMDL
MODEL 8
REMARK VINA RESULT:      -5.3      3.761      7.291
REMARK  3 active torsions:
REMARK  status: ('A' for Active; 'I' for Inactive)
REMARK    1  A    between atoms: C_2  and  N_3 
REMARK    2  A    between atoms: C_8  and  N_9 
REMARK       I    between atoms: N_9  and  C_10 
REMARK       I    between atoms: C_10  and  N_12 
REMARK    3  A    between atoms: N_12  and  C_13 
ROOT
HETATM    1  N   UNL     1     -44.794 -50.939  12.899  1.00  0.00    -0.304 N 
HETATM    2  C   UNL     1     -43.555 -50.361  13.016  1.00  0.00     0.321 C 
HETATM    3  O   UNL     1     -42.716 -50.647  13.862  1.00  0.00    -0.247 OA
HETATM    4  N   UNL     1     -43.322 -49.370  12.089  1.00  0.00    -0.338 N 
HETATM    5  H   UNL     1     -45.433 -50.594  12.194  1.00  0.00     0.171 HD
HETATM    6  H   UNL     1     -43.821 -49.430  11.212  1.00  0.00     0.164 HD
ENDROOT
BRANCH   1   7
HETATM    7  C   UNL     1     -45.305 -51.931  13.713  1.00  0.00     0.102 A 
HETATM    8  C   UNL     1     -45.159 -53.359  13.272  1.00  0.00     0.201 A 
HETATM    9  C   UNL     1     -45.712 -54.421  14.156  1.00  0.00     0.074 A 
HETATM   10  O   UNL     1     -44.595 -53.644  12.218  1.00  0.00    -0.286 OA
HETATM   11  C   UNL     1     -46.289 -54.056  15.309  1.00  0.00     0.094 A 
HETATM   12  N   UNL     1     -46.416 -52.740  15.724  1.00  0.00    -0.364 N 
HETATM   13  C   UNL     1     -45.921 -51.744  14.891  1.00  0.00     0.124 A 
BRANCH  12  14
HETATM   14  C   UNL     1     -46.910 -52.377  17.062  1.00  0.00     0.123 C 
HETATM   15  C   UNL     1     -47.884 -51.212  16.958  1.00  0.00     0.027 C 
ENDBRANCH  12  14
ENDBRANCH   1   7
BRANCH   4  16
HETATM   16  C   UNL     1     -42.016 -48.711  12.095  1.00  0.00     0.086 C 
HETATM   17  C   UNL     1     -42.008 -47.478  13.001  1.00  0.00     0.025 C 
HETATM   18  C   UNL     1     -42.734 -46.285  12.390  1.00  0.00     0.002 C 
HETATM   19  C   UNL     1     -42.225 -45.971  10.987  1.00  0.00     0.000 C 
HETATM   20  C   UNL     1     -42.296 -47.190  10.073  1.00  0.00     0.002 C 
HETATM   21  C   UNL     1     -41.546 -48.378  10.671  1.00  0.00     0.025 C 
ENDBRANCH   4  16
TORSDOF 3
ENDMDL
MODEL 9
REMARK VINA RESULT:      -5.3      3.999      5.724
REMARK  3 active torsions:
REMARK  status: ('A' for Active; 'I' for Inactive)
REMARK    1  A    between atoms: C_2  and  N_3 
REMARK    2  A    between atoms: C_8  and  N_9 
REMARK       I    between atoms: N_9  and  C_10 
REMARK       I    between atoms: C_10  and  N_12 
REMARK    3  A    between atoms: N_12  and  C_13 
ROOT
HETATM    1  N   UNL     1     -41.362 -51.786  14.220  1.00  0.00    -0.304 N 
HETATM    2  C   UNL     1     -42.363 -52.117  13.343  1.00  0.00     0.321 C 
HETATM    3  O   UNL     1     -42.380 -51.842  12.149  1.00  0.00    -0.247 OA
HETATM    4  N   UNL     1     -43.412 -52.786  13.935  1.00  0.00    -0.338 N 
HETATM    5  H   UNL     1     -41.469 -52.018  15.200  1.00  0.00     0.171 HD
HETATM    6  H   UNL     1     -43.208 -53.323  14.765  1.00  0.00     0.164 HD
ENDROOT
BRANCH   1   7
HETATM    7  C   UNL     1     -40.211 -51.088  13.909  1.00  0.00     0.102 A 
HETATM    8  C   UNL     1     -38.977 -51.869  13.559  1.00  0.00     0.201 A 
HETATM    9  C   UNL     1     -37.742 -51.107  13.225  1.00  0.00     0.074 A 
HETATM   10  O   UNL     1     -38.987 -53.098  13.542  1.00  0.00    -0.286 OA
HETATM   11  C   UNL     1     -37.797 -49.769  13.229  1.00  0.00     0.094 A 
HETATM   12  N   UNL     1     -38.936 -49.045  13.542  1.00  0.00    -0.364 N 
HETATM   13  C   UNL     1     -40.085 -49.752  13.876  1.00  0.00     0.124 A 
BRANCH  12  14
HETATM   14  C   UNL     1     -39.013 -47.584  13.386  1.00  0.00     0.123 C 
HETATM   15  C   UNL     1     -38.286 -46.900  14.536  1.00  0.00     0.027 C 
ENDBRANCH  12  14
ENDBRANCH   1   7
BRANCH   4  16
HETATM   16  C   UNL     1     -44.521 -53.222  13.085  1.00  0.00     0.086 C 
HETATM   17  C   UNL     1     -45.579 -52.129  12.929  1.00  0.00     0.025 C 
HETATM   18  C   UNL     1     -46.448 -51.959  14.171  1.00  0.00     0.002 C 
HETATM   19  C   UNL     1     -47.052 -53.285  14.623  1.00  0.00     0.000 C 
HETATM   20  C   UNL     1     -45.982 -54.350  14.837  1.00  0.00     0.002 C 
HETATM   21  C   UNL     1     -45.128 -54.540  13.586  1.00  0.00     0.025 C 
ENDBRANCH   4  16
TORSDOF 3
ENDMDL
