MODEL 1
REMARK VINA RESULT:      -6.0      0.000      0.000
REMARK  6 active torsions:
REMARK  status: ('A' for Active; 'I' for Inactive)
REMARK    1  A    between atoms: C_2  and  O_3 
REMARK    2  A    between atoms: C_2  and  C_4 
REMARK    3  A    between atoms: C_2  and  C_16 
REMARK    4  A    between atoms: C_4  and  N_5 
REMARK    5  A    between atoms: C_7  and  C_12 
REMARK    6  A    between atoms: C_16  and  O_18 
ROOT
HETATM    1  N   UNL     1     -43.326 -47.035  10.698  1.00  0.00    -0.320 N 
HETATM    2  C   UNL     1     -44.451 -47.779  10.372  1.00  0.00     0.110 A 
HETATM    3  C   UNL     1     -45.307 -47.382   9.413  1.00  0.00     0.063 A 
HETATM    4  C   UNL     1     -45.067 -46.115   8.744  1.00  0.00     0.023 A 
HETATM    5  C   UNL     1     -43.985 -45.377   9.028  1.00  0.00     0.075 A 
HETATM    6  C   UNL     1     -43.001 -45.857  10.029  1.00  0.00     0.247 A 
HETATM    7  O   UNL     1     -41.951 -45.243  10.216  1.00  0.00    -0.268 OA
ENDROOT
BRANCH   1   8
HETATM    8  C   UNL     1     -42.405 -47.529  11.733  1.00  0.00     0.180 C 
BRANCH   8   9
HETATM    9  C   UNL     1     -41.370 -48.560  11.222  1.00  0.00     0.155 C 
HETATM   10  C   UNL     1     -41.520 -49.935  11.867  1.00  0.00     0.059 C 
BRANCH   9  11
HETATM   11  O   UNL     1     -41.410 -48.731   9.788  1.00  0.00    -0.378 OA
HETATM   12  H   UNL     1     -41.975 -48.019   9.408  1.00  0.00     0.211 HD
ENDBRANCH   9  11
BRANCH   9  13
HETATM   13  C   UNL     1     -39.985 -48.006  11.573  1.00  0.00     0.177 C 
HETATM   14  O   UNL     1     -39.774 -46.931  12.115  1.00  0.00    -0.648 OA
BRANCH  13  15
HETATM   15  O   UNL     1     -38.993 -48.859  11.208  1.00  0.00    -0.774 OA
HETATM   16  H   UNL     1     -38.941 -49.564  11.900  1.00  0.00     0.167 HD
ENDBRANCH  13  15
ENDBRANCH   9  13
ENDBRANCH   8   9
ENDBRANCH   1   8
BRANCH   3  17
HETATM   17  C   UNL     1     -46.486 -48.225   9.014  1.00  0.00     0.418 C 
HETATM   18  F   UNL     1     -46.667 -49.300   9.822  1.00  0.00    -0.166 F 
HETATM   19  F   UNL     1     -47.639 -47.510   9.048  1.00  0.00    -0.166 F 
HETATM   20  F   UNL     1     -46.356 -48.700   7.750  1.00  0.00    -0.166 F 
ENDBRANCH   3  17
TORSDOF 6
ENDMDL
MODEL 2
REMARK VINA RESULT:      -5.9      5.450      6.972
REMARK  6 active torsions:
REMARK  status: ('A' for Active; 'I' for Inactive)
REMARK    1  A    between atoms: C_2  and  O_3 
REMARK    2  A    between atoms: C_2  and  C_4 
REMARK    3  A    between atoms: C_2  and  C_16 
REMARK    4  A    between atoms: C_4  and  N_5 
REMARK    5  A    between atoms: C_7  and  C_12 
REMARK    6  A    between atoms: C_16  and  O_18 
ROOT
HETATM    1  N   UNL     1     -43.232 -53.496  14.148  1.00  0.00    -0.320 N 
HETATM    2  C   UNL     1     -44.035 -52.498  13.616  1.00  0.00     0.110 A 
HETATM    3  C   UNL     1     -45.351 -52.686  13.408  1.00  0.00     0.063 A 
HETATM    4  C   UNL     1     -45.926 -53.987  13.703  1.00  0.00     0.023 A 
HETATM    5  C   UNL     1     -45.180 -54.969  14.226  1.00  0.00     0.075 A 
HETATM    6  C   UNL     1     -43.747 -54.733  14.529  1.00  0.00     0.247 A 
HETATM    7  O   UNL     1     -43.083 -55.590  15.111  1.00  0.00    -0.268 OA
ENDROOT
BRANCH   1   8
HETATM    8  C   UNL     1     -41.806 -53.230  14.385  1.00  0.00     0.180 C 
BRANCH   8   9
HETATM    9  C   UNL     1     -40.869 -53.748  13.267  1.00  0.00     0.155 C 
HETATM   10  C   UNL     1     -39.580 -54.367  13.799  1.00  0.00     0.059 C 
BRANCH   9  11
HETATM   11  O   UNL     1     -41.508 -54.715  12.404  1.00  0.00    -0.378 OA
HETATM   12  H   UNL     1     -41.032 -54.720  11.541  1.00  0.00     0.211 HD
ENDBRANCH   9  11
BRANCH   9  13
HETATM   13  C   UNL     1     -40.506 -52.538  12.399  1.00  0.00     0.177 C 
HETATM   14  O   UNL     1     -39.638 -51.719  12.662  1.00  0.00    -0.648 OA
BRANCH  13  15
HETATM   15  O   UNL     1     -41.272 -52.472  11.280  1.00  0.00    -0.774 OA
HETATM   16  H   UNL     1     -42.213 -52.385  11.571  1.00  0.00     0.167 HD
ENDBRANCH  13  15
ENDBRANCH   9  13
ENDBRANCH   8   9
ENDBRANCH   1   8
BRANCH   3  17
HETATM   17  C   UNL     1     -46.232 -51.580  12.898  1.00  0.00     0.418 C 
HETATM   18  F   UNL     1     -47.016 -51.962  11.858  1.00  0.00    -0.166 F 
HETATM   19  F   UNL     1     -47.064 -51.122  13.868  1.00  0.00    -0.166 F 
HETATM   20  F   UNL     1     -45.503 -50.517  12.471  1.00  0.00    -0.166 F 
ENDBRANCH   3  17
TORSDOF 6
ENDMDL
MODEL 3
REMARK VINA RESULT:      -5.7      1.684      2.504
REMARK  6 active torsions:
REMARK  status: ('A' for Active; 'I' for Inactive)
REMARK    1  A    between atoms: C_2  and  O_3 
REMARK    2  A    between atoms: C_2  and  C_4 
REMARK    3  A    between atoms: C_2  and  C_16 
REMARK    4  A    between atoms: C_4  and  N_5 
REMARK    5  A    between atoms: C_7  and  C_12 
REMARK    6  A    between atoms: C_16  and  O_18 
ROOT
HETATM    1  N   UNL     1     -41.725 -47.940  11.479  1.00  0.00    -0.320 N 
HETATM    2  C   UNL     1     -42.942 -48.086  10.828  1.00  0.00     0.110 A 
HETATM    3  C   UNL     1     -43.391 -47.165   9.956  1.00  0.00     0.063 A 
HETATM    4  C   UNL     1     -42.601 -45.966   9.738  1.00  0.00     0.023 A 
HETATM    5  C   UNL     1     -41.417 -45.799  10.343  1.00  0.00     0.075 A 
HETATM    6  C   UNL     1     -40.887 -46.852  11.242  1.00  0.00     0.247 A 
HETATM    7  O   UNL     1     -39.755 -46.758  11.714  1.00  0.00    -0.268 OA
ENDROOT
BRANCH   1   8
HETATM    8  C   UNL     1     -41.265 -48.990  12.400  1.00  0.00     0.180 C 
BRANCH   8   9
HETATM    9  C   UNL     1     -40.560 -50.179  11.704  1.00  0.00     0.155 C 
HETATM   10  C   UNL     1     -41.276 -51.511  11.914  1.00  0.00     0.059 C 
BRANCH   9  11
HETATM   11  O   UNL     1     -40.393 -49.979  10.283  1.00  0.00    -0.378 OA
HETATM   12  H   UNL     1     -39.557 -50.421  10.006  1.00  0.00     0.211 HD
ENDBRANCH   9  11
BRANCH   9  13
HETATM   13  C   UNL     1     -39.158 -50.280  12.314  1.00  0.00     0.177 C 
HETATM   14  O   UNL     1     -38.408 -51.238  12.200  1.00  0.00    -0.648 OA
BRANCH  13  15
HETATM   15  O   UNL     1     -38.831 -49.162  13.014  1.00  0.00    -0.774 OA
HETATM   16  H   UNL     1     -39.631 -48.892  13.528  1.00  0.00     0.167 HD
ENDBRANCH  13  15
ENDBRANCH   9  13
ENDBRANCH   8   9
ENDBRANCH   1   8
BRANCH   3  17
HETATM   17  C   UNL     1     -44.675 -47.361   9.200  1.00  0.00     0.418 C 
HETATM   18  F   UNL     1     -44.515 -48.076   8.058  1.00  0.00    -0.166 F 
HETATM   19  F   UNL     1     -45.595 -48.020   9.950  1.00  0.00    -0.166 F 
HETATM   20  F   UNL     1     -45.234 -46.175   8.847  1.00  0.00    -0.166 F 
ENDBRANCH   3  17
TORSDOF 6
ENDMDL
MODEL 4
REMARK VINA RESULT:      -5.6      5.884      7.444
REMARK  6 active torsions:
REMARK  status: ('A' for Active; 'I' for Inactive)
REMARK    1  A    between atoms: C_2  and  O_3 
REMARK    2  A    between atoms: C_2  and  C_4 
REMARK    3  A    between atoms: C_2  and  C_16 
REMARK    4  A    between atoms: C_4  and  N_5 
REMARK    5  A    between atoms: C_7  and  C_12 
REMARK    6  A    between atoms: C_16  and  O_18 
ROOT
HETATM    1  N   UNL     1     -43.111 -53.661  14.577  1.00  0.00    -0.320 N 
HETATM    2  C   UNL     1     -43.807 -52.578  14.060  1.00  0.00     0.110 A 
HETATM    3  C   UNL     1     -45.075 -52.696  13.624  1.00  0.00     0.063 A 
HETATM    4  C   UNL     1     -45.703 -54.005  13.650  1.00  0.00     0.023 A 
HETATM    5  C   UNL     1     -45.062 -55.069  14.151  1.00  0.00     0.075 A 
HETATM    6  C   UNL     1     -43.694 -54.920  14.704  1.00  0.00     0.247 A 
HETATM    7  O   UNL     1     -43.142 -55.865  15.267  1.00  0.00    -0.268 OA
ENDROOT
BRANCH   1   8
HETATM    8  C   UNL     1     -41.738 -53.473  15.068  1.00  0.00     0.180 C 
BRANCH   8   9
HETATM    9  C   UNL     1     -40.657 -53.512  13.962  1.00  0.00     0.155 C 
HETATM   10  C   UNL     1     -41.194 -53.968  12.609  1.00  0.00     0.059 C 
BRANCH   9  11
HETATM   11  O   UNL     1     -39.999 -52.238  13.778  1.00  0.00    -0.378 OA
HETATM   12  H   UNL     1     -39.880 -51.822  14.663  1.00  0.00     0.211 HD
ENDBRANCH   9  11
BRANCH   9  13
HETATM   13  C   UNL     1     -39.589 -54.510  14.424  1.00  0.00     0.177 C 
HETATM   14  O   UNL     1     -39.594 -55.101  15.493  1.00  0.00    -0.648 OA
BRANCH  13  15
HETATM   15  O   UNL     1     -38.612 -54.669  13.493  1.00  0.00    -0.774 OA
HETATM   16  H   UNL     1     -39.013 -54.478  12.609  1.00  0.00     0.167 HD
ENDBRANCH  13  15
ENDBRANCH   9  13
ENDBRANCH   8   9
ENDBRANCH   1   8
BRANCH   3  17
HETATM   17  C   UNL     1     -45.849 -51.505  13.131  1.00  0.00     0.418 C 
HETATM   18  F   UNL     1     -46.553 -51.762  12.000  1.00  0.00    -0.166 F 
HETATM   19  F   UNL     1     -46.742 -51.077  14.060  1.00  0.00    -0.166 F 
HETATM   20  F   UNL     1     -45.033 -50.456  12.858  1.00  0.00    -0.166 F 
ENDBRANCH   3  17
TORSDOF 6
ENDMDL
MODEL 5
REMARK VINA RESULT:      -5.6      4.245      6.107
REMARK  6 active torsions:
REMARK  status: ('A' for Active; 'I' for Inactive)
REMARK    1  A    between atoms: C_2  and  O_3 
REMARK    2  A    between atoms: C_2  and  C_4 
REMARK    3  A    between atoms: C_2  and  C_16 
REMARK    4  A    between atoms: C_4  and  N_5 
REMARK    5  A    between atoms: C_7  and  C_12 
REMARK    6  A    between atoms: C_16  and  O_18 
ROOT
HETATM    1  N   UNL     1     -40.217 -50.986  13.011  1.00  0.00    -0.320 N 
HETATM    2  C   UNL     1     -41.169 -50.130  12.474  1.00  0.00     0.110 A 
HETATM    3  C   UNL     1     -40.830 -49.137  11.632  1.00  0.00     0.063 A 
HETATM    4  C   UNL     1     -39.426 -48.930  11.325  1.00  0.00     0.023 A 
HETATM    5  C   UNL     1     -38.483 -49.745  11.819  1.00  0.00     0.075 A 
HETATM    6  C   UNL     1     -38.867 -50.887  12.683  1.00  0.00     0.247 A 
HETATM    7  O   UNL     1     -38.023 -51.704  13.049  1.00  0.00    -0.268 OA
ENDROOT
BRANCH   1   8
HETATM    8  C   UNL     1     -40.643 -52.076  13.902  1.00  0.00     0.180 C 
BRANCH   8   9
HETATM    9  C   UNL     1     -40.803 -53.445  13.199  1.00  0.00     0.155 C 
HETATM   10  C   UNL     1     -42.228 -53.988  13.252  1.00  0.00     0.059 C 
BRANCH   9  11
HETATM   11  O   UNL     1     -40.385 -53.418  11.816  1.00  0.00    -0.378 OA
HETATM   12  H   UNL     1     -41.000 -52.829  11.320  1.00  0.00     0.211 HD
ENDBRANCH   9  11
BRANCH   9  13
HETATM   13  C   UNL     1     -39.880 -54.427  13.930  1.00  0.00     0.177 C 
HETATM   14  O   UNL     1     -40.140 -54.982  14.987  1.00  0.00    -0.648 OA
BRANCH  13  15
HETATM   15  O   UNL     1     -38.714 -54.618  13.260  1.00  0.00    -0.774 OA
HETATM   16  H   UNL     1     -37.990 -54.234  13.813  1.00  0.00     0.167 HD
ENDBRANCH  13  15
ENDBRANCH   9  13
ENDBRANCH   8   9
ENDBRANCH   1   8
BRANCH   3  17
HETATM   17  C   UNL     1     -41.870 -48.257  10.998  1.00  0.00     0.418 C 
HETATM   18  F   UNL     1     -41.898 -48.358   9.645  1.00  0.00    -0.166 F 
HETATM   19  F   UNL     1     -43.116 -48.566  11.439  1.00  0.00    -0.166 F 
HETATM   20  F   UNL     1     -41.664 -46.947  11.291  1.00  0.00    -0.166 F 
ENDBRANCH   3  17
TORSDOF 6
ENDMDL
MODEL 6
REMARK VINA RESULT:      -5.5      4.321      6.169
REMARK  6 active torsions:
REMARK  status: ('A' for Active; 'I' for Inactive)
REMARK    1  A    between atoms: C_2  and  O_3 
REMARK    2  A    between atoms: C_2  and  C_4 
REMARK    3  A    between atoms: C_2  and  C_16 
REMARK    4  A    between atoms: C_4  and  N_5 
REMARK    5  A    between atoms: C_7  and  C_12 
REMARK    6  A    between atoms: C_16  and  O_18 
ROOT
HETATM    1  N   UNL     1     -42.662 -52.159  13.608  1.00  0.00    -0.320 N 
HETATM    2  C   UNL     1     -43.990 -51.798  13.429  1.00  0.00     0.110 A 
HETATM    3  C   UNL     1     -44.987 -52.693  13.554  1.00  0.00     0.063 A 
HETATM    4  C   UNL     1     -44.652 -54.078  13.831  1.00  0.00     0.023 A 
HETATM    5  C   UNL     1     -43.381 -54.458  14.019  1.00  0.00     0.075 A 
HETATM    6  C   UNL     1     -42.290 -53.455  13.959  1.00  0.00     0.247 A 
HETATM    7  O   UNL     1     -41.135 -53.772  14.240  1.00  0.00    -0.268 OA
ENDROOT
BRANCH   1   8
HETATM    8  C   UNL     1     -41.612 -51.137  13.491  1.00  0.00     0.180 C 
BRANCH   8   9
HETATM    9  C   UNL     1     -40.807 -51.202  12.171  1.00  0.00     0.155 C 
HETATM   10  C   UNL     1     -39.296 -51.203  12.384  1.00  0.00     0.059 C 
BRANCH   9  11
HETATM   11  O   UNL     1     -41.147 -52.350  11.363  1.00  0.00    -0.378 OA
HETATM   12  H   UNL     1     -41.553 -53.030  11.949  1.00  0.00     0.211 HD
ENDBRANCH   9  11
BRANCH   9  13
HETATM   13  C   UNL     1     -41.183 -49.954  11.363  1.00  0.00     0.177 C 
HETATM   14  O   UNL     1     -42.008 -49.119  11.702  1.00  0.00    -0.648 OA
BRANCH  13  15
HETATM   15  O   UNL     1     -40.482 -49.876  10.202  1.00  0.00    -0.774 OA
HETATM   16  H   UNL     1     -40.397 -50.795   9.846  1.00  0.00     0.167 HD
ENDBRANCH  13  15
ENDBRANCH   9  13
ENDBRANCH   8   9
ENDBRANCH   1   8
BRANCH   3  17
HETATM   17  C   UNL     1     -46.429 -52.284  13.429  1.00  0.00     0.418 C 
HETATM   18  F   UNL     1     -46.867 -52.269  12.145  1.00  0.00    -0.166 F 
HETATM   19  F   UNL     1     -47.243 -53.129  14.111  1.00  0.00    -0.166 F 
HETATM   20  F   UNL     1     -46.642 -51.042  13.933  1.00  0.00    -0.166 F 
ENDBRANCH   3  17
TORSDOF 6
ENDMDL
MODEL 7
REMARK VINA RESULT:      -5.5      5.705      7.802
REMARK  6 active torsions:
REMARK  status: ('A' for Active; 'I' for Inactive)
REMARK    1  A    between atoms: C_2  and  O_3 
REMARK    2  A    between atoms: C_2  and  C_4 
REMARK    3  A    between atoms: C_2  and  C_16 
REMARK    4  A    between atoms: C_4  and  N_5 
REMARK    5  A    between atoms: C_7  and  C_12 
REMARK    6  A    between atoms: C_16  and  O_18 
ROOT
HETATM    1  N   UNL     1     -41.919 -53.269  14.671  1.00  0.00    -0.320 N 
HETATM    2  C   UNL     1     -43.209 -53.443  14.191  1.00  0.00     0.110 A 
HETATM    3  C   UNL     1     -43.932 -54.538  14.490  1.00  0.00     0.063 A 
HETATM    4  C   UNL     1     -43.318 -55.582  15.292  1.00  0.00     0.023 A 
HETATM    5  C   UNL     1     -42.078 -55.441  15.779  1.00  0.00     0.075 A 
HETATM    6  C   UNL     1     -41.313 -54.197  15.515  1.00  0.00     0.247 A 
HETATM    7  O   UNL     1     -40.221 -54.011  16.049  1.00  0.00    -0.268 OA
ENDROOT
BRANCH   1   8
HETATM    8  C   UNL     1     -41.183 -52.039  14.341  1.00  0.00     0.180 C 
BRANCH   8   9
HETATM    9  C   UNL     1     -40.234 -52.174  13.127  1.00  0.00     0.155 C 
HETATM   10  C   UNL     1     -38.933 -51.393  13.287  1.00  0.00     0.059 C 
BRANCH   9  11
HETATM   11  O   UNL     1     -39.898 -53.548  12.828  1.00  0.00    -0.378 OA
HETATM   12  H   UNL     1     -40.051 -53.700  11.866  1.00  0.00     0.211 HD
ENDBRANCH   9  11
BRANCH   9  13
HETATM   13  C   UNL     1     -40.988 -51.619  11.913  1.00  0.00     0.177 C 
HETATM   14  O   UNL     1     -41.312 -50.451  11.761  1.00  0.00    -0.648 OA
BRANCH  13  15
HETATM   15  O   UNL     1     -41.263 -52.590  11.003  1.00  0.00    -0.774 OA
HETATM   16  H   UNL     1     -41.945 -52.229  10.384  1.00  0.00     0.167 HD
ENDBRANCH  13  15
ENDBRANCH   9  13
ENDBRANCH   8   9
ENDBRANCH   1   8
BRANCH   3  17
HETATM   17  C   UNL     1     -45.353 -54.692  14.027  1.00  0.00     0.418 C 
HETATM   18  F   UNL     1     -46.261 -54.351  14.977  1.00  0.00    -0.166 F 
HETATM   19  F   UNL     1     -45.608 -53.912  12.945  1.00  0.00    -0.166 F 
HETATM   20  F   UNL     1     -45.626 -55.970  13.662  1.00  0.00    -0.166 F 
ENDBRANCH   3  17
TORSDOF 6
ENDMDL
MODEL 8
REMARK VINA RESULT:      -5.4      5.066      5.837
REMARK  6 active torsions:
REMARK  status: ('A' for Active; 'I' for Inactive)
REMARK    1  A    between atoms: C_2  and  O_3 
REMARK    2  A    between atoms: C_2  and  C_4 
REMARK    3  A    between atoms: C_2  and  C_16 
REMARK    4  A    between atoms: C_4  and  N_5 
REMARK    5  A    between atoms: C_7  and  C_12 
REMARK    6  A    between atoms: C_16  and  O_18 
ROOT
HETATM    1  N   UNL     1     -42.695 -51.151  13.494  1.00  0.00    -0.320 N 
HETATM    2  C   UNL     1     -43.998 -51.507  13.177  1.00  0.00     0.110 A 
HETATM    3  C   UNL     1     -45.014 -51.304  14.036  1.00  0.00     0.063 A 
HETATM    4  C   UNL     1     -44.721 -50.747  15.345  1.00  0.00     0.023 A 
HETATM    5  C   UNL     1     -43.476 -50.384  15.679  1.00  0.00     0.075 A 
HETATM    6  C   UNL     1     -42.371 -50.535  14.701  1.00  0.00     0.247 A 
HETATM    7  O   UNL     1     -41.248 -50.102  14.957  1.00  0.00    -0.268 OA
ENDROOT
BRANCH   1   8
HETATM    8  C   UNL     1     -41.625 -51.365  12.509  1.00  0.00     0.180 C 
BRANCH   8   9
HETATM    9  C   UNL     1     -40.949 -52.754  12.597  1.00  0.00     0.155 C 
HETATM   10  C   UNL     1     -41.746 -53.762  13.421  1.00  0.00     0.059 C 
BRANCH   9  11
HETATM   11  O   UNL     1     -40.694 -53.338  11.300  1.00  0.00    -0.378 OA
HETATM   12  H   UNL     1     -39.767 -53.671  11.288  1.00  0.00     0.211 HD
ENDBRANCH   9  11
BRANCH   9  13
HETATM   13  C   UNL     1     -39.589 -52.542  13.272  1.00  0.00     0.177 C 
HETATM   14  O   UNL     1     -38.907 -53.423  13.773  1.00  0.00    -0.648 OA
BRANCH  13  15
HETATM   15  O   UNL     1     -39.215 -51.236  13.253  1.00  0.00    -0.774 OA
HETATM   16  H   UNL     1     -39.970 -50.708  13.613  1.00  0.00     0.167 HD
ENDBRANCH  13  15
ENDBRANCH   9  13
ENDBRANCH   8   9
ENDBRANCH   1   8
BRANCH   3  17
HETATM   17  C   UNL     1     -46.434 -51.626  13.662  1.00  0.00     0.418 C 
HETATM   18  F   UNL     1     -46.757 -51.222  12.407  1.00  0.00    -0.166 F 
HETATM   19  F   UNL     1     -46.669 -52.962  13.717  1.00  0.00    -0.166 F 
HETATM   20  F   UNL     1     -47.319 -51.036  14.505  1.00  0.00    -0.166 F 
ENDBRANCH   3  17
TORSDOF 6
ENDMDL
MODEL 9
REMARK VINA RESULT:      -5.4      4.136      4.920
REMARK  6 active torsions:
REMARK  status: ('A' for Active; 'I' for Inactive)
REMARK    1  A    between atoms: C_2  and  O_3 
REMARK    2  A    between atoms: C_2  and  C_4 
REMARK    3  A    between atoms: C_2  and  C_16 
REMARK    4  A    between atoms: C_4  and  N_5 
REMARK    5  A    between atoms: C_7  and  C_12 
REMARK    6  A    between atoms: C_16  and  O_18 
ROOT
HETATM    1  N   UNL     1     -41.180 -47.888  11.769  1.00  0.00    -0.320 N 
HETATM    2  C   UNL     1     -40.277 -46.871  11.498  1.00  0.00     0.110 A 
HETATM    3  C   UNL     1     -40.643 -45.761  10.831  1.00  0.00     0.063 A 
HETATM    4  C   UNL     1     -42.007 -45.657  10.343  1.00  0.00     0.023 A 
HETATM    5  C   UNL     1     -42.906 -46.618  10.596  1.00  0.00     0.075 A 
HETATM    6  C   UNL     1     -42.520 -47.804  11.399  1.00  0.00     0.247 A 
HETATM    7  O   UNL     1     -43.365 -48.634  11.731  1.00  0.00    -0.268 OA
ENDROOT
BRANCH   1   8
HETATM    8  C   UNL     1     -40.737 -49.067  12.528  1.00  0.00     0.180 C 
BRANCH   8   9
HETATM    9  C   UNL     1     -40.173 -50.211  11.651  1.00  0.00     0.155 C 
HETATM   10  C   UNL     1     -40.695 -51.589  12.047  1.00  0.00     0.059 C 
BRANCH   9  11
HETATM   11  O   UNL     1     -40.435 -50.020  10.243  1.00  0.00    -0.378 OA
HETATM   12  H   UNL     1     -40.894 -49.156  10.130  1.00  0.00     0.211 HD
ENDBRANCH   9  11
BRANCH   9  13
HETATM   13  C   UNL     1     -38.651 -50.197  11.834  1.00  0.00     0.177 C 
HETATM   14  O   UNL     1     -38.070 -50.317  12.902  1.00  0.00    -0.648 OA
BRANCH  13  15
HETATM   15  O   UNL     1     -38.003 -50.033  10.651  1.00  0.00    -0.774 OA
HETATM   16  H   UNL     1     -38.373 -50.696  10.018  1.00  0.00     0.167 HD
ENDBRANCH  13  15
ENDBRANCH   9  13
ENDBRANCH   8   9
ENDBRANCH   1   8
BRANCH   3  17
HETATM   17  C   UNL     1     -39.680 -44.629  10.601  1.00  0.00     0.418 C 
HETATM   18  F   UNL     1     -38.902 -44.810   9.504  1.00  0.00    -0.166 F 
HETATM   19  F   UNL     1     -40.333 -43.452  10.428  1.00  0.00    -0.166 F 
HETATM   20  F   UNL     1     -38.842 -44.463  11.655  1.00  0.00    -0.166 F 
ENDBRANCH   3  17
TORSDOF 6
ENDMDL
