MODEL 1
REMARK VINA RESULT:      -5.4      0.000      0.000
REMARK  1 active torsions:
REMARK  status: ('A' for Active; 'I' for Inactive)
REMARK    1  A    between atoms: C_7  and  N_10 
ROOT
HETATM    1  C   UNL     1     -46.048 -51.088  15.855  1.00  0.00     0.069 C 
HETATM    2  C   UNL     1     -45.684 -51.619  14.498  1.00  0.00     0.028 A 
HETATM    3  C   UNL     1     -46.614 -51.731  13.541  1.00  0.00     0.100 A 
HETATM    4  C   UNL     1     -46.194 -52.261  12.245  1.00  0.00     0.261 A 
HETATM    5  O   UNL     1     -46.970 -52.346  11.301  1.00  0.00    -0.268 OA
HETATM    6  N   UNL     1     -44.892 -52.650  12.172  1.00  0.00    -0.156 N 
HETATM    7  C   UNL     1     -43.995 -52.493  13.196  1.00  0.00     0.683 A 
HETATM    8  N   UNL     1     -44.366 -51.976  14.331  1.00  0.00    -0.196 N 
ATOM      9  HN  UNL     1     -43.691 -51.838  15.083  1.00  0.00     0.184 HD
HETATM   10  H   UNL     1     -44.587 -52.967  11.270  1.00  0.00     0.187 HD
ENDROOT
BRANCH   7  11
HETATM   11  N   UNL     1     -42.697 -52.900  12.974  1.00  0.00    -0.213 N 
HETATM   12  C   UNL     1     -42.107 -54.149  13.469  1.00  0.00     0.167 C 
HETATM   13  C   UNL     1     -40.678 -53.902  13.974  1.00  0.00     0.188 C 
HETATM   14  O   UNL     1     -39.861 -53.276  12.976  1.00  0.00    -0.388 OA
HETATM   15  C   UNL     1     -40.429 -52.010  12.601  1.00  0.00     0.188 C 
HETATM   16  C   UNL     1     -41.834 -52.187  12.017  1.00  0.00     0.167 C 
ENDBRANCH   7  11
TORSDOF 1
ENDMDL
MODEL 2
REMARK VINA RESULT:      -5.2      1.808      2.236
REMARK  1 active torsions:
REMARK  status: ('A' for Active; 'I' for Inactive)
REMARK    1  A    between atoms: C_7  and  N_10 
ROOT
HETATM    1  C   UNL     1     -46.834 -51.719  12.009  1.00  0.00     0.069 C 
HETATM    2  C   UNL     1     -45.901 -52.527  12.865  1.00  0.00     0.028 A 
HETATM    3  C   UNL     1     -46.366 -53.203  13.924  1.00  0.00     0.100 A 
HETATM    4  C   UNL     1     -45.403 -53.964  14.718  1.00  0.00     0.261 A 
HETATM    5  O   UNL     1     -45.754 -54.651  15.671  1.00  0.00    -0.268 OA
HETATM    6  N   UNL     1     -44.106 -53.850  14.324  1.00  0.00    -0.156 N 
HETATM    7  C   UNL     1     -43.709 -53.145  13.218  1.00  0.00     0.683 A 
HETATM    8  N   UNL     1     -44.578 -52.509  12.488  1.00  0.00    -0.196 N 
ATOM      9  HN  UNL     1     -44.284 -52.005  11.652  1.00  0.00     0.184 HD
HETATM   10  H   UNL     1     -43.450 -54.410  14.836  1.00  0.00     0.187 HD
ENDROOT
BRANCH   7  11
HETATM   11  N   UNL     1     -42.365 -53.141  12.914  1.00  0.00    -0.213 N 
HETATM   12  C   UNL     1     -41.426 -54.226  13.220  1.00  0.00     0.167 C 
HETATM   13  C   UNL     1     -40.092 -53.655  13.724  1.00  0.00     0.188 C 
HETATM   14  O   UNL     1     -39.539 -52.703  12.804  1.00  0.00    -0.388 OA
HETATM   15  C   UNL     1     -40.456 -51.610  12.619  1.00  0.00     0.188 C 
HETATM   16  C   UNL     1     -41.789 -52.099  12.047  1.00  0.00     0.167 C 
ENDBRANCH   7  11
TORSDOF 1
ENDMDL
MODEL 3
REMARK VINA RESULT:      -5.0      4.712      5.935
REMARK  1 active torsions:
REMARK  status: ('A' for Active; 'I' for Inactive)
REMARK    1  A    between atoms: C_7  and  N_10 
ROOT
HETATM    1  C   UNL     1     -44.079 -47.533   9.691  1.00  0.00     0.069 C 
HETATM    2  C   UNL     1     -42.672 -47.473  10.214  1.00  0.00     0.028 A 
HETATM    3  C   UNL     1     -42.000 -46.314  10.221  1.00  0.00     0.100 A 
HETATM    4  C   UNL     1     -40.633 -46.326  10.738  1.00  0.00     0.261 A 
HETATM    5  O   UNL     1     -39.969 -45.300  10.827  1.00  0.00    -0.268 OA
HETATM    6  N   UNL     1     -40.162 -47.549  11.104  1.00  0.00    -0.156 N 
HETATM    7  C   UNL     1     -40.917 -48.692  11.078  1.00  0.00     0.683 A 
HETATM    8  N   UNL     1     -42.150 -48.664  10.661  1.00  0.00    -0.196 N 
ATOM      9  HN  UNL     1     -42.718 -49.511  10.665  1.00  0.00     0.184 HD
HETATM   10  H   UNL     1     -39.242 -47.553  11.505  1.00  0.00     0.187 HD
ENDROOT
BRANCH   7  11
HETATM   11  N   UNL     1     -40.323 -49.858  11.509  1.00  0.00    -0.213 N 
HETATM   12  C   UNL     1     -41.025 -51.120  11.760  1.00  0.00     0.167 C 
HETATM   13  C   UNL     1     -40.491 -51.785  13.039  1.00  0.00     0.188 C 
HETATM   14  O   UNL     1     -39.068 -51.955  12.996  1.00  0.00    -0.388 OA
HETATM   15  C   UNL     1     -38.425 -50.677  12.852  1.00  0.00     0.188 C 
HETATM   16  C   UNL     1     -38.856 -49.987  11.554  1.00  0.00     0.167 C 
ENDBRANCH   7  11
TORSDOF 1
ENDMDL
MODEL 4
REMARK VINA RESULT:      -4.8      5.778      7.173
REMARK  1 active torsions:
REMARK  status: ('A' for Active; 'I' for Inactive)
REMARK    1  A    between atoms: C_7  and  N_10 
ROOT
HETATM    1  C   UNL     1     -39.495 -44.808  14.349  1.00  0.00     0.069 C 
HETATM    2  C   UNL     1     -39.603 -45.428  12.985  1.00  0.00     0.028 A 
HETATM    3  C   UNL     1     -39.757 -44.658  11.900  1.00  0.00     0.100 A 
HETATM    4  C   UNL     1     -39.862 -45.326  10.603  1.00  0.00     0.261 A 
HETATM    5  O   UNL     1     -39.952 -44.693   9.558  1.00  0.00    -0.268 OA
HETATM    6  N   UNL     1     -39.854 -46.686  10.649  1.00  0.00    -0.156 N 
HETATM    7  C   UNL     1     -39.680 -47.405  11.802  1.00  0.00     0.683 A 
HETATM    8  N   UNL     1     -39.540 -46.802  12.947  1.00  0.00    -0.196 N 
ATOM      9  HN  UNL     1     -39.386 -47.338  13.801  1.00  0.00     0.184 HD
HETATM   10  H   UNL     1     -39.875 -47.146   9.758  1.00  0.00     0.187 HD
ENDROOT
BRANCH   7  11
HETATM   11  N   UNL     1     -39.659 -48.779  11.699  1.00  0.00    -0.213 N 
HETATM   12  C   UNL     1     -40.790 -49.612  11.278  1.00  0.00     0.167 C 
HETATM   13  C   UNL     1     -40.880 -50.874  12.149  1.00  0.00     0.188 C 
HETATM   14  O   UNL     1     -39.645 -51.603  12.158  1.00  0.00    -0.388 OA
HETATM   15  C   UNL     1     -38.590 -50.774  12.676  1.00  0.00     0.188 C 
HETATM   16  C   UNL     1     -38.394 -49.526  11.810  1.00  0.00     0.167 C 
ENDBRANCH   7  11
TORSDOF 1
ENDMDL
MODEL 5
REMARK VINA RESULT:      -4.8      2.887      5.114
REMARK  1 active torsions:
REMARK  status: ('A' for Active; 'I' for Inactive)
REMARK    1  A    between atoms: C_7  and  N_10 
ROOT
HETATM    1  C   UNL     1     -37.663 -49.991  11.828  1.00  0.00     0.069 C 
HETATM    2  C   UNL     1     -39.159 -50.069  11.732  1.00  0.00     0.028 A 
HETATM    3  C   UNL     1     -39.865 -49.026  11.276  1.00  0.00     0.100 A 
HETATM    4  C   UNL     1     -41.319 -49.166  11.213  1.00  0.00     0.261 A 
HETATM    5  O   UNL     1     -42.033 -48.279  10.759  1.00  0.00    -0.268 OA
HETATM    6  N   UNL     1     -41.810 -50.340  11.694  1.00  0.00    -0.156 N 
HETATM    7  C   UNL     1     -41.020 -51.369  12.136  1.00  0.00     0.683 A 
HETATM    8  N   UNL     1     -39.723 -51.254  12.144  1.00  0.00    -0.196 N 
ATOM      9  HN  UNL     1     -39.136 -52.029  12.450  1.00  0.00     0.184 HD
HETATM   10  H   UNL     1     -42.802 -50.460  11.607  1.00  0.00     0.187 HD
ENDROOT
BRANCH   7  11
HETATM   11  N   UNL     1     -41.649 -52.517  12.566  1.00  0.00    -0.213 N 
HETATM   12  C   UNL     1     -43.094 -52.762  12.502  1.00  0.00     0.167 C 
HETATM   13  C   UNL     1     -43.578 -53.445  13.790  1.00  0.00     0.188 C 
HETATM   14  O   UNL     1     -42.838 -54.641  14.069  1.00  0.00    -0.388 OA
HETATM   15  C   UNL     1     -41.443 -54.329  14.224  1.00  0.00     0.188 C 
HETATM   16  C   UNL     1     -40.871 -53.709  12.945  1.00  0.00     0.167 C 
ENDBRANCH   7  11
TORSDOF 1
ENDMDL
MODEL 6
REMARK VINA RESULT:      -4.5      1.831      5.132
REMARK  1 active torsions:
REMARK  status: ('A' for Active; 'I' for Inactive)
REMARK    1  A    between atoms: C_7  and  N_10 
ROOT
HETATM    1  C   UNL     1     -39.419 -53.345  14.081  1.00  0.00     0.069 C 
HETATM    2  C   UNL     1     -40.351 -52.467  13.296  1.00  0.00     0.028 A 
HETATM    3  C   UNL     1     -39.868 -51.482  12.527  1.00  0.00     0.100 A 
HETATM    4  C   UNL     1     -40.829 -50.661  11.794  1.00  0.00     0.261 A 
HETATM    5  O   UNL     1     -40.468 -49.774  11.029  1.00  0.00    -0.268 OA
HETATM    6  N   UNL     1     -42.138 -50.952  12.026  1.00  0.00    -0.156 N 
HETATM    7  C   UNL     1     -42.555 -51.987  12.822  1.00  0.00     0.683 A 
HETATM    8  N   UNL     1     -41.691 -52.744  13.434  1.00  0.00    -0.196 N 
ATOM      9  HN  UNL     1     -42.002 -53.529  14.005  1.00  0.00     0.184 HD
HETATM   10  H   UNL     1     -42.799 -50.424  11.487  1.00  0.00     0.187 HD
ENDROOT
BRANCH   7  11
HETATM   11  N   UNL     1     -43.912 -52.191  12.943  1.00  0.00    -0.213 N 
HETATM   12  C   UNL     1     -44.899 -51.149  13.243  1.00  0.00     0.167 C 
HETATM   13  C   UNL     1     -45.942 -51.670  14.243  1.00  0.00     0.188 C 
HETATM   14  O   UNL     1     -46.556 -52.883  13.789  1.00  0.00    -0.388 OA
HETATM   15  C   UNL     1     -45.557 -53.902  13.609  1.00  0.00     0.188 C 
HETATM   16  C   UNL     1     -44.520 -53.479  12.564  1.00  0.00     0.167 C 
ENDBRANCH   7  11
TORSDOF 1
ENDMDL
MODEL 7
REMARK VINA RESULT:      -4.4      4.525      4.783
REMARK  1 active torsions:
REMARK  status: ('A' for Active; 'I' for Inactive)
REMARK    1  A    between atoms: C_7  and  N_10 
ROOT
HETATM    1  C   UNL     1     -43.031 -46.683  13.739  1.00  0.00     0.069 C 
HETATM    2  C   UNL     1     -42.520 -47.433  12.542  1.00  0.00     0.028 A 
HETATM    3  C   UNL     1     -43.023 -47.192  11.324  1.00  0.00     0.100 A 
HETATM    4  C   UNL     1     -42.485 -47.961  10.203  1.00  0.00     0.261 A 
HETATM    5  O   UNL     1     -42.853 -47.764   9.051  1.00  0.00    -0.268 OA
HETATM    6  N   UNL     1     -41.559 -48.901  10.536  1.00  0.00    -0.156 N 
HETATM    7  C   UNL     1     -41.085 -49.081  11.809  1.00  0.00     0.683 A 
HETATM    8  N   UNL     1     -41.535 -48.359  12.794  1.00  0.00    -0.196 N 
ATOM      9  HN  UNL     1     -41.164 -48.478  13.736  1.00  0.00     0.184 HD
HETATM   10  H   UNL     1     -41.152 -49.396   9.765  1.00  0.00     0.187 HD
ENDROOT
BRANCH   7  11
HETATM   11  N   UNL     1     -40.122 -50.048  11.999  1.00  0.00    -0.213 N 
HETATM   12  C   UNL     1     -40.382 -51.427  12.428  1.00  0.00     0.167 C 
HETATM   13  C   UNL     1     -39.330 -51.876  13.453  1.00  0.00     0.188 C 
HETATM   14  O   UNL     1     -37.996 -51.706  12.957  1.00  0.00    -0.388 OA
HETATM   15  C   UNL     1     -37.760 -50.321  12.648  1.00  0.00     0.188 C 
HETATM   16  C   UNL     1     -38.730 -49.823  11.573  1.00  0.00     0.167 C 
ENDBRANCH   7  11
TORSDOF 1
ENDMDL
MODEL 8
REMARK VINA RESULT:      -4.3      3.040      6.061
REMARK  1 active torsions:
REMARK  status: ('A' for Active; 'I' for Inactive)
REMARK    1  A    between atoms: C_7  and  N_10 
ROOT
HETATM    1  C   UNL     1     -37.740 -50.400  15.996  1.00  0.00     0.069 C 
HETATM    2  C   UNL     1     -38.146 -50.606  14.565  1.00  0.00     0.028 A 
HETATM    3  C   UNL     1     -37.501 -49.970  13.578  1.00  0.00     0.100 A 
HETATM    4  C   UNL     1     -37.951 -50.210  12.208  1.00  0.00     0.261 A 
HETATM    5  O   UNL     1     -37.382 -49.708  11.246  1.00  0.00    -0.268 OA
HETATM    6  N   UNL     1     -39.037 -51.021  12.088  1.00  0.00    -0.156 N 
HETATM    7  C   UNL     1     -39.638 -51.646  13.149  1.00  0.00     0.683 A 
HETATM    8  N   UNL     1     -39.202 -51.465  14.361  1.00  0.00    -0.196 N 
ATOM      9  HN  UNL     1     -39.634 -51.950  15.146  1.00  0.00     0.184 HD
HETATM   10  H   UNL     1     -39.317 -51.227  11.147  1.00  0.00     0.187 HD
ENDROOT
BRANCH   7  11
HETATM   11  N   UNL     1     -40.711 -52.468  12.879  1.00  0.00    -0.213 N 
HETATM   12  C   UNL     1     -41.863 -52.107  12.046  1.00  0.00     0.167 C 
HETATM   13  C   UNL     1     -43.165 -52.615  12.684  1.00  0.00     0.188 C 
HETATM   14  O   UNL     1     -43.112 -54.022  12.954  1.00  0.00    -0.388 OA
HETATM   15  C   UNL     1     -42.028 -54.308  13.856  1.00  0.00     0.188 C 
HETATM   16  C   UNL     1     -40.684 -53.893  13.251  1.00  0.00     0.167 C 
ENDBRANCH   7  11
TORSDOF 1
ENDMDL
MODEL 9
REMARK VINA RESULT:      -4.3      1.761      1.918
REMARK  1 active torsions:
REMARK  status: ('A' for Active; 'I' for Inactive)
REMARK    1  A    between atoms: C_7  and  N_10 
ROOT
HETATM    1  C   UNL     1     -45.125 -50.998  15.817  1.00  0.00     0.069 C 
HETATM    2  C   UNL     1     -44.570 -52.025  14.873  1.00  0.00     0.028 A 
HETATM    3  C   UNL     1     -45.322 -53.062  14.479  1.00  0.00     0.100 A 
HETATM    4  C   UNL     1     -44.718 -54.028  13.564  1.00  0.00     0.261 A 
HETATM    5  O   UNL     1     -45.354 -54.975  13.116  1.00  0.00    -0.268 OA
HETATM    6  N   UNL     1     -43.413 -53.799  13.255  1.00  0.00    -0.156 N 
HETATM    7  C   UNL     1     -42.712 -52.705  13.690  1.00  0.00     0.683 A 
HETATM    8  N   UNL     1     -43.271 -51.823  14.467  1.00  0.00    -0.196 N 
ATOM      9  HN  UNL     1     -42.756 -50.997  14.770  1.00  0.00     0.184 HD
HETATM   10  H   UNL     1     -43.011 -54.431  12.589  1.00  0.00     0.187 HD
ENDROOT
BRANCH   7  11
HETATM   11  N   UNL     1     -41.405 -52.579  13.273  1.00  0.00    -0.213 N 
HETATM   12  C   UNL     1     -40.265 -53.312  13.834  1.00  0.00     0.167 C 
HETATM   13  C   UNL     1     -39.051 -52.382  13.982  1.00  0.00     0.188 C 
HETATM   14  O   UNL     1     -38.722 -51.735  12.746  1.00  0.00    -0.388 OA
HETATM   15  C   UNL     1     -39.838 -50.949  12.292  1.00  0.00     0.188 C 
HETATM   16  C   UNL     1     -41.070 -51.826  12.052  1.00  0.00     0.167 C 
ENDBRANCH   7  11
TORSDOF 1
ENDMDL
