MODEL 1
REMARK VINA RESULT:      -6.1      0.000      0.000
REMARK  6 active torsions:
REMARK  status: ('A' for Active; 'I' for Inactive)
REMARK    1  A    between atoms: O_1  and  C_2 
REMARK    2  A    between atoms: C_2  and  C_3 
REMARK    3  A    between atoms: C_2  and  C_10 
REMARK    4  A    between atoms: C_3  and  N_4 
REMARK    5  A    between atoms: C_10  and  N_11 
REMARK    6  A    between atoms: C_12  and  C_21 
ROOT
HETATM    1  N   UNL     1     -41.934 -46.906  10.676  1.00  0.00    -0.325 N 
HETATM    2  C   UNL     1     -43.100 -46.339  10.195  1.00  0.00     0.194 A 
HETATM    3  N   UNL     1     -43.058 -45.019  10.349  1.00  0.00    -0.337 N 
ATOM      4  HN  UNL     1     -43.763 -44.344  10.052  1.00  0.00     0.167 HD
HETATM    5  C   UNL     1     -41.881 -44.747  10.986  1.00  0.00     0.060 A 
HETATM    6  C   UNL     1     -41.329 -43.508  11.342  1.00  0.00     0.032 A 
HETATM    7  C   UNL     1     -40.100 -43.484  12.012  1.00  0.00     0.002 A 
HETATM    8  C   UNL     1     -39.443 -44.670  12.337  1.00  0.00     0.002 A 
HETATM    9  C   UNL     1     -39.970 -45.915  11.972  1.00  0.00     0.032 A 
HETATM   10  C   UNL     1     -41.185 -45.915  11.272  1.00  0.00     0.063 A 
ENDROOT
BRANCH   1  11
HETATM   11  C   UNL     1     -41.478 -48.278  10.484  1.00  0.00     0.164 C 
BRANCH  11  12
HETATM   12  C   UNL     1     -41.585 -49.101  11.779  1.00  0.00     0.164 C 
BRANCH  12  13
HETATM   13  O   UNL     1     -42.778 -49.883  11.748  1.00  0.00    -0.392 OA
HETATM   14  H   UNL     1     -42.656 -50.547  11.043  1.00  0.00     0.210 HD
ENDBRANCH  12  13
BRANCH  12  15
HETATM   15  C   UNL     1     -40.355 -50.019  11.925  1.00  0.00     0.305 C 
BRANCH  15  16
HETATM   16  N   UNL     1     -39.229 -49.441  12.695  1.00  0.00     0.095 N 
HETATM   17  C   UNL     1     -37.980 -49.288  11.915  1.00  0.00     0.298 C 
HETATM   18  C   UNL     1     -37.335 -50.624  11.512  1.00  0.00     0.198 C 
HETATM   19  O   UNL     1     -37.067 -51.444  12.657  1.00  0.00    -0.388 OA
HETATM   20  C   UNL     1     -38.243 -51.652  13.448  1.00  0.00     0.198 C 
HETATM   21  C   UNL     1     -38.901 -50.318  13.853  1.00  0.00     0.298 C 
ENDBRANCH  15  16
ENDBRANCH  12  15
ENDBRANCH  11  12
ENDBRANCH   1  11
BRANCH   2  22
HETATM   22  C   UNL     1     -44.210 -47.102   9.535  1.00  0.00     0.449 C 
HETATM   23  F   UNL     1     -43.792 -47.841   8.469  1.00  0.00    -0.163 F 
HETATM   24  F   UNL     1     -44.814 -47.976  10.380  1.00  0.00    -0.163 F 
HETATM   25  F   UNL     1     -45.178 -46.280   9.049  1.00  0.00    -0.163 F 
ENDBRANCH   2  22
TORSDOF 6
ENDMDL
MODEL 2
REMARK VINA RESULT:      -6.0      4.182      5.794
REMARK  6 active torsions:
REMARK  status: ('A' for Active; 'I' for Inactive)
REMARK    1  A    between atoms: O_1  and  C_2 
REMARK    2  A    between atoms: C_2  and  C_3 
REMARK    3  A    between atoms: C_2  and  C_10 
REMARK    4  A    between atoms: C_3  and  N_4 
REMARK    5  A    between atoms: C_10  and  N_11 
REMARK    6  A    between atoms: C_12  and  C_21 
ROOT
HETATM    1  N   UNL     1     -40.595 -49.571  12.112  1.00  0.00    -0.325 N 
HETATM    2  C   UNL     1     -39.335 -49.132  11.747  1.00  0.00     0.194 A 
HETATM    3  N   UNL     1     -39.423 -47.935  11.175  1.00  0.00    -0.337 N 
ATOM      4  HN  UNL     1     -38.651 -47.356  10.842  1.00  0.00     0.167 HD
HETATM    5  C   UNL     1     -40.754 -47.635  11.121  1.00  0.00     0.060 A 
HETATM    6  C   UNL     1     -41.384 -46.471  10.655  1.00  0.00     0.032 A 
HETATM    7  C   UNL     1     -42.782 -46.402  10.688  1.00  0.00     0.002 A 
HETATM    8  C   UNL     1     -43.537 -47.476  11.157  1.00  0.00     0.002 A 
HETATM    9  C   UNL     1     -42.924 -48.636  11.643  1.00  0.00     0.032 A 
HETATM   10  C   UNL     1     -41.522 -48.672  11.634  1.00  0.00     0.063 A 
ENDROOT
BRANCH   1  11
HETATM   11  C   UNL     1     -40.916 -50.707  12.968  1.00  0.00     0.164 C 
BRANCH  11  12
HETATM   12  C   UNL     1     -41.790 -51.742  12.239  1.00  0.00     0.164 C 
BRANCH  12  13
HETATM   13  O   UNL     1     -41.062 -52.289  11.141  1.00  0.00    -0.392 OA
HETATM   14  H   UNL     1     -40.636 -51.536  10.687  1.00  0.00     0.210 HD
ENDBRANCH  12  13
BRANCH  12  15
HETATM   15  C   UNL     1     -42.202 -52.866  13.212  1.00  0.00     0.305 C 
BRANCH  15  16
HETATM   16  N   UNL     1     -43.324 -52.530  14.119  1.00  0.00     0.095 N 
HETATM   17  C   UNL     1     -43.857 -53.688  14.873  1.00  0.00     0.298 C 
HETATM   18  C   UNL     1     -44.564 -54.729  13.990  1.00  0.00     0.198 C 
HETATM   19  O   UNL     1     -45.630 -54.139  13.235  1.00  0.00    -0.388 OA
HETATM   20  C   UNL     1     -45.178 -53.022  12.461  1.00  0.00     0.198 C 
HETATM   21  C   UNL     1     -44.462 -51.974  13.337  1.00  0.00     0.298 C 
ENDBRANCH  15  16
ENDBRANCH  12  15
ENDBRANCH  11  12
ENDBRANCH   1  11
BRANCH   2  22
HETATM   22  C   UNL     1     -38.060 -49.871  12.026  1.00  0.00     0.449 C 
HETATM   23  F   UNL     1     -37.533 -49.588  13.250  1.00  0.00    -0.163 F 
HETATM   24  F   UNL     1     -38.224 -51.219  11.994  1.00  0.00    -0.163 F 
HETATM   25  F   UNL     1     -37.084 -49.565  11.130  1.00  0.00    -0.163 F 
ENDBRANCH   2  22
TORSDOF 6
ENDMDL
MODEL 3
REMARK VINA RESULT:      -5.9      5.221      8.117
REMARK  6 active torsions:
REMARK  status: ('A' for Active; 'I' for Inactive)
REMARK    1  A    between atoms: O_1  and  C_2 
REMARK    2  A    between atoms: C_2  and  C_3 
REMARK    3  A    between atoms: C_2  and  C_10 
REMARK    4  A    between atoms: C_3  and  N_4 
REMARK    5  A    between atoms: C_10  and  N_11 
REMARK    6  A    between atoms: C_12  and  C_21 
ROOT
HETATM    1  N   UNL     1     -41.591 -53.577  13.244  1.00  0.00    -0.325 N 
HETATM    2  C   UNL     1     -41.138 -54.313  14.324  1.00  0.00     0.194 A 
HETATM    3  N   UNL     1     -42.168 -54.860  14.962  1.00  0.00    -0.337 N 
ATOM      4  HN  UNL     1     -42.129 -55.482  15.770  1.00  0.00     0.167 HD
HETATM    5  C   UNL     1     -43.290 -54.423  14.318  1.00  0.00     0.060 A 
HETATM    6  C   UNL     1     -44.634 -54.743  14.561  1.00  0.00     0.032 A 
HETATM    7  C   UNL     1     -45.623 -54.148  13.767  1.00  0.00     0.002 A 
HETATM    8  C   UNL     1     -45.281 -53.240  12.766  1.00  0.00     0.002 A 
HETATM    9  C   UNL     1     -43.944 -52.926  12.498  1.00  0.00     0.032 A 
HETATM   10  C   UNL     1     -42.968 -53.558  13.281  1.00  0.00     0.063 A 
ENDROOT
BRANCH   1  11
HETATM   11  C   UNL     1     -40.790 -53.022  12.160  1.00  0.00     0.164 C 
BRANCH  11  12
HETATM   12  C   UNL     1     -40.292 -51.604  12.487  1.00  0.00     0.164 C 
BRANCH  12  13
HETATM   13  O   UNL     1     -38.890 -51.521  12.231  1.00  0.00    -0.392 OA
HETATM   14  H   UNL     1     -38.730 -52.015  11.404  1.00  0.00     0.210 HD
ENDBRANCH  12  13
BRANCH  12  15
HETATM   15  C   UNL     1     -41.047 -50.567  11.631  1.00  0.00     0.305 C 
BRANCH  15  16
HETATM   16  N   UNL     1     -41.608 -49.421  12.384  1.00  0.00     0.095 N 
HETATM   17  C   UNL     1     -42.536 -48.578  11.596  1.00  0.00     0.298 C 
HETATM   18  C   UNL     1     -41.854 -47.806  10.455  1.00  0.00     0.198 C 
HETATM   19  O   UNL     1     -40.786 -46.984  10.943  1.00  0.00    -0.388 OA
HETATM   20  C   UNL     1     -39.834 -47.743  11.698  1.00  0.00     0.198 C 
HETATM   21  C   UNL     1     -40.509 -48.526  12.842  1.00  0.00     0.298 C 
ENDBRANCH  15  16
ENDBRANCH  12  15
ENDBRANCH  11  12
ENDBRANCH   1  11
BRANCH   2  22
HETATM   22  C   UNL     1     -39.693 -54.514  14.672  1.00  0.00     0.449 C 
HETATM   23  F   UNL     1     -39.509 -55.324  15.753  1.00  0.00    -0.163 F 
HETATM   24  F   UNL     1     -38.989 -55.081  13.658  1.00  0.00    -0.163 F 
HETATM   25  F   UNL     1     -39.074 -53.344  14.985  1.00  0.00    -0.163 F 
ENDBRANCH   2  22
TORSDOF 6
ENDMDL
MODEL 4
REMARK VINA RESULT:      -5.9      4.986      7.238
REMARK  6 active torsions:
REMARK  status: ('A' for Active; 'I' for Inactive)
REMARK    1  A    between atoms: O_1  and  C_2 
REMARK    2  A    between atoms: C_2  and  C_3 
REMARK    3  A    between atoms: C_2  and  C_10 
REMARK    4  A    between atoms: C_3  and  N_4 
REMARK    5  A    between atoms: C_10  and  N_11 
REMARK    6  A    between atoms: C_12  and  C_21 
ROOT
HETATM    1  N   UNL     1     -40.567 -51.733  12.816  1.00  0.00    -0.325 N 
HETATM    2  C   UNL     1     -39.948 -52.746  13.527  1.00  0.00     0.194 A 
HETATM    3  N   UNL     1     -38.826 -52.291  14.076  1.00  0.00    -0.337 N 
ATOM      4  HN  UNL     1     -38.188 -52.807  14.683  1.00  0.00     0.167 HD
HETATM    5  C   UNL     1     -38.697 -50.996  13.665  1.00  0.00     0.060 A 
HETATM    6  C   UNL     1     -37.715 -50.052  13.997  1.00  0.00     0.032 A 
HETATM    7  C   UNL     1     -37.788 -48.774  13.430  1.00  0.00     0.002 A 
HETATM    8  C   UNL     1     -38.807 -48.449  12.535  1.00  0.00     0.002 A 
HETATM    9  C   UNL     1     -39.806 -49.373  12.209  1.00  0.00     0.032 A 
HETATM   10  C   UNL     1     -39.734 -50.636  12.814  1.00  0.00     0.063 A 
ENDROOT
BRANCH   1  11
HETATM   11  C   UNL     1     -41.919 -51.741  12.270  1.00  0.00     0.164 C 
BRANCH  11  12
HETATM   12  C   UNL     1     -42.912 -51.013  13.193  1.00  0.00     0.164 C 
BRANCH  12  13
HETATM   13  O   UNL     1     -43.644 -50.050  12.437  1.00  0.00    -0.392 OA
HETATM   14  H   UNL     1     -44.141 -50.547  11.760  1.00  0.00     0.210 HD
ENDBRANCH  12  13
BRANCH  12  15
HETATM   15  C   UNL     1     -43.879 -52.029  13.833  1.00  0.00     0.305 C 
BRANCH  15  16
HETATM   16  N   UNL     1     -44.794 -52.707  12.887  1.00  0.00     0.095 N 
HETATM   17  C   UNL     1     -46.229 -52.557  13.221  1.00  0.00     0.298 C 
HETATM   18  C   UNL     1     -46.642 -53.279  14.514  1.00  0.00     0.198 C 
HETATM   19  O   UNL     1     -46.325 -54.675  14.459  1.00  0.00    -0.388 OA
HETATM   20  C   UNL     1     -44.941 -54.895  14.161  1.00  0.00     0.198 C 
HETATM   21  C   UNL     1     -44.515 -54.170  12.868  1.00  0.00     0.298 C 
ENDBRANCH  15  16
ENDBRANCH  12  15
ENDBRANCH  11  12
ENDBRANCH   1  11
BRANCH   2  22
HETATM   22  C   UNL     1     -40.506 -54.127  13.703  1.00  0.00     0.449 C 
HETATM   23  F   UNL     1     -39.591 -55.019  14.176  1.00  0.00    -0.163 F 
HETATM   24  F   UNL     1     -41.544 -54.159  14.579  1.00  0.00    -0.163 F 
HETATM   25  F   UNL     1     -40.953 -54.652  12.531  1.00  0.00    -0.163 F 
ENDBRANCH   2  22
TORSDOF 6
ENDMDL
MODEL 5
REMARK VINA RESULT:      -5.7      5.300      7.496
REMARK  6 active torsions:
REMARK  status: ('A' for Active; 'I' for Inactive)
REMARK    1  A    between atoms: O_1  and  C_2 
REMARK    2  A    between atoms: C_2  and  C_3 
REMARK    3  A    between atoms: C_2  and  C_10 
REMARK    4  A    between atoms: C_3  and  N_4 
REMARK    5  A    between atoms: C_10  and  N_11 
REMARK    6  A    between atoms: C_12  and  C_21 
ROOT
HETATM    1  N   UNL     1     -43.144 -53.123  14.106  1.00  0.00    -0.325 N 
HETATM    2  C   UNL     1     -42.746 -53.256  15.424  1.00  0.00     0.194 A 
HETATM    3  N   UNL     1     -43.713 -52.833  16.233  1.00  0.00    -0.337 N 
ATOM      4  HN  UNL     1     -43.710 -52.850  17.253  1.00  0.00     0.167 HD
HETATM    5  C   UNL     1     -44.712 -52.372  15.424  1.00  0.00     0.060 A 
HETATM    6  C   UNL     1     -45.971 -51.862  15.771  1.00  0.00     0.032 A 
HETATM    7  C   UNL     1     -46.829 -51.432  14.751  1.00  0.00     0.002 A 
HETATM    8  C   UNL     1     -46.433 -51.490  13.416  1.00  0.00     0.002 A 
HETATM    9  C   UNL     1     -45.187 -52.014  13.051  1.00  0.00     0.032 A 
HETATM   10  C   UNL     1     -44.357 -52.471  14.085  1.00  0.00     0.063 A 
ENDROOT
BRANCH   1  11
HETATM   11  C   UNL     1     -42.490 -53.681  12.929  1.00  0.00     0.164 C 
BRANCH  11  12
HETATM   12  C   UNL     1     -41.234 -52.883  12.541  1.00  0.00     0.164 C 
BRANCH  12  13
HETATM   13  O   UNL     1     -40.625 -53.480  11.397  1.00  0.00    -0.392 OA
HETATM   14  H   UNL     1     -41.197 -53.266  10.635  1.00  0.00     0.210 HD
ENDBRANCH  12  13
BRANCH  12  15
HETATM   15  C   UNL     1     -41.611 -51.419  12.235  1.00  0.00     0.305 C 
BRANCH  15  16
HETATM   16  N   UNL     1     -41.070 -50.420  13.186  1.00  0.00     0.095 N 
HETATM   17  C   UNL     1     -41.295 -49.015  12.778  1.00  0.00     0.298 C 
HETATM   18  C   UNL     1     -40.510 -48.602  11.522  1.00  0.00     0.198 C 
HETATM   19  O   UNL     1     -39.103 -48.814  11.691  1.00  0.00    -0.388 OA
HETATM   20  C   UNL     1     -38.810 -50.165  12.065  1.00  0.00     0.198 C 
HETATM   21  C   UNL     1     -39.597 -50.591  13.321  1.00  0.00     0.298 C 
ENDBRANCH  15  16
ENDBRANCH  12  15
ENDBRANCH  11  12
ENDBRANCH   1  11
BRANCH   2  22
HETATM   22  C   UNL     1     -41.444 -53.858  15.865  1.00  0.00     0.449 C 
HETATM   23  F   UNL     1     -41.212 -55.088  15.326  1.00  0.00    -0.163 F 
HETATM   24  F   UNL     1     -40.376 -53.093  15.520  1.00  0.00    -0.163 F 
HETATM   25  F   UNL     1     -41.392 -54.036  17.212  1.00  0.00    -0.163 F 
ENDBRANCH   2  22
TORSDOF 6
ENDMDL
MODEL 6
REMARK VINA RESULT:      -5.6      4.624      7.136
REMARK  6 active torsions:
REMARK  status: ('A' for Active; 'I' for Inactive)
REMARK    1  A    between atoms: O_1  and  C_2 
REMARK    2  A    between atoms: C_2  and  C_3 
REMARK    3  A    between atoms: C_2  and  C_10 
REMARK    4  A    between atoms: C_3  and  N_4 
REMARK    5  A    between atoms: C_10  and  N_11 
REMARK    6  A    between atoms: C_12  and  C_21 
ROOT
HETATM    1  N   UNL     1     -43.736 -53.204  13.639  1.00  0.00    -0.325 N 
HETATM    2  C   UNL     1     -44.827 -52.475  14.077  1.00  0.00     0.194 A 
HETATM    3  N   UNL     1     -44.995 -52.655  15.383  1.00  0.00    -0.337 N 
ATOM      4  HN  UNL     1     -45.697 -52.213  15.978  1.00  0.00     0.167 HD
HETATM    5  C   UNL     1     -44.040 -53.551  15.771  1.00  0.00     0.060 A 
HETATM    6  C   UNL     1     -43.751 -54.043  17.052  1.00  0.00     0.032 A 
HETATM    7  C   UNL     1     -42.720 -54.979  17.199  1.00  0.00     0.002 A 
HETATM    8  C   UNL     1     -42.004 -55.429  16.091  1.00  0.00     0.002 A 
HETATM    9  C   UNL     1     -42.266 -54.933  14.808  1.00  0.00     0.032 A 
HETATM   10  C   UNL     1     -43.279 -53.971  14.687  1.00  0.00     0.063 A 
ENDROOT
BRANCH   1  11
HETATM   11  C   UNL     1     -43.072 -53.102  12.344  1.00  0.00     0.164 C 
BRANCH  11  12
HETATM   12  C   UNL     1     -41.641 -52.553  12.478  1.00  0.00     0.164 C 
BRANCH  12  13
HETATM   13  O   UNL     1     -40.780 -53.246  11.577  1.00  0.00    -0.392 OA
HETATM   14  H   UNL     1     -41.356 -53.676  10.917  1.00  0.00     0.210 HD
ENDBRANCH  12  13
BRANCH  12  15
HETATM   15  C   UNL     1     -41.623 -51.042  12.170  1.00  0.00     0.305 C 
BRANCH  15  16
HETATM   16  N   UNL     1     -40.968 -50.200  13.197  1.00  0.00     0.095 N 
HETATM   17  C   UNL     1     -41.003 -48.749  12.900  1.00  0.00     0.298 C 
HETATM   18  C   UNL     1     -40.155 -48.347  11.682  1.00  0.00     0.198 C 
HETATM   19  O   UNL     1     -38.790 -48.754  11.837  1.00  0.00    -0.388 OA
HETATM   20  C   UNL     1     -38.680 -50.156  12.104  1.00  0.00     0.198 C 
HETATM   21  C   UNL     1     -39.532 -50.572  13.321  1.00  0.00     0.298 C 
ENDBRANCH  15  16
ENDBRANCH  12  15
ENDBRANCH  11  12
ENDBRANCH   1  11
BRANCH   2  22
HETATM   22  C   UNL     1     -45.647 -51.565  13.211  1.00  0.00     0.449 C 
HETATM   23  F   UNL     1     -46.737 -51.055  13.851  1.00  0.00    -0.163 F 
HETATM   24  F   UNL     1     -44.940 -50.494  12.768  1.00  0.00    -0.163 F 
HETATM   25  F   UNL     1     -46.136 -52.205  12.115  1.00  0.00    -0.163 F 
ENDBRANCH   2  22
TORSDOF 6
ENDMDL
MODEL 7
REMARK VINA RESULT:      -5.6      3.475      5.446
REMARK  6 active torsions:
REMARK  status: ('A' for Active; 'I' for Inactive)
REMARK    1  A    between atoms: O_1  and  C_2 
REMARK    2  A    between atoms: C_2  and  C_3 
REMARK    3  A    between atoms: C_2  and  C_10 
REMARK    4  A    between atoms: C_3  and  N_4 
REMARK    5  A    between atoms: C_10  and  N_11 
REMARK    6  A    between atoms: C_12  and  C_21 
ROOT
HETATM    1  N   UNL     1     -40.997 -49.334  12.859  1.00  0.00    -0.325 N 
HETATM    2  C   UNL     1     -41.019 -48.363  11.873  1.00  0.00     0.194 A 
HETATM    3  N   UNL     1     -39.877 -48.384  11.194  1.00  0.00    -0.337 N 
ATOM      4  HN  UNL     1     -39.632 -47.806  10.389  1.00  0.00     0.167 HD
HETATM    5  C   UNL     1     -39.097 -49.335  11.787  1.00  0.00     0.060 A 
HETATM    6  C   UNL     1     -37.818 -49.784  11.429  1.00  0.00     0.032 A 
HETATM    7  C   UNL     1     -37.206 -50.771  12.212  1.00  0.00     0.002 A 
HETATM    8  C   UNL     1     -37.847 -51.286  13.337  1.00  0.00     0.002 A 
HETATM    9  C   UNL     1     -39.133 -50.863  13.697  1.00  0.00     0.032 A 
HETATM   10  C   UNL     1     -39.741 -49.899  12.881  1.00  0.00     0.063 A 
ENDROOT
BRANCH   1  11
HETATM   11  C   UNL     1     -42.123 -49.800  13.660  1.00  0.00     0.164 C 
BRANCH  11  12
HETATM   12  C   UNL     1     -42.895 -50.929  12.957  1.00  0.00     0.164 C 
BRANCH  12  13
HETATM   13  O   UNL     1     -42.229 -51.276  11.743  1.00  0.00    -0.392 OA
HETATM   14  H   UNL     1     -42.607 -50.708  11.046  1.00  0.00     0.210 HD
ENDBRANCH  12  13
BRANCH  12  15
HETATM   15  C   UNL     1     -42.989 -52.161  13.879  1.00  0.00     0.305 C 
BRANCH  15  16
HETATM   16  N   UNL     1     -42.827 -53.467  13.201  1.00  0.00     0.095 N 
HETATM   17  C   UNL     1     -44.095 -54.056  12.714  1.00  0.00     0.298 C 
HETATM   18  C   UNL     1     -45.050 -54.486  13.840  1.00  0.00     0.198 C 
HETATM   19  O   UNL     1     -44.422 -55.416  14.732  1.00  0.00    -0.388 OA
HETATM   20  C   UNL     1     -43.196 -54.899  15.261  1.00  0.00     0.198 C 
HETATM   21  C   UNL     1     -42.233 -54.459  14.139  1.00  0.00     0.298 C 
ENDBRANCH  15  16
ENDBRANCH  12  15
ENDBRANCH  11  12
ENDBRANCH   1  11
BRANCH   2  22
HETATM   22  C   UNL     1     -42.192 -47.475  11.579  1.00  0.00     0.449 C 
HETATM   23  F   UNL     1     -42.662 -46.825  12.681  1.00  0.00    -0.163 F 
HETATM   24  F   UNL     1     -41.895 -46.507  10.674  1.00  0.00    -0.163 F 
HETATM   25  F   UNL     1     -43.252 -48.172  11.088  1.00  0.00    -0.163 F 
ENDBRANCH   2  22
TORSDOF 6
ENDMDL
MODEL 8
REMARK VINA RESULT:      -5.5      4.753      7.816
REMARK  6 active torsions:
REMARK  status: ('A' for Active; 'I' for Inactive)
REMARK    1  A    between atoms: O_1  and  C_2 
REMARK    2  A    between atoms: C_2  and  C_3 
REMARK    3  A    between atoms: C_2  and  C_10 
REMARK    4  A    between atoms: C_3  and  N_4 
REMARK    5  A    between atoms: C_10  and  N_11 
REMARK    6  A    between atoms: C_12  and  C_21 
ROOT
HETATM    1  N   UNL     1     -42.380 -53.703  14.386  1.00  0.00    -0.325 N 
HETATM    2  C   UNL     1     -43.407 -54.630  14.393  1.00  0.00     0.194 A 
HETATM    3  N   UNL     1     -43.146 -55.586  15.279  1.00  0.00    -0.337 N 
ATOM      4  HN  UNL     1     -43.744 -56.377  15.522  1.00  0.00     0.167 HD
HETATM    5  C   UNL     1     -41.916 -55.299  15.799  1.00  0.00     0.060 A 
HETATM    6  C   UNL     1     -41.199 -55.965  16.804  1.00  0.00     0.032 A 
HETATM    7  C   UNL     1     -39.933 -55.484  17.160  1.00  0.00     0.002 A 
HETATM    8  C   UNL     1     -39.385 -54.375  16.517  1.00  0.00     0.002 A 
HETATM    9  C   UNL     1     -40.096 -53.688  15.526  1.00  0.00     0.032 A 
HETATM   10  C   UNL     1     -41.376 -54.165  15.207  1.00  0.00     0.063 A 
ENDROOT
BRANCH   1  11
HETATM   11  C   UNL     1     -42.382 -52.393  13.745  1.00  0.00     0.164 C 
BRANCH  11  12
HETATM   12  C   UNL     1     -41.460 -52.359  12.514  1.00  0.00     0.164 C 
BRANCH  12  13
HETATM   13  O   UNL     1     -42.227 -52.616  11.339  1.00  0.00    -0.392 OA
HETATM   14  H   UNL     1     -42.625 -51.765  11.076  1.00  0.00     0.210 HD
ENDBRANCH  12  13
BRANCH  12  15
HETATM   15  C   UNL     1     -40.772 -50.984  12.407  1.00  0.00     0.305 C 
BRANCH  15  16
HETATM   16  N   UNL     1     -39.867 -50.645  13.529  1.00  0.00     0.095 N 
HETATM   17  C   UNL     1     -39.646 -49.192  13.710  1.00  0.00     0.298 C 
HETATM   18  C   UNL     1     -38.859 -48.539  12.561  1.00  0.00     0.198 C 
HETATM   19  O   UNL     1     -37.591 -49.178  12.365  1.00  0.00    -0.388 OA
HETATM   20  C   UNL     1     -37.733 -50.588  12.160  1.00  0.00     0.198 C 
HETATM   21  C   UNL     1     -38.526 -51.252  13.305  1.00  0.00     0.298 C 
ENDBRANCH  15  16
ENDBRANCH  12  15
ENDBRANCH  11  12
ENDBRANCH   1  11
BRANCH   2  22
HETATM   22  C   UNL     1     -44.657 -54.523  13.572  1.00  0.00     0.449 C 
HETATM   23  F   UNL     1     -45.431 -53.453  13.910  1.00  0.00    -0.163 F 
HETATM   24  F   UNL     1     -44.398 -54.390  12.245  1.00  0.00    -0.163 F 
HETATM   25  F   UNL     1     -45.460 -55.611  13.717  1.00  0.00    -0.163 F 
ENDBRANCH   2  22
TORSDOF 6
ENDMDL
MODEL 9
REMARK VINA RESULT:      -5.4      3.196      5.088
REMARK  6 active torsions:
REMARK  status: ('A' for Active; 'I' for Inactive)
REMARK    1  A    between atoms: O_1  and  C_2 
REMARK    2  A    between atoms: C_2  and  C_3 
REMARK    3  A    between atoms: C_2  and  C_10 
REMARK    4  A    between atoms: C_3  and  N_4 
REMARK    5  A    between atoms: C_10  and  N_11 
REMARK    6  A    between atoms: C_12  and  C_21 
ROOT
HETATM    1  N   UNL     1     -38.719 -48.425  12.932  1.00  0.00    -0.325 N 
HETATM    2  C   UNL     1     -39.187 -47.137  13.123  1.00  0.00     0.194 A 
HETATM    3  N   UNL     1     -38.706 -46.646  14.260  1.00  0.00    -0.337 N 
ATOM      4  HN  UNL     1     -38.855 -45.708  14.635  1.00  0.00     0.167 HD
HETATM    5  C   UNL     1     -37.973 -47.648  14.829  1.00  0.00     0.060 A 
HETATM    6  C   UNL     1     -37.219 -47.636  16.011  1.00  0.00     0.032 A 
HETATM    7  C   UNL     1     -36.558 -48.806  16.402  1.00  0.00     0.002 A 
HETATM    8  C   UNL     1     -36.662 -49.970  15.641  1.00  0.00     0.002 A 
HETATM    9  C   UNL     1     -37.394 -49.994  14.449  1.00  0.00     0.032 A 
HETATM   10  C   UNL     1     -38.021 -48.802  14.058  1.00  0.00     0.063 A 
ENDROOT
BRANCH   1  11
HETATM   11  C   UNL     1     -38.810 -49.223  11.715  1.00  0.00     0.164 C 
BRANCH  11  12
HETATM   12  C   UNL     1     -40.161 -49.950  11.609  1.00  0.00     0.164 C 
BRANCH  12  13
HETATM   13  O   UNL     1     -40.558 -50.019  10.240  1.00  0.00    -0.392 OA
HETATM   14  H   UNL     1     -40.617 -49.098   9.922  1.00  0.00     0.210 HD
ENDBRANCH  12  13
BRANCH  12  15
HETATM   15  C   UNL     1     -40.045 -51.371  12.198  1.00  0.00     0.305 C 
BRANCH  15  16
HETATM   16  N   UNL     1     -40.772 -51.584  13.470  1.00  0.00     0.095 N 
HETATM   17  C   UNL     1     -40.534 -52.909  14.087  1.00  0.00     0.298 C 
HETATM   18  C   UNL     1     -41.115 -54.081  13.279  1.00  0.00     0.198 C 
HETATM   19  O   UNL     1     -42.522 -53.920  13.060  1.00  0.00    -0.388 OA
HETATM   20  C   UNL     1     -42.823 -52.664  12.442  1.00  0.00     0.198 C 
HETATM   21  C   UNL     1     -42.240 -51.481  13.242  1.00  0.00     0.298 C 
ENDBRANCH  15  16
ENDBRANCH  12  15
ENDBRANCH  11  12
ENDBRANCH   1  11
BRANCH   2  22
HETATM   22  C   UNL     1     -40.050 -46.392  12.148  1.00  0.00     0.449 C 
HETATM   23  F   UNL     1     -39.552 -46.396  10.879  1.00  0.00    -0.163 F 
HETATM   24  F   UNL     1     -41.301 -46.911  12.059  1.00  0.00    -0.163 F 
HETATM   25  F   UNL     1     -40.182 -45.080  12.481  1.00  0.00    -0.163 F 
ENDBRANCH   2  22
TORSDOF 6
ENDMDL
