MODEL 1
REMARK VINA RESULT:      -6.2      0.000      0.000
REMARK  5 active torsions:
REMARK  status: ('A' for Active; 'I' for Inactive)
REMARK    1  A    between atoms: C_2  and  C_3 
REMARK    2  A    between atoms: C_2  and  N_10 
REMARK    3  A    between atoms: C_3  and  N_4 
REMARK       I    between atoms: N_10  and  C_11 
REMARK       I    between atoms: C_11  and  N_13 
REMARK    4  A    between atoms: N_13  and  C_14 
REMARK    5  A    between atoms: C_14  and  C_15 
ROOT
HETATM    1  N   UNL     1     -41.684 -48.206   9.789  1.00  0.00    -0.337 N 
HETATM    2  C   UNL     1     -41.438 -48.920  10.936  1.00  0.00     0.316 C 
HETATM    3  O   UNL     1     -42.032 -48.754  11.992  1.00  0.00    -0.247 OA
HETATM    4  N   UNL     1     -40.459 -49.860  10.736  1.00  0.00    -0.343 N 
HETATM    5  H   UNL     1     -41.519 -48.742   8.940  1.00  0.00     0.164 HD
HETATM    6  H   UNL     1     -39.764 -49.590  10.054  1.00  0.00     0.164 HD
ENDROOT
BRANCH   1   7
HETATM    7  C   UNL     1     -42.796 -47.254   9.743  1.00  0.00     0.102 C 
HETATM    8  C   UNL     1     -42.291 -45.856  10.104  1.00  0.00     0.034 C 
BRANCH   7   9
HETATM    9  C   UNL     1     -43.479 -47.222   8.368  1.00  0.00     0.172 C 
BRANCH   9  10
HETATM   10  N   UNL     1     -44.823 -47.769   8.416  1.00  0.00    -0.302 N 
HETATM   11  C   UNL     1     -45.764 -47.554   9.380  1.00  0.00     0.111 A 
HETATM   12  C   UNL     1     -46.864 -48.292   9.005  1.00  0.00     0.037 A 
HETATM   13  C   UNL     1     -46.483 -48.913   7.801  1.00  0.00     0.108 A 
HETATM   14  N   UNL     1     -45.234 -48.604   7.440  1.00  0.00    -0.310 N 
ATOM     15  HN  UNL     1     -44.716 -48.924   6.622  1.00  0.00     0.186 HD
ENDBRANCH   9  10
ENDBRANCH   7   9
ENDBRANCH   1   7
BRANCH   4  16
HETATM   16  C   UNL     1     -40.026 -50.695  11.838  1.00  0.00     0.131 C 
BRANCH  16  17
HETATM   17  C   UNL     1     -38.655 -50.289  12.363  1.00  0.00     0.029 C 
HETATM   18  C   UNL     1     -38.060 -51.248  13.384  1.00  0.00     0.034 C 
HETATM   19  C   UNL     1     -37.313 -50.353  14.358  1.00  0.00     0.168 C 
HETATM   20  O   UNL     1     -37.539 -48.995  13.962  1.00  0.00    -0.391 OA
HETATM   21  C   UNL     1     -38.703 -48.983  13.133  1.00  0.00     0.173 C 
ENDBRANCH  16  17
ENDBRANCH   4  16
TORSDOF 5
ENDMDL
MODEL 2
REMARK VINA RESULT:      -5.9      2.135      3.020
REMARK  5 active torsions:
REMARK  status: ('A' for Active; 'I' for Inactive)
REMARK    1  A    between atoms: C_2  and  C_3 
REMARK    2  A    between atoms: C_2  and  N_10 
REMARK    3  A    between atoms: C_3  and  N_4 
REMARK       I    between atoms: N_10  and  C_11 
REMARK       I    between atoms: C_11  and  N_13 
REMARK    4  A    between atoms: N_13  and  C_14 
REMARK    5  A    between atoms: C_14  and  C_15 
ROOT
HETATM    1  N   UNL     1     -41.781 -48.171   9.950  1.00  0.00    -0.337 N 
HETATM    2  C   UNL     1     -41.512 -48.862  11.107  1.00  0.00     0.316 C 
HETATM    3  O   UNL     1     -41.780 -48.458  12.229  1.00  0.00    -0.247 OA
HETATM    4  N   UNL     1     -40.929 -50.074  10.836  1.00  0.00    -0.343 N 
HETATM    5  H   UNL     1     -41.976 -48.776   9.158  1.00  0.00     0.164 HD
HETATM    6  H   UNL     1     -40.355 -50.077  10.005  1.00  0.00     0.164 HD
ENDROOT
BRANCH   1   7
HETATM    7  C   UNL     1     -42.538 -46.918  10.005  1.00  0.00     0.102 C 
HETATM    8  C   UNL     1     -41.592 -45.759  10.322  1.00  0.00     0.034 C 
BRANCH   7   9
HETATM    9  C   UNL     1     -43.290 -46.634   8.698  1.00  0.00     0.172 C 
BRANCH   9  10
HETATM   10  N   UNL     1     -44.659 -47.116   8.742  1.00  0.00    -0.302 N 
HETATM   11  C   UNL     1     -45.147 -48.260   8.181  1.00  0.00     0.111 A 
HETATM   12  C   UNL     1     -46.492 -48.278   8.471  1.00  0.00     0.037 A 
HETATM   13  C   UNL     1     -46.714 -47.103   9.211  1.00  0.00     0.108 A 
HETATM   14  N   UNL     1     -45.600 -46.383   9.373  1.00  0.00    -0.310 N 
ATOM     15  HN  UNL     1     -45.488 -45.493   9.858  1.00  0.00     0.186 HD
ENDBRANCH   9  10
ENDBRANCH   7   9
ENDBRANCH   1   7
BRANCH   4  16
HETATM   16  C   UNL     1     -40.532 -50.942  11.926  1.00  0.00     0.131 C 
BRANCH  16  17
HETATM   17  C   UNL     1     -41.244 -52.288  11.879  1.00  0.00     0.029 C 
HETATM   18  C   UNL     1     -42.665 -52.273  12.423  1.00  0.00     0.034 C 
HETATM   19  C   UNL     1     -42.828 -53.620  13.104  1.00  0.00     0.168 C 
HETATM   20  O   UNL     1     -41.572 -54.304  13.021  1.00  0.00    -0.391 OA
HETATM   21  C   UNL     1     -40.569 -53.321  12.763  1.00  0.00     0.173 C 
ENDBRANCH  16  17
ENDBRANCH   4  16
TORSDOF 5
ENDMDL
MODEL 3
REMARK VINA RESULT:      -5.8      4.035      5.962
REMARK  5 active torsions:
REMARK  status: ('A' for Active; 'I' for Inactive)
REMARK    1  A    between atoms: C_2  and  C_3 
REMARK    2  A    between atoms: C_2  and  N_10 
REMARK    3  A    between atoms: C_3  and  N_4 
REMARK       I    between atoms: N_10  and  C_11 
REMARK       I    between atoms: C_11  and  N_13 
REMARK    4  A    between atoms: N_13  and  C_14 
REMARK    5  A    between atoms: C_14  and  C_15 
ROOT
HETATM    1  N   UNL     1     -41.748 -51.372  11.714  1.00  0.00    -0.337 N 
HETATM    2  C   UNL     1     -42.430 -52.172  12.598  1.00  0.00     0.316 C 
HETATM    3  O   UNL     1     -42.204 -52.223  13.798  1.00  0.00    -0.247 OA
HETATM    4  N   UNL     1     -43.414 -52.887  11.962  1.00  0.00    -0.343 N 
HETATM    5  H   UNL     1     -42.319 -51.059  10.934  1.00  0.00     0.164 HD
HETATM    6  H   UNL     1     -43.195 -53.125  11.005  1.00  0.00     0.164 HD
ENDROOT
BRANCH   1   7
HETATM    7  C   UNL     1     -40.756 -50.414  12.210  1.00  0.00     0.102 C 
HETATM    8  C   UNL     1     -39.455 -51.147  12.540  1.00  0.00     0.034 C 
BRANCH   7   9
HETATM    9  C   UNL     1     -40.479 -49.289  11.203  1.00  0.00     0.172 C 
BRANCH   9  10
HETATM   10  N   UNL     1     -41.690 -48.574  10.840  1.00  0.00    -0.302 N 
HETATM   11  C   UNL     1     -42.679 -48.154  11.680  1.00  0.00     0.111 A 
HETATM   12  C   UNL     1     -43.620 -47.546  10.880  1.00  0.00     0.037 A 
HETATM   13  C   UNL     1     -43.103 -47.653   9.576  1.00  0.00     0.108 A 
HETATM   14  N   UNL     1     -41.928 -48.288   9.543  1.00  0.00    -0.310 N 
ATOM     15  HN  UNL     1     -41.349 -48.504   8.732  1.00  0.00     0.186 HD
ENDBRANCH   9  10
ENDBRANCH   7   9
ENDBRANCH   1   7
BRANCH   4  16
HETATM   16  C   UNL     1     -44.225 -53.822  12.714  1.00  0.00     0.131 C 
BRANCH  16  17
HETATM   17  C   UNL     1     -45.603 -53.259  13.039  1.00  0.00     0.029 C 
HETATM   18  C   UNL     1     -45.664 -51.740  13.112  1.00  0.00     0.034 C 
HETATM   19  C   UNL     1     -46.664 -51.452  14.219  1.00  0.00     0.168 C 
HETATM   20  O   UNL     1     -47.069 -52.707  14.777  1.00  0.00    -0.391 OA
HETATM   21  C   UNL     1     -46.076 -53.671  14.420  1.00  0.00     0.173 C 
ENDBRANCH  16  17
ENDBRANCH   4  16
TORSDOF 5
ENDMDL
MODEL 4
REMARK VINA RESULT:      -5.6      3.941      6.275
REMARK  5 active torsions:
REMARK  status: ('A' for Active; 'I' for Inactive)
REMARK    1  A    between atoms: C_2  and  C_3 
REMARK    2  A    between atoms: C_2  and  N_10 
REMARK    3  A    between atoms: C_3  and  N_4 
REMARK       I    between atoms: N_10  and  C_11 
REMARK       I    between atoms: C_11  and  N_13 
REMARK    4  A    between atoms: N_13  and  C_14 
REMARK    5  A    between atoms: C_14  and  C_15 
ROOT
HETATM    1  N   UNL     1     -40.272 -51.383  11.698  1.00  0.00    -0.337 N 
HETATM    2  C   UNL     1     -40.750 -52.080  12.781  1.00  0.00     0.316 C 
HETATM    3  O   UNL     1     -40.721 -51.670  13.932  1.00  0.00    -0.247 OA
HETATM    4  N   UNL     1     -41.287 -53.283  12.398  1.00  0.00    -0.343 N 
HETATM    5  H   UNL     1     -40.782 -51.576  10.840  1.00  0.00     0.164 HD
HETATM    6  H   UNL     1     -40.843 -53.692  11.589  1.00  0.00     0.164 HD
ENDROOT
BRANCH   1   7
HETATM    7  C   UNL     1     -39.792 -50.009  11.865  1.00  0.00     0.102 C 
HETATM    8  C   UNL     1     -38.332 -49.916  11.418  1.00  0.00     0.034 C 
BRANCH   7   9
HETATM    9  C   UNL     1     -40.642 -48.996  11.085  1.00  0.00     0.172 C 
BRANCH   9  10
HETATM   10  N   UNL     1     -40.328 -47.627  11.451  1.00  0.00    -0.302 N 
HETATM   11  C   UNL     1     -40.105 -47.142  12.707  1.00  0.00     0.111 A 
HETATM   12  C   UNL     1     -39.867 -45.795  12.554  1.00  0.00     0.037 A 
HETATM   13  C   UNL     1     -39.969 -45.569  11.169  1.00  0.00     0.108 A 
HETATM   14  N   UNL     1     -40.258 -46.682  10.490  1.00  0.00    -0.310 N 
ATOM     15  HN  UNL     1     -40.395 -46.792   9.485  1.00  0.00     0.186 HD
ENDBRANCH   9  10
ENDBRANCH   7   9
ENDBRANCH   1   7
BRANCH   4  16
HETATM   16  C   UNL     1     -41.814 -54.188  13.400  1.00  0.00     0.131 C 
BRANCH  16  17
HETATM   17  C   UNL     1     -43.280 -53.916  13.709  1.00  0.00     0.029 C 
HETATM   18  C   UNL     1     -44.011 -55.071  14.377  1.00  0.00     0.034 C 
HETATM   19  C   UNL     1     -45.417 -55.016  13.804  1.00  0.00     0.168 C 
HETATM   20  O   UNL     1     -45.449 -53.966  12.830  1.00  0.00    -0.391 OA
HETATM   21  C   UNL     1     -44.098 -53.699  12.449  1.00  0.00     0.173 C 
ENDBRANCH  16  17
ENDBRANCH   4  16
TORSDOF 5
ENDMDL
MODEL 5
REMARK VINA RESULT:      -5.6      2.504      4.379
REMARK  5 active torsions:
REMARK  status: ('A' for Active; 'I' for Inactive)
REMARK    1  A    between atoms: C_2  and  C_3 
REMARK    2  A    between atoms: C_2  and  N_10 
REMARK    3  A    between atoms: C_3  and  N_4 
REMARK       I    between atoms: N_10  and  C_11 
REMARK       I    between atoms: C_11  and  N_13 
REMARK    4  A    between atoms: N_13  and  C_14 
REMARK    5  A    between atoms: C_14  and  C_15 
ROOT
HETATM    1  N   UNL     1     -42.909 -48.491  10.475  1.00  0.00    -0.337 N 
HETATM    2  C   UNL     1     -41.900 -48.894  11.316  1.00  0.00     0.316 C 
HETATM    3  O   UNL     1     -40.764 -48.442  11.296  1.00  0.00    -0.247 OA
HETATM    4  N   UNL     1     -42.340 -49.849  12.197  1.00  0.00    -0.343 N 
HETATM    5  H   UNL     1     -43.831 -48.548  10.899  1.00  0.00     0.164 HD
HETATM    6  H   UNL     1     -43.067 -50.445  11.827  1.00  0.00     0.164 HD
ENDROOT
BRANCH   1   7
HETATM    7  C   UNL     1     -42.692 -47.371   9.556  1.00  0.00     0.102 C 
HETATM    8  C   UNL     1     -43.568 -47.548   8.314  1.00  0.00     0.034 C 
BRANCH   7   9
HETATM    9  C   UNL     1     -42.986 -46.014  10.211  1.00  0.00     0.172 C 
BRANCH   9  10
HETATM   10  N   UNL     1     -41.771 -45.266  10.481  1.00  0.00    -0.302 N 
HETATM   11  C   UNL     1     -41.664 -44.094  11.170  1.00  0.00     0.111 A 
HETATM   12  C   UNL     1     -40.328 -43.764  11.148  1.00  0.00     0.037 A 
HETATM   13  C   UNL     1     -39.716 -44.802  10.421  1.00  0.00     0.108 A 
HETATM   14  N   UNL     1     -40.593 -45.719  10.004  1.00  0.00    -0.310 N 
ATOM     15  HN  UNL     1     -40.415 -46.560   9.455  1.00  0.00     0.186 HD
ENDBRANCH   9  10
ENDBRANCH   7   9
ENDBRANCH   1   7
BRANCH   4  16
HETATM   16  C   UNL     1     -41.416 -50.434  13.147  1.00  0.00     0.131 C 
BRANCH  16  17
HETATM   17  C   UNL     1     -40.816 -51.739  12.639  1.00  0.00     0.029 C 
HETATM   18  C   UNL     1     -41.797 -52.900  12.568  1.00  0.00     0.034 C 
HETATM   19  C   UNL     1     -40.971 -54.120  12.938  1.00  0.00     0.168 C 
HETATM   20  O   UNL     1     -39.653 -53.668  13.271  1.00  0.00    -0.391 OA
HETATM   21  C   UNL     1     -39.744 -52.274  13.570  1.00  0.00     0.173 C 
ENDBRANCH  16  17
ENDBRANCH   4  16
TORSDOF 5
ENDMDL
MODEL 6
REMARK VINA RESULT:      -5.5      2.124      7.295
REMARK  5 active torsions:
REMARK  status: ('A' for Active; 'I' for Inactive)
REMARK    1  A    between atoms: C_2  and  C_3 
REMARK    2  A    between atoms: C_2  and  N_10 
REMARK    3  A    between atoms: C_3  and  N_4 
REMARK       I    between atoms: N_10  and  C_11 
REMARK       I    between atoms: C_11  and  N_13 
REMARK    4  A    between atoms: N_13  and  C_14 
REMARK    5  A    between atoms: C_14  and  C_15 
ROOT
HETATM    1  N   UNL     1     -42.197 -49.839  11.721  1.00  0.00    -0.337 N 
HETATM    2  C   UNL     1     -42.624 -48.557  11.474  1.00  0.00     0.316 C 
HETATM    3  O   UNL     1     -42.950 -47.760  12.341  1.00  0.00    -0.247 OA
HETATM    4  N   UNL     1     -42.610 -48.281  10.130  1.00  0.00    -0.343 N 
HETATM    5  H   UNL     1     -41.525 -50.177  11.037  1.00  0.00     0.164 HD
HETATM    6  H   UNL     1     -42.795 -49.082   9.544  1.00  0.00     0.164 HD
ENDROOT
BRANCH   1   7
HETATM    7  C   UNL     1     -41.993 -50.290  13.100  1.00  0.00     0.102 C 
HETATM    8  C   UNL     1     -43.233 -51.043  13.583  1.00  0.00     0.034 C 
BRANCH   7   9
HETATM    9  C   UNL     1     -40.753 -51.183  13.243  1.00  0.00     0.172 C 
BRANCH   9  10
HETATM   10  N   UNL     1     -39.529 -50.470  12.924  1.00  0.00    -0.302 N 
HETATM   11  C   UNL     1     -38.938 -49.483  13.656  1.00  0.00     0.111 A 
HETATM   12  C   UNL     1     -37.820 -49.105  12.948  1.00  0.00     0.037 A 
HETATM   13  C   UNL     1     -37.828 -49.925  11.804  1.00  0.00     0.108 A 
HETATM   14  N   UNL     1     -38.874 -50.755  11.779  1.00  0.00    -0.310 N 
ATOM     15  HN  UNL     1     -39.119 -51.441  11.065  1.00  0.00     0.186 HD
ENDBRANCH   9  10
ENDBRANCH   7   9
ENDBRANCH   1   7
BRANCH   4  16
HETATM   16  C   UNL     1     -43.062 -46.988   9.656  1.00  0.00     0.131 C 
BRANCH  16  17
HETATM   17  C   UNL     1     -44.281 -47.101   8.749  1.00  0.00     0.029 C 
HETATM   18  C   UNL     1     -45.558 -47.530   9.457  1.00  0.00     0.034 C 
HETATM   19  C   UNL     1     -46.282 -48.400   8.442  1.00  0.00     0.168 C 
HETATM   20  O   UNL     1     -45.439 -48.516   7.290  1.00  0.00    -0.391 OA
HETATM   21  C   UNL     1     -44.111 -48.182   7.698  1.00  0.00     0.173 C 
ENDBRANCH  16  17
ENDBRANCH   4  16
TORSDOF 5
ENDMDL
MODEL 7
REMARK VINA RESULT:      -5.4      3.634      4.354
REMARK  5 active torsions:
REMARK  status: ('A' for Active; 'I' for Inactive)
REMARK    1  A    between atoms: C_2  and  C_3 
REMARK    2  A    between atoms: C_2  and  N_10 
REMARK    3  A    between atoms: C_3  and  N_4 
REMARK       I    between atoms: N_10  and  C_11 
REMARK       I    between atoms: C_11  and  N_13 
REMARK    4  A    between atoms: N_13  and  C_14 
REMARK    5  A    between atoms: C_14  and  C_15 
ROOT
HETATM    1  N   UNL     1     -41.933 -50.121  11.782  1.00  0.00    -0.337 N 
HETATM    2  C   UNL     1     -42.802 -50.783  12.615  1.00  0.00     0.316 C 
HETATM    3  O   UNL     1     -43.391 -50.263  13.551  1.00  0.00    -0.247 OA
HETATM    4  N   UNL     1     -42.942 -52.096  12.242  1.00  0.00    -0.343 N 
HETATM    5  H   UNL     1     -41.927 -50.488  10.834  1.00  0.00     0.164 HD
HETATM    6  H   UNL     1     -42.114 -52.495  11.824  1.00  0.00     0.164 HD
ENDROOT
BRANCH   1   7
HETATM    7  C   UNL     1     -41.755 -48.673  11.911  1.00  0.00     0.102 C 
HETATM    8  C   UNL     1     -40.574 -48.380  12.838  1.00  0.00     0.034 C 
BRANCH   7   9
HETATM    9  C   UNL     1     -41.534 -47.989  10.554  1.00  0.00     0.172 C 
BRANCH   9  10
HETATM   10  N   UNL     1     -42.782 -47.786   9.839  1.00  0.00    -0.302 N 
HETATM   11  C   UNL     1     -43.988 -47.441  10.373  1.00  0.00     0.111 A 
HETATM   12  C   UNL     1     -44.867 -47.385   9.314  1.00  0.00     0.037 A 
HETATM   13  C   UNL     1     -44.090 -47.712   8.188  1.00  0.00     0.108 A 
HETATM   14  N   UNL     1     -42.817 -47.966   8.502  1.00  0.00    -0.310 N 
ATOM     15  HN  UNL     1     -42.054 -48.234   7.880  1.00  0.00     0.186 HD
ENDBRANCH   9  10
ENDBRANCH   7   9
ENDBRANCH   1   7
BRANCH   4  16
HETATM   16  C   UNL     1     -43.790 -52.978  13.018  1.00  0.00     0.131 C 
BRANCH  16  17
HETATM   17  C   UNL     1     -43.021 -54.164  13.587  1.00  0.00     0.029 C 
HETATM   18  C   UNL     1     -43.740 -54.909  14.702  1.00  0.00     0.034 C 
HETATM   19  C   UNL     1     -42.633 -55.339  15.649  1.00  0.00     0.168 C 
HETATM   20  O   UNL     1     -41.401 -54.806  15.149  1.00  0.00    -0.391 OA
HETATM   21  C   UNL     1     -41.730 -53.736  14.261  1.00  0.00     0.173 C 
ENDBRANCH  16  17
ENDBRANCH   4  16
TORSDOF 5
ENDMDL
MODEL 8
REMARK VINA RESULT:      -5.4      3.912      6.426
REMARK  5 active torsions:
REMARK  status: ('A' for Active; 'I' for Inactive)
REMARK    1  A    between atoms: C_2  and  C_3 
REMARK    2  A    between atoms: C_2  and  N_10 
REMARK    3  A    between atoms: C_3  and  N_4 
REMARK       I    between atoms: N_10  and  C_11 
REMARK       I    between atoms: C_11  and  N_13 
REMARK    4  A    between atoms: N_13  and  C_14 
REMARK    5  A    between atoms: C_14  and  C_15 
ROOT
HETATM    1  N   UNL     1     -44.472 -50.544  12.648  1.00  0.00    -0.337 N 
HETATM    2  C   UNL     1     -43.194 -50.097  12.876  1.00  0.00     0.316 C 
HETATM    3  O   UNL     1     -42.470 -50.507  13.772  1.00  0.00    -0.247 OA
HETATM    4  N   UNL     1     -42.827 -49.151  11.952  1.00  0.00    -0.343 N 
HETATM    5  H   UNL     1     -44.737 -50.517  11.667  1.00  0.00     0.164 HD
HETATM    6  H   UNL     1     -43.594 -48.586  11.617  1.00  0.00     0.164 HD
ENDROOT
BRANCH   1   7
HETATM    7  C   UNL     1     -45.006 -51.664  13.428  1.00  0.00     0.102 C 
HETATM    8  C   UNL     1     -46.512 -51.480  13.626  1.00  0.00     0.034 C 
BRANCH   7   9
HETATM    9  C   UNL     1     -44.730 -53.020  12.764  1.00  0.00     0.172 C 
BRANCH   9  10
HETATM   10  N   UNL     1     -43.475 -53.598  13.211  1.00  0.00    -0.302 N 
HETATM   11  C   UNL     1     -43.237 -54.228  14.397  1.00  0.00     0.111 A 
HETATM   12  C   UNL     1     -41.907 -54.584  14.374  1.00  0.00     0.037 A 
HETATM   13  C   UNL     1     -41.436 -54.124  13.131  1.00  0.00     0.108 A 
HETATM   14  N   UNL     1     -42.386 -53.513  12.419  1.00  0.00    -0.310 N 
ATOM     15  HN  UNL     1     -42.307 -53.085  11.497  1.00  0.00     0.186 HD
ENDBRANCH   9  10
ENDBRANCH   7   9
ENDBRANCH   1   7
BRANCH   4  16
HETATM   16  C   UNL     1     -41.524 -48.524  12.041  1.00  0.00     0.131 C 
BRANCH  16  17
HETATM   17  C   UNL     1     -41.260 -47.576  10.879  1.00  0.00     0.029 C 
HETATM   18  C   UNL     1     -40.135 -46.579  11.119  1.00  0.00     0.034 C 
HETATM   19  C   UNL     1     -40.591 -45.313  10.415  1.00  0.00     0.168 C 
HETATM   20  O   UNL     1     -41.903 -45.554   9.892  1.00  0.00    -0.391 OA
HETATM   21  C   UNL     1     -42.445 -46.669  10.602  1.00  0.00     0.173 C 
ENDBRANCH  16  17
ENDBRANCH   4  16
TORSDOF 5
ENDMDL
MODEL 9
REMARK VINA RESULT:      -5.3      3.984      5.108
REMARK  5 active torsions:
REMARK  status: ('A' for Active; 'I' for Inactive)
REMARK    1  A    between atoms: C_2  and  C_3 
REMARK    2  A    between atoms: C_2  and  N_10 
REMARK    3  A    between atoms: C_3  and  N_4 
REMARK       I    between atoms: N_10  and  C_11 
REMARK       I    between atoms: C_11  and  N_13 
REMARK    4  A    between atoms: N_13  and  C_14 
REMARK    5  A    between atoms: C_14  and  C_15 
ROOT
HETATM    1  N   UNL     1     -42.864 -48.913  11.737  1.00  0.00    -0.337 N 
HETATM    2  C   UNL     1     -43.395 -49.410  12.902  1.00  0.00     0.316 C 
HETATM    3  O   UNL     1     -43.167 -48.955  14.013  1.00  0.00    -0.247 OA
HETATM    4  N   UNL     1     -44.234 -50.467  12.653  1.00  0.00    -0.343 N 
HETATM    5  H   UNL     1     -43.480 -49.025  10.936  1.00  0.00     0.164 HD
HETATM    6  H   UNL     1     -43.973 -51.017  11.847  1.00  0.00     0.164 HD
ENDROOT
BRANCH   1   7
HETATM    7  C   UNL     1     -42.060 -47.688  11.763  1.00  0.00     0.102 C 
HETATM    8  C   UNL     1     -40.653 -47.987  11.244  1.00  0.00     0.034 C 
BRANCH   7   9
HETATM    9  C   UNL     1     -42.692 -46.559  10.936  1.00  0.00     0.172 C 
BRANCH   9  10
HETATM   10  N   UNL     1     -43.578 -47.070   9.906  1.00  0.00    -0.302 N 
HETATM   11  C   UNL     1     -43.222 -47.553   8.681  1.00  0.00     0.111 A 
HETATM   12  C   UNL     1     -44.399 -47.898   8.055  1.00  0.00     0.037 A 
HETATM   13  C   UNL     1     -45.404 -47.583   8.987  1.00  0.00     0.108 A 
HETATM   14  N   UNL     1     -44.911 -47.069  10.117  1.00  0.00    -0.310 N 
ATOM     15  HN  UNL     1     -45.420 -46.751  10.942  1.00  0.00     0.186 HD
ENDBRANCH   9  10
ENDBRANCH   7   9
ENDBRANCH   1   7
BRANCH   4  16
HETATM   16  C   UNL     1     -44.867 -51.159  13.757  1.00  0.00     0.131 C 
BRANCH  16  17
HETATM   17  C   UNL     1     -45.488 -52.483  13.328  1.00  0.00     0.029 C 
HETATM   18  C   UNL     1     -45.906 -53.388  14.478  1.00  0.00     0.034 C 
HETATM   19  C   UNL     1     -45.621 -54.794  13.980  1.00  0.00     0.168 C 
HETATM   20  O   UNL     1     -45.015 -54.683  12.687  1.00  0.00    -0.391 OA
HETATM   21  C   UNL     1     -44.504 -53.354  12.570  1.00  0.00     0.173 C 
ENDBRANCH  16  17
ENDBRANCH   4  16
TORSDOF 5
ENDMDL
