MODEL 1
REMARK VINA RESULT:      -6.7      0.000      0.000
REMARK  5 active torsions:
REMARK  status: ('A' for Active; 'I' for Inactive)
REMARK    1  A    between atoms: N_8  and  C_9 
REMARK    2  A    between atoms: C_9  and  C_10 
REMARK    3  A    between atoms: C_10  and  O_11 
REMARK    4  A    between atoms: C_10  and  C_12 
REMARK    5  A    between atoms: C_12  and  N_13 
ROOT
HETATM    1  C   UNL     1     -46.401 -54.430  14.687  1.00  0.00     0.049 C 
HETATM    2  C   UNL     1     -45.347 -53.551  14.064  1.00  0.00    -0.054 A 
HETATM    3  C   UNL     1     -44.181 -54.151  13.549  1.00  0.00     0.039 A 
HETATM    4  C   UNL     1     -43.175 -53.352  12.988  1.00  0.00     0.060 A 
HETATM    5  N   UNL     1     -41.965 -53.715  12.450  1.00  0.00    -0.350 N 
ATOM      6  HN  UNL     1     -41.582 -54.657  12.367  1.00  0.00     0.166 HD
HETATM    7  C   UNL     1     -41.406 -52.593  12.066  1.00  0.00     0.184 A 
HETATM    8  N   UNL     1     -42.179 -51.508  12.378  1.00  0.00    -0.339 N 
HETATM    9  C   UNL     1     -43.348 -51.972  12.938  1.00  0.00     0.062 A 
HETATM   10  C   UNL     1     -44.506 -51.344  13.416  1.00  0.00     0.039 A 
HETATM   11  C   UNL     1     -45.506 -52.150  13.999  1.00  0.00    -0.054 A 
HETATM   12  C   UNL     1     -46.737 -51.485  14.560  1.00  0.00     0.049 C 
ENDROOT
BRANCH   8  13
HETATM   13  C   UNL     1     -41.813 -50.122  12.143  1.00  0.00     0.163 C 
BRANCH  13  14
HETATM   14  C   UNL     1     -40.414 -49.926  11.528  1.00  0.00     0.156 C 
BRANCH  14  15
HETATM   15  O   UNL     1     -40.510 -49.867  10.099  1.00  0.00    -0.392 OA
HETATM   16  H   UNL     1     -39.640 -50.075   9.710  1.00  0.00     0.210 HD
ENDBRANCH  14  15
BRANCH  14  17
HETATM   17  C   UNL     1     -39.661 -48.715  12.092  1.00  0.00     0.181 C 
BRANCH  17  18
HETATM   18  N   UNL     1     -40.340 -47.463  11.792  1.00  0.00    -0.300 N 
HETATM   19  C   UNL     1     -40.914 -46.618  12.700  1.00  0.00     0.135 A 
HETATM   20  C   UNL     1     -41.435 -45.581  11.969  1.00  0.00     0.068 A 
HETATM   21 CL   UNL     1     -42.291 -44.236  12.532  1.00  0.00    -0.081 Cl
HETATM   22  C   UNL     1     -41.107 -45.877  10.634  1.00  0.00     0.132 A 
HETATM   23  N   UNL     1     -40.424 -47.025  10.519  1.00  0.00    -0.308 N 
ATOM     24  HN  UNL     1     -40.056 -47.461   9.673  1.00  0.00     0.186 HD
ENDBRANCH  17  18
ENDBRANCH  14  17
ENDBRANCH  13  14
ENDBRANCH   8  13
TORSDOF 5
ENDMDL
MODEL 2
REMARK VINA RESULT:      -6.2      2.668      3.957
REMARK  5 active torsions:
REMARK  status: ('A' for Active; 'I' for Inactive)
REMARK    1  A    between atoms: N_8  and  C_9 
REMARK    2  A    between atoms: C_9  and  C_10 
REMARK    3  A    between atoms: C_10  and  O_11 
REMARK    4  A    between atoms: C_10  and  C_12 
REMARK    5  A    between atoms: C_12  and  N_13 
ROOT
HETATM    1  C   UNL     1     -48.124 -50.763  17.216  1.00  0.00     0.049 C 
HETATM    2  C   UNL     1     -47.024 -51.345  16.366  1.00  0.00    -0.054 A 
HETATM    3  C   UNL     1     -47.326 -52.418  15.505  1.00  0.00     0.039 A 
HETATM    4  C   UNL     1     -46.313 -52.991  14.723  1.00  0.00     0.060 A 
HETATM    5  N   UNL     1     -46.376 -54.041  13.840  1.00  0.00    -0.350 N 
ATOM      6  HN  UNL     1     -47.196 -54.598  13.598  1.00  0.00     0.166 HD
HETATM    7  C   UNL     1     -45.157 -54.176  13.375  1.00  0.00     0.184 A 
HETATM    8  N   UNL     1     -44.292 -53.290  13.956  1.00  0.00    -0.339 N 
HETATM    9  C   UNL     1     -45.020 -52.484  14.802  1.00  0.00     0.062 A 
HETATM   10  C   UNL     1     -44.689 -51.401  15.628  1.00  0.00     0.039 A 
HETATM   11  C   UNL     1     -45.706 -50.841  16.429  1.00  0.00    -0.054 A 
HETATM   12  C   UNL     1     -45.356 -49.706  17.357  1.00  0.00     0.049 C 
ENDROOT
BRANCH   8  13
HETATM   13  C   UNL     1     -42.863 -53.226  13.704  1.00  0.00     0.163 C 
BRANCH  13  14
HETATM   14  C   UNL     1     -42.478 -52.555  12.372  1.00  0.00     0.156 C 
BRANCH  14  15
HETATM   15  O   UNL     1     -42.904 -51.185  12.371  1.00  0.00    -0.392 OA
HETATM   16  H   UNL     1     -42.882 -50.842  13.284  1.00  0.00     0.210 HD
ENDBRANCH  14  15
BRANCH  14  17
HETATM   17  C   UNL     1     -40.988 -52.681  12.031  1.00  0.00     0.181 C 
BRANCH  17  18
HETATM   18  N   UNL     1     -40.308 -51.395  12.073  1.00  0.00    -0.300 N 
HETATM   19  C   UNL     1     -39.454 -50.964  13.049  1.00  0.00     0.135 A 
HETATM   20  C   UNL     1     -39.067 -49.703  12.678  1.00  0.00     0.068 A 
HETATM   21 CL   UNL     1     -38.034 -48.645  13.499  1.00  0.00    -0.081 Cl
HETATM   22  C   UNL     1     -39.719 -49.467  11.455  1.00  0.00     0.132 A 
HETATM   23  N   UNL     1     -40.474 -50.507  11.070  1.00  0.00    -0.308 N 
ATOM     24  HN  UNL     1     -41.036 -50.603  10.225  1.00  0.00     0.186 HD
ENDBRANCH  17  18
ENDBRANCH  14  17
ENDBRANCH  13  14
ENDBRANCH   8  13
TORSDOF 5
ENDMDL
MODEL 3
REMARK VINA RESULT:      -6.1      2.475      3.473
REMARK  5 active torsions:
REMARK  status: ('A' for Active; 'I' for Inactive)
REMARK    1  A    between atoms: N_8  and  C_9 
REMARK    2  A    between atoms: C_9  and  C_10 
REMARK    3  A    between atoms: C_10  and  O_11 
REMARK    4  A    between atoms: C_10  and  C_12 
REMARK    5  A    between atoms: C_12  and  N_13 
ROOT
HETATM    1  C   UNL     1     -47.499 -51.248  16.408  1.00  0.00     0.049 C 
HETATM    2  C   UNL     1     -46.322 -51.852  15.686  1.00  0.00    -0.054 A 
HETATM    3  C   UNL     1     -46.328 -51.874  14.278  1.00  0.00     0.039 A 
HETATM    4  C   UNL     1     -45.256 -52.453  13.585  1.00  0.00     0.060 A 
HETATM    5  N   UNL     1     -45.062 -52.600  12.233  1.00  0.00    -0.350 N 
ATOM      6  HN  UNL     1     -45.687 -52.304  11.483  1.00  0.00     0.166 HD
HETATM    7  C   UNL     1     -43.904 -53.203  12.112  1.00  0.00     0.184 A 
HETATM    8  N   UNL     1     -43.358 -53.501  13.330  1.00  0.00    -0.339 N 
HETATM    9  C   UNL     1     -44.191 -52.992  14.301  1.00  0.00     0.062 A 
HETATM   10  C   UNL     1     -44.139 -52.964  15.701  1.00  0.00     0.039 A 
HETATM   11  C   UNL     1     -45.230 -52.399  16.395  1.00  0.00    -0.054 A 
HETATM   12  C   UNL     1     -45.211 -52.403  17.902  1.00  0.00     0.049 C 
ENDROOT
BRANCH   8  13
HETATM   13  C   UNL     1     -42.115 -54.223  13.537  1.00  0.00     0.163 C 
BRANCH  13  14
HETATM   14  C   UNL     1     -40.846 -53.428  13.176  1.00  0.00     0.156 C 
BRANCH  14  15
HETATM   15  O   UNL     1     -40.655 -53.427  11.755  1.00  0.00    -0.392 OA
HETATM   16  H   UNL     1     -40.421 -54.328  11.462  1.00  0.00     0.210 HD
ENDBRANCH  14  15
BRANCH  14  17
HETATM   17  C   UNL     1     -40.834 -52.003  13.746  1.00  0.00     0.181 C 
BRANCH  17  18
HETATM   18  N   UNL     1     -40.743 -50.998  12.698  1.00  0.00    -0.300 N 
HETATM   19  C   UNL     1     -41.737 -50.143  12.312  1.00  0.00     0.135 A 
HETATM   20  C   UNL     1     -41.208 -49.389  11.296  1.00  0.00     0.068 A 
HETATM   21 CL   UNL     1     -41.965 -48.174  10.396  1.00  0.00    -0.081 Cl
HETATM   22  C   UNL     1     -39.885 -49.844  11.156  1.00  0.00     0.132 A 
HETATM   23  N   UNL     1     -39.588 -50.824  12.022  1.00  0.00    -0.308 N 
ATOM     24  HN  UNL     1     -38.704 -51.318  12.141  1.00  0.00     0.186 HD
ENDBRANCH  17  18
ENDBRANCH  14  17
ENDBRANCH  13  14
ENDBRANCH   8  13
TORSDOF 5
ENDMDL
MODEL 4
REMARK VINA RESULT:      -6.1      2.322      2.939
REMARK  5 active torsions:
REMARK  status: ('A' for Active; 'I' for Inactive)
REMARK    1  A    between atoms: N_8  and  C_9 
REMARK    2  A    between atoms: C_9  and  C_10 
REMARK    3  A    between atoms: C_10  and  O_11 
REMARK    4  A    between atoms: C_10  and  C_12 
REMARK    5  A    between atoms: C_12  and  N_13 
ROOT
HETATM    1  C   UNL     1     -46.451 -54.506  14.753  1.00  0.00     0.049 C 
HETATM    2  C   UNL     1     -45.403 -53.625  14.124  1.00  0.00    -0.054 A 
HETATM    3  C   UNL     1     -44.217 -54.215  13.646  1.00  0.00     0.039 A 
HETATM    4  C   UNL     1     -43.217 -53.413  13.080  1.00  0.00     0.060 A 
HETATM    5  N   UNL     1     -41.990 -53.767  12.573  1.00  0.00    -0.350 N 
ATOM      6  HN  UNL     1     -41.589 -54.703  12.524  1.00  0.00     0.166 HD
HETATM    7  C   UNL     1     -41.446 -52.645  12.168  1.00  0.00     0.184 A 
HETATM    8  N   UNL     1     -42.245 -51.567  12.436  1.00  0.00    -0.339 N 
HETATM    9  C   UNL     1     -43.415 -52.039  12.988  1.00  0.00     0.062 A 
HETATM   10  C   UNL     1     -44.593 -51.420  13.429  1.00  0.00     0.039 A 
HETATM   11  C   UNL     1     -45.587 -52.229  14.018  1.00  0.00    -0.054 A 
HETATM   12  C   UNL     1     -46.840 -51.573  14.539  1.00  0.00     0.049 C 
ENDROOT
BRANCH   8  13
HETATM   13  C   UNL     1     -41.901 -50.182  12.169  1.00  0.00     0.163 C 
BRANCH  13  14
HETATM   14  C   UNL     1     -40.473 -49.970  11.633  1.00  0.00     0.156 C 
BRANCH  14  15
HETATM   15  O   UNL     1     -40.471 -50.039  10.200  1.00  0.00    -0.392 OA
HETATM   16  H   UNL     1     -39.555 -50.166   9.887  1.00  0.00     0.210 HD
ENDBRANCH  14  15
BRANCH  14  17
HETATM   17  C   UNL     1     -39.816 -48.678  12.134  1.00  0.00     0.181 C 
BRANCH  17  18
HETATM   18  N   UNL     1     -38.813 -48.937  13.157  1.00  0.00    -0.300 N 
HETATM   19  C   UNL     1     -38.180 -48.000  13.924  1.00  0.00     0.135 A 
HETATM   20  C   UNL     1     -37.322 -48.697  14.735  1.00  0.00     0.068 A 
HETATM   21 CL   UNL     1     -36.247 -48.084  15.887  1.00  0.00    -0.081 Cl
HETATM   22  C   UNL     1     -37.524 -50.048  14.401  1.00  0.00     0.132 A 
HETATM   23  N   UNL     1     -38.447 -50.204  13.441  1.00  0.00    -0.308 N 
ATOM     24  HN  UNL     1     -38.790 -51.071  13.027  1.00  0.00     0.186 HD
ENDBRANCH  17  18
ENDBRANCH  14  17
ENDBRANCH  13  14
ENDBRANCH   8  13
TORSDOF 5
ENDMDL
MODEL 5
REMARK VINA RESULT:      -6.0      2.142      2.978
REMARK  5 active torsions:
REMARK  status: ('A' for Active; 'I' for Inactive)
REMARK    1  A    between atoms: N_8  and  C_9 
REMARK    2  A    between atoms: C_9  and  C_10 
REMARK    3  A    between atoms: C_10  and  O_11 
REMARK    4  A    between atoms: C_10  and  C_12 
REMARK    5  A    between atoms: C_12  and  N_13 
ROOT
HETATM    1  C   UNL     1     -47.032 -51.271  15.314  1.00  0.00     0.049 C 
HETATM    2  C   UNL     1     -45.750 -51.940  14.890  1.00  0.00    -0.054 A 
HETATM    3  C   UNL     1     -44.794 -52.262  15.874  1.00  0.00     0.039 A 
HETATM    4  C   UNL     1     -43.584 -52.862  15.500  1.00  0.00     0.060 A 
HETATM    5  N   UNL     1     -42.516 -53.239  16.277  1.00  0.00    -0.350 N 
ATOM      6  HN  UNL     1     -42.422 -53.142  17.288  1.00  0.00     0.166 HD
HETATM    7  C   UNL     1     -41.644 -53.750  15.443  1.00  0.00     0.184 A 
HETATM    8  N   UNL     1     -42.077 -53.675  14.147  1.00  0.00    -0.339 N 
HETATM    9  C   UNL     1     -43.347 -53.142  14.158  1.00  0.00     0.062 A 
HETATM   10  C   UNL     1     -44.285 -52.860  13.156  1.00  0.00     0.039 A 
HETATM   11  C   UNL     1     -45.492 -52.237  13.534  1.00  0.00    -0.054 A 
HETATM   12  C   UNL     1     -46.493 -51.886  12.462  1.00  0.00     0.049 C 
ENDROOT
BRANCH   8  13
HETATM   13  C   UNL     1     -41.317 -54.096  12.983  1.00  0.00     0.163 C 
BRANCH  13  14
HETATM   14  C   UNL     1     -40.706 -52.940  12.167  1.00  0.00     0.156 C 
BRANCH  14  15
HETATM   15  O   UNL     1     -41.480 -52.713  10.982  1.00  0.00    -0.392 OA
HETATM   16  H   UNL     1     -41.049 -52.021  10.445  1.00  0.00     0.210 HD
ENDBRANCH  14  15
BRANCH  14  17
HETATM   17  C   UNL     1     -40.523 -51.649  12.976  1.00  0.00     0.181 C 
BRANCH  17  18
HETATM   18  N   UNL     1     -41.050 -50.488  12.275  1.00  0.00    -0.300 N 
HETATM   19  C   UNL     1     -42.092 -49.703  12.681  1.00  0.00     0.135 A 
HETATM   20  C   UNL     1     -42.237 -48.743  11.713  1.00  0.00     0.068 A 
HETATM   21 CL   UNL     1     -43.379 -47.498  11.642  1.00  0.00    -0.081 Cl
HETATM   22  C   UNL     1     -41.224 -49.015  10.777  1.00  0.00     0.132 A 
HETATM   23  N   UNL     1     -40.483 -50.078  11.121  1.00  0.00    -0.308 N 
ATOM     24  HN  UNL     1     -39.684 -50.479  10.630  1.00  0.00     0.186 HD
ENDBRANCH  17  18
ENDBRANCH  14  17
ENDBRANCH  13  14
ENDBRANCH   8  13
TORSDOF 5
ENDMDL
MODEL 6
REMARK VINA RESULT:      -6.0      4.378      5.736
REMARK  5 active torsions:
REMARK  status: ('A' for Active; 'I' for Inactive)
REMARK    1  A    between atoms: N_8  and  C_9 
REMARK    2  A    between atoms: C_9  and  C_10 
REMARK    3  A    between atoms: C_10  and  O_11 
REMARK    4  A    between atoms: C_10  and  C_12 
REMARK    5  A    between atoms: C_12  and  N_13 
ROOT
HETATM    1  C   UNL     1     -47.788 -51.178  16.793  1.00  0.00     0.049 C 
HETATM    2  C   UNL     1     -46.645 -51.433  15.845  1.00  0.00    -0.054 A 
HETATM    3  C   UNL     1     -46.842 -52.319  14.768  1.00  0.00     0.039 A 
HETATM    4  C   UNL     1     -45.786 -52.592  13.887  1.00  0.00     0.060 A 
HETATM    5  N   UNL     1     -45.747 -53.425  12.796  1.00  0.00    -0.350 N 
ATOM      6  HN  UNL     1     -46.504 -54.004  12.432  1.00  0.00     0.166 HD
HETATM    7  C   UNL     1     -44.530 -53.317  12.321  1.00  0.00     0.184 A 
HETATM    8  N   UNL     1     -43.758 -52.488  13.087  1.00  0.00    -0.339 N 
HETATM    9  C   UNL     1     -44.556 -51.972  14.084  1.00  0.00     0.062 A 
HETATM   10  C   UNL     1     -44.332 -51.065  15.129  1.00  0.00     0.039 A 
HETATM   11  C   UNL     1     -45.391 -50.811  16.025  1.00  0.00    -0.054 A 
HETATM   12  C   UNL     1     -45.152 -49.873  17.181  1.00  0.00     0.049 C 
ENDROOT
BRANCH   8  13
HETATM   13  C   UNL     1     -42.349 -52.211  12.865  1.00  0.00     0.163 C 
BRANCH  13  14
HETATM   14  C   UNL     1     -41.466 -53.465  12.725  1.00  0.00     0.156 C 
BRANCH  14  15
HETATM   15  O   UNL     1     -40.595 -53.329  11.594  1.00  0.00    -0.392 OA
HETATM   16  H   UNL     1     -41.122 -53.084  10.811  1.00  0.00     0.210 HD
ENDBRANCH  14  15
BRANCH  14  17
HETATM   17  C   UNL     1     -40.684 -53.809  13.999  1.00  0.00     0.181 C 
BRANCH  17  18
HETATM   18  N   UNL     1     -41.559 -53.968  15.150  1.00  0.00    -0.300 N 
HETATM   19  C   UNL     1     -41.578 -53.179  16.266  1.00  0.00     0.135 A 
HETATM   20  C   UNL     1     -42.549 -53.704  17.080  1.00  0.00     0.068 A 
HETATM   21 CL   UNL     1     -43.021 -53.175  18.614  1.00  0.00    -0.081 Cl
HETATM   22  C   UNL     1     -43.075 -54.792  16.362  1.00  0.00     0.132 A 
HETATM   23  N   UNL     1     -42.481 -54.953  15.170  1.00  0.00    -0.308 N 
ATOM     24  HN  UNL     1     -42.678 -55.651  14.453  1.00  0.00     0.186 HD
ENDBRANCH  17  18
ENDBRANCH  14  17
ENDBRANCH  13  14
ENDBRANCH   8  13
TORSDOF 5
ENDMDL
MODEL 7
REMARK VINA RESULT:      -5.9      4.674      6.047
REMARK  5 active torsions:
REMARK  status: ('A' for Active; 'I' for Inactive)
REMARK    1  A    between atoms: N_8  and  C_9 
REMARK    2  A    between atoms: C_9  and  C_10 
REMARK    3  A    between atoms: C_10  and  O_11 
REMARK    4  A    between atoms: C_10  and  C_12 
REMARK    5  A    between atoms: C_12  and  N_13 
ROOT
HETATM    1  C   UNL     1     -47.508 -51.210  16.950  1.00  0.00     0.049 C 
HETATM    2  C   UNL     1     -46.453 -51.434  15.897  1.00  0.00    -0.054 A 
HETATM    3  C   UNL     1     -46.691 -52.389  14.889  1.00  0.00     0.039 A 
HETATM    4  C   UNL     1     -45.714 -52.632  13.914  1.00  0.00     0.060 A 
HETATM    5  N   UNL     1     -45.725 -53.518  12.864  1.00  0.00    -0.350 N 
ATOM      6  HN  UNL     1     -46.469 -54.168  12.611  1.00  0.00     0.166 HD
HETATM    7  C   UNL     1     -44.575 -53.350  12.257  1.00  0.00     0.184 A 
HETATM    8  N   UNL     1     -43.793 -52.428  12.898  1.00  0.00    -0.339 N 
HETATM    9  C   UNL     1     -44.521 -51.918  13.949  1.00  0.00     0.062 A 
HETATM   10  C   UNL     1     -44.261 -50.942  14.921  1.00  0.00     0.039 A 
HETATM   11  C   UNL     1     -45.237 -50.716  15.913  1.00  0.00    -0.054 A 
HETATM   12  C   UNL     1     -44.953 -49.702  16.992  1.00  0.00     0.049 C 
ENDROOT
BRANCH   8  13
HETATM   13  C   UNL     1     -42.440 -52.065  12.514  1.00  0.00     0.163 C 
BRANCH  13  14
HETATM   14  C   UNL     1     -41.368 -53.104  12.891  1.00  0.00     0.156 C 
BRANCH  14  15
HETATM   15  O   UNL     1     -40.530 -53.378  11.760  1.00  0.00    -0.392 OA
HETATM   16  H   UNL     1     -39.713 -52.848  11.831  1.00  0.00     0.210 HD
ENDBRANCH  14  15
BRANCH  14  17
HETATM   17  C   UNL     1     -40.541 -52.712  14.122  1.00  0.00     0.181 C 
BRANCH  17  18
HETATM   18  N   UNL     1     -39.984 -53.874  14.798  1.00  0.00    -0.300 N 
HETATM   19  C   UNL     1     -40.513 -54.505  15.889  1.00  0.00     0.135 A 
HETATM   20  C   UNL     1     -39.654 -55.533  16.180  1.00  0.00     0.068 A 
HETATM   21 CL   UNL     1     -39.759 -56.654  17.441  1.00  0.00    -0.081 Cl
HETATM   22  C   UNL     1     -38.651 -55.458  15.197  1.00  0.00     0.132 A 
HETATM   23  N   UNL     1     -38.854 -54.450  14.337  1.00  0.00    -0.308 N 
ATOM     24  HN  UNL     1     -38.290 -54.182  13.530  1.00  0.00     0.186 HD
ENDBRANCH  17  18
ENDBRANCH  14  17
ENDBRANCH  13  14
ENDBRANCH   8  13
TORSDOF 5
ENDMDL
MODEL 8
REMARK VINA RESULT:      -5.7      2.896      3.614
REMARK  5 active torsions:
REMARK  status: ('A' for Active; 'I' for Inactive)
REMARK    1  A    between atoms: N_8  and  C_9 
REMARK    2  A    between atoms: C_9  and  C_10 
REMARK    3  A    between atoms: C_10  and  O_11 
REMARK    4  A    between atoms: C_10  and  C_12 
REMARK    5  A    between atoms: C_12  and  N_13 
ROOT
HETATM    1  C   UNL     1     -47.098 -51.188  16.412  1.00  0.00     0.049 C 
HETATM    2  C   UNL     1     -45.924 -51.886  15.773  1.00  0.00    -0.054 A 
HETATM    3  C   UNL     1     -44.896 -52.379  16.600  1.00  0.00     0.039 A 
HETATM    4  C   UNL     1     -43.782 -53.009  16.026  1.00  0.00     0.060 A 
HETATM    5  N   UNL     1     -42.669 -53.542  16.629  1.00  0.00    -0.350 N 
ATOM      6  HN  UNL     1     -42.460 -53.569  17.627  1.00  0.00     0.166 HD
HETATM    7  C   UNL     1     -41.934 -54.009  15.649  1.00  0.00     0.184 A 
HETATM    8  N   UNL     1     -42.498 -53.757  14.428  1.00  0.00    -0.339 N 
HETATM    9  C   UNL     1     -43.714 -53.148  14.644  1.00  0.00     0.062 A 
HETATM   10  C   UNL     1     -44.730 -52.692  13.793  1.00  0.00     0.039 A 
HETATM   11  C   UNL     1     -45.838 -52.040  14.373  1.00  0.00    -0.054 A 
HETATM   12  C   UNL     1     -46.918 -51.504  13.468  1.00  0.00     0.049 C 
ENDROOT
BRANCH   8  13
HETATM   13  C   UNL     1     -41.902 -54.089  13.145  1.00  0.00     0.163 C 
BRANCH  13  14
HETATM   14  C   UNL     1     -40.827 -53.095  12.664  1.00  0.00     0.156 C 
BRANCH  14  15
HETATM   15  O   UNL     1     -40.422 -53.419  11.327  1.00  0.00    -0.392 OA
HETATM   16  H   UNL     1     -40.015 -52.634  10.916  1.00  0.00     0.210 HD
ENDBRANCH  14  15
BRANCH  14  17
HETATM   17  C   UNL     1     -41.254 -51.626  12.782  1.00  0.00     0.181 C 
BRANCH  17  18
HETATM   18  N   UNL     1     -40.119 -50.720  12.696  1.00  0.00    -0.300 N 
HETATM   19  C   UNL     1     -39.555 -50.032  13.733  1.00  0.00     0.135 A 
HETATM   20  C   UNL     1     -38.529 -49.305  13.186  1.00  0.00     0.068 A 
HETATM   21 CL   UNL     1     -37.476 -48.237  13.966  1.00  0.00    -0.081 Cl
HETATM   22  C   UNL     1     -38.537 -49.638  11.820  1.00  0.00     0.132 A 
HETATM   23  N   UNL     1     -39.503 -50.516  11.513  1.00  0.00    -0.308 N 
ATOM     24  HN  UNL     1     -39.719 -50.929  10.606  1.00  0.00     0.186 HD
ENDBRANCH  17  18
ENDBRANCH  14  17
ENDBRANCH  13  14
ENDBRANCH   8  13
TORSDOF 5
ENDMDL
MODEL 9
REMARK VINA RESULT:      -5.7      2.630      7.038
REMARK  5 active torsions:
REMARK  status: ('A' for Active; 'I' for Inactive)
REMARK    1  A    between atoms: N_8  and  C_9 
REMARK    2  A    between atoms: C_9  and  C_10 
REMARK    3  A    between atoms: C_10  and  O_11 
REMARK    4  A    between atoms: C_10  and  C_12 
REMARK    5  A    between atoms: C_12  and  N_13 
ROOT
HETATM    1  C   UNL     1     -39.259 -44.923  13.322  1.00  0.00     0.049 C 
HETATM    2  C   UNL     1     -39.485 -46.399  13.120  1.00  0.00    -0.054 A 
HETATM    3  C   UNL     1     -40.097 -46.836  11.928  1.00  0.00     0.039 A 
HETATM    4  C   UNL     1     -40.340 -48.202  11.729  1.00  0.00     0.060 A 
HETATM    5  N   UNL     1     -40.932 -48.841  10.667  1.00  0.00    -0.350 N 
ATOM      6  HN  UNL     1     -41.307 -48.415   9.820  1.00  0.00     0.166 HD
HETATM    7  C   UNL     1     -40.913 -50.115  10.975  1.00  0.00     0.184 A 
HETATM    8  N   UNL     1     -40.379 -50.329  12.217  1.00  0.00    -0.339 N 
HETATM    9  C   UNL     1     -39.962 -49.112  12.710  1.00  0.00     0.062 A 
HETATM   10  C   UNL     1     -39.327 -48.717  13.896  1.00  0.00     0.039 A 
HETATM   11  C   UNL     1     -39.104 -47.340  14.101  1.00  0.00    -0.054 A 
HETATM   12  C   UNL     1     -38.464 -46.894  15.392  1.00  0.00     0.049 C 
ENDROOT
BRANCH   8  13
HETATM   13  C   UNL     1     -40.274 -51.620  12.874  1.00  0.00     0.163 C 
BRANCH  13  14
HETATM   14  C   UNL     1     -41.180 -52.714  12.278  1.00  0.00     0.156 C 
BRANCH  14  15
HETATM   15  O   UNL     1     -40.438 -53.513  11.346  1.00  0.00    -0.392 OA
HETATM   16  H   UNL     1     -41.060 -54.039  10.809  1.00  0.00     0.210 HD
ENDBRANCH  14  15
BRANCH  14  17
HETATM   17  C   UNL     1     -41.869 -53.583  13.339  1.00  0.00     0.181 C 
BRANCH  17  18
HETATM   18  N   UNL     1     -43.312 -53.400  13.340  1.00  0.00    -0.300 N 
HETATM   19  C   UNL     1     -43.983 -52.263  12.985  1.00  0.00     0.135 A 
HETATM   20  C   UNL     1     -45.314 -52.547  13.148  1.00  0.00     0.068 A 
HETATM   21 CL   UNL     1     -46.637 -51.526  12.891  1.00  0.00    -0.081 Cl
HETATM   22  C   UNL     1     -45.350 -53.884  13.580  1.00  0.00     0.132 A 
HETATM   23  N   UNL     1     -44.125 -54.419  13.689  1.00  0.00    -0.308 N 
ATOM     24  HN  UNL     1     -43.870 -55.366  13.968  1.00  0.00     0.186 HD
ENDBRANCH  17  18
ENDBRANCH  14  17
ENDBRANCH  13  14
ENDBRANCH   8  13
TORSDOF 5
ENDMDL
