MODEL 1
REMARK VINA RESULT:      -6.9      0.000      0.000
REMARK  5 active torsions:
REMARK  status: ('A' for Active; 'I' for Inactive)
REMARK    1  A    between atoms: C_2  and  C_4 
REMARK    2  A    between atoms: C_4  and  C_5 
REMARK    3  A    between atoms: C_4  and  N_18 
REMARK    4  A    between atoms: C_5  and  N_6 
REMARK       I    between atoms: N_6  and  C_7 
REMARK       I    between atoms: C_7  and  N_9 
REMARK    5  A    between atoms: N_9  and  C_10 
ROOT
HETATM    1  N   UNL     1     -41.245 -52.014  11.663  1.00  0.00    -0.341 N 
HETATM    2  C   UNL     1     -42.183 -52.384  12.588  1.00  0.00     0.321 C 
HETATM    3  O   UNL     1     -41.985 -52.292  13.791  1.00  0.00    -0.247 OA
HETATM    4  N   UNL     1     -43.357 -52.818  12.004  1.00  0.00    -0.295 N 
HETATM    5  H   UNL     1     -41.374 -52.206  10.678  1.00  0.00     0.164 HD
HETATM    6  H   UNL     1     -43.650 -52.302  11.192  1.00  0.00     0.172 HD
ENDROOT
BRANCH   1   7
HETATM    7  C   UNL     1     -40.014 -51.359  12.073  1.00  0.00     0.149 C 
BRANCH   7   8
HETATM    8  C   UNL     1     -39.873 -49.924  11.490  1.00  0.00     0.100 C 
BRANCH   8   9
HETATM    9  C   UNL     1     -38.477 -49.279  11.826  1.00  0.00     0.001 C 
HETATM   10  C   UNL     1     -38.021 -49.353  13.282  1.00  0.00     0.011 C 
HETATM   11  C   UNL     1     -37.336 -49.860  10.969  1.00  0.00     0.011 C 
ENDBRANCH   8   9
BRANCH   8  12
HETATM   12  N   UNL     1     -41.135 -49.155  11.654  1.00  0.00    -0.403 N 
HETATM   13  C   UNL     1     -41.439 -48.175  10.611  1.00  0.00     0.147 C 
HETATM   14  C   UNL     1     -40.845 -46.770  10.843  1.00  0.00     0.291 C 
HETATM   15  N   UNL     1     -40.984 -46.196  12.193  1.00  0.00     0.087 N 
HETATM   16  C   UNL     1     -42.133 -45.309  12.296  1.00  0.00     0.310 C 
HETATM   17  C   UNL     1     -40.976 -47.189  13.282  1.00  0.00     0.291 C 
HETATM   18  C   UNL     1     -41.487 -48.605  12.963  1.00  0.00     0.147 C 
ENDBRANCH   8  12
ENDBRANCH   7   8
ENDBRANCH   1   7
BRANCH   4  19
HETATM   19  C   UNL     1     -44.433 -53.220  12.805  1.00  0.00     0.109 A 
HETATM   20  C   UNL     1     -44.649 -54.561  13.097  1.00  0.00     0.049 A 
HETATM   21  C   UNL     1     -45.663 -54.898  13.978  1.00  0.00     0.006 A 
HETATM   22  C   UNL     1     -46.418 -53.882  14.553  1.00  0.00     0.025 A 
HETATM   23  C   UNL     1     -46.159 -52.563  14.187  1.00  0.00     0.007 A 
HETATM   24  C   UNL     1     -46.889 -51.433  14.849  1.00  0.00     0.068 C 
HETATM   25  N   UNL     1     -45.203 -52.222  13.286  1.00  0.00    -0.346 N 
ATOM     26  HN  UNL     1     -45.073 -51.255  12.986  1.00  0.00     0.167 HD
ENDBRANCH   4  19
TORSDOF 5
ENDMDL
MODEL 2
REMARK VINA RESULT:      -6.6      4.194      5.259
REMARK  5 active torsions:
REMARK  status: ('A' for Active; 'I' for Inactive)
REMARK    1  A    between atoms: C_2  and  C_4 
REMARK    2  A    between atoms: C_4  and  C_5 
REMARK    3  A    between atoms: C_4  and  N_18 
REMARK    4  A    between atoms: C_5  and  N_6 
REMARK       I    between atoms: N_6  and  C_7 
REMARK       I    between atoms: C_7  and  N_9 
REMARK    5  A    between atoms: N_9  and  C_10 
ROOT
HETATM    1  N   UNL     1     -40.667 -49.182  10.876  1.00  0.00    -0.341 N 
HETATM    2  C   UNL     1     -41.911 -48.614  10.837  1.00  0.00     0.321 C 
HETATM    3  O   UNL     1     -42.680 -48.660  11.787  1.00  0.00    -0.247 OA
HETATM    4  N   UNL     1     -42.160 -47.969   9.641  1.00  0.00    -0.295 N 
HETATM    5  H   UNL     1     -40.091 -49.241  10.046  1.00  0.00     0.164 HD
HETATM    6  H   UNL     1     -41.381 -47.463   9.255  1.00  0.00     0.172 HD
ENDROOT
BRANCH   1   7
HETATM    7  C   UNL     1     -40.146 -49.747  12.109  1.00  0.00     0.149 C 
BRANCH   7   8
HETATM    8  C   UNL     1     -38.880 -49.006  12.624  1.00  0.00     0.100 C 
BRANCH   8   9
HETATM    9  C   UNL     1     -37.560 -49.814  12.340  1.00  0.00     0.001 C 
HETATM   10  C   UNL     1     -37.477 -51.220  12.929  1.00  0.00     0.011 C 
HETATM   11  C   UNL     1     -37.257 -49.940  10.834  1.00  0.00     0.011 C 
ENDBRANCH   8   9
BRANCH   8  12
HETATM   12  N   UNL     1     -39.129 -48.382  13.951  1.00  0.00    -0.403 N 
HETATM   13  C   UNL     1     -40.507 -47.971  14.227  1.00  0.00     0.147 C 
HETATM   14  C   UNL     1     -40.867 -46.545  13.767  1.00  0.00     0.291 C 
HETATM   15  N   UNL     1     -39.903 -45.474  14.076  1.00  0.00     0.087 N 
HETATM   16  C   UNL     1     -40.251 -44.757  15.294  1.00  0.00     0.310 C 
HETATM   17  C   UNL     1     -38.495 -45.909  14.096  1.00  0.00     0.291 C 
HETATM   18  C   UNL     1     -38.203 -47.374  14.465  1.00  0.00     0.147 C 
ENDBRANCH   8  12
ENDBRANCH   7   8
ENDBRANCH   1   7
BRANCH   4  19
HETATM   19  C   UNL     1     -43.381 -47.316   9.436  1.00  0.00     0.109 A 
HETATM   20  C   UNL     1     -43.437 -45.942   9.239  1.00  0.00     0.049 A 
HETATM   21  C   UNL     1     -44.656 -45.358   8.937  1.00  0.00     0.006 A 
HETATM   22  C   UNL     1     -45.779 -46.171   8.823  1.00  0.00     0.025 A 
HETATM   23  C   UNL     1     -45.647 -47.536   9.064  1.00  0.00     0.007 A 
HETATM   24  C   UNL     1     -46.813 -48.458   8.865  1.00  0.00     0.068 C 
HETATM   25  N   UNL     1     -44.469 -48.114   9.411  1.00  0.00    -0.346 N 
ATOM     26  HN  UNL     1     -44.410 -49.105   9.644  1.00  0.00     0.167 HD
ENDBRANCH   4  19
TORSDOF 5
ENDMDL
MODEL 3
REMARK VINA RESULT:      -6.5      2.267      3.921
REMARK  5 active torsions:
REMARK  status: ('A' for Active; 'I' for Inactive)
REMARK    1  A    between atoms: C_2  and  C_4 
REMARK    2  A    between atoms: C_4  and  C_5 
REMARK    3  A    between atoms: C_4  and  N_18 
REMARK    4  A    between atoms: C_5  and  N_6 
REMARK       I    between atoms: N_6  and  C_7 
REMARK       I    between atoms: C_7  and  N_9 
REMARK    5  A    between atoms: N_9  and  C_10 
ROOT
HETATM    1  N   UNL     1     -39.894 -48.913  11.182  1.00  0.00    -0.341 N 
HETATM    2  C   UNL     1     -40.490 -49.870  11.957  1.00  0.00     0.321 C 
HETATM    3  O   UNL     1     -40.882 -49.641  13.092  1.00  0.00    -0.247 OA
HETATM    4  N   UNL     1     -40.624 -51.076  11.296  1.00  0.00    -0.295 N 
HETATM    5  H   UNL     1     -39.468 -49.146  10.295  1.00  0.00     0.164 HD
HETATM    6  H   UNL     1     -40.876 -51.009  10.325  1.00  0.00     0.172 HD
ENDROOT
BRANCH   1   7
HETATM    7  C   UNL     1     -39.828 -47.531  11.628  1.00  0.00     0.149 C 
BRANCH   7   8
HETATM    8  C   UNL     1     -40.673 -46.572  10.742  1.00  0.00     0.100 C 
BRANCH   8   9
HETATM    9  C   UNL     1     -40.051 -45.128  10.666  1.00  0.00     0.001 C 
HETATM   10  C   UNL     1     -39.405 -44.593  11.942  1.00  0.00     0.011 C 
HETATM   11  C   UNL     1     -39.003 -44.995   9.544  1.00  0.00     0.011 C 
ENDBRANCH   8   9
BRANCH   8  12
HETATM   12  N   UNL     1     -42.128 -46.771  10.978  1.00  0.00    -0.403 N 
HETATM   13  C   UNL     1     -42.761 -47.866  10.242  1.00  0.00     0.147 C 
HETATM   14  C   UNL     1     -43.292 -47.492   8.844  1.00  0.00     0.291 C 
HETATM   15  N   UNL     1     -44.059 -46.238   8.729  1.00  0.00     0.087 N 
HETATM   16  C   UNL     1     -45.494 -46.465   8.793  1.00  0.00     0.310 C 
HETATM   17  C   UNL     1     -43.642 -45.181   9.667  1.00  0.00     0.291 C 
HETATM   18  C   UNL     1     -43.024 -45.615  11.008  1.00  0.00     0.147 C 
ENDBRANCH   8  12
ENDBRANCH   7   8
ENDBRANCH   1   7
BRANCH   4  19
HETATM   19  C   UNL     1     -41.229 -52.164  11.935  1.00  0.00     0.109 A 
HETATM   20  C   UNL     1     -40.478 -53.077  12.666  1.00  0.00     0.049 A 
HETATM   21  C   UNL     1     -41.134 -54.075  13.365  1.00  0.00     0.006 A 
HETATM   22  C   UNL     1     -42.523 -54.119  13.328  1.00  0.00     0.025 A 
HETATM   23  C   UNL     1     -43.204 -53.186  12.549  1.00  0.00     0.007 A 
HETATM   24  C   UNL     1     -44.703 -53.143  12.551  1.00  0.00     0.068 C 
HETATM   25  N   UNL     1     -42.571 -52.235  11.817  1.00  0.00    -0.346 N 
ATOM     26  HN  UNL     1     -43.087 -51.602  11.205  1.00  0.00     0.167 HD
ENDBRANCH   4  19
TORSDOF 5
ENDMDL
MODEL 4
REMARK VINA RESULT:      -6.4      1.924      6.853
REMARK  5 active torsions:
REMARK  status: ('A' for Active; 'I' for Inactive)
REMARK    1  A    between atoms: C_2  and  C_4 
REMARK    2  A    between atoms: C_4  and  C_5 
REMARK    3  A    between atoms: C_4  and  N_18 
REMARK    4  A    between atoms: C_5  and  N_6 
REMARK       I    between atoms: N_6  and  C_7 
REMARK       I    between atoms: C_7  and  N_9 
REMARK    5  A    between atoms: N_9  and  C_10 
ROOT
HETATM    1  N   UNL     1     -40.734 -51.181  11.598  1.00  0.00    -0.341 N 
HETATM    2  C   UNL     1     -41.010 -49.843  11.672  1.00  0.00     0.321 C 
HETATM    3  O   UNL     1     -40.980 -49.227  12.728  1.00  0.00    -0.247 OA
HETATM    4  N   UNL     1     -41.277 -49.290  10.434  1.00  0.00    -0.295 N 
HETATM    5  H   UNL     1     -40.879 -51.701  10.742  1.00  0.00     0.164 HD
HETATM    6  H   UNL     1     -40.705 -49.628   9.680  1.00  0.00     0.172 HD
ENDROOT
BRANCH   1   7
HETATM    7  C   UNL     1     -40.249 -51.905  12.762  1.00  0.00     0.149 C 
BRANCH   7   8
HETATM    8  C   UNL     1     -41.387 -52.626  13.538  1.00  0.00     0.100 C 
BRANCH   8   9
HETATM    9  C   UNL     1     -41.039 -54.130  13.845  1.00  0.00     0.001 C 
HETATM   10  C   UNL     1     -39.565 -54.522  13.764  1.00  0.00     0.011 C 
HETATM   11  C   UNL     1     -41.547 -54.584  15.227  1.00  0.00     0.011 C 
ENDBRANCH   8   9
BRANCH   8  12
HETATM   12  N   UNL     1     -42.722 -52.239  13.010  1.00  0.00    -0.403 N 
HETATM   13  C   UNL     1     -43.540 -51.385  13.873  1.00  0.00     0.147 C 
HETATM   14  C   UNL     1     -44.433 -52.139  14.879  1.00  0.00     0.291 C 
HETATM   15  N   UNL     1     -45.194 -53.294  14.369  1.00  0.00     0.087 N 
HETATM   16  C   UNL     1     -46.558 -52.935  14.010  1.00  0.00     0.310 C 
HETATM   17  C   UNL     1     -44.530 -54.028  13.278  1.00  0.00     0.291 C 
HETATM   18  C   UNL     1     -43.569 -53.243  12.367  1.00  0.00     0.147 C 
ENDBRANCH   8  12
ENDBRANCH   7   8
ENDBRANCH   1   7
BRANCH   4  19
HETATM   19  C   UNL     1     -41.565 -47.925  10.323  1.00  0.00     0.109 A 
HETATM   20  C   UNL     1     -42.840 -47.485   9.989  1.00  0.00     0.049 A 
HETATM   21  C   UNL     1     -43.099 -46.124   9.993  1.00  0.00     0.006 A 
HETATM   22  C   UNL     1     -42.080 -45.248  10.348  1.00  0.00     0.025 A 
HETATM   23  C   UNL     1     -40.821 -45.765  10.641  1.00  0.00     0.007 A 
HETATM   24  C   UNL     1     -39.720 -44.862  11.114  1.00  0.00     0.068 C 
HETATM   25  N   UNL     1     -40.539 -47.091  10.591  1.00  0.00    -0.346 N 
ATOM     26  HN  UNL     1     -39.593 -47.441  10.748  1.00  0.00     0.167 HD
ENDBRANCH   4  19
TORSDOF 5
ENDMDL
MODEL 5
REMARK VINA RESULT:      -6.3      1.622      2.069
REMARK  5 active torsions:
REMARK  status: ('A' for Active; 'I' for Inactive)
REMARK    1  A    between atoms: C_2  and  C_4 
REMARK    2  A    between atoms: C_4  and  C_5 
REMARK    3  A    between atoms: C_4  and  N_18 
REMARK    4  A    between atoms: C_5  and  N_6 
REMARK       I    between atoms: N_6  and  C_7 
REMARK       I    between atoms: C_7  and  N_9 
REMARK    5  A    between atoms: N_9  and  C_10 
ROOT
HETATM    1  N   UNL     1     -40.949 -51.125  11.344  1.00  0.00    -0.341 N 
HETATM    2  C   UNL     1     -42.034 -51.428  12.120  1.00  0.00     0.321 C 
HETATM    3  O   UNL     1     -42.462 -50.663  12.972  1.00  0.00    -0.247 OA
HETATM    4  N   UNL     1     -42.589 -52.651  11.796  1.00  0.00    -0.295 N 
HETATM    5  H   UNL     1     -40.534 -51.813  10.729  1.00  0.00     0.164 HD
HETATM    6  H   UNL     1     -42.618 -52.864  10.813  1.00  0.00     0.172 HD
ENDROOT
BRANCH   1   7
HETATM    7  C   UNL     1     -40.337 -49.808  11.403  1.00  0.00     0.149 C 
BRANCH   7   8
HETATM    8  C   UNL     1     -39.264 -49.692  12.522  1.00  0.00     0.100 C 
BRANCH   8   9
HETATM    9  C   UNL     1     -38.552 -51.066  12.809  1.00  0.00     0.001 C 
HETATM   10  C   UNL     1     -37.029 -51.086  12.691  1.00  0.00     0.011 C 
HETATM   11  C   UNL     1     -38.900 -51.632  14.199  1.00  0.00     0.011 C 
ENDBRANCH   8   9
BRANCH   8  12
HETATM   12  N   UNL     1     -39.743 -48.827  13.633  1.00  0.00    -0.403 N 
HETATM   13  C   UNL     1     -40.696 -47.776  13.274  1.00  0.00     0.147 C 
HETATM   14  C   UNL     1     -40.060 -46.440  12.841  1.00  0.00     0.291 C 
HETATM   15  N   UNL     1     -38.955 -45.921  13.668  1.00  0.00     0.087 N 
HETATM   16  C   UNL     1     -39.414 -44.946  14.646  1.00  0.00     0.310 C 
HETATM   17  C   UNL     1     -38.126 -46.962  14.300  1.00  0.00     0.291 C 
HETATM   18  C   UNL     1     -38.791 -48.313  14.617  1.00  0.00     0.147 C 
ENDBRANCH   8  12
ENDBRANCH   7   8
ENDBRANCH   1   7
BRANCH   4  19
HETATM   19  C   UNL     1     -43.720 -53.112  12.480  1.00  0.00     0.109 A 
HETATM   20  C   UNL     1     -43.748 -54.381  13.047  1.00  0.00     0.049 A 
HETATM   21  C   UNL     1     -44.849 -54.751  13.802  1.00  0.00     0.006 A 
HETATM   22  C   UNL     1     -45.878 -53.834  13.982  1.00  0.00     0.025 A 
HETATM   23  C   UNL     1     -45.789 -52.592  13.357  1.00  0.00     0.007 A 
HETATM   24  C   UNL     1     -46.834 -51.544  13.598  1.00  0.00     0.068 C 
HETATM   25  N   UNL     1     -44.741 -52.235  12.573  1.00  0.00    -0.346 N 
ATOM     26  HN  UNL     1     -44.726 -51.345  12.075  1.00  0.00     0.167 HD
ENDBRANCH   4  19
TORSDOF 5
ENDMDL
MODEL 6
REMARK VINA RESULT:      -6.3      1.612      2.482
REMARK  5 active torsions:
REMARK  status: ('A' for Active; 'I' for Inactive)
REMARK    1  A    between atoms: C_2  and  C_4 
REMARK    2  A    between atoms: C_4  and  C_5 
REMARK    3  A    between atoms: C_4  and  N_18 
REMARK    4  A    between atoms: C_5  and  N_6 
REMARK       I    between atoms: N_6  and  C_7 
REMARK       I    between atoms: C_7  and  N_9 
REMARK    5  A    between atoms: N_9  and  C_10 
ROOT
HETATM    1  N   UNL     1     -40.739 -50.913  11.168  1.00  0.00    -0.341 N 
HETATM    2  C   UNL     1     -41.421 -51.540  12.175  1.00  0.00     0.321 C 
HETATM    3  O   UNL     1     -42.091 -50.925  12.992  1.00  0.00    -0.247 OA
HETATM    4  N   UNL     1     -41.291 -52.915  12.123  1.00  0.00    -0.295 N 
HETATM    5  H   UNL     1     -40.095 -51.420  10.575  1.00  0.00     0.164 HD
HETATM    6  H   UNL     1     -41.309 -53.314  11.200  1.00  0.00     0.172 HD
ENDROOT
BRANCH   1   7
HETATM    7  C   UNL     1     -40.898 -49.486  10.940  1.00  0.00     0.149 C 
BRANCH   7   8
HETATM    8  C   UNL     1     -39.718 -48.650  11.511  1.00  0.00     0.100 C 
BRANCH   8   9
HETATM    9  C   UNL     1     -38.579 -49.558  12.108  1.00  0.00     0.001 C 
HETATM   10  C   UNL     1     -37.384 -49.842  11.200  1.00  0.00     0.011 C 
HETATM   11  C   UNL     1     -38.015 -49.004  13.430  1.00  0.00     0.011 C 
ENDBRANCH   8   9
BRANCH   8  12
HETATM   12  N   UNL     1     -40.217 -47.459  12.248  1.00  0.00    -0.403 N 
HETATM   13  C   UNL     1     -41.669 -47.347  12.396  1.00  0.00     0.147 C 
HETATM   14  C   UNL     1     -42.388 -46.623  11.240  1.00  0.00     0.291 C 
HETATM   15  N   UNL     1     -41.787 -45.368  10.754  1.00  0.00     0.087 N 
HETATM   16  C   UNL     1     -42.400 -44.196  11.361  1.00  0.00     0.310 C 
HETATM   17  C   UNL     1     -40.318 -45.316  10.856  1.00  0.00     0.291 C 
HETATM   18  C   UNL     1     -39.648 -46.140  11.969  1.00  0.00     0.147 C 
ENDBRANCH   8  12
ENDBRANCH   7   8
ENDBRANCH   1   7
BRANCH   4  19
HETATM   19  C   UNL     1     -41.939 -53.717  13.070  1.00  0.00     0.109 A 
HETATM   20  C   UNL     1     -41.263 -54.204  14.182  1.00  0.00     0.049 A 
HETATM   21  C   UNL     1     -41.973 -54.905  15.142  1.00  0.00     0.006 A 
HETATM   22  C   UNL     1     -43.341 -55.082  14.969  1.00  0.00     0.025 A 
HETATM   23  C   UNL     1     -43.941 -54.590  13.812  1.00  0.00     0.007 A 
HETATM   24  C   UNL     1     -45.427 -54.682  13.629  1.00  0.00     0.068 C 
HETATM   25  N   UNL     1     -43.249 -53.946  12.839  1.00  0.00    -0.346 N 
ATOM     26  HN  UNL     1     -43.698 -53.649  11.972  1.00  0.00     0.167 HD
ENDBRANCH   4  19
TORSDOF 5
ENDMDL
MODEL 7
REMARK VINA RESULT:      -6.1      2.058      6.475
REMARK  5 active torsions:
REMARK  status: ('A' for Active; 'I' for Inactive)
REMARK    1  A    between atoms: C_2  and  C_4 
REMARK    2  A    between atoms: C_4  and  C_5 
REMARK    3  A    between atoms: C_4  and  N_18 
REMARK    4  A    between atoms: C_5  and  N_6 
REMARK       I    between atoms: N_6  and  C_7 
REMARK       I    between atoms: C_7  and  N_9 
REMARK    5  A    between atoms: N_9  and  C_10 
ROOT
HETATM    1  N   UNL     1     -40.757 -53.025  11.859  1.00  0.00    -0.341 N 
HETATM    2  C   UNL     1     -41.188 -51.727  11.872  1.00  0.00     0.321 C 
HETATM    3  O   UNL     1     -42.233 -51.390  12.412  1.00  0.00    -0.247 OA
HETATM    4  N   UNL     1     -40.299 -50.870  11.252  1.00  0.00    -0.295 N 
HETATM    5  H   UNL     1     -39.957 -53.308  11.308  1.00  0.00     0.164 HD
HETATM    6  H   UNL     1     -39.327 -51.062  11.422  1.00  0.00     0.172 HD
ENDROOT
BRANCH   1   7
HETATM    7  C   UNL     1     -41.459 -54.048  12.617  1.00  0.00     0.149 C 
BRANCH   7   8
HETATM    8  C   UNL     1     -41.583 -53.699  14.127  1.00  0.00     0.100 C 
BRANCH   8   9
HETATM    9  C   UNL     1     -40.219 -53.871  14.893  1.00  0.00     0.001 C 
HETATM   10  C   UNL     1     -39.177 -54.778  14.242  1.00  0.00     0.011 C 
HETATM   11  C   UNL     1     -39.527 -52.523  15.174  1.00  0.00     0.011 C 
ENDBRANCH   8   9
BRANCH   8  12
HETATM   12  N   UNL     1     -42.854 -54.226  14.693  1.00  0.00    -0.403 N 
HETATM   13  C   UNL     1     -43.954 -54.422  13.748  1.00  0.00     0.147 C 
HETATM   14  C   UNL     1     -44.853 -53.189  13.529  1.00  0.00     0.291 C 
HETATM   15  N   UNL     1     -45.285 -52.449  14.728  1.00  0.00     0.087 N 
HETATM   16  C   UNL     1     -46.608 -52.857  15.177  1.00  0.00     0.310 C 
HETATM   17  C   UNL     1     -44.315 -52.466  15.837  1.00  0.00     0.291 C 
HETATM   18  C   UNL     1     -43.373 -53.678  15.946  1.00  0.00     0.147 C 
ENDBRANCH   8  12
ENDBRANCH   7   8
ENDBRANCH   1   7
BRANCH   4  19
HETATM   19  C   UNL     1     -40.574 -49.499  11.188  1.00  0.00     0.109 A 
HETATM   20  C   UNL     1     -39.694 -48.565  11.719  1.00  0.00     0.049 A 
HETATM   21  C   UNL     1     -39.959 -47.217  11.540  1.00  0.00     0.006 A 
HETATM   22  C   UNL     1     -41.089 -46.847  10.818  1.00  0.00     0.025 A 
HETATM   23  C   UNL     1     -41.939 -47.842  10.343  1.00  0.00     0.007 A 
HETATM   24  C   UNL     1     -43.118 -47.489   9.486  1.00  0.00     0.068 C 
HETATM   25  N   UNL     1     -41.718 -49.164  10.556  1.00  0.00    -0.346 N 
ATOM     26  HN  UNL     1     -42.387 -49.872  10.253  1.00  0.00     0.167 HD
ENDBRANCH   4  19
TORSDOF 5
ENDMDL
MODEL 8
REMARK VINA RESULT:      -6.0      1.709      2.947
REMARK  5 active torsions:
REMARK  status: ('A' for Active; 'I' for Inactive)
REMARK    1  A    between atoms: C_2  and  C_4 
REMARK    2  A    between atoms: C_4  and  C_5 
REMARK    3  A    between atoms: C_4  and  N_18 
REMARK    4  A    between atoms: C_5  and  N_6 
REMARK       I    between atoms: N_6  and  C_7 
REMARK       I    between atoms: C_7  and  N_9 
REMARK    5  A    between atoms: N_9  and  C_10 
ROOT
HETATM    1  N   UNL     1     -41.827 -49.712  11.285  1.00  0.00    -0.341 N 
HETATM    2  C   UNL     1     -42.191 -50.601  12.259  1.00  0.00     0.321 C 
HETATM    3  O   UNL     1     -42.607 -50.239  13.351  1.00  0.00    -0.247 OA
HETATM    4  N   UNL     1     -42.071 -51.914  11.847  1.00  0.00    -0.295 N 
HETATM    5  H   UNL     1     -41.374 -50.021  10.434  1.00  0.00     0.164 HD
HETATM    6  H   UNL     1     -42.347 -52.093  10.897  1.00  0.00     0.172 HD
ENDROOT
BRANCH   1   7
HETATM    7  C   UNL     1     -42.055 -48.287  11.456  1.00  0.00     0.149 C 
BRANCH   7   8
HETATM    8  C   UNL     1     -40.756 -47.447  11.297  1.00  0.00     0.100 C 
BRANCH   8   9
HETATM    9  C   UNL     1     -39.903 -47.411  12.620  1.00  0.00     0.001 C 
HETATM   10  C   UNL     1     -40.680 -47.403  13.935  1.00  0.00     0.011 C 
HETATM   11  C   UNL     1     -38.894 -48.571  12.702  1.00  0.00     0.011 C 
ENDBRANCH   8   9
BRANCH   8  12
HETATM   12  N   UNL     1     -41.014 -46.208  10.515  1.00  0.00    -0.403 N 
HETATM   13  C   UNL     1     -39.911 -45.251  10.431  1.00  0.00     0.147 C 
HETATM   14  C   UNL     1     -39.854 -44.218  11.575  1.00  0.00     0.291 C 
HETATM   15  N   UNL     1     -41.120 -43.565  11.956  1.00  0.00     0.087 N 
HETATM   16  C   UNL     1     -41.284 -42.272  11.310  1.00  0.00     0.310 C 
HETATM   17  C   UNL     1     -42.317 -44.407  11.780  1.00  0.00     0.291 C 
HETATM   18  C   UNL     1     -42.277 -45.490  10.687  1.00  0.00     0.147 C 
ENDBRANCH   8  12
ENDBRANCH   7   8
ENDBRANCH   1   7
BRANCH   4  19
HETATM   19  C   UNL     1     -42.419 -52.956  12.714  1.00  0.00     0.109 A 
HETATM   20  C   UNL     1     -41.467 -53.561  13.527  1.00  0.00     0.049 A 
HETATM   21  C   UNL     1     -41.879 -54.516  14.442  1.00  0.00     0.006 A 
HETATM   22  C   UNL     1     -43.233 -54.822  14.529  1.00  0.00     0.025 A 
HETATM   23  C   UNL     1     -44.121 -54.193  13.660  1.00  0.00     0.007 A 
HETATM   24  C   UNL     1     -45.597 -54.429  13.781  1.00  0.00     0.068 C 
HETATM   25  N   UNL     1     -43.725 -53.294  12.723  1.00  0.00    -0.346 N 
ATOM     26  HN  UNL     1     -44.384 -52.893  12.056  1.00  0.00     0.167 HD
ENDBRANCH   4  19
TORSDOF 5
ENDMDL
MODEL 9
REMARK VINA RESULT:      -5.9      1.969      2.499
REMARK  5 active torsions:
REMARK  status: ('A' for Active; 'I' for Inactive)
REMARK    1  A    between atoms: C_2  and  C_4 
REMARK    2  A    between atoms: C_4  and  C_5 
REMARK    3  A    between atoms: C_4  and  N_18 
REMARK    4  A    between atoms: C_5  and  N_6 
REMARK       I    between atoms: N_6  and  C_7 
REMARK       I    between atoms: C_7  and  N_9 
REMARK    5  A    between atoms: N_9  and  C_10 
ROOT
HETATM    1  N   UNL     1     -40.973 -50.192  12.503  1.00  0.00    -0.341 N 
HETATM    2  C   UNL     1     -42.331 -50.177  12.665  1.00  0.00     0.321 C 
HETATM    3  O   UNL     1     -43.045 -49.342  12.126  1.00  0.00    -0.247 OA
HETATM    4  N   UNL     1     -42.779 -51.216  13.458  1.00  0.00    -0.295 N 
HETATM    5  H   UNL     1     -40.385 -50.810  13.047  1.00  0.00     0.164 HD
HETATM    6  H   UNL     1     -42.316 -52.097  13.314  1.00  0.00     0.172 HD
ENDROOT
BRANCH   1   7
HETATM    7  C   UNL     1     -40.328 -49.294  11.559  1.00  0.00     0.149 C 
BRANCH   7   8
HETATM    8  C   UNL     1     -39.277 -48.367  12.233  1.00  0.00     0.100 C 
BRANCH   8   9
HETATM    9  C   UNL     1     -37.913 -49.106  12.500  1.00  0.00     0.001 C 
HETATM   10  C   UNL     1     -37.859 -50.023  13.720  1.00  0.00     0.011 C 
HETATM   11  C   UNL     1     -37.448 -49.941  11.291  1.00  0.00     0.011 C 
ENDBRANCH   8   9
BRANCH   8  12
HETATM   12  N   UNL     1     -39.908 -47.516  13.277  1.00  0.00    -0.403 N 
HETATM   13  C   UNL     1     -41.037 -46.691  12.848  1.00  0.00     0.147 C 
HETATM   14  C   UNL     1     -40.658 -45.301  12.299  1.00  0.00     0.291 C 
HETATM   15  N   UNL     1     -39.668 -44.521  13.065  1.00  0.00     0.087 N 
HETATM   16  C   UNL     1     -40.299 -43.570  13.967  1.00  0.00     0.310 C 
HETATM   17  C   UNL     1     -38.661 -45.337  13.767  1.00  0.00     0.291 C 
HETATM   18  C   UNL     1     -39.066 -46.757  14.202  1.00  0.00     0.147 C 
ENDBRANCH   8  12
ENDBRANCH   7   8
ENDBRANCH   1   7
BRANCH   4  19
HETATM   19  C   UNL     1     -44.147 -51.363  13.715  1.00  0.00     0.109 A 
HETATM   20  C   UNL     1     -44.656 -51.216  15.000  1.00  0.00     0.049 A 
HETATM   21  C   UNL     1     -46.027 -51.268  15.186  1.00  0.00     0.006 A 
HETATM   22  C   UNL     1     -46.848 -51.447  14.079  1.00  0.00     0.025 A 
HETATM   23  C   UNL     1     -46.261 -51.616  12.827  1.00  0.00     0.007 A 
HETATM   24  C   UNL     1     -47.112 -51.723  11.597  1.00  0.00     0.068 C 
HETATM   25  N   UNL     1     -44.918 -51.619  12.638  1.00  0.00    -0.346 N 
ATOM     26  HN  UNL     1     -44.509 -51.807  11.722  1.00  0.00     0.167 HD
ENDBRANCH   4  19
TORSDOF 5
ENDMDL
