MODEL 1
REMARK VINA RESULT:      -6.3      0.000      0.000
REMARK  4 active torsions:
REMARK  status: ('A' for Active; 'I' for Inactive)
REMARK    1  A    between atoms: O_1  and  C_2 
REMARK    2  A    between atoms: C_7  and  C_8 
REMARK    3  A    between atoms: C_8  and  N_9 
REMARK       I    between atoms: N_9  and  C_10 
REMARK       I    between atoms: C_10  and  N_12 
REMARK    4  A    between atoms: N_12  and  C_13 
ROOT
HETATM    1  N   UNL     1     -41.934 -51.201  11.733  1.00  0.00    -0.342 N 
HETATM    2  C   UNL     1     -42.648 -51.834  12.718  1.00  0.00     0.320 C 
HETATM    3  O   UNL     1     -42.281 -51.831  13.887  1.00  0.00    -0.247 OA
HETATM    4  N   UNL     1     -43.760 -52.476  12.225  1.00  0.00    -0.306 N 
HETATM    5  H   UNL     1     -42.368 -51.025  10.839  1.00  0.00     0.164 HD
HETATM    6  H   UNL     1     -43.749 -52.703  11.237  1.00  0.00     0.171 HD
ENDROOT
BRANCH   1   7
HETATM    7  C   UNL     1     -40.692 -50.511  12.047  1.00  0.00     0.131 C 
BRANCH   7   8
HETATM    8  C   UNL     1     -40.898 -48.992  12.163  1.00  0.00     0.032 C 
HETATM    9  C   UNL     1     -41.855 -48.481  11.071  1.00  0.00     0.123 C 
HETATM   10  C   UNL     1     -42.005 -46.957  11.122  1.00  0.00     0.032 C 
HETATM   11  C   UNL     1     -40.653 -46.248  11.062  1.00  0.00     0.002 C 
HETATM   12  C   UNL     1     -39.711 -46.747  12.151  1.00  0.00     0.001 C 
HETATM   13  C   UNL     1     -39.544 -48.262  12.101  1.00  0.00     0.009 C 
BRANCH   9  14
HETATM   14  O   UNL     1     -41.364 -48.864   9.786  1.00  0.00    -0.395 OA
HETATM   15  H   UNL     1     -41.499 -49.824   9.696  1.00  0.00     0.210 HD
ENDBRANCH   9  14
ENDBRANCH   7   8
ENDBRANCH   1   7
BRANCH   4  16
HETATM   16  C   UNL     1     -44.716 -53.158  13.014  1.00  0.00     0.077 A 
HETATM   17  C   UNL     1     -44.667 -54.532  13.247  1.00  0.00     0.050 A 
HETATM   18  C   UNL     1     -45.676 -55.120  13.994  1.00  0.00     0.090 A 
HETATM   19  N   UNL     1     -46.709 -54.438  14.533  1.00  0.00    -0.372 N 
HETATM   20  C   UNL     1     -46.722 -53.102  14.319  1.00  0.00     0.132 A 
ATOM     21  HN  UNL     1     -47.440 -54.904  15.070  1.00  0.00     0.164 HD
HETATM   22  C   UNL     1     -45.757 -52.430  13.588  1.00  0.00     0.158 A 
HETATM   23  F   UNL     1     -45.839 -51.103  13.417  1.00  0.00    -0.202 F 
ENDBRANCH   4  16
TORSDOF 4
ENDMDL
MODEL 2
REMARK VINA RESULT:      -6.2      1.588      2.247
REMARK  4 active torsions:
REMARK  status: ('A' for Active; 'I' for Inactive)
REMARK    1  A    between atoms: O_1  and  C_2 
REMARK    2  A    between atoms: C_7  and  C_8 
REMARK    3  A    between atoms: C_8  and  N_9 
REMARK       I    between atoms: N_9  and  C_10 
REMARK       I    between atoms: C_10  and  N_12 
REMARK    4  A    between atoms: N_12  and  C_13 
ROOT
HETATM    1  N   UNL     1     -42.100 -52.286  11.694  1.00  0.00    -0.342 N 
HETATM    2  C   UNL     1     -42.912 -52.395  12.794  1.00  0.00     0.320 C 
HETATM    3  O   UNL     1     -42.457 -52.451  13.931  1.00  0.00    -0.247 OA
HETATM    4  N   UNL     1     -44.242 -52.469  12.455  1.00  0.00    -0.306 N 
HETATM    5  H   UNL     1     -42.498 -52.014  10.808  1.00  0.00     0.164 HD
HETATM    6  H   UNL     1     -44.451 -52.772  11.510  1.00  0.00     0.171 HD
ENDROOT
BRANCH   1   7
HETATM    7  C   UNL     1     -40.653 -52.250  11.843  1.00  0.00     0.131 C 
BRANCH   7   8
HETATM    8  C   UNL     1     -40.165 -50.881  12.344  1.00  0.00     0.032 C 
HETATM    9  C   UNL     1     -40.786 -49.740  11.517  1.00  0.00     0.123 C 
HETATM   10  C   UNL     1     -40.245 -48.373  11.952  1.00  0.00     0.032 C 
HETATM   11  C   UNL     1     -38.718 -48.326  11.918  1.00  0.00     0.002 C 
HETATM   12  C   UNL     1     -38.107 -49.450  12.747  1.00  0.00     0.001 C 
HETATM   13  C   UNL     1     -38.627 -50.817  12.314  1.00  0.00     0.009 C 
BRANCH   9  14
HETATM   14  O   UNL     1     -40.502 -49.941  10.133  1.00  0.00    -0.395 OA
HETATM   15  H   UNL     1     -39.674 -50.450  10.077  1.00  0.00     0.210 HD
ENDBRANCH   9  14
ENDBRANCH   7   8
ENDBRANCH   1   7
BRANCH   4  16
HETATM   16  C   UNL     1     -45.310 -52.524  13.381  1.00  0.00     0.077 A 
HETATM   17  C   UNL     1     -45.929 -51.384  13.894  1.00  0.00     0.050 A 
HETATM   18  C   UNL     1     -46.936 -51.535  14.835  1.00  0.00     0.090 A 
HETATM   19  N   UNL     1     -47.375 -52.732  15.281  1.00  0.00    -0.372 N 
HETATM   20  C   UNL     1     -46.782 -53.825  14.750  1.00  0.00     0.132 A 
ATOM     21  HN  UNL     1     -48.113 -52.807  15.981  1.00  0.00     0.164 HD
HETATM   22  C   UNL     1     -45.770 -53.769  13.805  1.00  0.00     0.158 A 
HETATM   23  F   UNL     1     -45.228 -54.897  13.326  1.00  0.00    -0.202 F 
ENDBRANCH   4  16
TORSDOF 4
ENDMDL
MODEL 3
REMARK VINA RESULT:      -6.1      1.753      2.121
REMARK  4 active torsions:
REMARK  status: ('A' for Active; 'I' for Inactive)
REMARK    1  A    between atoms: O_1  and  C_2 
REMARK    2  A    between atoms: C_7  and  C_8 
REMARK    3  A    between atoms: C_8  and  N_9 
REMARK       I    between atoms: N_9  and  C_10 
REMARK       I    between atoms: C_10  and  N_12 
REMARK    4  A    between atoms: N_12  and  C_13 
ROOT
HETATM    1  N   UNL     1     -40.973 -50.723  11.181  1.00  0.00    -0.342 N 
HETATM    2  C   UNL     1     -41.626 -51.352  12.211  1.00  0.00     0.320 C 
HETATM    3  O   UNL     1     -41.500 -50.988  13.374  1.00  0.00    -0.247 OA
HETATM    4  N   UNL     1     -42.374 -52.421  11.777  1.00  0.00    -0.306 N 
HETATM    5  H   UNL     1     -41.267 -50.889  10.231  1.00  0.00     0.164 HD
HETATM    6  H   UNL     1     -42.111 -52.823  10.884  1.00  0.00     0.171 HD
ENDROOT
BRANCH   1   7
HETATM    7  C   UNL     1     -40.086 -49.600  11.444  1.00  0.00     0.131 C 
BRANCH   7   8
HETATM    8  C   UNL     1     -40.866 -48.290  11.638  1.00  0.00     0.032 C 
HETATM    9  C   UNL     1     -42.127 -48.265  10.754  1.00  0.00     0.123 C 
HETATM   10  C   UNL     1     -42.871 -46.930  10.874  1.00  0.00     0.032 C 
HETATM   11  C   UNL     1     -41.957 -45.739  10.586  1.00  0.00     0.002 C 
HETATM   12  C   UNL     1     -40.716 -45.761  11.471  1.00  0.00     0.001 C 
HETATM   13  C   UNL     1     -39.960 -47.079  11.349  1.00  0.00     0.009 C 
BRANCH   9  14
HETATM   14  O   UNL     1     -41.761 -48.479   9.391  1.00  0.00    -0.395 OA
HETATM   15  H   UNL     1     -42.289 -47.867   8.848  1.00  0.00     0.210 HD
ENDBRANCH   9  14
ENDBRANCH   7   8
ENDBRANCH   1   7
BRANCH   4  16
HETATM   16  C   UNL     1     -43.201 -53.217  12.604  1.00  0.00     0.077 A 
HETATM   17  C   UNL     1     -44.593 -53.144  12.579  1.00  0.00     0.050 A 
HETATM   18  C   UNL     1     -45.320 -53.928  13.462  1.00  0.00     0.090 A 
HETATM   19  N   UNL     1     -44.761 -54.782  14.347  1.00  0.00    -0.372 N 
HETATM   20  C   UNL     1     -43.410 -54.858  14.334  1.00  0.00     0.132 A 
ATOM     21  HN  UNL     1     -45.325 -55.338  14.989  1.00  0.00     0.164 HD
HETATM   22  C   UNL     1     -42.605 -54.115  13.488  1.00  0.00     0.158 A 
HETATM   23  F   UNL     1     -41.272 -54.243  13.537  1.00  0.00    -0.202 F 
ENDBRANCH   4  16
TORSDOF 4
ENDMDL
MODEL 4
REMARK VINA RESULT:      -5.9      3.011      6.953
REMARK  4 active torsions:
REMARK  status: ('A' for Active; 'I' for Inactive)
REMARK    1  A    between atoms: O_1  and  C_2 
REMARK    2  A    between atoms: C_7  and  C_8 
REMARK    3  A    between atoms: C_8  and  N_9 
REMARK       I    between atoms: N_9  and  C_10 
REMARK       I    between atoms: C_10  and  N_12 
REMARK    4  A    between atoms: N_12  and  C_13 
ROOT
HETATM    1  N   UNL     1     -42.123 -51.436  11.954  1.00  0.00    -0.342 N 
HETATM    2  C   UNL     1     -42.138 -50.068  12.062  1.00  0.00     0.320 C 
HETATM    3  O   UNL     1     -42.612 -49.502  13.039  1.00  0.00    -0.247 OA
HETATM    4  N   UNL     1     -41.607 -49.452  10.953  1.00  0.00    -0.306 N 
HETATM    5  H   UNL     1     -41.532 -51.873  11.263  1.00  0.00     0.164 HD
HETATM    6  H   UNL     1     -41.591 -49.998  10.098  1.00  0.00     0.171 HD
ENDROOT
BRANCH   1   7
HETATM    7  C   UNL     1     -42.693 -52.267  13.004  1.00  0.00     0.131 C 
BRANCH   7   8
HETATM    8  C   UNL     1     -41.613 -52.798  13.960  1.00  0.00     0.032 C 
HETATM    9  C   UNL     1     -40.275 -52.996  13.224  1.00  0.00     0.123 C 
HETATM   10  C   UNL     1     -39.211 -53.603  14.145  1.00  0.00     0.032 C 
HETATM   11  C   UNL     1     -39.692 -54.899  14.796  1.00  0.00     0.002 C 
HETATM   12  C   UNL     1     -41.011 -54.697  15.534  1.00  0.00     0.001 C 
HETATM   13  C   UNL     1     -42.082 -54.106  14.623  1.00  0.00     0.009 C 
BRANCH   9  14
HETATM   14  O   UNL     1     -40.469 -53.853  12.099  1.00  0.00    -0.395 OA
HETATM   15  H   UNL     1     -41.206 -54.452  12.313  1.00  0.00     0.210 HD
ENDBRANCH   9  14
ENDBRANCH   7   8
ENDBRANCH   1   7
BRANCH   4  16
HETATM   16  C   UNL     1     -41.435 -48.056  10.810  1.00  0.00     0.077 A 
HETATM   17  C   UNL     1     -40.312 -47.377  11.283  1.00  0.00     0.050 A 
HETATM   18  C   UNL     1     -40.254 -45.999  11.140  1.00  0.00     0.090 A 
HETATM   19  N   UNL     1     -41.219 -45.262  10.550  1.00  0.00    -0.372 N 
HETATM   20  C   UNL     1     -42.286 -45.943  10.072  1.00  0.00     0.132 A 
ATOM     21  HN  UNL     1     -41.148 -44.248  10.469  1.00  0.00     0.164 HD
HETATM   22  C   UNL     1     -42.428 -47.317  10.169  1.00  0.00     0.158 A 
HETATM   23  F   UNL     1     -43.517 -47.922   9.674  1.00  0.00    -0.202 F 
ENDBRANCH   4  16
TORSDOF 4
ENDMDL
MODEL 5
REMARK VINA RESULT:      -5.8      3.220      7.071
REMARK  4 active torsions:
REMARK  status: ('A' for Active; 'I' for Inactive)
REMARK    1  A    between atoms: O_1  and  C_2 
REMARK    2  A    between atoms: C_7  and  C_8 
REMARK    3  A    between atoms: C_8  and  N_9 
REMARK       I    between atoms: N_9  and  C_10 
REMARK       I    between atoms: C_10  and  N_12 
REMARK    4  A    between atoms: N_12  and  C_13 
ROOT
HETATM    1  N   UNL     1     -42.148 -51.455  12.006  1.00  0.00    -0.342 N 
HETATM    2  C   UNL     1     -42.171 -50.088  12.113  1.00  0.00     0.320 C 
HETATM    3  O   UNL     1     -42.623 -49.524  13.103  1.00  0.00    -0.247 OA
HETATM    4  N   UNL     1     -41.676 -49.469  10.990  1.00  0.00    -0.306 N 
HETATM    5  H   UNL     1     -41.573 -51.889  11.300  1.00  0.00     0.164 HD
HETATM    6  H   UNL     1     -41.679 -50.014  10.135  1.00  0.00     0.171 HD
ENDROOT
BRANCH   1   7
HETATM    7  C   UNL     1     -42.683 -52.289  13.071  1.00  0.00     0.131 C 
BRANCH   7   8
HETATM    8  C   UNL     1     -41.573 -52.810  13.999  1.00  0.00     0.032 C 
HETATM    9  C   UNL     1     -40.261 -53.024  13.221  1.00  0.00     0.123 C 
HETATM   10  C   UNL     1     -39.169 -53.621  14.116  1.00  0.00     0.032 C 
HETATM   11  C   UNL     1     -39.632 -54.905  14.803  1.00  0.00     0.002 C 
HETATM   12  C   UNL     1     -40.925 -54.688  15.581  1.00  0.00     0.001 C 
HETATM   13  C   UNL     1     -42.024 -54.106  14.697  1.00  0.00     0.009 C 
BRANCH   9  14
HETATM   14  O   UNL     1     -40.496 -53.897  12.117  1.00  0.00    -0.395 OA
HETATM   15  H   UNL     1     -39.652 -53.998  11.641  1.00  0.00     0.210 HD
ENDBRANCH   9  14
ENDBRANCH   7   8
ENDBRANCH   1   7
BRANCH   4  16
HETATM   16  C   UNL     1     -41.519 -48.071  10.841  1.00  0.00     0.077 A 
HETATM   17  C   UNL     1     -42.497 -47.253  10.276  1.00  0.00     0.050 A 
HETATM   18  C   UNL     1     -42.234 -45.900  10.126  1.00  0.00     0.090 A 
HETATM   19  N   UNL     1     -41.083 -45.310  10.513  1.00  0.00    -0.372 N 
HETATM   20  C   UNL     1     -40.158 -46.116  11.085  1.00  0.00     0.132 A 
ATOM     21  HN  UNL     1     -40.918 -44.312  10.380  1.00  0.00     0.164 HD
HETATM   22  C   UNL     1     -40.335 -47.476  11.275  1.00  0.00     0.158 A 
HETATM   23  F   UNL     1     -39.372 -48.211  11.847  1.00  0.00    -0.202 F 
ENDBRANCH   4  16
TORSDOF 4
ENDMDL
MODEL 6
REMARK VINA RESULT:      -5.7      2.449      6.952
REMARK  4 active torsions:
REMARK  status: ('A' for Active; 'I' for Inactive)
REMARK    1  A    between atoms: O_1  and  C_2 
REMARK    2  A    between atoms: C_7  and  C_8 
REMARK    3  A    between atoms: C_8  and  N_9 
REMARK       I    between atoms: N_9  and  C_10 
REMARK       I    between atoms: C_10  and  N_12 
REMARK    4  A    between atoms: N_12  and  C_13 
ROOT
HETATM    1  N   UNL     1     -41.493 -51.495  11.782  1.00  0.00    -0.342 N 
HETATM    2  C   UNL     1     -41.265 -50.153  11.956  1.00  0.00     0.320 C 
HETATM    3  O   UNL     1     -40.675 -49.719  12.938  1.00  0.00    -0.247 OA
HETATM    4  N   UNL     1     -41.802 -49.398  10.940  1.00  0.00    -0.306 N 
HETATM    5  H   UNL     1     -41.768 -51.838  10.874  1.00  0.00     0.164 HD
HETATM    6  H   UNL     1     -42.549 -49.826  10.406  1.00  0.00     0.171 HD
ENDROOT
BRANCH   1   7
HETATM    7  C   UNL     1     -41.050 -52.456  12.781  1.00  0.00     0.131 C 
BRANCH   7   8
HETATM    8  C   UNL     1     -42.089 -53.567  13.002  1.00  0.00     0.032 C 
HETATM    9  C   UNL     1     -43.500 -53.087  12.614  1.00  0.00     0.123 C 
HETATM   10  C   UNL     1     -44.557 -54.156  12.908  1.00  0.00     0.032 C 
HETATM   11  C   UNL     1     -44.504 -54.630  14.360  1.00  0.00     0.002 C 
HETATM   12  C   UNL     1     -43.109 -55.115  14.737  1.00  0.00     0.001 C 
HETATM   13  C   UNL     1     -42.049 -54.053  14.463  1.00  0.00     0.009 C 
BRANCH   9  14
HETATM   14  O   UNL     1     -43.817 -51.898  13.338  1.00  0.00    -0.395 OA
HETATM   15  H   UNL     1     -44.788 -51.829  13.374  1.00  0.00     0.210 HD
ENDBRANCH   9  14
ENDBRANCH   7   8
ENDBRANCH   1   7
BRANCH   4  16
HETATM   16  C   UNL     1     -41.670 -47.994  10.821  1.00  0.00     0.077 A 
HETATM   17  C   UNL     1     -40.459 -47.327  11.006  1.00  0.00     0.050 A 
HETATM   18  C   UNL     1     -40.436 -45.944  10.917  1.00  0.00     0.090 A 
HETATM   19  N   UNL     1     -41.522 -45.190  10.643  1.00  0.00    -0.372 N 
HETATM   20  C   UNL     1     -42.681 -45.858  10.438  1.00  0.00     0.132 A 
ATOM     21  HN  UNL     1     -41.472 -44.172  10.593  1.00  0.00     0.164 HD
HETATM   22  C   UNL     1     -42.796 -47.236  10.506  1.00  0.00     0.158 A 
HETATM   23  F   UNL     1     -43.980 -47.827  10.295  1.00  0.00    -0.202 F 
ENDBRANCH   4  16
TORSDOF 4
ENDMDL
MODEL 7
REMARK VINA RESULT:      -5.7      1.871      2.710
REMARK  4 active torsions:
REMARK  status: ('A' for Active; 'I' for Inactive)
REMARK    1  A    between atoms: O_1  and  C_2 
REMARK    2  A    between atoms: C_7  and  C_8 
REMARK    3  A    between atoms: C_8  and  N_9 
REMARK       I    between atoms: N_9  and  C_10 
REMARK       I    between atoms: C_10  and  N_12 
REMARK    4  A    between atoms: N_12  and  C_13 
ROOT
HETATM    1  N   UNL     1     -42.669 -50.234  12.325  1.00  0.00    -0.342 N 
HETATM    2  C   UNL     1     -43.223 -51.158  13.175  1.00  0.00     0.320 C 
HETATM    3  O   UNL     1     -42.796 -51.330  14.310  1.00  0.00    -0.247 OA
HETATM    4  N   UNL     1     -44.250 -51.858  12.586  1.00  0.00    -0.306 N 
HETATM    5  H   UNL     1     -43.174 -49.955  11.498  1.00  0.00     0.164 HD
HETATM    6  H   UNL     1     -44.260 -51.877  11.572  1.00  0.00     0.171 HD
ENDROOT
BRANCH   1   7
HETATM    7  C   UNL     1     -41.531 -49.431  12.746  1.00  0.00     0.131 C 
BRANCH   7   8
HETATM    8  C   UNL     1     -40.196 -50.120  12.420  1.00  0.00     0.032 C 
HETATM    9  C   UNL     1     -39.560 -50.716  13.689  1.00  0.00     0.123 C 
HETATM   10  C   UNL     1     -38.189 -51.333  13.393  1.00  0.00     0.032 C 
HETATM   11  C   UNL     1     -37.251 -50.341  12.707  1.00  0.00     0.002 C 
HETATM   12  C   UNL     1     -37.879 -49.761  11.445  1.00  0.00     0.001 C 
HETATM   13  C   UNL     1     -39.239 -49.131  11.730  1.00  0.00     0.009 C 
BRANCH   9  14
HETATM   14  O   UNL     1     -39.414 -49.696  14.677  1.00  0.00    -0.395 OA
HETATM   15  H   UNL     1     -40.008 -49.918  15.416  1.00  0.00     0.210 HD
ENDBRANCH   9  14
ENDBRANCH   7   8
ENDBRANCH   1   7
BRANCH   4  16
HETATM   16  C   UNL     1     -45.046 -52.827  13.240  1.00  0.00     0.077 A 
HETATM   17  C   UNL     1     -44.739 -54.188  13.237  1.00  0.00     0.050 A 
HETATM   18  C   UNL     1     -45.605 -55.070  13.864  1.00  0.00     0.090 A 
HETATM   19  N   UNL     1     -46.734 -54.692  14.502  1.00  0.00    -0.372 N 
HETATM   20  C   UNL     1     -46.997 -53.365  14.518  1.00  0.00     0.132 A 
ATOM     21  HN  UNL     1     -47.354 -55.369  14.946  1.00  0.00     0.164 HD
HETATM   22  C   UNL     1     -46.190 -52.412  13.919  1.00  0.00     0.158 A 
HETATM   23  F   UNL     1     -46.518 -51.114  13.975  1.00  0.00    -0.202 F 
ENDBRANCH   4  16
TORSDOF 4
ENDMDL
MODEL 8
REMARK VINA RESULT:      -5.6      1.743      2.685
REMARK  4 active torsions:
REMARK  status: ('A' for Active; 'I' for Inactive)
REMARK    1  A    between atoms: O_1  and  C_2 
REMARK    2  A    between atoms: C_7  and  C_8 
REMARK    3  A    between atoms: C_8  and  N_9 
REMARK       I    between atoms: N_9  and  C_10 
REMARK       I    between atoms: C_10  and  N_12 
REMARK    4  A    between atoms: N_12  and  C_13 
ROOT
HETATM    1  N   UNL     1     -42.742 -49.995  12.400  1.00  0.00    -0.342 N 
HETATM    2  C   UNL     1     -43.545 -50.706  13.256  1.00  0.00     0.320 C 
HETATM    3  O   UNL     1     -43.682 -50.385  14.430  1.00  0.00    -0.247 OA
HETATM    4  N   UNL     1     -44.115 -51.800  12.648  1.00  0.00    -0.306 N 
HETATM    5  H   UNL     1     -42.826 -50.139  11.405  1.00  0.00     0.164 HD
HETATM    6  H   UNL     1     -43.651 -52.147  11.817  1.00  0.00     0.171 HD
ENDROOT
BRANCH   1   7
HETATM    7  C   UNL     1     -42.005 -48.833  12.872  1.00  0.00     0.131 C 
BRANCH   7   8
HETATM    8  C   UNL     1     -40.496 -49.114  12.964  1.00  0.00     0.032 C 
HETATM    9  C   UNL     1     -39.818 -48.929  11.594  1.00  0.00     0.123 C 
HETATM   10  C   UNL     1     -38.328 -49.286  11.653  1.00  0.00     0.032 C 
HETATM   11  C   UNL     1     -38.099 -50.691  12.210  1.00  0.00     0.002 C 
HETATM   12  C   UNL     1     -38.762 -50.866  13.571  1.00  0.00     0.001 C 
HETATM   13  C   UNL     1     -40.249 -50.527  13.522  1.00  0.00     0.009 C 
BRANCH   9  14
HETATM   14  O   UNL     1     -40.463 -49.755  10.625  1.00  0.00    -0.395 OA
HETATM   15  H   UNL     1     -39.805 -49.968   9.939  1.00  0.00     0.210 HD
ENDBRANCH   9  14
ENDBRANCH   7   8
ENDBRANCH   1   7
BRANCH   4  16
HETATM   16  C   UNL     1     -45.036 -52.678  13.265  1.00  0.00     0.077 A 
HETATM   17  C   UNL     1     -46.228 -52.243  13.845  1.00  0.00     0.050 A 
HETATM   18  C   UNL     1     -47.046 -53.172  14.471  1.00  0.00     0.090 A 
HETATM   19  N   UNL     1     -46.768 -54.492  14.543  1.00  0.00    -0.372 N 
HETATM   20  C   UNL     1     -45.621 -54.896  13.950  1.00  0.00     0.132 A 
ATOM     21  HN  UNL     1     -47.388 -55.147  15.019  1.00  0.00     0.164 HD
HETATM   22  C   UNL     1     -44.746 -54.041  13.302  1.00  0.00     0.158 A 
HETATM   23  F   UNL     1     -43.626 -54.516  12.740  1.00  0.00    -0.202 F 
ENDBRANCH   4  16
TORSDOF 4
ENDMDL
MODEL 9
REMARK VINA RESULT:      -5.2      2.718      7.251
REMARK  4 active torsions:
REMARK  status: ('A' for Active; 'I' for Inactive)
REMARK    1  A    between atoms: O_1  and  C_2 
REMARK    2  A    between atoms: C_7  and  C_8 
REMARK    3  A    between atoms: C_8  and  N_9 
REMARK       I    between atoms: N_9  and  C_10 
REMARK       I    between atoms: C_10  and  N_12 
REMARK    4  A    between atoms: N_12  and  C_13 
ROOT
HETATM    1  N   UNL     1     -41.600 -51.502  11.948  1.00  0.00    -0.342 N 
HETATM    2  C   UNL     1     -41.671 -50.144  12.134  1.00  0.00     0.320 C 
HETATM    3  O   UNL     1     -41.744 -49.647  13.251  1.00  0.00    -0.247 OA
HETATM    4  N   UNL     1     -41.687 -49.456  10.943  1.00  0.00    -0.306 N 
HETATM    5  H   UNL     1     -41.312 -51.867  11.053  1.00  0.00     0.164 HD
HETATM    6  H   UNL     1     -41.982 -49.977  10.125  1.00  0.00     0.171 HD
ENDROOT
BRANCH   1   7
HETATM    7  C   UNL     1     -41.627 -52.406  13.088  1.00  0.00     0.131 C 
BRANCH   7   8
HETATM    8  C   UNL     1     -43.065 -52.705  13.544  1.00  0.00     0.032 C 
HETATM    9  C   UNL     1     -43.072 -53.658  14.754  1.00  0.00     0.123 C 
HETATM   10  C   UNL     1     -44.499 -54.030  15.168  1.00  0.00     0.032 C 
HETATM   11  C   UNL     1     -45.303 -54.598  13.999  1.00  0.00     0.002 C 
HETATM   12  C   UNL     1     -45.304 -53.647  12.807  1.00  0.00     0.001 C 
HETATM   13  C   UNL     1     -43.888 -53.281  12.377  1.00  0.00     0.009 C 
BRANCH   9  14
HETATM   14  O   UNL     1     -42.349 -54.846  14.431  1.00  0.00    -0.395 OA
HETATM   15  H   UNL     1     -41.963 -55.185  15.258  1.00  0.00     0.210 HD
ENDBRANCH   9  14
ENDBRANCH   7   8
ENDBRANCH   1   7
BRANCH   4  16
HETATM   16  C   UNL     1     -41.693 -48.047  10.825  1.00  0.00     0.077 A 
HETATM   17  C   UNL     1     -42.828 -47.320  10.466  1.00  0.00     0.050 A 
HETATM   18  C   UNL     1     -42.725 -45.944  10.328  1.00  0.00     0.090 A 
HETATM   19  N   UNL     1     -41.586 -45.249  10.538  1.00  0.00    -0.372 N 
HETATM   20  C   UNL     1     -40.505 -45.970  10.913  1.00  0.00     0.132 A 
ATOM     21  HN  UNL     1     -41.543 -44.237  10.419  1.00  0.00     0.164 HD
HETATM   22  C   UNL     1     -40.515 -47.345  11.077  1.00  0.00     0.158 A 
HETATM   23  F   UNL     1     -39.401 -47.991  11.448  1.00  0.00    -0.202 F 
ENDBRANCH   4  16
TORSDOF 4
ENDMDL
