MODEL 1
REMARK VINA RESULT:      -6.4      0.000      0.000
REMARK  7 active torsions:
REMARK  status: ('A' for Active; 'I' for Inactive)
REMARK    1  A    between atoms: C_4  and  C_22 
REMARK    2  A    between atoms: C_7  and  O_8 
REMARK    3  A    between atoms: O_8  and  C_9 
REMARK    4  A    between atoms: C_9  and  C_10 
REMARK    5  A    between atoms: C_10  and  O_11 
REMARK    6  A    between atoms: C_10  and  C_12 
REMARK    7  A    between atoms: C_12  and  N_13 
ROOT
HETATM    1  C   UNL     1     -42.247 -51.386  13.014  1.00  0.00     0.209 C 
ENDROOT
BRANCH   1   2
HETATM    2  O   UNL     1     -43.502 -50.721  12.836  1.00  0.00    -0.348 OA
BRANCH   2   3
HETATM    3  C   UNL     1     -44.407 -50.769  13.861  1.00  0.00     0.074 A 
HETATM    4  C   UNL     1     -45.746 -51.175  13.794  1.00  0.00    -0.028 A 
HETATM    5  C   UNL     1     -46.458 -51.595  12.541  1.00  0.00     0.051 C 
HETATM    6  C   UNL     1     -46.497 -51.227  14.985  1.00  0.00     0.017 A 
HETATM    7  C   UNL     1     -45.974 -50.883  16.241  1.00  0.00    -0.050 A 
HETATM    8  C   UNL     1     -44.627 -50.503  16.282  1.00  0.00     0.011 A 
HETATM    9  C   UNL     1     -43.856 -50.459  15.112  1.00  0.00     0.038 A 
BRANCH   7  10
HETATM   10  C   UNL     1     -46.836 -50.907  17.515  1.00  0.00    -0.024 C 
HETATM   11  C   UNL     1     -46.615 -52.171  18.381  1.00  0.00     0.019 C 
HETATM   12  C   UNL     1     -46.520 -49.686  18.402  1.00  0.00     0.019 C 
HETATM   13  C   UNL     1     -48.329 -50.882  17.126  1.00  0.00     0.019 C 
ENDBRANCH   7  10
ENDBRANCH   2   3
ENDBRANCH   1   2
BRANCH   1  14
HETATM   14  C   UNL     1     -42.199 -52.624  12.106  1.00  0.00     0.161 C 
BRANCH  14  15
HETATM   15  O   UNL     1     -41.204 -52.447  11.093  1.00  0.00    -0.392 OA
HETATM   16  H   UNL     1     -40.606 -53.217  11.141  1.00  0.00     0.210 HD
ENDBRANCH  14  15
BRANCH  14  17
HETATM   17  C   UNL     1     -41.919 -53.879  12.954  1.00  0.00     0.171 C 
BRANCH  17  18
HETATM   18  N   UNL     1     -42.879 -54.081  14.030  1.00  0.00    -0.264 N 
HETATM   19  C   UNL     1     -42.412 -54.034  15.329  1.00  0.00     0.252 C 
HETATM   20  O   UNL     1     -41.231 -53.930  15.654  1.00  0.00    -0.268 OA
HETATM   21  C   UNL     1     -43.436 -54.078  16.384  1.00  0.00     0.092 C 
HETATM   22  C   UNL     1     -44.705 -54.314  16.053  1.00  0.00     0.100 C 
HETATM   23  N   UNL     1     -45.084 -54.509  14.747  1.00  0.00    -0.314 N 
HETATM   24  C   UNL     1     -46.458 -54.879  14.446  1.00  0.00     0.160 C 
HETATM   25  C   UNL     1     -44.189 -54.405  13.683  1.00  0.00     0.331 C 
HETATM   26  O   UNL     1     -44.535 -54.583  12.513  1.00  0.00    -0.246 OA
ENDBRANCH  17  18
ENDBRANCH  14  17
ENDBRANCH   1  14
TORSDOF 7
ENDMDL
MODEL 2
REMARK VINA RESULT:      -6.1      0.643      2.083
REMARK  7 active torsions:
REMARK  status: ('A' for Active; 'I' for Inactive)
REMARK    1  A    between atoms: C_4  and  C_22 
REMARK    2  A    between atoms: C_7  and  O_8 
REMARK    3  A    between atoms: O_8  and  C_9 
REMARK    4  A    between atoms: C_9  and  C_10 
REMARK    5  A    between atoms: C_10  and  O_11 
REMARK    6  A    between atoms: C_10  and  C_12 
REMARK    7  A    between atoms: C_12  and  N_13 
ROOT
HETATM    1  C   UNL     1     -42.245 -51.344  12.894  1.00  0.00     0.209 C 
ENDROOT
BRANCH   1   2
HETATM    2  O   UNL     1     -43.527 -50.731  12.721  1.00  0.00    -0.348 OA
BRANCH   2   3
HETATM    3  C   UNL     1     -44.416 -50.795  13.760  1.00  0.00     0.074 A 
HETATM    4  C   UNL     1     -45.747 -51.228  13.714  1.00  0.00    -0.028 A 
HETATM    5  C   UNL     1     -46.469 -51.665  12.472  1.00  0.00     0.051 C 
HETATM    6  C   UNL     1     -46.480 -51.292  14.915  1.00  0.00     0.017 A 
HETATM    7  C   UNL     1     -45.945 -50.934  16.163  1.00  0.00    -0.050 A 
HETATM    8  C   UNL     1     -44.606 -50.527  16.183  1.00  0.00     0.011 A 
HETATM    9  C   UNL     1     -43.853 -50.471  15.002  1.00  0.00     0.038 A 
BRANCH   7  10
HETATM   10  C   UNL     1     -46.788 -50.972  17.449  1.00  0.00    -0.024 C 
HETATM   11  C   UNL     1     -48.311 -50.890  17.187  1.00  0.00     0.019 C 
HETATM   12  C   UNL     1     -46.528 -52.280  18.224  1.00  0.00     0.019 C 
HETATM   13  C   UNL     1     -46.419 -49.770  18.343  1.00  0.00     0.019 C 
ENDBRANCH   7  10
ENDBRANCH   2   3
ENDBRANCH   1   2
BRANCH   1  14
HETATM   14  C   UNL     1     -42.193 -52.642  12.074  1.00  0.00     0.161 C 
BRANCH  14  15
HETATM   15  O   UNL     1     -41.210 -52.525  11.040  1.00  0.00    -0.392 OA
HETATM   16  H   UNL     1     -40.900 -53.428  10.836  1.00  0.00     0.210 HD
ENDBRANCH  14  15
BRANCH  14  17
HETATM   17  C   UNL     1     -41.889 -53.831  13.004  1.00  0.00     0.171 C 
BRANCH  17  18
HETATM   18  N   UNL     1     -42.874 -54.010  14.063  1.00  0.00    -0.264 N 
HETATM   19  C   UNL     1     -44.155 -54.372  13.697  1.00  0.00     0.252 C 
HETATM   20  O   UNL     1     -44.563 -54.465  12.541  1.00  0.00    -0.268 OA
HETATM   21  C   UNL     1     -45.071 -54.700  14.800  1.00  0.00     0.092 C 
HETATM   22  C   UNL     1     -44.684 -54.487  16.056  1.00  0.00     0.100 C 
HETATM   23  N   UNL     1     -43.444 -53.974  16.350  1.00  0.00    -0.314 N 
HETATM   24  C   UNL     1     -43.108 -53.648  17.727  1.00  0.00     0.160 C 
HETATM   25  C   UNL     1     -42.490 -53.710  15.367  1.00  0.00     0.331 C 
HETATM   26  O   UNL     1     -41.379 -53.249  15.637  1.00  0.00    -0.246 OA
ENDBRANCH  17  18
ENDBRANCH  14  17
ENDBRANCH   1  14
TORSDOF 7
ENDMDL
MODEL 3
REMARK VINA RESULT:      -5.8      4.265      7.068
REMARK  7 active torsions:
REMARK  status: ('A' for Active; 'I' for Inactive)
REMARK    1  A    between atoms: C_4  and  C_22 
REMARK    2  A    between atoms: C_7  and  O_8 
REMARK    3  A    between atoms: O_8  and  C_9 
REMARK    4  A    between atoms: C_9  and  C_10 
REMARK    5  A    between atoms: C_10  and  O_11 
REMARK    6  A    between atoms: C_10  and  C_12 
REMARK    7  A    between atoms: C_12  and  N_13 
ROOT
HETATM    1  C   UNL     1     -39.505 -51.016  12.543  1.00  0.00     0.209 C 
ENDROOT
BRANCH   1   2
HETATM    2  O   UNL     1     -40.134 -52.159  11.955  1.00  0.00    -0.348 OA
BRANCH   2   3
HETATM    3  C   UNL     1     -41.212 -52.703  12.599  1.00  0.00     0.074 A 
HETATM    4  C   UNL     1     -41.199 -53.679  13.603  1.00  0.00    -0.028 A 
HETATM    5  C   UNL     1     -39.967 -54.357  14.131  1.00  0.00     0.051 C 
HETATM    6  C   UNL     1     -42.419 -54.054  14.199  1.00  0.00     0.017 A 
HETATM    7  C   UNL     1     -43.657 -53.503  13.831  1.00  0.00    -0.050 A 
HETATM    8  C   UNL     1     -43.638 -52.513  12.841  1.00  0.00     0.011 A 
HETATM    9  C   UNL     1     -42.434 -52.113  12.246  1.00  0.00     0.038 A 
BRANCH   7  10
HETATM   10  C   UNL     1     -44.976 -53.969  14.471  1.00  0.00    -0.024 C 
HETATM   11  C   UNL     1     -46.130 -52.950  14.307  1.00  0.00     0.019 C 
HETATM   12  C   UNL     1     -45.443 -55.294  13.836  1.00  0.00     0.019 C 
HETATM   13  C   UNL     1     -44.768 -54.176  15.986  1.00  0.00     0.019 C 
ENDBRANCH   7  10
ENDBRANCH   2   3
ENDBRANCH   1   2
BRANCH   1  14
HETATM   14  C   UNL     1     -39.752 -49.790  11.650  1.00  0.00     0.161 C 
BRANCH  14  15
HETATM   15  O   UNL     1     -40.215 -50.210  10.363  1.00  0.00    -0.392 OA
HETATM   16  H   UNL     1     -41.140 -49.912  10.280  1.00  0.00     0.210 HD
ENDBRANCH  14  15
BRANCH  14  17
HETATM   17  C   UNL     1     -40.764 -48.849  12.331  1.00  0.00     0.171 C 
BRANCH  17  18
HETATM   18  N   UNL     1     -40.646 -47.461  11.907  1.00  0.00    -0.264 N 
HETATM   19  C   UNL     1     -41.329 -47.072  10.772  1.00  0.00     0.252 C 
HETATM   20  O   UNL     1     -41.956 -47.825  10.029  1.00  0.00    -0.268 OA
HETATM   21  C   UNL     1     -41.315 -45.632  10.473  1.00  0.00     0.092 C 
HETATM   22  C   UNL     1     -40.541 -44.823  11.195  1.00  0.00     0.100 C 
HETATM   23  N   UNL     1     -39.760 -45.298  12.219  1.00  0.00    -0.314 N 
HETATM   24  C   UNL     1     -38.844 -44.398  12.902  1.00  0.00     0.160 C 
HETATM   25  C   UNL     1     -39.776 -46.636  12.615  1.00  0.00     0.331 C 
HETATM   26  O   UNL     1     -39.071 -47.058  13.535  1.00  0.00    -0.246 OA
ENDBRANCH  17  18
ENDBRANCH  14  17
ENDBRANCH   1  14
TORSDOF 7
ENDMDL
MODEL 4
REMARK VINA RESULT:      -5.8      4.054      6.596
REMARK  7 active torsions:
REMARK  status: ('A' for Active; 'I' for Inactive)
REMARK    1  A    between atoms: C_4  and  C_22 
REMARK    2  A    between atoms: C_7  and  O_8 
REMARK    3  A    between atoms: O_8  and  C_9 
REMARK    4  A    between atoms: C_9  and  C_10 
REMARK    5  A    between atoms: C_10  and  O_11 
REMARK    6  A    between atoms: C_10  and  C_12 
REMARK    7  A    between atoms: C_12  and  N_13 
ROOT
HETATM    1  C   UNL     1     -39.452 -51.146  12.575  1.00  0.00     0.209 C 
ENDROOT
BRANCH   1   2
HETATM    2  O   UNL     1     -40.135 -52.236  11.947  1.00  0.00    -0.348 OA
BRANCH   2   3
HETATM    3  C   UNL     1     -41.228 -52.761  12.580  1.00  0.00     0.074 A 
HETATM    4  C   UNL     1     -41.243 -53.749  13.572  1.00  0.00    -0.028 A 
HETATM    5  C   UNL     1     -40.031 -54.463  14.096  1.00  0.00     0.051 C 
HETATM    6  C   UNL     1     -42.475 -54.102  14.158  1.00  0.00     0.017 A 
HETATM    7  C   UNL     1     -43.697 -53.516  13.792  1.00  0.00    -0.050 A 
HETATM    8  C   UNL     1     -43.650 -52.515  12.814  1.00  0.00     0.011 A 
HETATM    9  C   UNL     1     -42.434 -52.137  12.229  1.00  0.00     0.038 A 
BRANCH   7  10
HETATM   10  C   UNL     1     -45.030 -53.957  14.420  1.00  0.00    -0.024 C 
HETATM   11  C   UNL     1     -44.955 -54.132  15.956  1.00  0.00     0.019 C 
HETATM   12  C   UNL     1     -46.131 -52.917  14.133  1.00  0.00     0.019 C 
HETATM   13  C   UNL     1     -45.451 -55.319  13.831  1.00  0.00     0.019 C 
ENDBRANCH   7  10
ENDBRANCH   2   3
ENDBRANCH   1   2
BRANCH   1  14
HETATM   14  C   UNL     1     -39.667 -49.871  11.746  1.00  0.00     0.161 C 
BRANCH  14  15
HETATM   15  O   UNL     1     -40.184 -50.211  10.456  1.00  0.00    -0.392 OA
HETATM   16  H   UNL     1     -39.934 -51.138  10.282  1.00  0.00     0.210 HD
ENDBRANCH  14  15
BRANCH  14  17
HETATM   17  C   UNL     1     -40.614 -48.917  12.497  1.00  0.00     0.171 C 
BRANCH  17  18
HETATM   18  N   UNL     1     -40.761 -47.617  11.857  1.00  0.00    -0.264 N 
HETATM   19  C   UNL     1     -39.908 -46.605  12.249  1.00  0.00     0.252 C 
HETATM   20  O   UNL     1     -39.093 -46.680  13.166  1.00  0.00    -0.268 OA
HETATM   21  C   UNL     1     -39.980 -45.362  11.465  1.00  0.00     0.092 C 
HETATM   22  C   UNL     1     -40.939 -45.221  10.551  1.00  0.00     0.100 C 
HETATM   23  N   UNL     1     -41.860 -46.212  10.315  1.00  0.00    -0.314 N 
HETATM   24  C   UNL     1     -42.958 -45.968   9.393  1.00  0.00     0.160 C 
HETATM   25  C   UNL     1     -41.813 -47.448  10.960  1.00  0.00     0.331 C 
HETATM   26  O   UNL     1     -42.644 -48.334  10.745  1.00  0.00    -0.246 OA
ENDBRANCH  17  18
ENDBRANCH  14  17
ENDBRANCH   1  14
TORSDOF 7
ENDMDL
MODEL 5
REMARK VINA RESULT:      -5.8      4.214      6.172
REMARK  7 active torsions:
REMARK  status: ('A' for Active; 'I' for Inactive)
REMARK    1  A    between atoms: C_4  and  C_22 
REMARK    2  A    between atoms: C_7  and  O_8 
REMARK    3  A    between atoms: O_8  and  C_9 
REMARK    4  A    between atoms: C_9  and  C_10 
REMARK    5  A    between atoms: C_10  and  O_11 
REMARK    6  A    between atoms: C_10  and  C_12 
REMARK    7  A    between atoms: C_12  and  N_13 
ROOT
HETATM    1  C   UNL     1     -40.353 -50.742  11.963  1.00  0.00     0.209 C 
ENDROOT
BRANCH   1   2
HETATM    2  O   UNL     1     -40.777 -49.872  10.909  1.00  0.00    -0.348 OA
BRANCH   2   3
HETATM    3  C   UNL     1     -40.743 -48.523  11.136  1.00  0.00     0.074 A 
HETATM    4  C   UNL     1     -41.589 -47.548  10.592  1.00  0.00    -0.028 A 
HETATM    5  C   UNL     1     -42.683 -47.812   9.598  1.00  0.00     0.051 C 
HETATM    6  C   UNL     1     -41.440 -46.212  11.013  1.00  0.00     0.017 A 
HETATM    7  C   UNL     1     -40.477 -45.802  11.949  1.00  0.00    -0.050 A 
HETATM    8  C   UNL     1     -39.660 -46.801  12.493  1.00  0.00     0.011 A 
HETATM    9  C   UNL     1     -39.801 -48.139  12.100  1.00  0.00     0.038 A 
BRANCH   7  10
HETATM   10  C   UNL     1     -40.311 -44.327  12.352  1.00  0.00    -0.024 C 
HETATM   11  C   UNL     1     -40.485 -43.345  11.168  1.00  0.00     0.019 C 
HETATM   12  C   UNL     1     -41.354 -43.941  13.420  1.00  0.00     0.019 C 
HETATM   13  C   UNL     1     -38.894 -44.104  12.919  1.00  0.00     0.019 C 
ENDBRANCH   7  10
ENDBRANCH   2   3
ENDBRANCH   1   2
BRANCH   1  14
HETATM   14  C   UNL     1     -41.279 -51.967  12.008  1.00  0.00     0.161 C 
BRANCH  14  15
HETATM   15  O   UNL     1     -40.562 -53.135  11.597  1.00  0.00    -0.392 OA
HETATM   16  H   UNL     1     -41.047 -53.907  11.946  1.00  0.00     0.210 HD
ENDBRANCH  14  15
BRANCH  14  17
HETATM   17  C   UNL     1     -41.852 -52.132  13.428  1.00  0.00     0.171 C 
BRANCH  17  18
HETATM   18  N   UNL     1     -43.289 -52.367  13.453  1.00  0.00    -0.264 N 
HETATM   19  C   UNL     1     -44.124 -51.270  13.368  1.00  0.00     0.252 C 
HETATM   20  O   UNL     1     -43.755 -50.097  13.370  1.00  0.00    -0.268 OA
HETATM   21  C   UNL     1     -45.559 -51.561  13.231  1.00  0.00     0.092 C 
HETATM   22  C   UNL     1     -45.985 -52.818  13.351  1.00  0.00     0.100 C 
HETATM   23  N   UNL     1     -45.114 -53.853  13.592  1.00  0.00    -0.314 N 
HETATM   24  C   UNL     1     -45.636 -55.189  13.832  1.00  0.00     0.160 C 
HETATM   25  C   UNL     1     -43.733 -53.671  13.657  1.00  0.00     0.331 C 
HETATM   26  O   UNL     1     -42.957 -54.603  13.875  1.00  0.00    -0.246 OA
ENDBRANCH  17  18
ENDBRANCH  14  17
ENDBRANCH   1  14
TORSDOF 7
ENDMDL
MODEL 6
REMARK VINA RESULT:      -5.7      2.787      4.481
REMARK  7 active torsions:
REMARK  status: ('A' for Active; 'I' for Inactive)
REMARK    1  A    between atoms: C_4  and  C_22 
REMARK    2  A    between atoms: C_7  and  O_8 
REMARK    3  A    between atoms: O_8  and  C_9 
REMARK    4  A    between atoms: C_9  and  C_10 
REMARK    5  A    between atoms: C_10  and  O_11 
REMARK    6  A    between atoms: C_10  and  C_12 
REMARK    7  A    between atoms: C_12  and  N_13 
ROOT
HETATM    1  C   UNL     1     -42.734 -52.548  12.453  1.00  0.00     0.209 C 
ENDROOT
BRANCH   1   2
HETATM    2  O   UNL     1     -43.424 -51.309  12.645  1.00  0.00    -0.348 OA
BRANCH   2   3
HETATM    3  C   UNL     1     -44.311 -51.221  13.684  1.00  0.00     0.074 A 
HETATM    4  C   UNL     1     -45.686 -51.480  13.651  1.00  0.00    -0.028 A 
HETATM    5  C   UNL     1     -46.463 -51.863  12.424  1.00  0.00     0.051 C 
HETATM    6  C   UNL     1     -46.418 -51.408  14.852  1.00  0.00     0.017 A 
HETATM    7  C   UNL     1     -45.838 -51.079  16.088  1.00  0.00    -0.050 A 
HETATM    8  C   UNL     1     -44.457 -50.848  16.096  1.00  0.00     0.011 A 
HETATM    9  C   UNL     1     -43.707 -50.930  14.915  1.00  0.00     0.038 A 
BRANCH   7  10
HETATM   10  C   UNL     1     -46.675 -50.964  17.373  1.00  0.00    -0.024 C 
HETATM   11  C   UNL     1     -46.475 -52.154  18.344  1.00  0.00     0.019 C 
HETATM   12  C   UNL     1     -46.305 -49.680  18.143  1.00  0.00     0.019 C 
HETATM   13  C   UNL     1     -48.174 -50.925  17.010  1.00  0.00     0.019 C 
ENDBRANCH   7  10
ENDBRANCH   2   3
ENDBRANCH   1   2
BRANCH   1  14
HETATM   14  C   UNL     1     -41.220 -52.283  12.430  1.00  0.00     0.161 C 
BRANCH  14  15
HETATM   15  O   UNL     1     -40.550 -53.348  11.748  1.00  0.00    -0.392 OA
HETATM   16  H   UNL     1     -39.646 -53.038  11.552  1.00  0.00     0.210 HD
ENDBRANCH  14  15
BRANCH  14  17
HETATM   17  C   UNL     1     -40.941 -50.925  11.760  1.00  0.00     0.171 C 
BRANCH  17  18
HETATM   18  N   UNL     1     -40.059 -50.063  12.534  1.00  0.00    -0.264 N 
HETATM   19  C   UNL     1     -38.749 -50.467  12.705  1.00  0.00     0.252 C 
HETATM   20  O   UNL     1     -38.286 -51.545  12.337  1.00  0.00    -0.268 OA
HETATM   21  C   UNL     1     -37.854 -49.494  13.350  1.00  0.00     0.092 C 
HETATM   22  C   UNL     1     -38.366 -48.376  13.863  1.00  0.00     0.100 C 
HETATM   23  N   UNL     1     -39.710 -48.104  13.798  1.00  0.00    -0.314 N 
HETATM   24  C   UNL     1     -40.239 -46.929  14.474  1.00  0.00     0.160 C 
HETATM   25  C   UNL     1     -40.612 -48.936  13.136  1.00  0.00     0.331 C 
HETATM   26  O   UNL     1     -41.819 -48.687  13.082  1.00  0.00    -0.246 OA
ENDBRANCH  17  18
ENDBRANCH  14  17
ENDBRANCH   1  14
TORSDOF 7
ENDMDL
MODEL 7
REMARK VINA RESULT:      -5.7      2.762      6.245
REMARK  7 active torsions:
REMARK  status: ('A' for Active; 'I' for Inactive)
REMARK    1  A    between atoms: C_4  and  C_22 
REMARK    2  A    between atoms: C_7  and  O_8 
REMARK    3  A    between atoms: O_8  and  C_9 
REMARK    4  A    between atoms: C_9  and  C_10 
REMARK    5  A    between atoms: C_10  and  O_11 
REMARK    6  A    between atoms: C_10  and  C_12 
REMARK    7  A    between atoms: C_12  and  N_13 
ROOT
HETATM    1  C   UNL     1     -42.851 -54.308  14.077  1.00  0.00     0.209 C 
ENDROOT
BRANCH   1   2
HETATM    2  O   UNL     1     -41.819 -54.290  13.087  1.00  0.00    -0.348 OA
BRANCH   2   3
HETATM    3  C   UNL     1     -40.965 -53.221  13.067  1.00  0.00     0.074 A 
HETATM    4  C   UNL     1     -39.791 -53.056  13.813  1.00  0.00    -0.028 A 
HETATM    5  C   UNL     1     -39.273 -54.031  14.831  1.00  0.00     0.051 C 
HETATM    6  C   UNL     1     -39.003 -51.910  13.592  1.00  0.00     0.017 A 
HETATM    7  C   UNL     1     -39.340 -50.912  12.663  1.00  0.00    -0.050 A 
HETATM    8  C   UNL     1     -40.506 -51.113  11.915  1.00  0.00     0.011 A 
HETATM    9  C   UNL     1     -41.296 -52.254  12.107  1.00  0.00     0.038 A 
BRANCH   7  10
HETATM   10  C   UNL     1     -38.480 -49.649  12.480  1.00  0.00    -0.024 C 
HETATM   11  C   UNL     1     -39.305 -48.397  12.095  1.00  0.00     0.019 C 
HETATM   12  C   UNL     1     -37.727 -49.317  13.783  1.00  0.00     0.019 C 
HETATM   13  C   UNL     1     -37.459 -49.882  11.347  1.00  0.00     0.019 C 
ENDBRANCH   7  10
ENDBRANCH   2   3
ENDBRANCH   1   2
BRANCH   1  14
HETATM   14  C   UNL     1     -44.171 -53.847  13.438  1.00  0.00     0.161 C 
BRANCH  14  15
HETATM   15  O   UNL     1     -44.214 -54.249  12.066  1.00  0.00    -0.392 OA
HETATM   16  H   UNL     1     -44.084 -55.216  12.047  1.00  0.00     0.210 HD
ENDBRANCH  14  15
BRANCH  14  17
HETATM   17  C   UNL     1     -45.359 -54.423  14.230  1.00  0.00     0.171 C 
BRANCH  17  18
HETATM   18  N   UNL     1     -45.923 -53.490  15.197  1.00  0.00    -0.264 N 
HETATM   19  C   UNL     1     -46.602 -52.389  14.711  1.00  0.00     0.252 C 
HETATM   20  O   UNL     1     -46.690 -52.077  13.525  1.00  0.00    -0.268 OA
HETATM   21  C   UNL     1     -47.293 -51.565  15.714  1.00  0.00     0.092 C 
HETATM   22  C   UNL     1     -47.106 -51.818  17.009  1.00  0.00     0.100 C 
HETATM   23  N   UNL     1     -46.289 -52.837  17.432  1.00  0.00    -0.314 N 
HETATM   24  C   UNL     1     -46.022 -53.002  18.853  1.00  0.00     0.160 C 
HETATM   25  C   UNL     1     -45.660 -53.712  16.546  1.00  0.00     0.331 C 
HETATM   26  O   UNL     1     -44.926 -54.625  16.932  1.00  0.00    -0.246 OA
ENDBRANCH  17  18
ENDBRANCH  14  17
ENDBRANCH   1  14
TORSDOF 7
ENDMDL
MODEL 8
REMARK VINA RESULT:      -5.6      1.558      2.249
REMARK  7 active torsions:
REMARK  status: ('A' for Active; 'I' for Inactive)
REMARK    1  A    between atoms: C_4  and  C_22 
REMARK    2  A    between atoms: C_7  and  O_8 
REMARK    3  A    between atoms: O_8  and  C_9 
REMARK    4  A    between atoms: C_9  and  C_10 
REMARK    5  A    between atoms: C_10  and  O_11 
REMARK    6  A    between atoms: C_10  and  C_12 
REMARK    7  A    between atoms: C_12  and  N_13 
ROOT
HETATM    1  C   UNL     1     -42.067 -51.723  13.213  1.00  0.00     0.209 C 
ENDROOT
BRANCH   1   2
HETATM    2  O   UNL     1     -43.439 -51.520  12.861  1.00  0.00    -0.348 OA
BRANCH   2   3
HETATM    3  C   UNL     1     -44.347 -51.365  13.873  1.00  0.00     0.074 A 
HETATM    4  C   UNL     1     -45.741 -51.465  13.788  1.00  0.00    -0.028 A 
HETATM    5  C   UNL     1     -46.511 -51.720  12.525  1.00  0.00     0.051 C 
HETATM    6  C   UNL     1     -46.502 -51.347  14.968  1.00  0.00     0.017 A 
HETATM    7  C   UNL     1     -45.933 -51.124  16.232  1.00  0.00    -0.050 A 
HETATM    8  C   UNL     1     -44.535 -51.051  16.291  1.00  0.00     0.011 A 
HETATM    9  C   UNL     1     -43.758 -51.181  15.132  1.00  0.00     0.038 A 
BRANCH   7  10
HETATM   10  C   UNL     1     -46.796 -50.955  17.493  1.00  0.00    -0.024 C 
HETATM   11  C   UNL     1     -48.313 -50.886  17.193  1.00  0.00     0.019 C 
HETATM   12  C   UNL     1     -46.575 -52.135  18.459  1.00  0.00     0.019 C 
HETATM   13  C   UNL     1     -46.417 -49.638  18.203  1.00  0.00     0.019 C 
ENDBRANCH   7  10
ENDBRANCH   2   3
ENDBRANCH   1   2
BRANCH   1  14
HETATM   14  C   UNL     1     -41.393 -52.587  12.136  1.00  0.00     0.161 C 
BRANCH  14  15
HETATM   15  O   UNL     1     -40.125 -52.025  11.784  1.00  0.00    -0.392 OA
HETATM   16  H   UNL     1     -39.955 -51.291  12.404  1.00  0.00     0.210 HD
ENDBRANCH  14  15
BRANCH  14  17
HETATM   17  C   UNL     1     -41.243 -54.031  12.648  1.00  0.00     0.171 C 
BRANCH  17  18
HETATM   18  N   UNL     1     -40.974 -54.118  14.077  1.00  0.00    -0.264 N 
HETATM   19  C   UNL     1     -39.674 -53.921  14.502  1.00  0.00     0.252 C 
HETATM   20  O   UNL     1     -38.702 -53.774  13.764  1.00  0.00    -0.268 OA
HETATM   21  C   UNL     1     -39.475 -53.854  15.958  1.00  0.00     0.092 C 
HETATM   22  C   UNL     1     -40.494 -54.133  16.769  1.00  0.00     0.100 C 
HETATM   23  N   UNL     1     -41.731 -54.476  16.281  1.00  0.00    -0.314 N 
HETATM   24  C   UNL     1     -42.779 -54.887  17.202  1.00  0.00     0.160 C 
HETATM   25  C   UNL     1     -42.021 -54.487  14.917  1.00  0.00     0.331 C 
HETATM   26  O   UNL     1     -43.133 -54.797  14.484  1.00  0.00    -0.246 OA
ENDBRANCH  17  18
ENDBRANCH  14  17
ENDBRANCH   1  14
TORSDOF 7
ENDMDL
MODEL 9
REMARK VINA RESULT:      -5.5      3.754      6.321
REMARK  7 active torsions:
REMARK  status: ('A' for Active; 'I' for Inactive)
REMARK    1  A    between atoms: C_4  and  C_22 
REMARK    2  A    between atoms: C_7  and  O_8 
REMARK    3  A    between atoms: O_8  and  C_9 
REMARK    4  A    between atoms: C_9  and  C_10 
REMARK    5  A    between atoms: C_10  and  O_11 
REMARK    6  A    between atoms: C_10  and  C_12 
REMARK    7  A    between atoms: C_12  and  N_13 
ROOT
HETATM    1  C   UNL     1     -41.035 -51.638  12.973  1.00  0.00     0.209 C 
ENDROOT
BRANCH   1   2
HETATM    2  O   UNL     1     -40.598 -51.065  11.737  1.00  0.00    -0.348 OA
BRANCH   2   3
HETATM    3  C   UNL     1     -40.402 -49.712  11.689  1.00  0.00     0.074 A 
HETATM    4  C   UNL     1     -39.234 -49.009  12.010  1.00  0.00    -0.028 A 
HETATM    5  C   UNL     1     -37.969 -49.631  12.526  1.00  0.00     0.051 C 
HETATM    6  C   UNL     1     -39.209 -47.614  11.820  1.00  0.00     0.017 A 
HETATM    7  C   UNL     1     -40.304 -46.884  11.329  1.00  0.00    -0.050 A 
HETATM    8  C   UNL     1     -41.451 -47.614  10.994  1.00  0.00     0.011 A 
HETATM    9  C   UNL     1     -41.492 -49.005  11.161  1.00  0.00     0.038 A 
BRANCH   7  10
HETATM   10  C   UNL     1     -40.258 -45.354  11.176  1.00  0.00    -0.024 C 
HETATM   11  C   UNL     1     -39.458 -44.885   9.936  1.00  0.00     0.019 C 
HETATM   12  C   UNL     1     -41.683 -44.783  11.042  1.00  0.00     0.019 C 
HETATM   13  C   UNL     1     -39.575 -44.734  12.414  1.00  0.00     0.019 C 
ENDBRANCH   7  10
ENDBRANCH   2   3
ENDBRANCH   1   2
BRANCH   1  14
HETATM   14  C   UNL     1     -42.381 -52.345  12.753  1.00  0.00     0.161 C 
BRANCH  14  15
HETATM   15  O   UNL     1     -42.536 -52.678  11.369  1.00  0.00    -0.392 OA
HETATM   16  H   UNL     1     -43.392 -52.310  11.081  1.00  0.00     0.210 HD
ENDBRANCH  14  15
BRANCH  14  17
HETATM   17  C   UNL     1     -42.460 -53.600  13.643  1.00  0.00     0.171 C 
BRANCH  17  18
HETATM   18  N   UNL     1     -43.730 -53.738  14.343  1.00  0.00    -0.264 N 
HETATM   19  C   UNL     1     -44.806 -54.235  13.635  1.00  0.00     0.252 C 
HETATM   20  O   UNL     1     -44.809 -54.481  12.430  1.00  0.00    -0.268 OA
HETATM   21  C   UNL     1     -46.020 -54.512  14.418  1.00  0.00     0.092 C 
HETATM   22  C   UNL     1     -46.073 -54.137  15.695  1.00  0.00     0.100 C 
HETATM   23  N   UNL     1     -45.018 -53.503  16.304  1.00  0.00    -0.314 N 
HETATM   24  C   UNL     1     -45.165 -53.006  17.663  1.00  0.00     0.160 C 
HETATM   25  C   UNL     1     -43.806 -53.273  15.654  1.00  0.00     0.331 C 
HETATM   26  O   UNL     1     -42.862 -52.701  16.205  1.00  0.00    -0.246 OA
ENDBRANCH  17  18
ENDBRANCH  14  17
ENDBRANCH   1  14
TORSDOF 7
ENDMDL
