MODEL 1
REMARK VINA RESULT:      -7.2      0.000      0.000
REMARK  4 active torsions:
REMARK  status: ('A' for Active; 'I' for Inactive)
REMARK    1  A    between atoms: N_2  and  C_16 
REMARK    2  A    between atoms: N_3  and  C_7 
REMARK    3  A    between atoms: C_16  and  C_17 
REMARK    4  A    between atoms: C_17  and  O_26 
ROOT
HETATM    1  C   UNL     1     -42.067 -49.700  12.225  1.00  0.00     0.117 A 
HETATM    2  N   UNL     1     -42.870 -51.379  13.381  1.00  0.00    -0.324 N 
HETATM    3  C   UNL     1     -41.754 -50.959  12.711  1.00  0.00     0.140 A 
HETATM    4  N   UNL     1     -43.380 -49.385  12.544  1.00  0.00    -0.346 N 
ATOM      5  HN  UNL     1     -43.889 -48.536  12.299  1.00  0.00     0.167 HD
HETATM    6  C   UNL     1     -41.035 -48.989  11.559  1.00  0.00     0.114 A 
HETATM    7  C   UNL     1     -43.828 -50.414  13.228  1.00  0.00     0.185 A 
HETATM    8  N   UNL     1     -40.593 -51.622  12.595  1.00  0.00    -0.336 N 
ATOM      9  HN  UNL     1     -40.419 -52.556  12.967  1.00  0.00     0.168 HD
HETATM   10  N   UNL     1     -39.846 -49.652  11.407  1.00  0.00    -0.341 N 
ATOM     11  HN  UNL     1     -39.078 -49.211  10.902  1.00  0.00     0.167 HD
HETATM   12  C   UNL     1     -39.692 -50.888  11.923  1.00  0.00     0.183 A 
ENDROOT
BRANCH   6  13
HETATM   13  N   UNL     1     -41.162 -47.658  11.089  1.00  0.00    -0.262 NA
HETATM   14  C   UNL     1     -41.302 -46.690  12.192  1.00  0.00     0.138 C 
HETATM   15  C   UNL     1     -41.431 -45.239  11.671  1.00  0.00     0.101 C 
HETATM   16  C   UNL     1     -40.065 -44.620  11.265  1.00  0.00     0.153 C 
HETATM   17  C   UNL     1     -41.869 -44.335  12.842  1.00  0.00     0.068 C 
HETATM   18  O   UNL     1     -42.487 -45.135  10.688  1.00  0.00    -0.370 OA
HETATM   19  O   UNL     1     -40.055 -43.279  11.807  1.00  0.00    -0.383 OA
HETATM   20  C   UNL     1     -39.707 -44.498   9.797  1.00  0.00     0.042 C 
HETATM   21  C   UNL     1     -40.736 -43.357  13.052  1.00  0.00     0.171 C 
HETATM   22  C   UNL     1     -42.434 -46.107   9.629  1.00  0.00     0.132 C 
HETATM   23  C   UNL     1     -42.286 -47.554  10.134  1.00  0.00     0.128 C 
HETATM   24  C   UNL     1     -43.708 -45.957   8.805  1.00  0.00     0.041 C 
ENDBRANCH   6  13
BRANCH   2  25
HETATM   25  C   UNL     1     -42.943 -52.531  14.255  1.00  0.00     0.171 C 
BRANCH  25  26
HETATM   26  C   UNL     1     -43.755 -53.715  13.714  1.00  0.00     0.097 C 
HETATM   27  C   UNL     1     -45.258 -53.596  13.855  1.00  0.00     0.068 C 
HETATM   28  C   UNL     1     -45.712 -55.045  13.922  1.00  0.00     0.170 C 
HETATM   29  O   UNL     1     -44.631 -55.814  14.460  1.00  0.00    -0.388 OA
HETATM   30  C   UNL     1     -43.475 -54.969  14.551  1.00  0.00     0.207 C 
BRANCH  26  31
HETATM   31  O   UNL     1     -43.430 -54.006  12.349  1.00  0.00    -0.386 OA
HETATM   32  H   UNL     1     -42.679 -54.627  12.310  1.00  0.00     0.210 HD
ENDBRANCH  26  31
ENDBRANCH  25  26
ENDBRANCH   2  25
TORSDOF 4
ENDMDL
MODEL 2
REMARK VINA RESULT:      -7.0      1.394      2.052
REMARK  4 active torsions:
REMARK  status: ('A' for Active; 'I' for Inactive)
REMARK    1  A    between atoms: N_2  and  C_16 
REMARK    2  A    between atoms: N_3  and  C_7 
REMARK    3  A    between atoms: C_16  and  C_17 
REMARK    4  A    between atoms: C_17  and  O_26 
ROOT
HETATM    1  C   UNL     1     -41.775 -49.668  12.738  1.00  0.00     0.117 A 
HETATM    2  N   UNL     1     -41.767 -51.763  13.378  1.00  0.00    -0.324 N 
HETATM    3  C   UNL     1     -42.091 -50.503  13.797  1.00  0.00     0.140 A 
HETATM    4  N   UNL     1     -41.206 -50.407  11.710  1.00  0.00    -0.346 N 
ATOM      5  HN  UNL     1     -40.857 -50.059  10.817  1.00  0.00     0.167 HD
HETATM    6  C   UNL     1     -42.103 -48.295  12.875  1.00  0.00     0.114 A 
HETATM    7  C   UNL     1     -41.213 -51.652  12.132  1.00  0.00     0.185 A 
HETATM    8  N   UNL     1     -42.641 -50.166  14.975  1.00  0.00    -0.336 N 
ATOM      9  HN  UNL     1     -42.846 -50.824  15.728  1.00  0.00     0.168 HD
HETATM   10  N   UNL     1     -42.644 -47.921  14.077  1.00  0.00    -0.341 N 
ATOM     11  HN  UNL     1     -42.865 -46.941  14.253  1.00  0.00     0.167 HD
HETATM   12  C   UNL     1     -42.883 -48.847  15.027  1.00  0.00     0.183 A 
ENDROOT
BRANCH   6  13
HETATM   13  N   UNL     1     -41.933 -47.329  11.851  1.00  0.00    -0.262 NA
HETATM   14  C   UNL     1     -42.219 -45.963  12.323  1.00  0.00     0.138 C 
HETATM   15  C   UNL     1     -42.024 -44.915  11.201  1.00  0.00     0.101 C 
HETATM   16  C   UNL     1     -40.531 -44.551  10.969  1.00  0.00     0.153 C 
HETATM   17  C   UNL     1     -42.622 -43.573  11.675  1.00  0.00     0.068 C 
HETATM   18  O   UNL     1     -42.775 -45.276  10.019  1.00  0.00    -0.370 OA
HETATM   19  O   UNL     1     -40.484 -43.111  10.841  1.00  0.00    -0.383 OA
HETATM   20  C   UNL     1     -39.802 -45.118   9.767  1.00  0.00     0.042 C 
HETATM   21  C   UNL     1     -41.461 -42.607  11.742  1.00  0.00     0.171 C 
HETATM   22  C   UNL     1     -42.583 -46.626   9.562  1.00  0.00     0.132 C 
HETATM   23  C   UNL     1     -42.757 -47.678  10.674  1.00  0.00     0.128 C 
HETATM   24  C   UNL     1     -43.578 -46.873   8.433  1.00  0.00     0.041 C 
ENDBRANCH   6  13
BRANCH   2  25
HETATM   25  C   UNL     1     -42.135 -52.993  14.048  1.00  0.00     0.171 C 
BRANCH  25  26
HETATM   26  C   UNL     1     -43.633 -53.322  14.039  1.00  0.00     0.097 C 
HETATM   27  C   UNL     1     -43.993 -54.741  14.431  1.00  0.00     0.068 C 
HETATM   28  C   UNL     1     -45.304 -54.976  13.698  1.00  0.00     0.170 C 
HETATM   29  O   UNL     1     -45.309 -54.139  12.537  1.00  0.00    -0.388 OA
HETATM   30  C   UNL     1     -44.175 -53.262  12.606  1.00  0.00     0.207 C 
BRANCH  26  31
HETATM   31  O   UNL     1     -44.387 -52.405  14.842  1.00  0.00    -0.386 OA
HETATM   32  H   UNL     1     -44.806 -52.878  15.584  1.00  0.00     0.210 HD
ENDBRANCH  26  31
ENDBRANCH  25  26
ENDBRANCH   2  25
TORSDOF 4
ENDMDL
MODEL 3
REMARK VINA RESULT:      -6.9      2.151      8.263
REMARK  4 active torsions:
REMARK  status: ('A' for Active; 'I' for Inactive)
REMARK    1  A    between atoms: N_2  and  C_16 
REMARK    2  A    between atoms: N_3  and  C_7 
REMARK    3  A    between atoms: C_16  and  C_17 
REMARK    4  A    between atoms: C_17  and  O_26 
ROOT
HETATM    1  C   UNL     1     -41.340 -47.432  12.311  1.00  0.00     0.117 A 
HETATM    2  N   UNL     1     -40.817 -45.353  11.858  1.00  0.00    -0.324 N 
HETATM    3  C   UNL     1     -41.352 -46.482  11.302  1.00  0.00     0.140 A 
HETATM    4  N   UNL     1     -40.746 -46.903  13.448  1.00  0.00    -0.346 N 
ATOM      5  HN  UNL     1     -40.580 -47.376  14.337  1.00  0.00     0.167 HD
HETATM    6  C   UNL     1     -41.933 -48.688  12.024  1.00  0.00     0.114 A 
HETATM    7  C   UNL     1     -40.442 -45.662  13.137  1.00  0.00     0.185 A 
HETATM    8  N   UNL     1     -41.825 -46.614  10.053  1.00  0.00    -0.336 N 
ATOM      9  HN  UNL     1     -41.802 -45.880   9.344  1.00  0.00     0.168 HD
HETATM   10  N   UNL     1     -42.403 -48.856  10.749  1.00  0.00    -0.341 N 
ATOM     11  HN  UNL     1     -42.806 -49.750  10.468  1.00  0.00     0.167 HD
HETATM   12  C   UNL     1     -42.334 -47.842   9.864  1.00  0.00     0.183 A 
ENDROOT
BRANCH   6  13
HETATM   13  N   UNL     1     -42.087 -49.730  12.973  1.00  0.00    -0.262 NA
HETATM   14  C   UNL     1     -41.573 -51.017  12.471  1.00  0.00     0.138 C 
HETATM   15  C   UNL     1     -41.737 -52.148  13.515  1.00  0.00     0.101 C 
HETATM   16  C   UNL     1     -40.645 -52.112  14.620  1.00  0.00     0.153 C 
HETATM   17  C   UNL     1     -41.462 -53.499  12.822  1.00  0.00     0.068 C 
HETATM   18  O   UNL     1     -43.104 -52.226  13.982  1.00  0.00    -0.370 OA
HETATM   19  O   UNL     1     -40.210 -53.479  14.799  1.00  0.00    -0.383 OA
HETATM   20  C   UNL     1     -40.993 -51.582  15.997  1.00  0.00     0.042 C 
HETATM   21  C   UNL     1     -40.243 -54.072  13.507  1.00  0.00     0.171 C 
HETATM   22  C   UNL     1     -43.674 -50.978  14.415  1.00  0.00     0.132 C 
HETATM   23  C   UNL     1     -43.501 -49.840  13.393  1.00  0.00     0.128 C 
HETATM   24  C   UNL     1     -45.152 -51.223  14.697  1.00  0.00     0.041 C 
ENDBRANCH   6  13
BRANCH   2  25
HETATM   25  C   UNL     1     -40.839 -44.031  11.265  1.00  0.00     0.171 C 
BRANCH  25  26
HETATM   26  C   UNL     1     -42.197 -43.317  11.305  1.00  0.00     0.097 C 
HETATM   27  C   UNL     1     -42.161 -41.830  11.019  1.00  0.00     0.068 C 
HETATM   28  C   UNL     1     -43.372 -41.308  11.774  1.00  0.00     0.170 C 
HETATM   29  O   UNL     1     -43.617 -42.194  12.871  1.00  0.00    -0.388 OA
HETATM   30  C   UNL     1     -42.756 -43.334  12.733  1.00  0.00     0.207 C 
BRANCH  26  31
HETATM   31  O   UNL     1     -43.155 -43.941  10.442  1.00  0.00    -0.386 OA
HETATM   32  H   UNL     1     -43.895 -43.330  10.269  1.00  0.00     0.210 HD
ENDBRANCH  26  31
ENDBRANCH  25  26
ENDBRANCH   2  25
TORSDOF 4
ENDMDL
MODEL 4
REMARK VINA RESULT:      -6.9      2.262      8.309
REMARK  4 active torsions:
REMARK  status: ('A' for Active; 'I' for Inactive)
REMARK    1  A    between atoms: N_2  and  C_16 
REMARK    2  A    between atoms: N_3  and  C_7 
REMARK    3  A    between atoms: C_16  and  C_17 
REMARK    4  A    between atoms: C_17  and  O_26 
ROOT
HETATM    1  C   UNL     1     -42.157 -48.767  12.659  1.00  0.00     0.117 A 
HETATM    2  N   UNL     1     -40.919 -47.465  11.405  1.00  0.00    -0.324 N 
HETATM    3  C   UNL     1     -41.241 -47.730  12.708  1.00  0.00     0.140 A 
HETATM    4  N   UNL     1     -42.436 -49.087  11.338  1.00  0.00    -0.346 N 
ATOM      5  HN  UNL     1     -43.087 -49.794  10.997  1.00  0.00     0.167 HD
HETATM    6  C   UNL     1     -42.592 -49.305  13.898  1.00  0.00     0.114 A 
HETATM    7  C   UNL     1     -41.683 -48.284  10.619  1.00  0.00     0.185 A 
HETATM    8  N   UNL     1     -40.733 -47.130  13.796  1.00  0.00    -0.336 N 
ATOM      9  HN  UNL     1     -40.063 -46.360  13.774  1.00  0.00     0.168 HD
HETATM   10  N   UNL     1     -42.107 -48.696  15.024  1.00  0.00    -0.341 N 
ATOM     11  HN  UNL     1     -42.412 -49.010  15.945  1.00  0.00     0.167 HD
HETATM   12  C   UNL     1     -41.226 -47.681  14.916  1.00  0.00     0.183 A 
ENDROOT
BRANCH   6  13
HETATM   13  N   UNL     1     -43.451 -50.427  14.020  1.00  0.00    -0.262 NA
HETATM   14  C   UNL     1     -44.180 -50.429  15.301  1.00  0.00     0.138 C 
HETATM   15  C   UNL     1     -45.121 -51.652  15.424  1.00  0.00     0.101 C 
HETATM   16  C   UNL     1     -46.449 -51.472  14.637  1.00  0.00     0.153 C 
HETATM   17  C   UNL     1     -45.612 -51.747  16.884  1.00  0.00     0.068 C 
HETATM   18  O   UNL     1     -44.404 -52.883  15.177  1.00  0.00    -0.370 OA
HETATM   19  O   UNL     1     -47.501 -51.933  15.516  1.00  0.00    -0.383 OA
HETATM   20  C   UNL     1     -46.638 -52.192  13.317  1.00  0.00     0.042 C 
HETATM   21  C   UNL     1     -47.110 -51.552  16.828  1.00  0.00     0.171 C 
HETATM   22  C   UNL     1     -43.618 -52.901  13.972  1.00  0.00     0.132 C 
HETATM   23  C   UNL     1     -42.691 -51.680  13.829  1.00  0.00     0.128 C 
HETATM   24  C   UNL     1     -42.806 -54.192  13.975  1.00  0.00     0.041 C 
ENDBRANCH   6  13
BRANCH   2  25
HETATM   25  C   UNL     1     -39.827 -46.624  10.962  1.00  0.00     0.171 C 
BRANCH  25  26
HETATM   26  C   UNL     1     -40.220 -45.195  10.565  1.00  0.00     0.097 C 
HETATM   27  C   UNL     1     -39.853 -44.116  11.563  1.00  0.00     0.068 C 
HETATM   28  C   UNL     1     -40.897 -43.041  11.304  1.00  0.00     0.170 C 
HETATM   29  O   UNL     1     -42.065 -43.686  10.786  1.00  0.00    -0.388 OA
HETATM   30  C   UNL     1     -41.747 -45.062  10.528  1.00  0.00     0.207 C 
BRANCH  26  31
HETATM   31  O   UNL     1     -39.708 -44.838   9.275  1.00  0.00    -0.386 OA
HETATM   32  H   UNL     1     -40.354 -44.281   8.802  1.00  0.00     0.210 HD
ENDBRANCH  26  31
ENDBRANCH  25  26
ENDBRANCH   2  25
TORSDOF 4
ENDMDL
MODEL 5
REMARK VINA RESULT:      -6.8      2.219      3.163
REMARK  4 active torsions:
REMARK  status: ('A' for Active; 'I' for Inactive)
REMARK    1  A    between atoms: N_2  and  C_16 
REMARK    2  A    between atoms: N_3  and  C_7 
REMARK    3  A    between atoms: C_16  and  C_17 
REMARK    4  A    between atoms: C_17  and  O_26 
ROOT
HETATM    1  C   UNL     1     -41.356 -50.030  12.335  1.00  0.00     0.117 A 
HETATM    2  N   UNL     1     -40.662 -52.047  12.834  1.00  0.00    -0.324 N 
HETATM    3  C   UNL     1     -41.764 -51.239  12.874  1.00  0.00     0.140 A 
HETATM    4  N   UNL     1     -40.004 -50.083  12.029  1.00  0.00    -0.346 N 
ATOM      5  HN  UNL     1     -39.427 -49.337  11.641  1.00  0.00     0.167 HD
HETATM    6  C   UNL     1     -42.346 -49.027  12.173  1.00  0.00     0.114 A 
HETATM    7  C   UNL     1     -39.623 -51.301  12.346  1.00  0.00     0.185 A 
HETATM    8  N   UNL     1     -42.989 -51.576  13.307  1.00  0.00    -0.336 N 
ATOM      9  HN  UNL     1     -43.234 -52.483  13.705  1.00  0.00     0.168 HD
HETATM   10  N   UNL     1     -43.600 -49.337  12.629  1.00  0.00    -0.341 N 
ATOM     11  HN  UNL     1     -44.347 -48.644  12.577  1.00  0.00     0.167 HD
HETATM   12  C   UNL     1     -43.847 -50.556  13.146  1.00  0.00     0.183 A 
ENDROOT
BRANCH   6  13
HETATM   13  N   UNL     1     -42.114 -47.773  11.552  1.00  0.00    -0.262 NA
HETATM   14  C   UNL     1     -42.228 -46.653  12.504  1.00  0.00     0.138 C 
HETATM   15  C   UNL     1     -41.966 -45.290  11.821  1.00  0.00     0.101 C 
HETATM   16  C   UNL     1     -40.453 -44.998  11.617  1.00  0.00     0.153 C 
HETATM   17  C   UNL     1     -42.391 -44.167  12.790  1.00  0.00     0.068 C 
HETATM   18  O   UNL     1     -42.802 -45.127  10.652  1.00  0.00    -0.370 OA
HETATM   19  O   UNL     1     -40.253 -43.621  12.011  1.00  0.00    -0.383 OA
HETATM   20  C   UNL     1     -39.843 -45.149  10.238  1.00  0.00     0.042 C 
HETATM   21  C   UNL     1     -41.130 -43.397  13.107  1.00  0.00     0.171 C 
HETATM   22  C   UNL     1     -42.779 -46.230   9.728  1.00  0.00     0.132 C 
HETATM   23  C   UNL     1     -43.021 -47.595  10.398  1.00  0.00     0.128 C 
HETATM   24  C   UNL     1     -43.843 -45.959   8.668  1.00  0.00     0.041 C 
ENDBRANCH   6  13
BRANCH   2  25
HETATM   25  C   UNL     1     -40.656 -53.476  13.068  1.00  0.00     0.171 C 
BRANCH  25  26
HETATM   26  C   UNL     1     -39.634 -53.967  14.103  1.00  0.00     0.097 C 
HETATM   27  C   UNL     1     -40.164 -54.944  15.131  1.00  0.00     0.068 C 
HETATM   28  C   UNL     1     -39.257 -54.708  16.327  1.00  0.00     0.170 C 
HETATM   29  O   UNL     1     -38.789 -53.357  16.257  1.00  0.00    -0.388 OA
HETATM   30  C   UNL     1     -39.193 -52.802  14.997  1.00  0.00     0.207 C 
BRANCH  26  31
HETATM   31  O   UNL     1     -38.468 -54.521  13.481  1.00  0.00    -0.386 OA
HETATM   32  H   UNL     1     -37.684 -54.359  14.038  1.00  0.00     0.210 HD
ENDBRANCH  26  31
ENDBRANCH  25  26
ENDBRANCH   2  25
TORSDOF 4
ENDMDL
MODEL 6
REMARK VINA RESULT:      -6.8      1.996      3.273
REMARK  4 active torsions:
REMARK  status: ('A' for Active; 'I' for Inactive)
REMARK    1  A    between atoms: N_2  and  C_16 
REMARK    2  A    between atoms: N_3  and  C_7 
REMARK    3  A    between atoms: C_16  and  C_17 
REMARK    4  A    between atoms: C_17  and  O_26 
ROOT
HETATM    1  C   UNL     1     -42.699 -51.058  12.804  1.00  0.00     0.117 A 
HETATM    2  N   UNL     1     -44.332 -52.518  12.755  1.00  0.00    -0.324 N 
HETATM    3  C   UNL     1     -42.983 -52.393  12.568  1.00  0.00     0.140 A 
HETATM    4  N   UNL     1     -43.872 -50.367  13.070  1.00  0.00    -0.346 N 
ATOM      5  HN  UNL     1     -43.974 -49.370  13.259  1.00  0.00     0.167 HD
HETATM    6  C   UNL     1     -41.335 -50.671  12.767  1.00  0.00     0.114 A 
HETATM    7  C   UNL     1     -44.826 -51.271  13.025  1.00  0.00     0.185 A 
HETATM    8  N   UNL     1     -42.122 -53.378  12.263  1.00  0.00    -0.336 N 
ATOM      9  HN  UNL     1     -42.388 -54.348  12.091  1.00  0.00     0.168 HD
HETATM   10  N   UNL     1     -40.437 -51.651  12.435  1.00  0.00    -0.341 N 
ATOM     11  HN  UNL     1     -39.446 -51.428  12.353  1.00  0.00     0.167 HD
HETATM   12  C   UNL     1     -40.864 -52.911  12.217  1.00  0.00     0.183 A 
ENDROOT
BRANCH   6  13
HETATM   13  N   UNL     1     -40.869 -49.368  13.078  1.00  0.00    -0.262 NA
HETATM   14  C   UNL     1     -40.886 -48.478  11.904  1.00  0.00     0.138 C 
HETATM   15  C   UNL     1     -40.384 -47.056  12.253  1.00  0.00     0.101 C 
HETATM   16  C   UNL     1     -41.465 -46.191  12.960  1.00  0.00     0.153 C 
HETATM   17  C   UNL     1     -40.149 -46.283  10.939  1.00  0.00     0.068 C 
HETATM   18  O   UNL     1     -39.094 -47.109  12.906  1.00  0.00    -0.370 OA
HETATM   19  O   UNL     1     -41.408 -44.889  12.335  1.00  0.00    -0.383 OA
HETATM   20  C   UNL     1     -41.376 -45.960  14.455  1.00  0.00     0.042 C 
HETATM   21  C   UNL     1     -41.122 -45.126  10.963  1.00  0.00     0.171 C 
HETATM   22  C   UNL     1     -39.008 -48.021  14.015  1.00  0.00     0.132 C 
HETATM   23  C   UNL     1     -39.522 -49.435  13.685  1.00  0.00     0.128 C 
HETATM   24  C   UNL     1     -37.548 -48.073  14.453  1.00  0.00     0.041 C 
ENDBRANCH   6  13
BRANCH   2  25
HETATM   25  C   UNL     1     -45.057 -53.768  12.851  1.00  0.00     0.171 C 
BRANCH  25  26
HETATM   26  C   UNL     1     -45.274 -54.292  14.276  1.00  0.00     0.097 C 
HETATM   27  C   UNL     1     -45.474 -53.232  15.339  1.00  0.00     0.068 C 
HETATM   28  C   UNL     1     -44.972 -53.914  16.601  1.00  0.00     0.170 C 
HETATM   29  O   UNL     1     -43.998 -54.887  16.211  1.00  0.00    -0.388 OA
HETATM   30  C   UNL     1     -44.003 -54.985  14.779  1.00  0.00     0.207 C 
BRANCH  26  31
HETATM   31  O   UNL     1     -46.353 -55.234  14.341  1.00  0.00    -0.386 OA
HETATM   32  H   UNL     1     -46.095 -55.999  14.887  1.00  0.00     0.210 HD
ENDBRANCH  26  31
ENDBRANCH  25  26
ENDBRANCH   2  25
TORSDOF 4
ENDMDL
MODEL 7
REMARK VINA RESULT:      -6.7      1.636      8.141
REMARK  4 active torsions:
REMARK  status: ('A' for Active; 'I' for Inactive)
REMARK    1  A    between atoms: N_2  and  C_16 
REMARK    2  A    between atoms: N_3  and  C_7 
REMARK    3  A    between atoms: C_16  and  C_17 
REMARK    4  A    between atoms: C_17  and  O_26 
ROOT
HETATM    1  C   UNL     1     -41.886 -49.060  11.873  1.00  0.00     0.117 A 
HETATM    2  N   UNL     1     -42.261 -47.128  10.911  1.00  0.00    -0.324 N 
HETATM    3  C   UNL     1     -41.256 -47.933  11.371  1.00  0.00     0.140 A 
HETATM    4  N   UNL     1     -43.262 -48.913  11.776  1.00  0.00    -0.346 N 
ATOM      5  HN  UNL     1     -43.978 -49.571  12.084  1.00  0.00     0.167 HD
HETATM    6  C   UNL     1     -41.055 -50.113  12.337  1.00  0.00     0.114 A 
HETATM    7  C   UNL     1     -43.447 -47.745  11.202  1.00  0.00     0.185 A 
HETATM    8  N   UNL     1     -39.937 -47.688  11.303  1.00  0.00    -0.336 N 
ATOM      9  HN  UNL     1     -39.526 -46.833  10.928  1.00  0.00     0.168 HD
HETATM   10  N   UNL     1     -39.706 -49.879  12.301  1.00  0.00    -0.341 N 
ATOM     11  HN  UNL     1     -39.057 -50.580  12.657  1.00  0.00     0.167 HD
HETATM   12  C   UNL     1     -39.236 -48.722  11.794  1.00  0.00     0.183 A 
ENDROOT
BRANCH   6  13
HETATM   13  N   UNL     1     -41.539 -51.366  12.792  1.00  0.00    -0.262 NA
HETATM   14  C   UNL     1     -42.278 -51.248  14.061  1.00  0.00     0.138 C 
HETATM   15  C   UNL     1     -42.809 -52.618  14.547  1.00  0.00     0.101 C 
HETATM   16  C   UNL     1     -44.100 -53.062  13.804  1.00  0.00     0.153 C 
HETATM   17  C   UNL     1     -43.300 -52.466  16.002  1.00  0.00     0.068 C 
HETATM   18  O   UNL     1     -41.745 -53.596  14.599  1.00  0.00    -0.370 OA
HETATM   19  O   UNL     1     -44.994 -53.568  14.822  1.00  0.00    -0.383 OA
HETATM   20  C   UNL     1     -44.015 -54.129  12.731  1.00  0.00     0.042 C 
HETATM   21  C   UNL     1     -44.784 -52.753  15.967  1.00  0.00     0.171 C 
HETATM   22  C   UNL     1     -40.948 -53.696  13.405  1.00  0.00     0.132 C 
HETATM   23  C   UNL     1     -40.428 -52.337  12.902  1.00  0.00     0.128 C 
HETATM   24  C   UNL     1     -39.784 -54.633  13.710  1.00  0.00     0.041 C 
ENDBRANCH   6  13
BRANCH   2  25
HETATM   25  C   UNL     1     -42.085 -45.950  10.088  1.00  0.00     0.171 C 
BRANCH  25  26
HETATM   26  C   UNL     1     -41.924 -44.631  10.856  1.00  0.00     0.097 C 
HETATM   27  C   UNL     1     -40.510 -44.096  10.947  1.00  0.00     0.068 C 
HETATM   28  C   UNL     1     -40.531 -43.292  12.237  1.00  0.00     0.170 C 
HETATM   29  O   UNL     1     -41.530 -43.862  13.089  1.00  0.00    -0.388 OA
HETATM   30  C   UNL     1     -42.259 -44.844  12.337  1.00  0.00     0.207 C 
BRANCH  26  31
HETATM   31  O   UNL     1     -42.785 -43.606  10.345  1.00  0.00    -0.386 OA
HETATM   32  H   UNL     1     -43.402 -43.311  11.040  1.00  0.00     0.210 HD
ENDBRANCH  26  31
ENDBRANCH  25  26
ENDBRANCH   2  25
TORSDOF 4
ENDMDL
MODEL 8
REMARK VINA RESULT:      -6.7      2.225      8.267
REMARK  4 active torsions:
REMARK  status: ('A' for Active; 'I' for Inactive)
REMARK    1  A    between atoms: N_2  and  C_16 
REMARK    2  A    between atoms: N_3  and  C_7 
REMARK    3  A    between atoms: C_16  and  C_17 
REMARK    4  A    between atoms: C_17  and  O_26 
ROOT
HETATM    1  C   UNL     1     -42.278 -50.434  13.454  1.00  0.00     0.117 A 
HETATM    2  N   UNL     1     -41.942 -48.434  12.626  1.00  0.00    -0.324 N 
HETATM    3  C   UNL     1     -41.595 -49.747  12.464  1.00  0.00     0.140 A 
HETATM    4  N   UNL     1     -42.982 -49.540  14.247  1.00  0.00    -0.346 N 
ATOM      5  HN  UNL     1     -43.556 -49.756  15.063  1.00  0.00     0.167 HD
HETATM    6  C   UNL     1     -42.166 -51.849  13.453  1.00  0.00     0.114 A 
HETATM    7  C   UNL     1     -42.752 -48.356  13.726  1.00  0.00     0.185 A 
HETATM    8  N   UNL     1     -40.795 -50.252  11.512  1.00  0.00    -0.336 N 
ATOM      9  HN  UNL     1     -40.308 -49.696  10.808  1.00  0.00     0.168 HD
HETATM   10  N   UNL     1     -41.336 -52.389  12.507  1.00  0.00    -0.341 N 
ATOM     11  HN  UNL     1     -41.182 -53.396  12.479  1.00  0.00     0.167 HD
HETATM   12  C   UNL     1     -40.723 -51.589  11.612  1.00  0.00     0.183 A 
ENDROOT
BRANCH   6  13
HETATM   13  N   UNL     1     -42.874 -52.703  14.336  1.00  0.00    -0.262 NA
HETATM   14  C   UNL     1     -41.979 -53.643  15.035  1.00  0.00     0.138 C 
HETATM   15  C   UNL     1     -42.758 -54.567  16.002  1.00  0.00     0.101 C 
HETATM   16  C   UNL     1     -43.117 -53.869  17.344  1.00  0.00     0.153 C 
HETATM   17  C   UNL     1     -41.818 -55.701  16.460  1.00  0.00     0.068 C 
HETATM   18  O   UNL     1     -43.853 -55.223  15.322  1.00  0.00    -0.370 OA
HETATM   19  O   UNL     1     -42.820 -54.827  18.386  1.00  0.00    -0.383 OA
HETATM   20  C   UNL     1     -44.535 -53.392  17.582  1.00  0.00     0.042 C 
HETATM   21  C   UNL     1     -41.662 -55.528  17.954  1.00  0.00     0.171 C 
HETATM   22  C   UNL     1     -44.713 -54.352  14.566  1.00  0.00     0.132 C 
HETATM   23  C   UNL     1     -43.948 -53.416  13.612  1.00  0.00     0.128 C 
HETATM   24  C   UNL     1     -45.683 -55.233  13.785  1.00  0.00     0.041 C 
ENDBRANCH   6  13
BRANCH   2  25
HETATM   25  C   UNL     1     -41.667 -47.368  11.685  1.00  0.00     0.171 C 
BRANCH  25  26
HETATM   26  C   UNL     1     -42.470 -47.422  10.379  1.00  0.00     0.097 C 
HETATM   27  C   UNL     1     -42.650 -46.097   9.667  1.00  0.00     0.068 C 
HETATM   28  C   UNL     1     -43.953 -46.290   8.909  1.00  0.00     0.170 C 
HETATM   29  O   UNL     1     -44.737 -47.248   9.628  1.00  0.00    -0.388 OA
HETATM   30  C   UNL     1     -43.926 -47.802  10.675  1.00  0.00     0.207 C 
BRANCH  26  31
HETATM   31  O   UNL     1     -41.934 -48.382   9.461  1.00  0.00    -0.386 OA
HETATM   32  H   UNL     1     -41.572 -47.928   8.677  1.00  0.00     0.210 HD
ENDBRANCH  26  31
ENDBRANCH  25  26
ENDBRANCH   2  25
TORSDOF 4
ENDMDL
MODEL 9
REMARK VINA RESULT:      -6.7      2.159      8.360
REMARK  4 active torsions:
REMARK  status: ('A' for Active; 'I' for Inactive)
REMARK    1  A    between atoms: N_2  and  C_16 
REMARK    2  A    between atoms: N_3  and  C_7 
REMARK    3  A    between atoms: C_16  and  C_17 
REMARK    4  A    between atoms: C_17  and  O_26 
ROOT
HETATM    1  C   UNL     1     -41.914 -49.199  12.688  1.00  0.00     0.117 A 
HETATM    2  N   UNL     1     -42.353 -47.120  12.153  1.00  0.00    -0.324 N 
HETATM    3  C   UNL     1     -41.674 -48.229  11.728  1.00  0.00     0.140 A 
HETATM    4  N   UNL     1     -42.679 -48.665  13.716  1.00  0.00    -0.346 N 
ATOM      5  HN  UNL     1     -42.990 -49.138  14.565  1.00  0.00     0.167 HD
HETATM    6  C   UNL     1     -41.393 -50.495  12.442  1.00  0.00     0.114 A 
HETATM    7  C   UNL     1     -42.916 -47.421  13.363  1.00  0.00     0.185 A 
HETATM    8  N   UNL     1     -40.965 -48.349  10.595  1.00  0.00    -0.336 N 
ATOM      9  HN  UNL     1     -40.813 -47.596   9.923  1.00  0.00     0.168 HD
HETATM   10  N   UNL     1     -40.645 -50.639  11.304  1.00  0.00    -0.341 N 
ATOM     11  HN  UNL     1     -40.210 -51.536  11.090  1.00  0.00     0.167 HD
HETATM   12  C   UNL     1     -40.484 -49.596  10.465  1.00  0.00     0.183 A 
ENDROOT
BRANCH   6  13
HETATM   13  N   UNL     1     -41.628 -51.619  13.275  1.00  0.00    -0.262 NA
HETATM   14  C   UNL     1     -40.472 -52.533  13.312  1.00  0.00     0.138 C 
HETATM   15  C   UNL     1     -40.734 -53.752  14.229  1.00  0.00     0.101 C 
HETATM   16  C   UNL     1     -40.556 -53.421  15.737  1.00  0.00     0.153 C 
HETATM   17  C   UNL     1     -39.623 -54.795  13.986  1.00  0.00     0.068 C 
HETATM   18  O   UNL     1     -41.969 -54.413  13.871  1.00  0.00    -0.370 OA
HETATM   19  O   UNL     1     -39.805 -54.520  16.303  1.00  0.00    -0.383 OA
HETATM   20  C   UNL     1     -41.781 -53.237  16.611  1.00  0.00     0.042 C 
HETATM   21  C   UNL     1     -38.883 -54.921  15.298  1.00  0.00     0.171 C 
HETATM   22  C   UNL     1     -43.112 -53.548  13.750  1.00  0.00     0.132 C 
HETATM   23  C   UNL     1     -42.859 -52.321  12.855  1.00  0.00     0.128 C 
HETATM   24  C   UNL     1     -44.262 -54.384  13.198  1.00  0.00     0.041 C 
ENDBRANCH   6  13
BRANCH   2  25
HETATM   25  C   UNL     1     -42.597 -45.930  11.365  1.00  0.00     0.171 C 
BRANCH  25  26
HETATM   26  C   UNL     1     -41.377 -45.022  11.154  1.00  0.00     0.097 C 
HETATM   27  C   UNL     1     -40.341 -45.053  12.259  1.00  0.00     0.068 C 
HETATM   28  C   UNL     1     -39.701 -43.678  12.166  1.00  0.00     0.170 C 
HETATM   29  O   UNL     1     -40.674 -42.782  11.618  1.00  0.00    -0.388 OA
HETATM   30  C   UNL     1     -41.807 -43.551  11.188  1.00  0.00     0.207 C 
BRANCH  26  31
HETATM   31  O   UNL     1     -40.735 -45.272   9.898  1.00  0.00    -0.386 OA
HETATM   32  H   UNL     1     -41.390 -45.237   9.176  1.00  0.00     0.210 HD
ENDBRANCH  26  31
ENDBRANCH  25  26
ENDBRANCH   2  25
TORSDOF 4
ENDMDL
