MODEL 1
REMARK VINA RESULT:      -6.3      0.000      0.000
REMARK  7 active torsions:
REMARK  status: ('A' for Active; 'I' for Inactive)
REMARK    1  A    between atoms: S_2  and  C_5 
REMARK    2  A    between atoms: C_5  and  C_6 
REMARK    3  A    between atoms: C_6  and  C_7 
REMARK    4  A    between atoms: C_7  and  N_8 
REMARK    5  A    between atoms: C_12  and  C_13 
REMARK    6  A    between atoms: C_13  and  N_14 
REMARK    7  A    between atoms: N_14  and  C_15 
ROOT
HETATM    1  N   UNL     1     -40.805 -48.980  12.279  1.00  0.00     0.093 N 
HETATM    2  C   UNL     1     -39.409 -49.078  12.774  1.00  0.00     0.298 C 
HETATM    3  C   UNL     1     -38.651 -50.330  12.283  1.00  0.00     0.198 C 
HETATM    4  O   UNL     1     -39.379 -51.540  12.532  1.00  0.00    -0.381 OA
HETATM    5  C   UNL     1     -40.708 -51.466  11.962  1.00  0.00     0.163 C 
HETATM    6  C   UNL     1     -41.465 -50.275  12.576  1.00  0.00     0.305 C 
ENDROOT
BRANCH   5   7
HETATM    7  C   UNL     1     -41.434 -52.798  12.218  1.00  0.00     0.127 C 
BRANCH   7   8
HETATM    8  N   UNL     1     -42.798 -52.665  11.694  1.00  0.00    -0.275 NA
HETATM    9  H   UNL     1     -42.848 -53.070  10.760  1.00  0.00     0.129 HD
BRANCH   8  10
HETATM   10  C   UNL     1     -43.808 -53.206  12.502  1.00  0.00     0.094 A 
HETATM   11  C   UNL     1     -43.438 -54.146  13.456  1.00  0.00     0.045 A 
HETATM   12  C   UNL     1     -44.409 -54.739  14.252  1.00  0.00     0.022 A 
HETATM   13  C   UNL     1     -45.720 -54.368  14.056  1.00  0.00     0.107 A 
HETATM   14  N   UNL     1     -46.077 -53.465  13.125  1.00  0.00    -0.311 N 
HETATM   15  N   UNL     1     -45.110 -52.891  12.337  1.00  0.00    -0.290 N 
ATOM     16  HN  UNL     1     -47.056 -53.209  13.005  1.00  0.00     0.186 HD
ATOM     17  HN  UNL     1     -45.379 -52.219  11.618  1.00  0.00     0.188 HD
ENDBRANCH   8  10
ENDBRANCH   7   8
ENDBRANCH   5   7
BRANCH   1  18
HETATM   18  C   UNL     1     -40.836 -48.603  10.853  1.00  0.00     0.273 C 
BRANCH  18  19
HETATM   19  C   UNL     1     -41.688 -47.362  10.568  1.00  0.00     0.045 C 
BRANCH  19  20
HETATM   20  C   UNL     1     -43.151 -47.722  10.330  1.00  0.00     0.141 C 
BRANCH  20  21
HETATM   21  S   UNL     1     -43.726 -47.028   8.786  1.00  0.00     0.140 S 
HETATM   22  C   UNL     1     -45.482 -46.921   9.015  1.00  0.00     0.161 C 
HETATM   23  O   UNL     1     -43.483 -48.001   7.739  1.00  0.00    -0.228 OA
HETATM   24  O   UNL     1     -43.219 -45.673   8.682  1.00  0.00    -0.228 OA
ENDBRANCH  20  21
ENDBRANCH  19  20
ENDBRANCH  18  19
ENDBRANCH   1  18
TORSDOF 7
ENDMDL
MODEL 2
REMARK VINA RESULT:      -6.1      3.906      6.773
REMARK  7 active torsions:
REMARK  status: ('A' for Active; 'I' for Inactive)
REMARK    1  A    between atoms: S_2  and  C_5 
REMARK    2  A    between atoms: C_5  and  C_6 
REMARK    3  A    between atoms: C_6  and  C_7 
REMARK    4  A    between atoms: C_7  and  N_8 
REMARK    5  A    between atoms: C_12  and  C_13 
REMARK    6  A    between atoms: C_13  and  N_14 
REMARK    7  A    between atoms: N_14  and  C_15 
ROOT
HETATM    1  N   UNL     1     -41.605 -53.224  13.573  1.00  0.00     0.093 N 
HETATM    2  C   UNL     1     -40.499 -54.165  13.882  1.00  0.00     0.298 C 
HETATM    3  C   UNL     1     -39.160 -53.476  14.219  1.00  0.00     0.198 C 
HETATM    4  O   UNL     1     -38.770 -52.524  13.219  1.00  0.00    -0.381 OA
HETATM    5  C   UNL     1     -39.823 -51.556  12.995  1.00  0.00     0.163 C 
HETATM    6  C   UNL     1     -41.101 -52.283  12.542  1.00  0.00     0.305 C 
ENDROOT
BRANCH   5   7
HETATM    7  C   UNL     1     -39.346 -50.534  11.949  1.00  0.00     0.127 C 
BRANCH   7   8
HETATM    8  N   UNL     1     -40.476 -50.255  11.056  1.00  0.00    -0.275 NA
HETATM    9  H   UNL     1     -41.310 -50.733  11.397  1.00  0.00     0.129 HD
BRANCH   8  10
HETATM   10  C   UNL     1     -40.756 -48.897  10.847  1.00  0.00     0.094 A 
HETATM   11  C   UNL     1     -40.089 -47.971  11.640  1.00  0.00     0.045 A 
HETATM   12  C   UNL     1     -40.364 -46.617  11.499  1.00  0.00     0.022 A 
HETATM   13  C   UNL     1     -41.306 -46.243  10.566  1.00  0.00     0.107 A 
HETATM   14  N   UNL     1     -41.958 -47.143   9.807  1.00  0.00    -0.311 N 
HETATM   15  N   UNL     1     -41.685 -48.480   9.961  1.00  0.00    -0.290 N 
ATOM     16  HN  UNL     1     -42.649 -46.836   9.123  1.00  0.00     0.186 HD
ATOM     17  HN  UNL     1     -42.190 -49.165   9.400  1.00  0.00     0.188 HD
ENDBRANCH   8  10
ENDBRANCH   7   8
ENDBRANCH   5   7
BRANCH   1  18
HETATM   18  C   UNL     1     -42.098 -52.566  14.797  1.00  0.00     0.273 C 
BRANCH  18  19
HETATM   19  C   UNL     1     -43.494 -53.034  15.222  1.00  0.00     0.045 C 
BRANCH  19  20
HETATM   20  C   UNL     1     -43.770 -54.466  14.776  1.00  0.00     0.141 C 
BRANCH  20  21
HETATM   21  S   UNL     1     -45.170 -54.518  13.663  1.00  0.00     0.140 S 
HETATM   22  C   UNL     1     -46.246 -53.260  14.301  1.00  0.00     0.161 C 
HETATM   23  O   UNL     1     -45.837 -55.793  13.841  1.00  0.00    -0.228 OA
HETATM   24  O   UNL     1     -44.723 -54.082  12.354  1.00  0.00    -0.228 OA
ENDBRANCH  20  21
ENDBRANCH  19  20
ENDBRANCH  18  19
ENDBRANCH   1  18
TORSDOF 7
ENDMDL
MODEL 3
REMARK VINA RESULT:      -5.9      3.720      6.304
REMARK  7 active torsions:
REMARK  status: ('A' for Active; 'I' for Inactive)
REMARK    1  A    between atoms: S_2  and  C_5 
REMARK    2  A    between atoms: C_5  and  C_6 
REMARK    3  A    between atoms: C_6  and  C_7 
REMARK    4  A    between atoms: C_7  and  N_8 
REMARK    5  A    between atoms: C_12  and  C_13 
REMARK    6  A    between atoms: C_13  and  N_14 
REMARK    7  A    between atoms: N_14  and  C_15 
ROOT
HETATM    1  N   UNL     1     -40.813 -53.927  14.463  1.00  0.00     0.093 N 
HETATM    2  C   UNL     1     -41.290 -53.152  15.636  1.00  0.00     0.298 C 
HETATM    3  C   UNL     1     -41.339 -51.626  15.408  1.00  0.00     0.198 C 
HETATM    4  O   UNL     1     -40.096 -51.109  14.912  1.00  0.00    -0.381 OA
HETATM    5  C   UNL     1     -39.690 -51.813  13.714  1.00  0.00     0.163 C 
HETATM    6  C   UNL     1     -39.535 -53.312  14.025  1.00  0.00     0.305 C 
ENDROOT
BRANCH   5   7
HETATM    7  C   UNL     1     -38.378 -51.198  13.197  1.00  0.00     0.127 C 
BRANCH   7   8
HETATM    8  N   UNL     1     -38.539 -50.958  11.758  1.00  0.00    -0.275 NA
HETATM    9  H   UNL     1     -38.852 -51.813  11.300  1.00  0.00     0.129 HD
BRANCH   8  10
HETATM   10  C   UNL     1     -39.387 -49.894  11.417  1.00  0.00     0.094 A 
HETATM   11  C   UNL     1     -39.192 -48.680  12.064  1.00  0.00     0.045 A 
HETATM   12  C   UNL     1     -40.034 -47.611  11.790  1.00  0.00     0.022 A 
HETATM   13  C   UNL     1     -41.046 -47.803  10.877  1.00  0.00     0.107 A 
HETATM   14  N   UNL     1     -41.239 -48.983  10.260  1.00  0.00    -0.311 N 
HETATM   15  N   UNL     1     -40.407 -50.037  10.545  1.00  0.00    -0.290 N 
ATOM     16  HN  UNL     1     -41.997 -49.094   9.587  1.00  0.00     0.186 HD
ATOM     17  HN  UNL     1     -40.561 -50.938  10.092  1.00  0.00     0.188 HD
ENDBRANCH   8  10
ENDBRANCH   7   8
ENDBRANCH   5   7
BRANCH   1  18
HETATM   18  C   UNL     1     -41.845 -53.982  13.410  1.00  0.00     0.273 C 
BRANCH  18  19
HETATM   19  C   UNL     1     -43.252 -54.260  13.949  1.00  0.00     0.045 C 
BRANCH  19  20
HETATM   20  C   UNL     1     -44.302 -54.204  12.844  1.00  0.00     0.141 C 
BRANCH  20  21
HETATM   21  S   UNL     1     -45.382 -52.797  13.074  1.00  0.00     0.140 S 
HETATM   22  C   UNL     1     -46.448 -53.313  14.395  1.00  0.00     0.161 C 
HETATM   23  O   UNL     1     -46.199 -52.661  11.884  1.00  0.00    -0.228 OA
HETATM   24  O   UNL     1     -44.585 -51.691  13.567  1.00  0.00    -0.228 OA
ENDBRANCH  20  21
ENDBRANCH  19  20
ENDBRANCH  18  19
ENDBRANCH   1  18
TORSDOF 7
ENDMDL
MODEL 4
REMARK VINA RESULT:      -5.9      2.004      2.664
REMARK  7 active torsions:
REMARK  status: ('A' for Active; 'I' for Inactive)
REMARK    1  A    between atoms: S_2  and  C_5 
REMARK    2  A    between atoms: C_5  and  C_6 
REMARK    3  A    between atoms: C_6  and  C_7 
REMARK    4  A    between atoms: C_7  and  N_8 
REMARK    5  A    between atoms: C_12  and  C_13 
REMARK    6  A    between atoms: C_13  and  N_14 
REMARK    7  A    between atoms: N_14  and  C_15 
ROOT
HETATM    1  N   UNL     1     -38.894 -49.097  13.949  1.00  0.00     0.093 N 
HETATM    2  C   UNL     1     -37.685 -49.116  13.087  1.00  0.00     0.298 C 
HETATM    3  C   UNL     1     -37.669 -50.257  12.048  1.00  0.00     0.198 C 
HETATM    4  O   UNL     1     -37.904 -51.540  12.644  1.00  0.00    -0.381 OA
HETATM    5  C   UNL     1     -39.135 -51.534  13.406  1.00  0.00     0.163 C 
HETATM    6  C   UNL     1     -39.052 -50.463  14.508  1.00  0.00     0.305 C 
ENDROOT
BRANCH   5   7
HETATM    7  C   UNL     1     -39.366 -52.938  13.990  1.00  0.00     0.127 C 
BRANCH   7   8
HETATM    8  N   UNL     1     -40.013 -53.748  12.951  1.00  0.00    -0.275 NA
HETATM    9  H   UNL     1     -39.715 -54.719  13.039  1.00  0.00     0.129 HD
BRANCH   8  10
HETATM   10  C   UNL     1     -41.413 -53.679  12.919  1.00  0.00     0.094 A 
HETATM   11  C   UNL     1     -42.115 -54.338  13.920  1.00  0.00     0.045 A 
HETATM   12  C   UNL     1     -43.503 -54.333  13.907  1.00  0.00     0.022 A 
HETATM   13  C   UNL     1     -44.137 -53.666  12.881  1.00  0.00     0.107 A 
HETATM   14  N   UNL     1     -43.454 -53.037  11.908  1.00  0.00    -0.311 N 
HETATM   15  N   UNL     1     -42.081 -53.057  11.926  1.00  0.00    -0.290 N 
ATOM     16  HN  UNL     1     -43.951 -52.550  11.162  1.00  0.00     0.186 HD
ATOM     17  HN  UNL     1     -41.561 -52.596  11.179  1.00  0.00     0.188 HD
ENDBRANCH   8  10
ENDBRANCH   7   8
ENDBRANCH   5   7
BRANCH   1  18
HETATM   18  C   UNL     1     -40.070 -48.614  13.202  1.00  0.00     0.273 C 
BRANCH  18  19
HETATM   19  C   UNL     1     -39.987 -47.131  12.826  1.00  0.00     0.045 C 
BRANCH  19  20
HETATM   20  C   UNL     1     -40.082 -46.924  11.318  1.00  0.00     0.141 C 
BRANCH  20  21
HETATM   21  S   UNL     1     -41.736 -46.422  10.856  1.00  0.00     0.140 S 
HETATM   22  C   UNL     1     -42.374 -47.847  10.012  1.00  0.00     0.161 C 
HETATM   23  O   UNL     1     -41.624 -45.354   9.881  1.00  0.00    -0.228 OA
HETATM   24  O   UNL     1     -42.512 -46.252  12.068  1.00  0.00    -0.228 OA
ENDBRANCH  20  21
ENDBRANCH  19  20
ENDBRANCH  18  19
ENDBRANCH   1  18
TORSDOF 7
ENDMDL
MODEL 5
REMARK VINA RESULT:      -5.8      2.041      2.220
REMARK  7 active torsions:
REMARK  status: ('A' for Active; 'I' for Inactive)
REMARK    1  A    between atoms: S_2  and  C_5 
REMARK    2  A    between atoms: C_5  and  C_6 
REMARK    3  A    between atoms: C_6  and  C_7 
REMARK    4  A    between atoms: C_7  and  N_8 
REMARK    5  A    between atoms: C_12  and  C_13 
REMARK    6  A    between atoms: C_13  and  N_14 
REMARK    7  A    between atoms: N_14  and  C_15 
ROOT
HETATM    1  N   UNL     1     -40.470 -49.195  13.638  1.00  0.00     0.093 N 
HETATM    2  C   UNL     1     -38.997 -49.316  13.507  1.00  0.00     0.298 C 
HETATM    3  C   UNL     1     -38.537 -50.193  12.323  1.00  0.00     0.198 C 
HETATM    4  O   UNL     1     -39.168 -51.482  12.323  1.00  0.00    -0.381 OA
HETATM    5  C   UNL     1     -40.609 -51.348  12.357  1.00  0.00     0.163 C 
HETATM    6  C   UNL     1     -41.023 -50.572  13.620  1.00  0.00     0.305 C 
ENDROOT
BRANCH   5   7
HETATM    7  C   UNL     1     -41.240 -52.749  12.315  1.00  0.00     0.127 C 
BRANCH   7   8
HETATM    8  N   UNL     1     -42.576 -52.615  11.720  1.00  0.00    -0.275 NA
HETATM    9  H   UNL     1     -42.579 -53.027  10.788  1.00  0.00     0.129 HD
BRANCH   8  10
HETATM   10  C   UNL     1     -43.628 -53.145  12.480  1.00  0.00     0.094 A 
HETATM   11  C   UNL     1     -43.315 -54.104  13.436  1.00  0.00     0.045 A 
HETATM   12  C   UNL     1     -44.329 -54.687  14.184  1.00  0.00     0.022 A 
HETATM   13  C   UNL     1     -45.624 -54.287  13.940  1.00  0.00     0.107 A 
HETATM   14  N   UNL     1     -45.925 -53.366  13.007  1.00  0.00    -0.311 N 
HETATM   15  N   UNL     1     -44.915 -52.802  12.266  1.00  0.00    -0.290 N 
ATOM     16  HN  UNL     1     -46.893 -53.089  12.850  1.00  0.00     0.186 HD
ATOM     17  HN  UNL     1     -45.142 -52.116  11.546  1.00  0.00     0.188 HD
ENDBRANCH   8  10
ENDBRANCH   7   8
ENDBRANCH   5   7
BRANCH   1  18
HETATM   18  C   UNL     1     -41.025 -48.312  12.594  1.00  0.00     0.273 C 
BRANCH  18  19
HETATM   19  C   UNL     1     -40.325 -46.951  12.511  1.00  0.00     0.045 C 
BRANCH  19  20
HETATM   20  C   UNL     1     -39.959 -46.590  11.075  1.00  0.00     0.141 C 
BRANCH  20  21
HETATM   21  S   UNL     1     -40.806 -45.099  10.567  1.00  0.00     0.140 S 
HETATM   22  C   UNL     1     -41.238 -44.330  12.107  1.00  0.00     0.161 C 
HETATM   23  O   UNL     1     -42.041 -45.486   9.914  1.00  0.00    -0.228 OA
HETATM   24  O   UNL     1     -39.846 -44.237   9.906  1.00  0.00    -0.228 OA
ENDBRANCH  20  21
ENDBRANCH  19  20
ENDBRANCH  18  19
ENDBRANCH   1  18
TORSDOF 7
ENDMDL
MODEL 6
REMARK VINA RESULT:      -5.7      3.547      6.995
REMARK  7 active torsions:
REMARK  status: ('A' for Active; 'I' for Inactive)
REMARK    1  A    between atoms: S_2  and  C_5 
REMARK    2  A    between atoms: C_5  and  C_6 
REMARK    3  A    between atoms: C_6  and  C_7 
REMARK    4  A    between atoms: C_7  and  N_8 
REMARK    5  A    between atoms: C_12  and  C_13 
REMARK    6  A    between atoms: C_13  and  N_14 
REMARK    7  A    between atoms: N_14  and  C_15 
ROOT
HETATM    1  N   UNL     1     -44.624 -52.964  15.037  1.00  0.00     0.093 N 
HETATM    2  C   UNL     1     -45.940 -53.002  14.352  1.00  0.00     0.298 C 
HETATM    3  C   UNL     1     -45.922 -52.434  12.917  1.00  0.00     0.198 C 
HETATM    4  O   UNL     1     -45.341 -51.125  12.856  1.00  0.00    -0.381 OA
HETATM    5  C   UNL     1     -44.017 -51.123  13.445  1.00  0.00     0.163 C 
HETATM    6  C   UNL     1     -44.107 -51.578  14.912  1.00  0.00     0.305 C 
ENDROOT
BRANCH   5   7
HETATM    7  C   UNL     1     -43.419 -49.712  13.320  1.00  0.00     0.127 C 
BRANCH   7   8
HETATM    8  N   UNL     1     -42.870 -49.583  11.965  1.00  0.00    -0.275 NA
HETATM    9  H   UNL     1     -43.274 -48.767  11.507  1.00  0.00     0.129 HD
BRANCH   8  10
HETATM   10  C   UNL     1     -41.471 -49.532  11.885  1.00  0.00     0.094 A 
HETATM   11  C   UNL     1     -40.808 -48.653  12.734  1.00  0.00     0.045 A 
HETATM   12  C   UNL     1     -39.426 -48.537  12.663  1.00  0.00     0.022 A 
HETATM   13  C   UNL     1     -38.760 -49.307  11.736  1.00  0.00     0.107 A 
HETATM   14  N   UNL     1     -39.406 -50.149  10.909  1.00  0.00    -0.311 N 
HETATM   15  N   UNL     1     -40.773 -50.250  10.981  1.00  0.00    -0.290 N 
ATOM     16  HN  UNL     1     -38.885 -50.708  10.234  1.00  0.00     0.186 HD
ATOM     17  HN  UNL     1     -41.267 -50.874  10.343  1.00  0.00     0.188 HD
ENDBRANCH   8  10
ENDBRANCH   7   8
ENDBRANCH   5   7
BRANCH   1  18
HETATM   18  C   UNL     1     -43.716 -53.994  14.498  1.00  0.00     0.273 C 
BRANCH  18  19
HETATM   19  C   UNL     1     -42.273 -53.856  14.995  1.00  0.00     0.045 C 
BRANCH  19  20
HETATM   20  C   UNL     1     -41.277 -54.472  14.017  1.00  0.00     0.141 C 
BRANCH  20  21
HETATM   21  S   UNL     1     -40.090 -53.248  13.476  1.00  0.00     0.140 S 
HETATM   22  C   UNL     1     -40.387 -51.881  14.567  1.00  0.00     0.161 C 
HETATM   23  O   UNL     1     -40.460 -52.826  12.139  1.00  0.00    -0.228 OA
HETATM   24  O   UNL     1     -38.760 -53.750  13.763  1.00  0.00    -0.228 OA
ENDBRANCH  20  21
ENDBRANCH  19  20
ENDBRANCH  18  19
ENDBRANCH   1  18
TORSDOF 7
ENDMDL
MODEL 7
REMARK VINA RESULT:      -5.6      2.496      3.249
REMARK  7 active torsions:
REMARK  status: ('A' for Active; 'I' for Inactive)
REMARK    1  A    between atoms: S_2  and  C_5 
REMARK    2  A    between atoms: C_5  and  C_6 
REMARK    3  A    between atoms: C_6  and  C_7 
REMARK    4  A    between atoms: C_7  and  N_8 
REMARK    5  A    between atoms: C_12  and  C_13 
REMARK    6  A    between atoms: C_13  and  N_14 
REMARK    7  A    between atoms: N_14  and  C_15 
ROOT
HETATM    1  N   UNL     1     -39.940 -47.317  12.546  1.00  0.00     0.093 N 
HETATM    2  C   UNL     1     -40.419 -47.361  11.142  1.00  0.00     0.298 C 
HETATM    3  C   UNL     1     -41.246 -48.617  10.795  1.00  0.00     0.198 C 
HETATM    4  O   UNL     1     -40.570 -49.830  11.152  1.00  0.00    -0.381 OA
HETATM    5  C   UNL     1     -40.190 -49.814  12.549  1.00  0.00     0.163 C 
HETATM    6  C   UNL     1     -39.267 -48.612  12.817  1.00  0.00     0.305 C 
ENDROOT
BRANCH   5   7
HETATM    7  C   UNL     1     -39.507 -51.147  12.895  1.00  0.00     0.127 C 
BRANCH   7   8
HETATM    8  N   UNL     1     -40.025 -52.162  11.970  1.00  0.00    -0.275 NA
HETATM    9  H   UNL     1     -39.333 -52.901  11.848  1.00  0.00     0.129 HD
BRANCH   8  10
HETATM   10  C   UNL     1     -41.262 -52.721  12.321  1.00  0.00     0.094 A 
HETATM   11  C   UNL     1     -41.288 -53.618  13.381  1.00  0.00     0.045 A 
HETATM   12  C   UNL     1     -42.483 -54.229  13.739  1.00  0.00     0.022 A 
HETATM   13  C   UNL     1     -43.610 -53.917  13.012  1.00  0.00     0.107 A 
HETATM   14  N   UNL     1     -43.580 -53.056  11.979  1.00  0.00    -0.311 N 
HETATM   15  N   UNL     1     -42.392 -52.465  11.628  1.00  0.00    -0.290 N 
ATOM     16  HN  UNL     1     -44.432 -52.843  11.461  1.00  0.00     0.186 HD
ATOM     17  HN  UNL     1     -42.362 -51.824  10.834  1.00  0.00     0.188 HD
ENDBRANCH   8  10
ENDBRANCH   7   8
ENDBRANCH   5   7
BRANCH   1  18
HETATM   18  C   UNL     1     -41.045 -47.011  13.474  1.00  0.00     0.273 C 
BRANCH  18  19
HETATM   19  C   UNL     1     -41.260 -45.509  13.692  1.00  0.00     0.045 C 
BRANCH  19  20
HETATM   20  C   UNL     1     -42.529 -45.014  13.006  1.00  0.00     0.141 C 
BRANCH  20  21
HETATM   21  S   UNL     1     -42.122 -43.995  11.593  1.00  0.00     0.140 S 
HETATM   22  C   UNL     1     -42.997 -42.485  11.913  1.00  0.00     0.161 C 
HETATM   23  O   UNL     1     -42.718 -44.601  10.417  1.00  0.00    -0.228 OA
HETATM   24  O   UNL     1     -40.705 -43.694  11.645  1.00  0.00    -0.228 OA
ENDBRANCH  20  21
ENDBRANCH  19  20
ENDBRANCH  18  19
ENDBRANCH   1  18
TORSDOF 7
ENDMDL
MODEL 8
REMARK VINA RESULT:      -5.4      3.349      5.868
REMARK  7 active torsions:
REMARK  status: ('A' for Active; 'I' for Inactive)
REMARK    1  A    between atoms: S_2  and  C_5 
REMARK    2  A    between atoms: C_5  and  C_6 
REMARK    3  A    between atoms: C_6  and  C_7 
REMARK    4  A    between atoms: C_7  and  N_8 
REMARK    5  A    between atoms: C_12  and  C_13 
REMARK    6  A    between atoms: C_13  and  N_14 
REMARK    7  A    between atoms: N_14  and  C_15 
ROOT
HETATM    1  N   UNL     1     -46.438 -51.610  15.867  1.00  0.00     0.093 N 
HETATM    2  C   UNL     1     -46.808 -52.281  17.138  1.00  0.00     0.298 C 
HETATM    3  C   UNL     1     -45.950 -53.520  17.473  1.00  0.00     0.198 C 
HETATM    4  O   UNL     1     -45.897 -54.455  16.386  1.00  0.00    -0.381 OA
HETATM    5  C   UNL     1     -45.443 -53.806  15.173  1.00  0.00     0.163 C 
HETATM    6  C   UNL     1     -46.402 -52.657  14.816  1.00  0.00     0.305 C 
ENDROOT
BRANCH   5   7
HETATM    7  C   UNL     1     -45.362 -54.853  14.050  1.00  0.00     0.127 C 
BRANCH   7   8
HETATM    8  N   UNL     1     -45.017 -54.147  12.810  1.00  0.00    -0.275 NA
HETATM    9  H   UNL     1     -45.591 -53.309  12.722  1.00  0.00     0.129 HD
BRANCH   8  10
HETATM   10  C   UNL     1     -43.663 -53.815  12.664  1.00  0.00     0.094 A 
HETATM   11  C   UNL     1     -42.748 -54.460  13.488  1.00  0.00     0.045 A 
HETATM   12  C   UNL     1     -41.401 -54.134  13.408  1.00  0.00     0.022 A 
HETATM   13  C   UNL     1     -41.022 -53.168  12.503  1.00  0.00     0.107 A 
HETATM   14  N   UNL     1     -41.911 -52.539  11.714  1.00  0.00    -0.311 N 
HETATM   15  N   UNL     1     -43.242 -52.862  11.808  1.00  0.00    -0.290 N 
ATOM     16  HN  UNL     1     -41.600 -51.829  11.052  1.00  0.00     0.186 HD
ATOM     17  HN  UNL     1     -43.921 -52.374  11.223  1.00  0.00     0.188 HD
ENDBRANCH   8  10
ENDBRANCH   7   8
ENDBRANCH   5   7
BRANCH   1  18
HETATM   18  C   UNL     1     -45.175 -50.862  16.012  1.00  0.00     0.273 C 
BRANCH  18  19
HETATM   19  C   UNL     1     -44.449 -50.627  14.682  1.00  0.00     0.045 C 
BRANCH  19  20
HETATM   20  C   UNL     1     -42.942 -50.814  14.820  1.00  0.00     0.141 C 
BRANCH  20  21
HETATM   21  S   UNL     1     -42.067 -49.488  13.998  1.00  0.00     0.140 S 
HETATM   22  C   UNL     1     -43.096 -49.126  12.599  1.00  0.00     0.161 C 
HETATM   23  O   UNL     1     -40.817 -50.022  13.491  1.00  0.00    -0.228 OA
HETATM   24  O   UNL     1     -42.089 -48.326  14.864  1.00  0.00    -0.228 OA
ENDBRANCH  20  21
ENDBRANCH  19  20
ENDBRANCH  18  19
ENDBRANCH   1  18
TORSDOF 7
ENDMDL
MODEL 9
REMARK VINA RESULT:      -5.4      2.927      3.510
REMARK  7 active torsions:
REMARK  status: ('A' for Active; 'I' for Inactive)
REMARK    1  A    between atoms: S_2  and  C_5 
REMARK    2  A    between atoms: C_5  and  C_6 
REMARK    3  A    between atoms: C_6  and  C_7 
REMARK    4  A    between atoms: C_7  and  N_8 
REMARK    5  A    between atoms: C_12  and  C_13 
REMARK    6  A    between atoms: C_13  and  N_14 
REMARK    7  A    between atoms: N_14  and  C_15 
ROOT
HETATM    1  N   UNL     1     -39.680 -48.690  13.007  1.00  0.00     0.093 N 
HETATM    2  C   UNL     1     -38.390 -49.301  13.414  1.00  0.00     0.298 C 
HETATM    3  C   UNL     1     -37.958 -50.503  12.548  1.00  0.00     0.198 C 
HETATM    4  O   UNL     1     -38.990 -51.492  12.436  1.00  0.00    -0.381 OA
HETATM    5  C   UNL     1     -40.218 -50.900  11.948  1.00  0.00     0.163 C 
HETATM    6  C   UNL     1     -40.672 -49.790  12.912  1.00  0.00     0.305 C 
ENDROOT
BRANCH   5   7
HETATM    7  C   UNL     1     -41.280 -52.003  11.805  1.00  0.00     0.127 C 
BRANCH   7   8
HETATM    8  N   UNL     1     -40.591 -53.296  11.908  1.00  0.00    -0.275 NA
HETATM    9  H   UNL     1     -39.619 -53.191  11.619  1.00  0.00     0.129 HD
BRANCH   8  10
HETATM   10  C   UNL     1     -40.652 -53.911  13.166  1.00  0.00     0.094 A 
HETATM   11  C   UNL     1     -41.908 -54.145  13.711  1.00  0.00     0.045 A 
HETATM   12  C   UNL     1     -42.018 -54.714  14.973  1.00  0.00     0.022 A 
HETATM   13  C   UNL     1     -40.856 -55.023  15.645  1.00  0.00     0.107 A 
HETATM   14  N   UNL     1     -39.640 -54.786  15.119  1.00  0.00    -0.311 N 
HETATM   15  N   UNL     1     -39.544 -54.214  13.874  1.00  0.00    -0.290 N 
ATOM     16  HN  UNL     1     -38.798 -55.027  15.640  1.00  0.00     0.186 HD
ATOM     17  HN  UNL     1     -38.624 -54.017  13.481  1.00  0.00     0.188 HD
ENDBRANCH   8  10
ENDBRANCH   7   8
ENDBRANCH   5   7
BRANCH   1  18
HETATM   18  C   UNL     1     -39.528 -47.911  11.763  1.00  0.00     0.273 C 
BRANCH  18  19
HETATM   19  C   UNL     1     -40.827 -47.244  11.299  1.00  0.00     0.045 C 
BRANCH  19  20
HETATM   20  C   UNL     1     -41.094 -45.943  12.049  1.00  0.00     0.141 C 
BRANCH  20  21
HETATM   21  S   UNL     1     -40.998 -44.546  10.936  1.00  0.00     0.140 S 
HETATM   22  C   UNL     1     -40.276 -43.274  11.940  1.00  0.00     0.161 C 
HETATM   23  O   UNL     1     -42.351 -44.132  10.618  1.00  0.00    -0.228 OA
HETATM   24  O   UNL     1     -40.046 -44.865   9.891  1.00  0.00    -0.228 OA
ENDBRANCH  20  21
ENDBRANCH  19  20
ENDBRANCH  18  19
ENDBRANCH   1  18
TORSDOF 7
ENDMDL
