MODEL 1
REMARK VINA RESULT:      -6.1      0.000      0.000
REMARK  5 active torsions:
REMARK  status: ('A' for Active; 'I' for Inactive)
REMARK    1  A    between atoms: C_2  and  N_3 
REMARK    2  A    between atoms: C_2  and  C_16 
REMARK       I    between atoms: N_3  and  C_4 
REMARK       I    between atoms: C_4  and  N_6 
REMARK    3  A    between atoms: N_6  and  C_7 
REMARK    4  A    between atoms: C_7  and  C_8 
REMARK    5  A    between atoms: C_8  and  C_9 
ROOT
HETATM    1  N   UNL     1     -42.167 -51.458  12.094  1.00  0.00    -0.336 N 
HETATM    2  C   UNL     1     -41.832 -50.149  12.314  1.00  0.00     0.316 C 
HETATM    3  O   UNL     1     -41.503 -49.702  13.406  1.00  0.00    -0.247 OA
HETATM    4  N   UNL     1     -41.928 -49.387  11.176  1.00  0.00    -0.343 N 
HETATM    5  H   UNL     1     -42.118 -51.799  11.143  1.00  0.00     0.164 HD
HETATM    6  H   UNL     1     -42.556 -49.745  10.470  1.00  0.00     0.164 HD
ENDROOT
BRANCH   1   7
HETATM    7  C   UNL     1     -42.016 -52.468  13.147  1.00  0.00     0.111 C 
HETATM    8  C   UNL     1     -41.202 -53.646  12.604  1.00  0.00     0.035 C 
BRANCH   7   9
HETATM    9  C   UNL     1     -43.401 -52.875  13.690  1.00  0.00     0.143 C 
HETATM   10  C   UNL     1     -43.565 -54.355  14.026  1.00  0.00     0.036 C 
HETATM   11  C   UNL     1     -44.975 -54.698  13.585  1.00  0.00     0.029 C 
HETATM   12  C   UNL     1     -45.567 -53.379  13.140  1.00  0.00     0.168 C 
HETATM   13  O   UNL     1     -44.451 -52.571  12.751  1.00  0.00    -0.384 OA
ENDBRANCH   7   9
ENDBRANCH   1   7
BRANCH   4  14
HETATM   14  C   UNL     1     -41.803 -47.944  11.298  1.00  0.00     0.129 C 
BRANCH  14  15
HETATM   15  C   UNL     1     -42.032 -47.185   9.991  1.00  0.00     0.061 C 
BRANCH  15  16
HETATM   16  C   UNL     1     -43.345 -47.477   9.341  1.00  0.00    -0.023 A 
HETATM   17  C   UNL     1     -43.577 -47.838   7.994  1.00  0.00     0.115 A 
HETATM   18  N   UNL     1     -44.870 -48.021   7.723  1.00  0.00    -0.310 N 
HETATM   19  N   UNL     1     -45.480 -47.757   8.891  1.00  0.00    -0.308 N 
ATOM     20  HN  UNL     1     -45.296 -48.297   6.838  1.00  0.00     0.186 HD
HETATM   21  C   UNL     1     -46.918 -47.827   8.990  1.00  0.00     0.177 C 
HETATM   22  C   UNL     1     -44.612 -47.432   9.891  1.00  0.00     0.118 A 
ENDBRANCH  15  16
ENDBRANCH  14  15
ENDBRANCH   4  14
TORSDOF 5
ENDMDL
MODEL 2
REMARK VINA RESULT:      -6.0      1.255      1.621
REMARK  5 active torsions:
REMARK  status: ('A' for Active; 'I' for Inactive)
REMARK    1  A    between atoms: C_2  and  N_3 
REMARK    2  A    between atoms: C_2  and  C_16 
REMARK       I    between atoms: N_3  and  C_4 
REMARK       I    between atoms: C_4  and  N_6 
REMARK    3  A    between atoms: N_6  and  C_7 
REMARK    4  A    between atoms: C_7  and  C_8 
REMARK    5  A    between atoms: C_8  and  C_9 
ROOT
HETATM    1  N   UNL     1     -43.068 -51.549  12.448  1.00  0.00    -0.336 N 
HETATM    2  C   UNL     1     -42.460 -50.342  12.667  1.00  0.00     0.316 C 
HETATM    3  O   UNL     1     -42.175 -49.910  13.778  1.00  0.00    -0.247 OA
HETATM    4  N   UNL     1     -42.226 -49.656  11.500  1.00  0.00    -0.343 N 
HETATM    5  H   UNL     1     -42.981 -51.955  11.526  1.00  0.00     0.164 HD
HETATM    6  H   UNL     1     -42.827 -49.905  10.726  1.00  0.00     0.164 HD
ENDROOT
BRANCH   1   7
HETATM    7  C   UNL     1     -43.297 -52.493  13.547  1.00  0.00     0.111 C 
HETATM    8  C   UNL     1     -42.555 -53.800  13.254  1.00  0.00     0.035 C 
BRANCH   7   9
HETATM    9  C   UNL     1     -44.811 -52.682  13.772  1.00  0.00     0.143 C 
HETATM   10  C   UNL     1     -45.691 -51.516  13.331  1.00  0.00     0.036 C 
HETATM   11  C   UNL     1     -46.769 -51.420  14.393  1.00  0.00     0.029 C 
HETATM   12  C   UNL     1     -46.514 -52.601  15.303  1.00  0.00     0.168 C 
HETATM   13  O   UNL     1     -45.120 -52.897  15.164  1.00  0.00    -0.384 OA
ENDBRANCH   7   9
ENDBRANCH   1   7
BRANCH   4  14
HETATM   14  C   UNL     1     -41.777 -48.276  11.587  1.00  0.00     0.129 C 
BRANCH  14  15
HETATM   15  C   UNL     1     -41.819 -47.521  10.258  1.00  0.00     0.061 C 
BRANCH  15  16
HETATM   16  C   UNL     1     -43.142 -47.583   9.568  1.00  0.00    -0.023 A 
HETATM   17  C   UNL     1     -43.387 -47.839   8.199  1.00  0.00     0.115 A 
HETATM   18  N   UNL     1     -44.685 -47.814   7.892  1.00  0.00    -0.310 N 
HETATM   19  N   UNL     1     -45.281 -47.520   9.060  1.00  0.00    -0.308 N 
ATOM     20  HN  UNL     1     -45.122 -47.980   6.985  1.00  0.00     0.186 HD
HETATM   21  C   UNL     1     -46.716 -47.380   9.126  1.00  0.00     0.177 C 
HETATM   22  C   UNL     1     -44.403 -47.376  10.093  1.00  0.00     0.118 A 
ENDBRANCH  15  16
ENDBRANCH  14  15
ENDBRANCH   4  14
TORSDOF 5
ENDMDL
MODEL 3
REMARK VINA RESULT:      -5.8      2.725      3.416
REMARK  5 active torsions:
REMARK  status: ('A' for Active; 'I' for Inactive)
REMARK    1  A    between atoms: C_2  and  N_3 
REMARK    2  A    between atoms: C_2  and  C_16 
REMARK       I    between atoms: N_3  and  C_4 
REMARK       I    between atoms: C_4  and  N_6 
REMARK    3  A    between atoms: N_6  and  C_7 
REMARK    4  A    between atoms: C_7  and  C_8 
REMARK    5  A    between atoms: C_8  and  C_9 
ROOT
HETATM    1  N   UNL     1     -39.530 -49.225  11.367  1.00  0.00    -0.336 N 
HETATM    2  C   UNL     1     -40.063 -47.979  11.560  1.00  0.00     0.316 C 
HETATM    3  O   UNL     1     -39.984 -47.356  12.612  1.00  0.00    -0.247 OA
HETATM    4  N   UNL     1     -40.718 -47.513  10.446  1.00  0.00    -0.343 N 
HETATM    5  H   UNL     1     -39.368 -49.521  10.414  1.00  0.00     0.164 HD
HETATM    6  H   UNL     1     -41.049 -48.226   9.812  1.00  0.00     0.164 HD
ENDROOT
BRANCH   1   7
HETATM    7  C   UNL     1     -38.687 -49.856  12.388  1.00  0.00     0.111 C 
HETATM    8  C   UNL     1     -37.427 -50.419  11.725  1.00  0.00     0.035 C 
BRANCH   7   9
HETATM    9  C   UNL     1     -39.499 -50.913  13.163  1.00  0.00     0.143 C 
HETATM   10  C   UNL     1     -38.738 -51.652  14.261  1.00  0.00     0.036 C 
HETATM   11  C   UNL     1     -39.233 -53.083  14.180  1.00  0.00     0.029 C 
HETATM   12  C   UNL     1     -40.324 -53.051  13.133  1.00  0.00     0.168 C 
HETATM   13  O   UNL     1     -40.011 -51.939  12.288  1.00  0.00    -0.384 OA
ENDBRANCH   7   9
ENDBRANCH   1   7
BRANCH   4  14
HETATM   14  C   UNL     1     -41.507 -46.298  10.566  1.00  0.00     0.129 C 
BRANCH  14  15
HETATM   15  C   UNL     1     -42.977 -46.540  10.911  1.00  0.00     0.061 C 
BRANCH  15  16
HETATM   16  C   UNL     1     -43.767 -47.150   9.801  1.00  0.00    -0.023 A 
HETATM   17  C   UNL     1     -43.394 -47.268   8.442  1.00  0.00     0.115 A 
HETATM   18  N   UNL     1     -44.332 -47.855   7.697  1.00  0.00    -0.310 N 
HETATM   19  N   UNL     1     -45.325 -48.098   8.570  1.00  0.00    -0.308 N 
ATOM     20  HN  UNL     1     -44.303 -48.069   6.700  1.00  0.00     0.186 HD
HETATM   21  C   UNL     1     -46.549 -48.717   8.121  1.00  0.00     0.177 C 
HETATM   22  C   UNL     1     -45.035 -47.700   9.841  1.00  0.00     0.118 A 
ENDBRANCH  15  16
ENDBRANCH  14  15
ENDBRANCH   4  14
TORSDOF 5
ENDMDL
MODEL 4
REMARK VINA RESULT:      -5.4      2.134      6.667
REMARK  5 active torsions:
REMARK  status: ('A' for Active; 'I' for Inactive)
REMARK    1  A    between atoms: C_2  and  N_3 
REMARK    2  A    between atoms: C_2  and  C_16 
REMARK       I    between atoms: N_3  and  C_4 
REMARK       I    between atoms: C_4  and  N_6 
REMARK    3  A    between atoms: N_6  and  C_7 
REMARK    4  A    between atoms: C_7  and  C_8 
REMARK    5  A    between atoms: C_8  and  C_9 
ROOT
HETATM    1  N   UNL     1     -42.805 -49.083  11.683  1.00  0.00    -0.336 N 
HETATM    2  C   UNL     1     -41.805 -50.016  11.755  1.00  0.00     0.316 C 
HETATM    3  O   UNL     1     -40.625 -49.772  11.532  1.00  0.00    -0.247 OA
HETATM    4  N   UNL     1     -42.277 -51.263  12.085  1.00  0.00    -0.343 N 
HETATM    5  H   UNL     1     -43.667 -49.284  12.173  1.00  0.00     0.164 HD
HETATM    6  H   UNL     1     -43.249 -51.428  11.864  1.00  0.00     0.164 HD
ENDROOT
BRANCH   1   7
HETATM    7  C   UNL     1     -42.505 -47.664  11.463  1.00  0.00     0.111 C 
HETATM    8  C   UNL     1     -42.951 -46.860  12.688  1.00  0.00     0.035 C 
BRANCH   7   9
HETATM    9  C   UNL     1     -43.149 -47.187  10.146  1.00  0.00     0.143 C 
HETATM   10  C   UNL     1     -44.665 -47.341  10.062  1.00  0.00     0.036 C 
HETATM   11  C   UNL     1     -44.932 -47.768   8.632  1.00  0.00     0.029 C 
HETATM   12  C   UNL     1     -43.579 -47.716   7.958  1.00  0.00     0.168 C 
HETATM   13  O   UNL     1     -42.623 -47.898   9.008  1.00  0.00    -0.384 OA
ENDBRANCH   7   9
ENDBRANCH   1   7
BRANCH   4  14
HETATM   14  C   UNL     1     -41.365 -52.392  11.999  1.00  0.00     0.129 C 
BRANCH  14  15
HETATM   15  C   UNL     1     -41.532 -53.416  13.121  1.00  0.00     0.061 C 
BRANCH  15  16
HETATM   16  C   UNL     1     -42.951 -53.658  13.516  1.00  0.00    -0.023 A 
HETATM   17  C   UNL     1     -44.021 -54.053  12.681  1.00  0.00     0.115 A 
HETATM   18  N   UNL     1     -45.176 -54.173  13.340  1.00  0.00    -0.310 N 
HETATM   19  N   UNL     1     -44.858 -53.833  14.600  1.00  0.00    -0.308 N 
ATOM     20  HN  UNL     1     -46.085 -54.456  12.973  1.00  0.00     0.186 HD
HETATM   21  C   UNL     1     -45.874 -53.818  15.625  1.00  0.00     0.177 C 
HETATM   22  C   UNL     1     -43.540 -53.521  14.759  1.00  0.00     0.118 A 
ENDBRANCH  15  16
ENDBRANCH  14  15
ENDBRANCH   4  14
TORSDOF 5
ENDMDL
MODEL 5
REMARK VINA RESULT:      -5.4      2.969      6.472
REMARK  5 active torsions:
REMARK  status: ('A' for Active; 'I' for Inactive)
REMARK    1  A    between atoms: C_2  and  N_3 
REMARK    2  A    between atoms: C_2  and  C_16 
REMARK       I    between atoms: N_3  and  C_4 
REMARK       I    between atoms: C_4  and  N_6 
REMARK    3  A    between atoms: N_6  and  C_7 
REMARK    4  A    between atoms: C_7  and  C_8 
REMARK    5  A    between atoms: C_8  and  C_9 
ROOT
HETATM    1  N   UNL     1     -41.718 -51.055  11.722  1.00  0.00    -0.336 N 
HETATM    2  C   UNL     1     -42.442 -51.798  12.616  1.00  0.00     0.316 C 
HETATM    3  O   UNL     1     -42.609 -51.484  13.789  1.00  0.00    -0.247 OA
HETATM    4  N   UNL     1     -42.941 -52.949  12.056  1.00  0.00    -0.343 N 
HETATM    5  H   UNL     1     -41.889 -51.214  10.738  1.00  0.00     0.164 HD
HETATM    6  H   UNL     1     -42.437 -53.288  11.249  1.00  0.00     0.164 HD
ENDROOT
BRANCH   1   7
HETATM    7  C   UNL     1     -41.199 -49.731  12.079  1.00  0.00     0.111 C 
HETATM    8  C   UNL     1     -41.420 -48.769  10.909  1.00  0.00     0.035 C 
BRANCH   7   9
HETATM    9  C   UNL     1     -39.724 -49.843  12.515  1.00  0.00     0.143 C 
HETATM   10  C   UNL     1     -38.757 -48.896  11.808  1.00  0.00     0.036 C 
HETATM   11  C   UNL     1     -37.500 -49.716  11.593  1.00  0.00     0.029 C 
HETATM   12  C   UNL     1     -37.777 -51.029  12.290  1.00  0.00     0.168 C 
HETATM   13  O   UNL     1     -39.202 -51.168  12.293  1.00  0.00    -0.384 OA
ENDBRANCH   7   9
ENDBRANCH   1   7
BRANCH   4  14
HETATM   14  C   UNL     1     -43.553 -53.934  12.933  1.00  0.00     0.129 C 
BRANCH  14  15
HETATM   15  C   UNL     1     -45.074 -54.021  12.807  1.00  0.00     0.061 C 
BRANCH  15  16
HETATM   16  C   UNL     1     -45.812 -53.080  13.700  1.00  0.00    -0.023 A 
HETATM   17  C   UNL     1     -46.337 -51.810  13.367  1.00  0.00     0.115 A 
HETATM   18  N   UNL     1     -46.934 -51.210  14.398  1.00  0.00    -0.310 N 
HETATM   19  N   UNL     1     -46.775 -52.082  15.408  1.00  0.00    -0.308 N 
ATOM     20  HN  UNL     1     -47.401 -50.303  14.416  1.00  0.00     0.186 HD
HETATM   21  C   UNL     1     -47.278 -51.767  16.723  1.00  0.00     0.177 C 
HETATM   22  C   UNL     1     -46.115 -53.217  15.042  1.00  0.00     0.118 A 
ENDBRANCH  15  16
ENDBRANCH  14  15
ENDBRANCH   4  14
TORSDOF 5
ENDMDL
MODEL 6
REMARK VINA RESULT:      -5.4      2.633      4.206
REMARK  5 active torsions:
REMARK  status: ('A' for Active; 'I' for Inactive)
REMARK    1  A    between atoms: C_2  and  N_3 
REMARK    2  A    between atoms: C_2  and  C_16 
REMARK       I    between atoms: N_3  and  C_4 
REMARK       I    between atoms: C_4  and  N_6 
REMARK    3  A    between atoms: N_6  and  C_7 
REMARK    4  A    between atoms: C_7  and  C_8 
REMARK    5  A    between atoms: C_8  and  C_9 
ROOT
HETATM    1  N   UNL     1     -40.623 -50.025  10.972  1.00  0.00    -0.336 N 
HETATM    2  C   UNL     1     -41.622 -49.090  11.040  1.00  0.00     0.316 C 
HETATM    3  O   UNL     1     -42.327 -48.914  12.026  1.00  0.00    -0.247 OA
HETATM    4  N   UNL     1     -41.760 -48.388   9.868  1.00  0.00    -0.343 N 
HETATM    5  H   UNL     1     -39.909 -49.894  10.268  1.00  0.00     0.164 HD
HETATM    6  H   UNL     1     -41.422 -48.859   9.041  1.00  0.00     0.164 HD
ENDROOT
BRANCH   1   7
HETATM    7  C   UNL     1     -40.228 -50.801  12.152  1.00  0.00     0.111 C 
HETATM    8  C   UNL     1     -38.705 -50.747  12.305  1.00  0.00     0.035 C 
BRANCH   7   9
HETATM    9  C   UNL     1     -40.786 -52.235  12.052  1.00  0.00     0.143 C 
HETATM   10  C   UNL     1     -42.225 -52.413  12.529  1.00  0.00     0.036 C 
HETATM   11  C   UNL     1     -42.233 -53.751  13.242  1.00  0.00     0.029 C 
HETATM   12  C   UNL     1     -40.843 -54.307  13.027  1.00  0.00     0.168 C 
HETATM   13  O   UNL     1     -40.003 -53.166  12.824  1.00  0.00    -0.384 OA
ENDBRANCH   7   9
ENDBRANCH   1   7
BRANCH   4  14
HETATM   14  C   UNL     1     -42.908 -47.509   9.721  1.00  0.00     0.129 C 
BRANCH  14  15
HETATM   15  C   UNL     1     -42.549 -46.028   9.596  1.00  0.00     0.061 C 
BRANCH  15  16
HETATM   16  C   UNL     1     -41.573 -45.553  10.622  1.00  0.00    -0.023 A 
HETATM   17  C   UNL     1     -40.208 -45.238  10.430  1.00  0.00     0.115 A 
HETATM   18  N   UNL     1     -39.603 -44.851  11.555  1.00  0.00    -0.310 N 
HETATM   19  N   UNL     1     -40.573 -44.936  12.482  1.00  0.00    -0.308 N 
ATOM     20  HN  UNL     1     -38.634 -44.559  11.681  1.00  0.00     0.186 HD
HETATM   21  C   UNL     1     -40.288 -44.614  13.859  1.00  0.00     0.177 C 
HETATM   22  C   UNL     1     -41.770 -45.346  11.974  1.00  0.00     0.118 A 
ENDBRANCH  15  16
ENDBRANCH  14  15
ENDBRANCH   4  14
TORSDOF 5
ENDMDL
MODEL 7
REMARK VINA RESULT:      -5.4      2.388      6.916
REMARK  5 active torsions:
REMARK  status: ('A' for Active; 'I' for Inactive)
REMARK    1  A    between atoms: C_2  and  N_3 
REMARK    2  A    between atoms: C_2  and  C_16 
REMARK       I    between atoms: N_3  and  C_4 
REMARK       I    between atoms: C_4  and  N_6 
REMARK    3  A    between atoms: N_6  and  C_7 
REMARK    4  A    between atoms: C_7  and  C_8 
REMARK    5  A    between atoms: C_8  and  C_9 
ROOT
HETATM    1  N   UNL     1     -41.191 -48.949  10.580  1.00  0.00    -0.336 N 
HETATM    2  C   UNL     1     -41.101 -49.777  11.666  1.00  0.00     0.316 C 
HETATM    3  O   UNL     1     -41.355 -49.430  12.814  1.00  0.00    -0.247 OA
HETATM    4  N   UNL     1     -40.670 -51.037  11.328  1.00  0.00    -0.343 N 
HETATM    5  H   UNL     1     -41.270 -49.382   9.669  1.00  0.00     0.164 HD
HETATM    6  H   UNL     1     -40.136 -51.095  10.473  1.00  0.00     0.164 HD
ENDROOT
BRANCH   1   7
HETATM    7  C   UNL     1     -41.746 -47.597  10.699  1.00  0.00     0.111 C 
HETATM    8  C   UNL     1     -42.773 -47.372   9.586  1.00  0.00     0.035 C 
BRANCH   7   9
HETATM    9  C   UNL     1     -40.607 -46.558  10.705  1.00  0.00     0.143 C 
HETATM   10  C   UNL     1     -40.051 -46.200  12.081  1.00  0.00     0.036 C 
HETATM   11  C   UNL     1     -39.786 -44.709  12.017  1.00  0.00     0.029 C 
HETATM   12  C   UNL     1     -40.087 -44.330  10.584  1.00  0.00     0.168 C 
HETATM   13  O   UNL     1     -41.022 -45.309  10.118  1.00  0.00    -0.384 OA
ENDBRANCH   7   9
ENDBRANCH   1   7
BRANCH   4  14
HETATM   14  C   UNL     1     -40.331 -51.961  12.398  1.00  0.00     0.129 C 
BRANCH  14  15
HETATM   15  C   UNL     1     -41.257 -53.174  12.493  1.00  0.00     0.061 C 
BRANCH  15  16
HETATM   16  C   UNL     1     -42.611 -52.862  13.039  1.00  0.00    -0.023 A 
HETATM   17  C   UNL     1     -42.922 -52.293  14.295  1.00  0.00     0.115 A 
HETATM   18  N   UNL     1     -44.234 -52.152  14.490  1.00  0.00    -0.310 N 
HETATM   19  N   UNL     1     -44.776 -52.651  13.366  1.00  0.00    -0.308 N 
ATOM     20  HN  UNL     1     -44.713 -51.758  15.299  1.00  0.00     0.186 HD
HETATM   21  C   UNL     1     -46.210 -52.695  13.211  1.00  0.00     0.177 C 
HETATM   22  C   UNL     1     -43.848 -53.085  12.466  1.00  0.00     0.118 A 
ENDBRANCH  15  16
ENDBRANCH  14  15
ENDBRANCH   4  14
TORSDOF 5
ENDMDL
MODEL 8
REMARK VINA RESULT:      -5.4      2.684      4.064
REMARK  5 active torsions:
REMARK  status: ('A' for Active; 'I' for Inactive)
REMARK    1  A    between atoms: C_2  and  N_3 
REMARK    2  A    between atoms: C_2  and  C_16 
REMARK       I    between atoms: N_3  and  C_4 
REMARK       I    between atoms: C_4  and  N_6 
REMARK    3  A    between atoms: N_6  and  C_7 
REMARK    4  A    between atoms: C_7  and  C_8 
REMARK    5  A    between atoms: C_8  and  C_9 
ROOT
HETATM    1  N   UNL     1     -45.009 -51.168  12.857  1.00  0.00    -0.336 N 
HETATM    2  C   UNL     1     -43.661 -51.378  12.740  1.00  0.00     0.316 C 
HETATM    3  O   UNL     1     -43.148 -52.485  12.630  1.00  0.00    -0.247 OA
HETATM    4  N   UNL     1     -42.945 -50.207  12.784  1.00  0.00    -0.343 N 
HETATM    5  H   UNL     1     -45.359 -50.247  12.631  1.00  0.00     0.164 HD
HETATM    6  H   UNL     1     -43.404 -49.439  13.253  1.00  0.00     0.164 HD
ENDROOT
BRANCH   1   7
HETATM    7  C   UNL     1     -45.964 -52.272  12.713  1.00  0.00     0.111 C 
HETATM    8  C   UNL     1     -47.011 -51.900  11.660  1.00  0.00     0.035 C 
BRANCH   7   9
HETATM    9  C   UNL     1     -46.571 -52.626  14.086  1.00  0.00     0.143 C 
HETATM   10  C   UNL     1     -46.925 -51.437  14.974  1.00  0.00     0.036 C 
HETATM   11  C   UNL     1     -46.550 -51.875  16.376  1.00  0.00     0.029 C 
HETATM   12  C   UNL     1     -46.122 -53.317  16.223  1.00  0.00     0.168 C 
HETATM   13  O   UNL     1     -45.678 -53.443  14.868  1.00  0.00    -0.384 OA
ENDBRANCH   7   9
ENDBRANCH   1   7
BRANCH   4  14
HETATM   14  C   UNL     1     -41.496 -50.286  12.879  1.00  0.00     0.129 C 
BRANCH  14  15
HETATM   15  C   UNL     1     -40.768 -49.989  11.568  1.00  0.00     0.061 C 
BRANCH  15  16
HETATM   16  C   UNL     1     -40.887 -48.571  11.116  1.00  0.00    -0.023 A 
HETATM   17  C   UNL     1     -41.857 -48.024  10.245  1.00  0.00     0.115 A 
HETATM   18  N   UNL     1     -41.682 -46.719  10.028  1.00  0.00    -0.310 N 
HETATM   19  N   UNL     1     -40.583 -46.424  10.743  1.00  0.00    -0.308 N 
ATOM     20  HN  UNL     1     -42.249 -46.093   9.455  1.00  0.00     0.186 HD
HETATM   21  C   UNL     1     -40.056 -45.081  10.740  1.00  0.00     0.177 C 
HETATM   22  C   UNL     1     -40.073 -47.495  11.415  1.00  0.00     0.118 A 
ENDBRANCH  15  16
ENDBRANCH  14  15
ENDBRANCH   4  14
TORSDOF 5
ENDMDL
MODEL 9
REMARK VINA RESULT:      -5.3      2.830      3.950
REMARK  5 active torsions:
REMARK  status: ('A' for Active; 'I' for Inactive)
REMARK    1  A    between atoms: C_2  and  N_3 
REMARK    2  A    between atoms: C_2  and  C_16 
REMARK       I    between atoms: N_3  and  C_4 
REMARK       I    between atoms: C_4  and  N_6 
REMARK    3  A    between atoms: N_6  and  C_7 
REMARK    4  A    between atoms: C_7  and  C_8 
REMARK    5  A    between atoms: C_8  and  C_9 
ROOT
HETATM    1  N   UNL     1     -42.441 -52.068  12.075  1.00  0.00    -0.336 N 
HETATM    2  C   UNL     1     -41.666 -50.952  12.242  1.00  0.00     0.316 C 
HETATM    3  O   UNL     1     -41.562 -50.344  13.301  1.00  0.00    -0.247 OA
HETATM    4  N   UNL     1     -41.035 -50.576  11.081  1.00  0.00    -0.343 N 
HETATM    5  H   UNL     1     -42.230 -52.669  11.289  1.00  0.00     0.164 HD
HETATM    6  H   UNL     1     -41.480 -50.887  10.229  1.00  0.00     0.164 HD
ENDROOT
BRANCH   1   7
HETATM    7  C   UNL     1     -43.106 -52.709  13.215  1.00  0.00     0.111 C 
HETATM    8  C   UNL     1     -42.609 -54.151  13.343  1.00  0.00     0.035 C 
BRANCH   7   9
HETATM    9  C   UNL     1     -44.636 -52.596  13.064  1.00  0.00     0.143 C 
HETATM   10  C   UNL     1     -45.222 -51.211  13.328  1.00  0.00     0.036 C 
HETATM   11  C   UNL     1     -46.523 -51.474  14.060  1.00  0.00     0.029 C 
HETATM   12  C   UNL     1     -46.662 -52.980  14.064  1.00  0.00     0.168 C 
HETATM   13  O   UNL     1     -45.327 -53.487  13.963  1.00  0.00    -0.384 OA
ENDBRANCH   7   9
ENDBRANCH   1   7
BRANCH   4  14
HETATM   14  C   UNL     1     -40.344 -49.297  11.054  1.00  0.00     0.129 C 
BRANCH  14  15
HETATM   15  C   UNL     1     -41.256 -48.102  10.773  1.00  0.00     0.061 C 
BRANCH  15  16
HETATM   16  C   UNL     1     -40.657 -46.783  11.137  1.00  0.00    -0.023 A 
HETATM   17  C   UNL     1     -40.576 -45.624  10.332  1.00  0.00     0.115 A 
HETATM   18  N   UNL     1     -39.968 -44.608  10.947  1.00  0.00    -0.310 N 
HETATM   19  N   UNL     1     -39.635 -45.117  12.145  1.00  0.00    -0.308 N 
ATOM     20  HN  UNL     1     -39.797 -43.667  10.592  1.00  0.00     0.186 HD
HETATM   21  C   UNL     1     -38.924 -44.306  13.104  1.00  0.00     0.177 C 
HETATM   22  C   UNL     1     -40.029 -46.412  12.310  1.00  0.00     0.118 A 
ENDBRANCH  15  16
ENDBRANCH  14  15
ENDBRANCH   4  14
TORSDOF 5
ENDMDL
