MODEL 1
REMARK VINA RESULT:      -5.4      0.000      0.000
REMARK  4 active torsions:
REMARK  status: ('A' for Active; 'I' for Inactive)
REMARK       I    between atoms: C_2  and  N_3 
REMARK       I    between atoms: C_2  and  N_11 
REMARK    1  A    between atoms: N_3  and  C_4 
REMARK    2  A    between atoms: C_4  and  C_5 
REMARK    3  A    between atoms: C_4  and  C_8 
REMARK    4  A    between atoms: N_11  and  C_12 
ROOT
HETATM    1  O   UNL     1     -43.226 -49.647  14.888  1.00  0.00    -0.247 OA
HETATM    2  C   UNL     1     -43.222 -49.634  13.659  1.00  0.00     0.322 C 
HETATM    3  N   UNL     1     -43.808 -50.594  12.899  1.00  0.00    -0.337 N 
HETATM    4  N   UNL     1     -42.568 -48.627  13.022  1.00  0.00    -0.288 N 
HETATM    5  H   UNL     1     -43.812 -50.480  11.892  1.00  0.00     0.164 HD
HETATM    6  H   UNL     1     -42.077 -47.985  13.623  1.00  0.00     0.172 HD
ENDROOT
BRANCH   3   7
HETATM    7  C   UNL     1     -44.424 -51.780  13.448  1.00  0.00     0.094 C 
BRANCH   7   8
HETATM    8  C   UNL     1     -45.918 -51.586  13.443  1.00  0.00     0.009 A 
HETATM    9  C   UNL     1     -46.658 -51.287  14.724  1.00  0.00     0.007 A 
HETATM   10  C   UNL     1     -46.814 -52.628  14.067  1.00  0.00     0.007 A 
ENDBRANCH   7   8
BRANCH   7  11
HETATM   11  C   UNL     1     -44.013 -52.966  12.606  1.00  0.00     0.009 A 
HETATM   12  C   UNL     1     -44.286 -54.380  13.061  1.00  0.00     0.007 A 
HETATM   13  C   UNL     1     -42.879 -53.858  13.053  1.00  0.00     0.007 A 
ENDBRANCH   7  11
ENDBRANCH   3   7
BRANCH   4  14
HETATM   14  C   UNL     1     -42.443 -48.478  11.673  1.00  0.00     0.168 A 
HETATM   15  N   UNL     1     -41.531 -48.965  10.864  1.00  0.00    -0.279 N 
HETATM   16  N   UNL     1     -41.723 -48.537   9.564  1.00  0.00    -0.303 N 
ATOM     17  HN  UNL     1     -40.775 -49.583  11.157  1.00  0.00     0.189 HD
HETATM   18  C   UNL     1     -42.761 -47.732   9.466  1.00  0.00     0.160 A 
ATOM     19  HN  UNL     1     -41.134 -48.810   8.778  1.00  0.00     0.186 HD
HETATM   20  S   UNL     1     -43.615 -47.484  10.934  1.00  0.00    -0.046 SA
ENDBRANCH   4  14
TORSDOF 4
ENDMDL
MODEL 2
REMARK VINA RESULT:      -5.2      2.316      3.139
REMARK  4 active torsions:
REMARK  status: ('A' for Active; 'I' for Inactive)
REMARK       I    between atoms: C_2  and  N_3 
REMARK       I    between atoms: C_2  and  N_11 
REMARK    1  A    between atoms: N_3  and  C_4 
REMARK    2  A    between atoms: C_4  and  C_5 
REMARK    3  A    between atoms: C_4  and  C_8 
REMARK    4  A    between atoms: N_11  and  C_12 
ROOT
HETATM    1  O   UNL     1     -41.405 -52.945  12.086  1.00  0.00    -0.247 OA
HETATM    2  C   UNL     1     -41.567 -51.726  12.057  1.00  0.00     0.322 C 
HETATM    3  N   UNL     1     -42.566 -51.089  12.719  1.00  0.00    -0.337 N 
HETATM    4  N   UNL     1     -40.727 -50.977  11.296  1.00  0.00    -0.288 N 
HETATM    5  H   UNL     1     -42.596 -50.077  12.693  1.00  0.00     0.164 HD
HETATM    6  H   UNL     1     -40.054 -51.498  10.757  1.00  0.00     0.172 HD
ENDROOT
BRANCH   3   7
HETATM    7  C   UNL     1     -43.600 -51.778  13.458  1.00  0.00     0.094 C 
BRANCH   7   8
HETATM    8  C   UNL     1     -43.159 -51.896  14.894  1.00  0.00     0.009 A 
HETATM    9  C   UNL     1     -42.402 -53.113  15.368  1.00  0.00     0.007 A 
HETATM   10  C   UNL     1     -43.823 -52.901  15.804  1.00  0.00     0.007 A 
ENDBRANCH   7   8
BRANCH   7  11
HETATM   11  C   UNL     1     -44.884 -50.991  13.331  1.00  0.00     0.009 A 
HETATM   12  C   UNL     1     -46.103 -51.348  14.147  1.00  0.00     0.007 A 
HETATM   13  C   UNL     1     -46.092 -51.611  12.670  1.00  0.00     0.007 A 
ENDBRANCH   7  11
ENDBRANCH   3   7
BRANCH   4  14
HETATM   14  C   UNL     1     -40.783 -49.626  11.133  1.00  0.00     0.168 A 
HETATM   15  N   UNL     1     -41.415 -48.925  10.220  1.00  0.00    -0.279 N 
HETATM   16  N   UNL     1     -41.176 -47.571  10.363  1.00  0.00    -0.303 N 
ATOM     17  HN  UNL     1     -42.009 -49.328   9.496  1.00  0.00     0.189 HD
HETATM   18  C   UNL     1     -40.359 -47.325  11.365  1.00  0.00     0.160 A 
ATOM     19  HN  UNL     1     -41.583 -46.851   9.765  1.00  0.00     0.186 HD
HETATM   20  S   UNL     1     -39.868 -48.714  12.246  1.00  0.00    -0.046 SA
ENDBRANCH   4  14
TORSDOF 4
ENDMDL
MODEL 3
REMARK VINA RESULT:      -5.1      2.427      2.688
REMARK  4 active torsions:
REMARK  status: ('A' for Active; 'I' for Inactive)
REMARK       I    between atoms: C_2  and  N_3 
REMARK       I    between atoms: C_2  and  N_11 
REMARK    1  A    between atoms: N_3  and  C_4 
REMARK    2  A    between atoms: C_4  and  C_5 
REMARK    3  A    between atoms: C_4  and  C_8 
REMARK    4  A    between atoms: N_11  and  C_12 
ROOT
HETATM    1  O   UNL     1     -41.556 -53.343  15.096  1.00  0.00    -0.247 OA
HETATM    2  C   UNL     1     -41.689 -52.495  14.216  1.00  0.00     0.322 C 
HETATM    3  N   UNL     1     -42.890 -51.989  13.838  1.00  0.00    -0.337 N 
HETATM    4  N   UNL     1     -40.580 -52.063  13.558  1.00  0.00    -0.288 N 
HETATM    5  H   UNL     1     -42.910 -51.250  13.146  1.00  0.00     0.164 HD
HETATM    6  H   UNL     1     -39.722 -52.525  13.812  1.00  0.00     0.172 HD
ENDROOT
BRANCH   3   7
HETATM    7  C   UNL     1     -44.152 -52.454  14.367  1.00  0.00     0.094 C 
BRANCH   7   8
HETATM    8  C   UNL     1     -45.141 -51.318  14.307  1.00  0.00     0.009 A 
HETATM    9  C   UNL     1     -46.262 -51.221  15.313  1.00  0.00     0.007 A 
HETATM   10  C   UNL     1     -46.567 -51.583  13.888  1.00  0.00     0.007 A 
ENDBRANCH   7   8
BRANCH   7  11
HETATM   11  C   UNL     1     -44.610 -53.636  13.543  1.00  0.00     0.009 A 
HETATM   12  C   UNL     1     -45.663 -54.587  14.058  1.00  0.00     0.007 A 
HETATM   13  C   UNL     1     -44.237 -55.040  13.955  1.00  0.00     0.007 A 
ENDBRANCH   7  11
ENDBRANCH   3   7
BRANCH   4  14
HETATM   14  C   UNL     1     -40.553 -51.153  12.544  1.00  0.00     0.168 A 
HETATM   15  N   UNL     1     -40.775 -51.331  11.262  1.00  0.00    -0.279 N 
HETATM   16  N   UNL     1     -40.594 -50.161  10.548  1.00  0.00    -0.303 N 
ATOM     17  HN  UNL     1     -41.047 -52.220  10.845  1.00  0.00     0.189 HD
HETATM   18  C   UNL     1     -40.225 -49.167  11.329  1.00  0.00     0.160 A 
ATOM     19  HN  UNL     1     -40.729 -50.078   9.540  1.00  0.00     0.186 HD
HETATM   20  S   UNL     1     -40.129 -49.565  12.996  1.00  0.00    -0.046 SA
ENDBRANCH   4  14
TORSDOF 4
ENDMDL
MODEL 4
REMARK VINA RESULT:      -5.1      4.111      6.381
REMARK  4 active torsions:
REMARK  status: ('A' for Active; 'I' for Inactive)
REMARK       I    between atoms: C_2  and  N_3 
REMARK       I    between atoms: C_2  and  N_11 
REMARK    1  A    between atoms: N_3  and  C_4 
REMARK    2  A    between atoms: C_4  and  C_5 
REMARK    3  A    between atoms: C_4  and  C_8 
REMARK    4  A    between atoms: N_11  and  C_12 
ROOT
HETATM    1  O   UNL     1     -41.715 -48.783  11.470  1.00  0.00    -0.247 OA
HETATM    2  C   UNL     1     -41.241 -49.837  11.888  1.00  0.00     0.322 C 
HETATM    3  N   UNL     1     -40.000 -49.937  12.429  1.00  0.00    -0.337 N 
HETATM    4  N   UNL     1     -41.979 -50.973  11.772  1.00  0.00    -0.288 N 
HETATM    5  H   UNL     1     -39.704 -50.830  12.804  1.00  0.00     0.164 HD
HETATM    6  H   UNL     1     -42.857 -50.868  11.290  1.00  0.00     0.172 HD
ENDROOT
BRANCH   3   7
HETATM    7  C   UNL     1     -39.067 -48.834  12.493  1.00  0.00     0.094 C 
BRANCH   7   8
HETATM    8  C   UNL     1     -39.214 -48.166  13.836  1.00  0.00     0.009 A 
HETATM    9  C   UNL     1     -39.452 -46.678  13.931  1.00  0.00     0.007 A 
HETATM   10  C   UNL     1     -38.126 -47.250  14.343  1.00  0.00     0.007 A 
ENDBRANCH   7   8
BRANCH   7  11
HETATM   11  C   UNL     1     -37.671 -49.376  12.290  1.00  0.00     0.009 A 
HETATM   12  C   UNL     1     -37.310 -50.161  11.052  1.00  0.00     0.007 A 
HETATM   13  C   UNL     1     -37.413 -50.862  12.374  1.00  0.00     0.007 A 
ENDBRANCH   7  11
ENDBRANCH   3   7
BRANCH   4  14
HETATM   14  C   UNL     1     -41.594 -52.222  12.156  1.00  0.00     0.168 A 
HETATM   15  N   UNL     1     -40.925 -53.130  11.483  1.00  0.00    -0.279 N 
HETATM   16  N   UNL     1     -40.782 -54.298  12.208  1.00  0.00    -0.303 N 
ATOM     17  HN  UNL     1     -40.557 -52.991  10.543  1.00  0.00     0.189 HD
HETATM   18  C   UNL     1     -41.369 -54.215  13.384  1.00  0.00     0.160 A 
ATOM     19  HN  UNL     1     -40.284 -55.122  11.874  1.00  0.00     0.186 HD
HETATM   20  S   UNL     1     -42.086 -52.692  13.720  1.00  0.00    -0.046 SA
ENDBRANCH   4  14
TORSDOF 4
ENDMDL
MODEL 5
REMARK VINA RESULT:      -4.8      3.778      6.634
REMARK  4 active torsions:
REMARK  status: ('A' for Active; 'I' for Inactive)
REMARK       I    between atoms: C_2  and  N_3 
REMARK       I    between atoms: C_2  and  N_11 
REMARK    1  A    between atoms: N_3  and  C_4 
REMARK    2  A    between atoms: C_4  and  C_5 
REMARK    3  A    between atoms: C_4  and  C_8 
REMARK    4  A    between atoms: N_11  and  C_12 
ROOT
HETATM    1  O   UNL     1     -37.670 -49.545  11.910  1.00  0.00    -0.247 OA
HETATM    2  C   UNL     1     -38.860 -49.850  11.965  1.00  0.00     0.322 C 
HETATM    3  N   UNL     1     -39.865 -48.938  11.980  1.00  0.00    -0.337 N 
HETATM    4  N   UNL     1     -39.191 -51.165  12.052  1.00  0.00    -0.288 N 
HETATM    5  H   UNL     1     -40.822 -49.270  11.968  1.00  0.00     0.164 HD
HETATM    6  H   UNL     1     -38.413 -51.801  12.123  1.00  0.00     0.172 HD
ENDROOT
BRANCH   3   7
HETATM    7  C   UNL     1     -39.646 -47.510  12.021  1.00  0.00     0.094 C 
BRANCH   7   8
HETATM    8  C   UNL     1     -40.640 -46.850  11.100  1.00  0.00     0.009 A 
HETATM    9  C   UNL     1     -40.312 -45.539  10.427  1.00  0.00     0.007 A 
HETATM   10  C   UNL     1     -41.333 -45.579  11.528  1.00  0.00     0.007 A 
ENDBRANCH   7   8
BRANCH   7  11
HETATM   11  C   UNL     1     -39.812 -47.041  13.448  1.00  0.00     0.009 A 
HETATM   12  C   UNL     1     -39.056 -45.842  13.969  1.00  0.00     0.007 A 
HETATM   13  C   UNL     1     -38.687 -47.217  14.441  1.00  0.00     0.007 A 
ENDBRANCH   7  11
ENDBRANCH   3   7
BRANCH   4  14
HETATM   14  C   UNL     1     -40.452 -51.670  12.149  1.00  0.00     0.168 A 
HETATM   15  N   UNL     1     -41.224 -52.165  11.209  1.00  0.00    -0.279 N 
HETATM   16  N   UNL     1     -42.463 -52.524  11.705  1.00  0.00    -0.303 N 
ATOM     17  HN  UNL     1     -40.944 -52.271  10.234  1.00  0.00     0.189 HD
HETATM   18  C   UNL     1     -42.567 -52.262  12.991  1.00  0.00     0.160 A 
ATOM     19  HN  UNL     1     -43.206 -52.940  11.143  1.00  0.00     0.186 HD
HETATM   20  S   UNL     1     -41.146 -51.616  13.706  1.00  0.00    -0.046 SA
ENDBRANCH   4  14
TORSDOF 4
ENDMDL
MODEL 6
REMARK VINA RESULT:      -4.7      2.546      3.118
REMARK  4 active torsions:
REMARK  status: ('A' for Active; 'I' for Inactive)
REMARK       I    between atoms: C_2  and  N_3 
REMARK       I    between atoms: C_2  and  N_11 
REMARK    1  A    between atoms: N_3  and  C_4 
REMARK    2  A    between atoms: C_4  and  C_5 
REMARK    3  A    between atoms: C_4  and  C_8 
REMARK    4  A    between atoms: N_11  and  C_12 
ROOT
HETATM    1  O   UNL     1     -43.420 -49.897  13.251  1.00  0.00    -0.247 OA
HETATM    2  C   UNL     1     -42.312 -50.247  12.849  1.00  0.00     0.322 C 
HETATM    3  N   UNL     1     -41.876 -51.532  12.880  1.00  0.00    -0.337 N 
HETATM    4  N   UNL     1     -41.461 -49.296  12.381  1.00  0.00    -0.288 N 
HETATM    5  H   UNL     1     -40.973 -51.748  12.475  1.00  0.00     0.164 HD
HETATM    6  H   UNL     1     -41.793 -48.348  12.454  1.00  0.00     0.172 HD
ENDROOT
BRANCH   3   7
HETATM    7  C   UNL     1     -42.629 -52.615  13.468  1.00  0.00     0.094 C 
BRANCH   7   8
HETATM    8  C   UNL     1     -43.644 -53.092  12.461  1.00  0.00     0.009 A 
HETATM    9  C   UNL     1     -45.120 -52.882  12.698  1.00  0.00     0.007 A 
HETATM   10  C   UNL     1     -44.537 -54.263  12.789  1.00  0.00     0.007 A 
ENDBRANCH   7   8
BRANCH   7  11
HETATM   11  C   UNL     1     -41.666 -53.715  13.853  1.00  0.00     0.009 A 
HETATM   12  C   UNL     1     -41.938 -54.614  15.035  1.00  0.00     0.007 A 
HETATM   13  C   UNL     1     -40.840 -53.595  15.111  1.00  0.00     0.007 A 
ENDBRANCH   7  11
ENDBRANCH   3   7
BRANCH   4  14
HETATM   14  C   UNL     1     -40.194 -49.507  11.925  1.00  0.00     0.168 A 
HETATM   15  N   UNL     1     -39.794 -49.925  10.747  1.00  0.00    -0.279 N 
HETATM   16  N   UNL     1     -38.419 -50.064  10.697  1.00  0.00    -0.303 N 
ATOM     17  HN  UNL     1     -40.418 -50.123   9.966  1.00  0.00     0.189 HD
HETATM   18  C   UNL     1     -37.858 -49.761  11.849  1.00  0.00     0.160 A 
ATOM     19  HN  UNL     1     -37.904 -50.365   9.870  1.00  0.00     0.186 HD
HETATM   20  S   UNL     1     -38.952 -49.227  13.059  1.00  0.00    -0.046 SA
ENDBRANCH   4  14
TORSDOF 4
ENDMDL
MODEL 7
REMARK VINA RESULT:      -4.6      4.138      5.598
REMARK  4 active torsions:
REMARK  status: ('A' for Active; 'I' for Inactive)
REMARK       I    between atoms: C_2  and  N_3 
REMARK       I    between atoms: C_2  and  N_11 
REMARK    1  A    between atoms: N_3  and  C_4 
REMARK    2  A    between atoms: C_4  and  C_5 
REMARK    3  A    between atoms: C_4  and  C_8 
REMARK    4  A    between atoms: N_11  and  C_12 
ROOT
HETATM    1  O   UNL     1     -41.359 -50.183  11.956  1.00  0.00    -0.247 OA
HETATM    2  C   UNL     1     -41.493 -49.080  11.430  1.00  0.00     0.322 C 
HETATM    3  N   UNL     1     -40.485 -48.179  11.314  1.00  0.00    -0.337 N 
HETATM    4  N   UNL     1     -42.722 -48.724  10.971  1.00  0.00    -0.288 N 
HETATM    5  H   UNL     1     -40.661 -47.315  10.815  1.00  0.00     0.164 HD
HETATM    6  H   UNL     1     -43.458 -49.387  11.153  1.00  0.00     0.172 HD
ENDROOT
BRANCH   3   7
HETATM    7  C   UNL     1     -39.167 -48.381  11.872  1.00  0.00     0.094 C 
BRANCH   7   8
HETATM    8  C   UNL     1     -39.256 -48.226  13.369  1.00  0.00     0.009 A 
HETATM    9  C   UNL     1     -39.401 -46.859  13.993  1.00  0.00     0.007 A 
HETATM   10  C   UNL     1     -38.108 -47.610  14.131  1.00  0.00     0.007 A 
ENDBRANCH   7   8
BRANCH   7  11
HETATM   11  C   UNL     1     -38.688 -49.760  11.482  1.00  0.00     0.009 A 
HETATM   12  C   UNL     1     -37.666 -50.497  12.315  1.00  0.00     0.007 A 
HETATM   13  C   UNL     1     -37.281 -49.958  10.969  1.00  0.00     0.007 A 
ENDBRANCH   7  11
ENDBRANCH   3   7
BRANCH   4  14
HETATM   14  C   UNL     1     -43.048 -47.535  10.390  1.00  0.00     0.168 A 
HETATM   15  N   UNL     1     -43.217 -46.358  10.946  1.00  0.00    -0.279 N 
HETATM   16  N   UNL     1     -43.600 -45.408  10.018  1.00  0.00    -0.303 N 
ATOM     17  HN  UNL     1     -43.082 -46.167  11.938  1.00  0.00     0.189 HD
HETATM   18  C   UNL     1     -43.719 -45.926   8.813  1.00  0.00     0.160 A 
ATOM     19  HN  UNL     1     -43.770 -44.427  10.239  1.00  0.00     0.186 HD
HETATM   20  S   UNL     1     -43.316 -47.591   8.707  1.00  0.00    -0.046 SA
ENDBRANCH   4  14
TORSDOF 4
ENDMDL
MODEL 8
REMARK VINA RESULT:      -4.5      1.789      2.158
REMARK  4 active torsions:
REMARK  status: ('A' for Active; 'I' for Inactive)
REMARK       I    between atoms: C_2  and  N_3 
REMARK       I    between atoms: C_2  and  N_11 
REMARK    1  A    between atoms: N_3  and  C_4 
REMARK    2  A    between atoms: C_4  and  C_5 
REMARK    3  A    between atoms: C_4  and  C_8 
REMARK    4  A    between atoms: N_11  and  C_12 
ROOT
HETATM    1  O   UNL     1     -40.249 -49.383  13.711  1.00  0.00    -0.247 OA
HETATM    2  C   UNL     1     -41.087 -49.338  12.813  1.00  0.00     0.322 C 
HETATM    3  N   UNL     1     -42.057 -50.273  12.647  1.00  0.00    -0.337 N 
HETATM    4  N   UNL     1     -41.023 -48.320  11.915  1.00  0.00    -0.288 N 
HETATM    5  H   UNL     1     -42.746 -50.134  11.918  1.00  0.00     0.164 HD
HETATM    6  H   UNL     1     -40.239 -47.697  12.026  1.00  0.00     0.172 HD
ENDROOT
BRANCH   3   7
HETATM    7  C   UNL     1     -42.158 -51.469  13.452  1.00  0.00     0.094 C 
BRANCH   7   8
HETATM    8  C   UNL     1     -43.605 -51.884  13.508  1.00  0.00     0.009 A 
HETATM    9  C   UNL     1     -44.617 -51.044  14.249  1.00  0.00     0.007 A 
HETATM   10  C   UNL     1     -44.198 -52.374  14.807  1.00  0.00     0.007 A 
ENDBRANCH   7   8
BRANCH   7  11
HETATM   11  C   UNL     1     -41.294 -52.541  12.828  1.00  0.00     0.009 A 
HETATM   12  C   UNL     1     -41.462 -53.995  13.199  1.00  0.00     0.007 A 
HETATM   13  C   UNL     1     -40.244 -53.246  13.653  1.00  0.00     0.007 A 
ENDBRANCH   7  11
ENDBRANCH   3   7
BRANCH   4  14
HETATM   14  C   UNL     1     -41.852 -48.137  10.849  1.00  0.00     0.168 A 
HETATM   15  N   UNL     1     -41.707 -48.533   9.605  1.00  0.00    -0.279 N 
HETATM   16  N   UNL     1     -42.748 -48.097   8.808  1.00  0.00    -0.303 N 
ATOM     17  HN  UNL     1     -40.923 -49.092   9.269  1.00  0.00     0.189 HD
HETATM   18  C   UNL     1     -43.615 -47.378   9.491  1.00  0.00     0.160 A 
ATOM     19  HN  UNL     1     -42.835 -48.307   7.814  1.00  0.00     0.186 HD
HETATM   20  S   UNL     1     -43.260 -47.229  11.164  1.00  0.00    -0.046 SA
ENDBRANCH   4  14
TORSDOF 4
ENDMDL
MODEL 9
REMARK VINA RESULT:      -4.5      3.563      5.712
REMARK  4 active torsions:
REMARK  status: ('A' for Active; 'I' for Inactive)
REMARK       I    between atoms: C_2  and  N_3 
REMARK       I    between atoms: C_2  and  N_11 
REMARK    1  A    between atoms: N_3  and  C_4 
REMARK    2  A    between atoms: C_4  and  C_5 
REMARK    3  A    between atoms: C_4  and  C_8 
REMARK    4  A    between atoms: N_11  and  C_12 
ROOT
HETATM    1  O   UNL     1     -39.793 -49.683  11.082  1.00  0.00    -0.247 OA
HETATM    2  C   UNL     1     -40.622 -50.364  11.684  1.00  0.00     0.322 C 
HETATM    3  N   UNL     1     -41.389 -49.885  12.696  1.00  0.00    -0.337 N 
HETATM    4  N   UNL     1     -40.756 -51.673  11.345  1.00  0.00    -0.288 N 
HETATM    5  H   UNL     1     -42.091 -50.493  13.102  1.00  0.00     0.164 HD
HETATM    6  H   UNL     1     -40.110 -52.006  10.648  1.00  0.00     0.172 HD
ENDROOT
BRANCH   3   7
HETATM    7  C   UNL     1     -41.255 -48.552  13.236  1.00  0.00     0.094 C 
BRANCH   7   8
HETATM    8  C   UNL     1     -42.633 -47.961  13.393  1.00  0.00     0.009 A 
HETATM    9  C   UNL     1     -43.017 -46.701  12.656  1.00  0.00     0.007 A 
HETATM   10  C   UNL     1     -42.815 -46.665  14.143  1.00  0.00     0.007 A 
ENDBRANCH   7   8
BRANCH   7  11
HETATM   11  C   UNL     1     -40.534 -48.642  14.562  1.00  0.00     0.009 A 
HETATM   12  C   UNL     1     -39.626 -47.533  15.035  1.00  0.00     0.007 A 
HETATM   13  C   UNL     1     -39.038 -48.843  14.600  1.00  0.00     0.007 A 
ENDBRANCH   7  11
ENDBRANCH   3   7
BRANCH   4  14
HETATM   14  C   UNL     1     -41.603 -52.569  11.926  1.00  0.00     0.168 A 
HETATM   15  N   UNL     1     -42.872 -52.796  11.676  1.00  0.00    -0.279 N 
HETATM   16  N   UNL     1     -43.394 -53.753  12.525  1.00  0.00    -0.303 N 
ATOM     17  HN  UNL     1     -43.406 -52.326  10.946  1.00  0.00     0.189 HD
HETATM   18  C   UNL     1     -42.494 -54.183  13.385  1.00  0.00     0.160 A 
ATOM     19  HN  UNL     1     -44.358 -54.086  12.491  1.00  0.00     0.186 HD
HETATM   20  S   UNL     1     -40.932 -53.500  13.187  1.00  0.00    -0.046 SA
ENDBRANCH   4  14
TORSDOF 4
ENDMDL
