MODEL 1
REMARK VINA RESULT:      -6.2      0.000      0.000
REMARK  6 active torsions:
REMARK  status: ('A' for Active; 'I' for Inactive)
REMARK    1  A    between atoms: C_5  and  C_6 
REMARK    2  A    between atoms: C_6  and  C_7 
REMARK    3  A    between atoms: C_7  and  N_8 
REMARK       I    between atoms: N_8  and  C_9 
REMARK    4  A    between atoms: C_9  and  C_11 
REMARK    5  A    between atoms: C_11  and  N_12 
REMARK       I    between atoms: N_12  and  C_13 
REMARK    6  A    between atoms: C_13  and  C_15 
ROOT
HETATM    1  N   UNL     1     -42.068 -50.183  11.665  1.00  0.00    -0.359 N 
HETATM    2  C   UNL     1     -41.353 -51.313  12.004  1.00  0.00     0.235 C 
HETATM    3  O   UNL     1     -40.126 -51.345  12.068  1.00  0.00    -0.272 OA
HETATM    4  H   UNL     1     -43.071 -50.185  11.839  1.00  0.00     0.162 HD
ENDROOT
BRANCH   1   5
HETATM    5  C   UNL     1     -41.417 -48.934  11.298  1.00  0.00     0.129 C 
BRANCH   5   6
HETATM    6  C   UNL     1     -42.236 -47.714  11.718  1.00  0.00     0.084 C 
BRANCH   6   7
HETATM    7  C   UNL     1     -43.232 -47.330  10.668  1.00  0.00     0.052 A 
HETATM    8  S   UNL     1     -42.966 -45.944   9.684  1.00  0.00    -0.087 SA
HETATM    9  C   UNL     1     -44.421 -46.272   8.845  1.00  0.00     0.076 A 
HETATM   10  C   UNL     1     -45.020 -47.407   9.355  1.00  0.00     0.012 A 
HETATM   11  C   UNL     1     -46.289 -48.023   8.889  1.00  0.00     0.068 C 
HETATM   12  N   UNL     1     -44.334 -48.002  10.404  1.00  0.00    -0.357 N 
ATOM     13  HN  UNL     1     -44.639 -48.840  10.900  1.00  0.00     0.166 HD
ENDBRANCH   6   7
ENDBRANCH   5   6
ENDBRANCH   1   5
BRANCH   2  14
HETATM   14  C   UNL     1     -42.217 -52.518  12.374  1.00  0.00     0.225 C 
BRANCH  14  15
HETATM   15  N   UNL     1     -43.515 -52.100  12.872  1.00  0.00    -0.352 N 
HETATM   16  C   UNL     1     -44.608 -52.935  12.808  1.00  0.00     0.225 C 
HETATM   17  O   UNL     1     -44.522 -54.058  12.314  1.00  0.00    -0.273 OA
HETATM   18  H   UNL     1     -43.642 -51.116  13.071  1.00  0.00     0.162 HD
BRANCH  16  19
HETATM   19  C   UNL     1     -45.920 -52.357  13.377  1.00  0.00     0.030 C 
HETATM   20  C   UNL     1     -46.677 -53.446  14.152  1.00  0.00     0.024 C 
HETATM   21  C   UNL     1     -45.597 -51.199  14.338  1.00  0.00     0.024 C 
HETATM   22  C   UNL     1     -46.802 -51.814  12.242  1.00  0.00     0.024 C 
ENDBRANCH  16  19
ENDBRANCH  14  15
ENDBRANCH   2  14
TORSDOF 6
ENDMDL
MODEL 2
REMARK VINA RESULT:      -6.2      1.325      1.815
REMARK  6 active torsions:
REMARK  status: ('A' for Active; 'I' for Inactive)
REMARK    1  A    between atoms: C_5  and  C_6 
REMARK    2  A    between atoms: C_6  and  C_7 
REMARK    3  A    between atoms: C_7  and  N_8 
REMARK       I    between atoms: N_8  and  C_9 
REMARK    4  A    between atoms: C_9  and  C_11 
REMARK    5  A    between atoms: C_11  and  N_12 
REMARK       I    between atoms: N_12  and  C_13 
REMARK    6  A    between atoms: C_13  and  C_15 
ROOT
HETATM    1  N   UNL     1     -41.272 -51.059  11.555  1.00  0.00    -0.359 N 
HETATM    2  C   UNL     1     -40.972 -52.265  12.154  1.00  0.00     0.235 C 
HETATM    3  O   UNL     1     -39.847 -52.564  12.547  1.00  0.00    -0.272 OA
HETATM    4  H   UNL     1     -42.255 -50.811  11.452  1.00  0.00     0.162 HD
ENDROOT
BRANCH   1   5
HETATM    5  C   UNL     1     -40.257 -50.051  11.288  1.00  0.00     0.129 C 
BRANCH   5   6
HETATM    6  C   UNL     1     -40.715 -48.652  11.698  1.00  0.00     0.084 C 
BRANCH   6   7
HETATM    7  C   UNL     1     -41.882 -48.192  10.880  1.00  0.00     0.052 A 
HETATM    8  S   UNL     1     -43.239 -47.457  11.640  1.00  0.00    -0.087 SA
HETATM    9  C   UNL     1     -43.970 -47.243  10.107  1.00  0.00     0.076 A 
HETATM   10  C   UNL     1     -43.148 -47.738   9.114  1.00  0.00     0.012 A 
HETATM   11  C   UNL     1     -43.421 -47.728   7.654  1.00  0.00     0.068 C 
HETATM   12  N   UNL     1     -41.956 -48.285   9.568  1.00  0.00    -0.357 N 
ATOM     13  HN  UNL     1     -41.241 -48.699   8.971  1.00  0.00     0.166 HD
ENDBRANCH   6   7
ENDBRANCH   5   6
ENDBRANCH   1   5
BRANCH   2  14
HETATM   14  C   UNL     1     -42.177 -53.182  12.363  1.00  0.00     0.225 C 
BRANCH  14  15
HETATM   15  N   UNL     1     -43.301 -52.453  12.921  1.00  0.00    -0.352 N 
HETATM   16  C   UNL     1     -44.570 -52.988  12.923  1.00  0.00     0.225 C 
HETATM   17  O   UNL     1     -44.793 -54.097  12.440  1.00  0.00    -0.273 OA
HETATM   18  H   UNL     1     -43.168 -51.468  13.113  1.00  0.00     0.162 HD
BRANCH  16  19
HETATM   19  C   UNL     1     -45.664 -52.100  13.551  1.00  0.00     0.030 C 
HETATM   20  C   UNL     1     -45.018 -50.936  14.314  1.00  0.00     0.024 C 
HETATM   21  C   UNL     1     -46.561 -51.527  12.439  1.00  0.00     0.024 C 
HETATM   22  C   UNL     1     -46.542 -52.927  14.504  1.00  0.00     0.024 C 
ENDBRANCH  16  19
ENDBRANCH  14  15
ENDBRANCH   2  14
TORSDOF 6
ENDMDL
MODEL 3
REMARK VINA RESULT:      -6.0      1.303      1.443
REMARK  6 active torsions:
REMARK  status: ('A' for Active; 'I' for Inactive)
REMARK    1  A    between atoms: C_5  and  C_6 
REMARK    2  A    between atoms: C_6  and  C_7 
REMARK    3  A    between atoms: C_7  and  N_8 
REMARK       I    between atoms: N_8  and  C_9 
REMARK    4  A    between atoms: C_9  and  C_11 
REMARK    5  A    between atoms: C_11  and  N_12 
REMARK       I    between atoms: N_12  and  C_13 
REMARK    6  A    between atoms: C_13  and  C_15 
ROOT
HETATM    1  N   UNL     1     -41.224 -51.140  11.496  1.00  0.00    -0.359 N 
HETATM    2  C   UNL     1     -40.843 -52.190  12.305  1.00  0.00     0.235 C 
HETATM    3  O   UNL     1     -39.724 -52.291  12.803  1.00  0.00    -0.272 OA
HETATM    4  H   UNL     1     -42.217 -51.027  11.300  1.00  0.00     0.162 HD
ENDROOT
BRANCH   1   5
HETATM    5  C   UNL     1     -40.304 -50.077  11.119  1.00  0.00     0.129 C 
BRANCH   5   6
HETATM    6  C   UNL     1     -40.660 -48.747  11.781  1.00  0.00     0.084 C 
BRANCH   6   7
HETATM    7  C   UNL     1     -41.550 -47.917  10.906  1.00  0.00     0.052 A 
HETATM    8  S   UNL     1     -41.683 -46.221  11.163  1.00  0.00    -0.087 SA
HETATM    9  C   UNL     1     -42.752 -46.113   9.830  1.00  0.00     0.076 A 
HETATM   10  C   UNL     1     -42.945 -47.362   9.272  1.00  0.00     0.012 A 
HETATM   11  C   UNL     1     -43.792 -47.682   8.094  1.00  0.00     0.068 C 
HETATM   12  N   UNL     1     -42.256 -48.390   9.900  1.00  0.00    -0.357 N 
ATOM     13  HN  UNL     1     -42.292 -49.370   9.621  1.00  0.00     0.166 HD
ENDBRANCH   6   7
ENDBRANCH   5   6
ENDBRANCH   1   5
BRANCH   2  14
HETATM   14  C   UNL     1     -41.957 -53.195  12.599  1.00  0.00     0.225 C 
BRANCH  14  15
HETATM   15  N   UNL     1     -43.138 -52.532  13.120  1.00  0.00    -0.352 N 
HETATM   16  C   UNL     1     -44.396 -53.056  12.924  1.00  0.00     0.225 C 
HETATM   17  O   UNL     1     -44.560 -54.096  12.290  1.00  0.00    -0.273 OA
HETATM   18  H   UNL     1     -43.032 -51.579  13.443  1.00  0.00     0.162 HD
BRANCH  16  19
HETATM   19  C   UNL     1     -45.556 -52.244  13.537  1.00  0.00     0.030 C 
HETATM   20  C   UNL     1     -46.349 -53.122  14.515  1.00  0.00     0.024 C 
HETATM   21  C   UNL     1     -44.989 -51.035  14.303  1.00  0.00     0.024 C 
HETATM   22  C   UNL     1     -46.486 -51.723  12.430  1.00  0.00     0.024 C 
ENDBRANCH  16  19
ENDBRANCH  14  15
ENDBRANCH   2  14
TORSDOF 6
ENDMDL
MODEL 4
REMARK VINA RESULT:      -5.7      3.035      6.572
REMARK  6 active torsions:
REMARK  status: ('A' for Active; 'I' for Inactive)
REMARK    1  A    between atoms: C_5  and  C_6 
REMARK    2  A    between atoms: C_6  and  C_7 
REMARK    3  A    between atoms: C_7  and  N_8 
REMARK       I    between atoms: N_8  and  C_9 
REMARK    4  A    between atoms: C_9  and  C_11 
REMARK    5  A    between atoms: C_11  and  N_12 
REMARK       I    between atoms: N_12  and  C_13 
REMARK    6  A    between atoms: C_13  and  C_15 
ROOT
HETATM    1  N   UNL     1     -42.521 -50.986  12.373  1.00  0.00    -0.359 N 
HETATM    2  C   UNL     1     -43.103 -49.908  13.007  1.00  0.00     0.235 C 
HETATM    3  O   UNL     1     -43.835 -50.014  13.988  1.00  0.00    -0.272 OA
HETATM    4  H   UNL     1     -41.772 -50.799  11.709  1.00  0.00     0.162 HD
ENDROOT
BRANCH   1   5
HETATM    5  C   UNL     1     -42.771 -52.358  12.789  1.00  0.00     0.129 C 
BRANCH   5   6
HETATM    6  C   UNL     1     -44.092 -52.894  12.238  1.00  0.00     0.084 C 
BRANCH   6   7
HETATM    7  C   UNL     1     -45.066 -53.195  13.336  1.00  0.00     0.052 A 
HETATM    8  S   UNL     1     -45.390 -54.823  13.788  1.00  0.00    -0.087 SA
HETATM    9  C   UNL     1     -46.458 -54.263  15.002  1.00  0.00     0.076 A 
HETATM   10  C   UNL     1     -46.507 -52.883  14.995  1.00  0.00     0.012 A 
HETATM   11  C   UNL     1     -47.308 -52.021  15.902  1.00  0.00     0.068 C 
HETATM   12  N   UNL     1     -45.710 -52.280  14.032  1.00  0.00    -0.357 N 
ATOM     13  HN  UNL     1     -45.634 -51.274  13.885  1.00  0.00     0.166 HD
ENDBRANCH   6   7
ENDBRANCH   5   6
ENDBRANCH   1   5
BRANCH   2  14
HETATM   14  C   UNL     1     -42.703 -48.549  12.434  1.00  0.00     0.225 C 
BRANCH  14  15
HETATM   15  N   UNL     1     -43.565 -48.171  11.329  1.00  0.00    -0.352 N 
HETATM   16  C   UNL     1     -43.043 -47.729  10.134  1.00  0.00     0.225 C 
HETATM   17  O   UNL     1     -41.829 -47.629   9.969  1.00  0.00    -0.273 OA
HETATM   18  H   UNL     1     -44.548 -48.040  11.530  1.00  0.00     0.162 HD
BRANCH  16  19
HETATM   19  C   UNL     1     -44.080 -47.365   9.051  1.00  0.00     0.030 C 
HETATM   20  C   UNL     1     -45.469 -47.869   9.467  1.00  0.00     0.024 C 
HETATM   21  C   UNL     1     -44.135 -45.835   8.887  1.00  0.00     0.024 C 
HETATM   22  C   UNL     1     -43.682 -47.983   7.701  1.00  0.00     0.024 C 
ENDBRANCH  16  19
ENDBRANCH  14  15
ENDBRANCH   2  14
TORSDOF 6
ENDMDL
MODEL 5
REMARK VINA RESULT:      -5.7      2.038      2.383
REMARK  6 active torsions:
REMARK  status: ('A' for Active; 'I' for Inactive)
REMARK    1  A    between atoms: C_5  and  C_6 
REMARK    2  A    between atoms: C_6  and  C_7 
REMARK    3  A    between atoms: C_7  and  N_8 
REMARK       I    between atoms: N_8  and  C_9 
REMARK    4  A    between atoms: C_9  and  C_11 
REMARK    5  A    between atoms: C_11  and  N_12 
REMARK       I    between atoms: N_12  and  C_13 
REMARK    6  A    between atoms: C_13  and  C_15 
ROOT
HETATM    1  N   UNL     1     -41.189 -50.738  12.431  1.00  0.00    -0.359 N 
HETATM    2  C   UNL     1     -40.406 -51.872  12.502  1.00  0.00     0.235 C 
HETATM    3  O   UNL     1     -39.251 -51.873  12.921  1.00  0.00    -0.272 OA
HETATM    4  H   UNL     1     -42.188 -50.859  12.273  1.00  0.00     0.162 HD
ENDROOT
BRANCH   1   5
HETATM    5  C   UNL     1     -40.686 -49.424  12.803  1.00  0.00     0.129 C 
BRANCH   5   6
HETATM    6  C   UNL     1     -40.393 -48.553  11.582  1.00  0.00     0.084 C 
BRANCH   6   7
HETATM    7  C   UNL     1     -41.652 -48.141  10.883  1.00  0.00     0.052 A 
HETATM    8  S   UNL     1     -42.957 -47.460  11.774  1.00  0.00    -0.087 SA
HETATM    9  C   UNL     1     -43.842 -47.277  10.321  1.00  0.00     0.076 A 
HETATM   10  C   UNL     1     -43.101 -47.740   9.251  1.00  0.00     0.012 A 
HETATM   11  C   UNL     1     -43.516 -47.743   7.824  1.00  0.00     0.068 C 
HETATM   12  N   UNL     1     -41.850 -48.239   9.584  1.00  0.00    -0.357 N 
ATOM     13  HN  UNL     1     -41.181 -48.626   8.919  1.00  0.00     0.166 HD
ENDBRANCH   6   7
ENDBRANCH   5   6
ENDBRANCH   1   5
BRANCH   2  14
HETATM   14  C   UNL     1     -41.120 -53.157  12.084  1.00  0.00     0.225 C 
BRANCH  14  15
HETATM   15  N   UNL     1     -41.927 -53.685  13.168  1.00  0.00    -0.352 N 
HETATM   16  C   UNL     1     -43.302 -53.694  13.097  1.00  0.00     0.225 C 
HETATM   17  O   UNL     1     -43.891 -53.241  12.117  1.00  0.00    -0.273 OA
HETATM   18  H   UNL     1     -41.466 -53.851  14.054  1.00  0.00     0.162 HD
BRANCH  16  19
HETATM   19  C   UNL     1     -44.027 -54.288  14.322  1.00  0.00     0.030 C 
HETATM   20  C   UNL     1     -45.238 -55.113  13.863  1.00  0.00     0.024 C 
HETATM   21  C   UNL     1     -43.064 -55.208  15.093  1.00  0.00     0.024 C 
HETATM   22  C   UNL     1     -44.487 -53.167  15.267  1.00  0.00     0.024 C 
ENDBRANCH  16  19
ENDBRANCH  14  15
ENDBRANCH   2  14
TORSDOF 6
ENDMDL
MODEL 6
REMARK VINA RESULT:      -5.4      3.901      6.538
REMARK  6 active torsions:
REMARK  status: ('A' for Active; 'I' for Inactive)
REMARK    1  A    between atoms: C_5  and  C_6 
REMARK    2  A    between atoms: C_6  and  C_7 
REMARK    3  A    between atoms: C_7  and  N_8 
REMARK       I    between atoms: N_8  and  C_9 
REMARK    4  A    between atoms: C_9  and  C_11 
REMARK    5  A    between atoms: C_11  and  N_12 
REMARK       I    between atoms: N_12  and  C_13 
REMARK    6  A    between atoms: C_13  and  C_15 
ROOT
HETATM    1  N   UNL     1     -42.690 -53.400  13.345  1.00  0.00    -0.359 N 
HETATM    2  C   UNL     1     -41.415 -53.299  12.828  1.00  0.00     0.235 C 
HETATM    3  O   UNL     1     -40.517 -54.100  13.078  1.00  0.00    -0.272 OA
HETATM    4  H   UNL     1     -43.419 -52.824  12.927  1.00  0.00     0.162 HD
ENDROOT
BRANCH   1   5
HETATM    5  C   UNL     1     -43.067 -54.448  14.281  1.00  0.00     0.129 C 
BRANCH   5   6
HETATM    6  C   UNL     1     -44.554 -54.788  14.196  1.00  0.00     0.084 C 
BRANCH   6   7
HETATM    7  C   UNL     1     -45.379 -53.580  13.872  1.00  0.00     0.052 A 
HETATM    8  S   UNL     1     -45.714 -52.406  15.084  1.00  0.00    -0.087 SA
HETATM    9  C   UNL     1     -46.574 -51.476  13.932  1.00  0.00     0.076 A 
HETATM   10  C   UNL     1     -46.557 -52.106  12.703  1.00  0.00     0.012 A 
HETATM   11  C   UNL     1     -47.181 -51.613  11.448  1.00  0.00     0.068 C 
HETATM   12  N   UNL     1     -45.874 -53.314  12.680  1.00  0.00    -0.357 N 
ATOM     13  HN  UNL     1     -45.772 -53.910  11.859  1.00  0.00     0.166 HD
ENDBRANCH   6   7
ENDBRANCH   5   6
ENDBRANCH   1   5
BRANCH   2  14
HETATM   14  C   UNL     1     -41.222 -52.142  11.849  1.00  0.00     0.225 C 
BRANCH  14  15
HETATM   15  N   UNL     1     -39.897 -51.562  11.976  1.00  0.00    -0.352 N 
HETATM   16  C   UNL     1     -39.693 -50.395  12.678  1.00  0.00     0.225 C 
HETATM   17  O   UNL     1     -40.628 -49.800  13.209  1.00  0.00    -0.273 OA
HETATM   18  H   UNL     1     -39.173 -51.919  11.366  1.00  0.00     0.162 HD
BRANCH  16  19
HETATM   19  C   UNL     1     -38.233 -49.899  12.730  1.00  0.00     0.030 C 
HETATM   20  C   UNL     1     -38.181 -48.491  13.340  1.00  0.00     0.024 C 
HETATM   21  C   UNL     1     -37.398 -50.850  13.608  1.00  0.00     0.024 C 
HETATM   22  C   UNL     1     -37.623 -49.881  11.320  1.00  0.00     0.024 C 
ENDBRANCH  16  19
ENDBRANCH  14  15
ENDBRANCH   2  14
TORSDOF 6
ENDMDL
MODEL 7
REMARK VINA RESULT:      -5.3      4.123      7.722
REMARK  6 active torsions:
REMARK  status: ('A' for Active; 'I' for Inactive)
REMARK    1  A    between atoms: C_5  and  C_6 
REMARK    2  A    between atoms: C_6  and  C_7 
REMARK    3  A    between atoms: C_7  and  N_8 
REMARK       I    between atoms: N_8  and  C_9 
REMARK    4  A    between atoms: C_9  and  C_11 
REMARK    5  A    between atoms: C_11  and  N_12 
REMARK       I    between atoms: N_12  and  C_13 
REMARK    6  A    between atoms: C_13  and  C_15 
ROOT
HETATM    1  N   UNL     1     -43.310 -53.354  12.170  1.00  0.00    -0.359 N 
HETATM    2  C   UNL     1     -42.438 -52.307  12.387  1.00  0.00     0.235 C 
HETATM    3  O   UNL     1     -42.742 -51.290  13.006  1.00  0.00    -0.272 OA
HETATM    4  H   UNL     1     -42.921 -54.234  11.836  1.00  0.00     0.162 HD
ENDROOT
BRANCH   1   5
HETATM    5  C   UNL     1     -44.694 -53.316  12.617  1.00  0.00     0.129 C 
BRANCH   5   6
HETATM    6  C   UNL     1     -45.038 -54.498  13.522  1.00  0.00     0.084 C 
BRANCH   6   7
HETATM    7  C   UNL     1     -44.176 -54.525  14.747  1.00  0.00     0.052 A 
HETATM    8  S   UNL     1     -44.368 -53.332  15.971  1.00  0.00    -0.087 SA
HETATM    9  C   UNL     1     -43.141 -54.092  16.891  1.00  0.00     0.076 A 
HETATM   10  C   UNL     1     -42.659 -55.199  16.220  1.00  0.00     0.012 A 
HETATM   11  C   UNL     1     -41.600 -56.128  16.693  1.00  0.00     0.068 C 
HETATM   12  N   UNL     1     -43.255 -55.436  14.990  1.00  0.00    -0.357 N 
ATOM     13  HN  UNL     1     -43.014 -56.204  14.364  1.00  0.00     0.166 HD
ENDBRANCH   6   7
ENDBRANCH   5   6
ENDBRANCH   1   5
BRANCH   2  14
HETATM   14  C   UNL     1     -41.024 -52.544  11.857  1.00  0.00     0.225 C 
BRANCH  14  15
HETATM   15  N   UNL     1     -40.284 -51.300  11.763  1.00  0.00    -0.352 N 
HETATM   16  C   UNL     1     -39.138 -51.093  12.498  1.00  0.00     0.225 C 
HETATM   17  O   UNL     1     -38.712 -51.953  13.268  1.00  0.00    -0.273 OA
HETATM   18  H   UNL     1     -40.741 -50.518  11.310  1.00  0.00     0.162 HD
BRANCH  16  19
HETATM   19  C   UNL     1     -38.455 -49.725  12.294  1.00  0.00     0.030 C 
HETATM   20  C   UNL     1     -37.782 -49.277  13.599  1.00  0.00     0.024 C 
HETATM   21  C   UNL     1     -37.381 -49.844  11.198  1.00  0.00     0.024 C 
HETATM   22  C   UNL     1     -39.486 -48.674  11.850  1.00  0.00     0.024 C 
ENDBRANCH  16  19
ENDBRANCH  14  15
ENDBRANCH   2  14
TORSDOF 6
ENDMDL
MODEL 8
REMARK VINA RESULT:      -5.1      3.766      7.763
REMARK  6 active torsions:
REMARK  status: ('A' for Active; 'I' for Inactive)
REMARK    1  A    between atoms: C_5  and  C_6 
REMARK    2  A    between atoms: C_6  and  C_7 
REMARK    3  A    between atoms: C_7  and  N_8 
REMARK       I    between atoms: N_8  and  C_9 
REMARK    4  A    between atoms: C_9  and  C_11 
REMARK    5  A    between atoms: C_11  and  N_12 
REMARK       I    between atoms: N_12  and  C_13 
REMARK    6  A    between atoms: C_13  and  C_15 
ROOT
HETATM    1  N   UNL     1     -41.863 -50.037  11.658  1.00  0.00    -0.359 N 
HETATM    2  C   UNL     1     -42.527 -48.841  11.836  1.00  0.00     0.235 C 
HETATM    3  O   UNL     1     -43.141 -48.553  12.861  1.00  0.00    -0.272 OA
HETATM    4  H   UNL     1     -41.213 -50.108  10.876  1.00  0.00     0.162 HD
ENDROOT
BRANCH   1   5
HETATM    5  C   UNL     1     -41.878 -51.090  12.662  1.00  0.00     0.129 C 
BRANCH   5   6
HETATM    6  C   UNL     1     -42.029 -52.477  12.038  1.00  0.00     0.084 C 
BRANCH   6   7
HETATM    7  C   UNL     1     -42.726 -53.426  12.965  1.00  0.00     0.052 A 
HETATM    8  S   UNL     1     -41.925 -54.014  14.369  1.00  0.00    -0.087 SA
HETATM    9  C   UNL     1     -43.331 -54.893  14.791  1.00  0.00     0.076 A 
HETATM   10  C   UNL     1     -44.320 -54.691  13.849  1.00  0.00     0.012 A 
HETATM   11  C   UNL     1     -45.688 -55.270  13.864  1.00  0.00     0.068 C 
HETATM   12  N   UNL     1     -43.961 -53.854  12.802  1.00  0.00    -0.357 N 
ATOM     13  HN  UNL     1     -44.567 -53.605  12.020  1.00  0.00     0.166 HD
ENDBRANCH   6   7
ENDBRANCH   5   6
ENDBRANCH   1   5
BRANCH   2  14
HETATM   14  C   UNL     1     -42.376 -47.858  10.676  1.00  0.00     0.225 C 
BRANCH  14  15
HETATM   15  N   UNL     1     -41.340 -46.879  10.948  1.00  0.00    -0.352 N 
HETATM   16  C   UNL     1     -41.414 -45.601  10.442  1.00  0.00     0.225 C 
HETATM   17  O   UNL     1     -42.355 -45.251   9.731  1.00  0.00    -0.273 OA
HETATM   18  H   UNL     1     -40.470 -47.218  11.339  1.00  0.00     0.162 HD
BRANCH  16  19
HETATM   19  C   UNL     1     -40.242 -44.669  10.816  1.00  0.00     0.030 C 
HETATM   20  C   UNL     1     -39.556 -45.180  12.091  1.00  0.00     0.024 C 
HETATM   21  C   UNL     1     -39.213 -44.652   9.672  1.00  0.00     0.024 C 
HETATM   22  C   UNL     1     -40.749 -43.235  11.035  1.00  0.00     0.024 C 
ENDBRANCH  16  19
ENDBRANCH  14  15
ENDBRANCH   2  14
TORSDOF 6
ENDMDL
MODEL 9
REMARK VINA RESULT:      -5.1      3.559      7.611
REMARK  6 active torsions:
REMARK  status: ('A' for Active; 'I' for Inactive)
REMARK    1  A    between atoms: C_5  and  C_6 
REMARK    2  A    between atoms: C_6  and  C_7 
REMARK    3  A    between atoms: C_7  and  N_8 
REMARK       I    between atoms: N_8  and  C_9 
REMARK    4  A    between atoms: C_9  and  C_11 
REMARK    5  A    between atoms: C_11  and  N_12 
REMARK       I    between atoms: N_12  and  C_13 
REMARK    6  A    between atoms: C_13  and  C_15 
ROOT
HETATM    1  N   UNL     1     -42.784 -49.252  11.925  1.00  0.00    -0.359 N 
HETATM    2  C   UNL     1     -41.722 -48.897  11.118  1.00  0.00     0.235 C 
HETATM    3  O   UNL     1     -40.637 -49.472  11.135  1.00  0.00    -0.272 OA
HETATM    4  H   UNL     1     -43.700 -48.867  11.701  1.00  0.00     0.162 HD
ENDROOT
BRANCH   1   5
HETATM    5  C   UNL     1     -42.686 -50.317  12.912  1.00  0.00     0.129 C 
BRANCH   5   6
HETATM    6  C   UNL     1     -44.044 -50.663  13.522  1.00  0.00     0.084 C 
BRANCH   6   7
HETATM    7  C   UNL     1     -44.216 -52.142  13.683  1.00  0.00     0.052 A 
HETATM    8  S   UNL     1     -45.473 -52.966  12.846  1.00  0.00    -0.087 SA
HETATM    9  C   UNL     1     -44.939 -54.446  13.519  1.00  0.00     0.076 A 
HETATM   10  C   UNL     1     -43.845 -54.230  14.335  1.00  0.00     0.012 A 
HETATM   11  C   UNL     1     -43.088 -55.262  15.090  1.00  0.00     0.068 C 
HETATM   12  N   UNL     1     -43.443 -52.906  14.427  1.00  0.00    -0.357 N 
ATOM     13  HN  UNL     1     -42.661 -52.572  14.990  1.00  0.00     0.166 HD
ENDBRANCH   6   7
ENDBRANCH   5   6
ENDBRANCH   1   5
BRANCH   2  14
HETATM   14  C   UNL     1     -42.029 -47.768  10.135  1.00  0.00     0.225 C 
BRANCH  14  15
HETATM   15  N   UNL     1     -41.061 -46.693  10.253  1.00  0.00    -0.352 N 
HETATM   16  C   UNL     1     -41.302 -45.599  11.053  1.00  0.00     0.225 C 
HETATM   17  O   UNL     1     -42.352 -45.491  11.684  1.00  0.00    -0.273 OA
HETATM   18  H   UNL     1     -40.308 -46.668   9.577  1.00  0.00     0.162 HD
BRANCH  16  19
HETATM   19  C   UNL     1     -40.183 -44.537  11.082  1.00  0.00     0.030 C 
HETATM   20  C   UNL     1     -40.798 -43.131  11.112  1.00  0.00     0.024 C 
HETATM   21  C   UNL     1     -39.324 -44.730  12.345  1.00  0.00     0.024 C 
HETATM   22  C   UNL     1     -39.274 -44.684   9.851  1.00  0.00     0.024 C 
ENDBRANCH  16  19
ENDBRANCH  14  15
ENDBRANCH   2  14
TORSDOF 6
ENDMDL
