MODEL 1
REMARK VINA RESULT:      -6.1      0.000      0.000
REMARK  4 active torsions:
REMARK  status: ('A' for Active; 'I' for Inactive)
REMARK    1  A    between atoms: N_6  and  C_7 
REMARK    2  A    between atoms: C_7  and  C_8 
REMARK    3  A    between atoms: C_8  and  N_9 
REMARK       I    between atoms: N_9  and  C_10 
REMARK       I    between atoms: C_10  and  N_12 
REMARK    4  A    between atoms: N_12  and  C_13 
ROOT
HETATM    1  N   UNL     1     -42.186 -49.732  11.579  1.00  0.00    -0.341 N 
HETATM    2  C   UNL     1     -41.033 -49.056  11.319  1.00  0.00     0.322 C 
HETATM    3  O   UNL     1     -39.966 -49.294  11.877  1.00  0.00    -0.247 OA
HETATM    4  N   UNL     1     -41.091 -48.111  10.338  1.00  0.00    -0.289 N 
HETATM    5  H   UNL     1     -43.026 -49.413  11.105  1.00  0.00     0.164 HD
HETATM    6  H   UNL     1     -40.210 -47.705  10.063  1.00  0.00     0.172 HD
ENDROOT
BRANCH   1   7
HETATM    7  C   UNL     1     -42.283 -50.855  12.483  1.00  0.00     0.154 C 
BRANCH   7   8
HETATM    8  C   UNL     1     -43.030 -50.508  13.783  1.00  0.00     0.292 C 
BRANCH   8   9
HETATM    9  N   UNL     1     -44.449 -50.917  13.764  1.00  0.00     0.090 N 
HETATM   10  C   UNL     1     -45.034 -50.967  15.112  1.00  0.00     0.272 C 
HETATM   11  C   UNL     1     -46.517 -51.340  15.072  1.00  0.00     0.031 C 
HETATM   12  C   UNL     1     -46.745 -52.643  14.319  1.00  0.00     0.007 C 
HETATM   13  C   UNL     1     -46.074 -52.619  12.939  1.00  0.00     0.010 C 
HETATM   14  C   UNL     1     -46.818 -51.699  11.966  1.00  0.00     0.011 C 
HETATM   15  C   UNL     1     -44.596 -52.213  13.082  1.00  0.00     0.276 C 
ENDBRANCH   8   9
ENDBRANCH   7   8
ENDBRANCH   1   7
BRANCH   4  16
HETATM   16  C   UNL     1     -42.229 -47.699   9.709  1.00  0.00     0.152 A 
HETATM   17  N   UNL     1     -42.787 -48.217   8.640  1.00  0.00    -0.346 N 
HETATM   18  C   UNL     1     -43.936 -47.513   8.344  1.00  0.00     0.097 A 
ATOM     19  HN  UNL     1     -42.429 -49.014   8.113  1.00  0.00     0.167 HD
HETATM   20  C   UNL     1     -44.196 -46.436   9.165  1.00  0.00     0.070 A 
HETATM   21  S   UNL     1     -43.003 -46.347  10.398  1.00  0.00    -0.064 SA
ENDBRANCH   4  16
TORSDOF 4
ENDMDL
MODEL 2
REMARK VINA RESULT:      -5.9      1.359      1.486
REMARK  4 active torsions:
REMARK  status: ('A' for Active; 'I' for Inactive)
REMARK    1  A    between atoms: N_6  and  C_7 
REMARK    2  A    between atoms: C_7  and  C_8 
REMARK    3  A    between atoms: C_8  and  N_9 
REMARK       I    between atoms: N_9  and  C_10 
REMARK       I    between atoms: C_10  and  N_12 
REMARK    4  A    between atoms: N_12  and  C_13 
ROOT
HETATM    1  N   UNL     1     -41.775 -51.082  11.785  1.00  0.00    -0.341 N 
HETATM    2  C   UNL     1     -40.495 -50.624  11.708  1.00  0.00     0.322 C 
HETATM    3  O   UNL     1     -39.520 -51.273  12.076  1.00  0.00    -0.247 OA
HETATM    4  N   UNL     1     -40.320 -49.403  11.130  1.00  0.00    -0.289 N 
HETATM    5  H   UNL     1     -42.513 -50.440  11.510  1.00  0.00     0.164 HD
HETATM    6  H   UNL     1     -39.365 -49.126  10.960  1.00  0.00     0.172 HD
ENDROOT
BRANCH   1   7
HETATM    7  C   UNL     1     -42.140 -52.404  12.238  1.00  0.00     0.154 C 
BRANCH   7   8
HETATM    8  C   UNL     1     -42.632 -52.418  13.696  1.00  0.00     0.292 C 
BRANCH   8   9
HETATM    9  N   UNL     1     -44.038 -51.989  13.838  1.00  0.00     0.090 N 
HETATM   10  C   UNL     1     -44.358 -51.568  15.209  1.00  0.00     0.272 C 
HETATM   11  C   UNL     1     -45.801 -51.077  15.329  1.00  0.00     0.031 C 
HETATM   12  C   UNL     1     -46.790 -52.117  14.822  1.00  0.00     0.007 C 
HETATM   13  C   UNL     1     -46.416 -52.611  13.419  1.00  0.00     0.010 C 
HETATM   14  C   UNL     1     -46.695 -51.544  12.354  1.00  0.00     0.011 C 
HETATM   15  C   UNL     1     -44.944 -53.061  13.395  1.00  0.00     0.276 C 
ENDBRANCH   8   9
ENDBRANCH   7   8
ENDBRANCH   1   7
BRANCH   4  16
HETATM   16  C   UNL     1     -41.325 -48.556  10.762  1.00  0.00     0.152 A 
HETATM   17  N   UNL     1     -41.929 -48.486   9.599  1.00  0.00    -0.346 N 
HETATM   18  C   UNL     1     -42.898 -47.507   9.652  1.00  0.00     0.097 A 
ATOM     19  HN  UNL     1     -41.715 -49.065   8.786  1.00  0.00     0.167 HD
HETATM   20  C   UNL     1     -42.972 -46.812  10.840  1.00  0.00     0.070 A 
HETATM   21  S   UNL     1     -41.839 -47.459  11.959  1.00  0.00    -0.064 SA
ENDBRANCH   4  16
TORSDOF 4
ENDMDL
MODEL 3
REMARK VINA RESULT:      -5.8      1.179      1.504
REMARK  4 active torsions:
REMARK  status: ('A' for Active; 'I' for Inactive)
REMARK    1  A    between atoms: N_6  and  C_7 
REMARK    2  A    between atoms: C_7  and  C_8 
REMARK    3  A    between atoms: C_8  and  N_9 
REMARK       I    between atoms: N_9  and  C_10 
REMARK       I    between atoms: C_10  and  N_12 
REMARK    4  A    between atoms: N_12  and  C_13 
ROOT
HETATM    1  N   UNL     1     -41.857 -50.454  11.610  1.00  0.00    -0.341 N 
HETATM    2  C   UNL     1     -40.719 -49.722  11.455  1.00  0.00     0.322 C 
HETATM    3  O   UNL     1     -39.632 -50.052  11.920  1.00  0.00    -0.247 OA
HETATM    4  N   UNL     1     -40.817 -48.600  10.688  1.00  0.00    -0.289 N 
HETATM    5  H   UNL     1     -42.715 -50.058  11.237  1.00  0.00     0.164 HD
HETATM    6  H   UNL     1     -39.950 -48.133  10.473  1.00  0.00     0.172 HD
ENDROOT
BRANCH   1   7
HETATM    7  C   UNL     1     -41.915 -51.736  12.271  1.00  0.00     0.154 C 
BRANCH   7   8
HETATM    8  C   UNL     1     -42.609 -51.667  13.642  1.00  0.00     0.292 C 
BRANCH   8   9
HETATM    9  N   UNL     1     -43.969 -52.243  13.633  1.00  0.00     0.090 N 
HETATM   10  C   UNL     1     -45.004 -51.229  13.383  1.00  0.00     0.272 C 
HETATM   11  C   UNL     1     -46.401 -51.847  13.324  1.00  0.00     0.031 C 
HETATM   12  C   UNL     1     -46.708 -52.656  14.576  1.00  0.00     0.007 C 
HETATM   13  C   UNL     1     -45.594 -53.667  14.879  1.00  0.00     0.010 C 
HETATM   14  C   UNL     1     -45.607 -54.834  13.885  1.00  0.00     0.011 C 
HETATM   15  C   UNL     1     -44.230 -52.955  14.895  1.00  0.00     0.276 C 
ENDBRANCH   8   9
ENDBRANCH   7   8
ENDBRANCH   1   7
BRANCH   4  16
HETATM   16  C   UNL     1     -41.980 -48.086  10.192  1.00  0.00     0.152 A 
HETATM   17  N   UNL     1     -42.476 -48.242   8.986  1.00  0.00    -0.346 N 
HETATM   18  C   UNL     1     -43.678 -47.572   8.902  1.00  0.00     0.097 A 
ATOM     19  HN  UNL     1     -42.041 -48.775   8.233  1.00  0.00     0.167 HD
HETATM   20  C   UNL     1     -44.044 -46.872  10.032  1.00  0.00     0.070 A 
HETATM   21  S   UNL     1     -42.879 -47.123  11.271  1.00  0.00    -0.064 SA
ENDBRANCH   4  16
TORSDOF 4
ENDMDL
MODEL 4
REMARK VINA RESULT:      -5.8      3.828      4.645
REMARK  4 active torsions:
REMARK  status: ('A' for Active; 'I' for Inactive)
REMARK    1  A    between atoms: N_6  and  C_7 
REMARK    2  A    between atoms: C_7  and  C_8 
REMARK    3  A    between atoms: C_8  and  N_9 
REMARK       I    between atoms: N_9  and  C_10 
REMARK       I    between atoms: C_10  and  N_12 
REMARK    4  A    between atoms: N_12  and  C_13 
ROOT
HETATM    1  N   UNL     1     -43.109 -53.974  13.915  1.00  0.00    -0.341 N 
HETATM    2  C   UNL     1     -43.790 -53.805  12.748  1.00  0.00     0.322 C 
HETATM    3  O   UNL     1     -44.767 -54.477  12.430  1.00  0.00    -0.247 OA
HETATM    4  N   UNL     1     -43.373 -52.788  11.942  1.00  0.00    -0.289 N 
HETATM    5  H   UNL     1     -42.278 -53.405  14.051  1.00  0.00     0.164 HD
HETATM    6  H   UNL     1     -43.957 -52.587  11.145  1.00  0.00     0.172 HD
ENDROOT
BRANCH   1   7
HETATM    7  C   UNL     1     -43.489 -54.905  14.951  1.00  0.00     0.154 C 
BRANCH   7   8
HETATM    8  C   UNL     1     -43.974 -54.204  16.232  1.00  0.00     0.292 C 
BRANCH   8   9
HETATM    9  N   UNL     1     -44.795 -53.006  15.963  1.00  0.00     0.090 N 
HETATM   10  C   UNL     1     -44.803 -52.068  17.095  1.00  0.00     0.272 C 
HETATM   11  C   UNL     1     -45.613 -50.809  16.782  1.00  0.00     0.031 C 
HETATM   12  C   UNL     1     -47.027 -51.151  16.333  1.00  0.00     0.007 C 
HETATM   13  C   UNL     1     -47.022 -52.184  15.199  1.00  0.00     0.010 C 
HETATM   14  C   UNL     1     -46.543 -51.570  13.879  1.00  0.00     0.011 C 
HETATM   15  C   UNL     1     -46.166 -53.399  15.599  1.00  0.00     0.276 C 
ENDBRANCH   8   9
ENDBRANCH   7   8
ENDBRANCH   1   7
BRANCH   4  16
HETATM   16  C   UNL     1     -42.255 -52.032  12.145  1.00  0.00     0.152 A 
HETATM   17  N   UNL     1     -41.063 -52.209  11.624  1.00  0.00    -0.346 N 
HETATM   18  C   UNL     1     -40.223 -51.212  12.072  1.00  0.00     0.097 A 
ATOM     19  HN  UNL     1     -40.801 -52.962  10.988  1.00  0.00     0.167 HD
HETATM   20  C   UNL     1     -40.781 -50.329  12.972  1.00  0.00     0.070 A 
HETATM   21  S   UNL     1     -42.439 -50.714  13.207  1.00  0.00    -0.064 SA
ENDBRANCH   4  16
TORSDOF 4
ENDMDL
MODEL 5
REMARK VINA RESULT:      -5.6      1.868      2.472
REMARK  4 active torsions:
REMARK  status: ('A' for Active; 'I' for Inactive)
REMARK    1  A    between atoms: N_6  and  C_7 
REMARK    2  A    between atoms: C_7  and  C_8 
REMARK    3  A    between atoms: C_8  and  N_9 
REMARK       I    between atoms: N_9  and  C_10 
REMARK       I    between atoms: C_10  and  N_12 
REMARK    4  A    between atoms: N_12  and  C_13 
ROOT
HETATM    1  N   UNL     1     -42.206 -51.074  12.153  1.00  0.00    -0.341 N 
HETATM    2  C   UNL     1     -40.917 -51.244  11.746  1.00  0.00     0.322 C 
HETATM    3  O   UNL     1     -40.285 -52.283  11.912  1.00  0.00    -0.247 OA
HETATM    4  N   UNL     1     -40.352 -50.206  11.068  1.00  0.00    -0.289 N 
HETATM    5  H   UNL     1     -42.614 -50.153  12.020  1.00  0.00     0.164 HD
HETATM    6  H   UNL     1     -39.447 -50.384  10.660  1.00  0.00     0.172 HD
ENDROOT
BRANCH   1   7
HETATM    7  C   UNL     1     -43.009 -52.108  12.760  1.00  0.00     0.154 C 
BRANCH   7   8
HETATM    8  C   UNL     1     -43.069 -51.990  14.293  1.00  0.00     0.292 C 
BRANCH   8   9
HETATM    9  N   UNL     1     -44.409 -52.275  14.845  1.00  0.00     0.090 N 
HETATM   10  C   UNL     1     -44.823 -53.667  14.616  1.00  0.00     0.272 C 
HETATM   11  C   UNL     1     -46.188 -53.963  15.239  1.00  0.00     0.031 C 
HETATM   12  C   UNL     1     -47.247 -52.981  14.756  1.00  0.00     0.007 C 
HETATM   13  C   UNL     1     -46.787 -51.528  14.930  1.00  0.00     0.010 C 
HETATM   14  C   UNL     1     -46.790 -51.108  16.404  1.00  0.00     0.011 C 
HETATM   15  C   UNL     1     -45.399 -51.337  14.292  1.00  0.00     0.276 C 
ENDBRANCH   8   9
ENDBRANCH   7   8
ENDBRANCH   1   7
BRANCH   4  16
HETATM   16  C   UNL     1     -40.919 -48.977  10.896  1.00  0.00     0.152 A 
HETATM   17  N   UNL     1     -41.673 -48.574   9.900  1.00  0.00    -0.346 N 
HETATM   18  C   UNL     1     -42.054 -47.268  10.123  1.00  0.00     0.097 A 
ATOM     19  HN  UNL     1     -41.935 -49.138   9.092  1.00  0.00     0.167 HD
HETATM   20  C   UNL     1     -41.533 -46.685  11.259  1.00  0.00     0.070 A 
HETATM   21  S   UNL     1     -40.594 -47.838  12.120  1.00  0.00    -0.064 SA
ENDBRANCH   4  16
TORSDOF 4
ENDMDL
MODEL 6
REMARK VINA RESULT:      -5.5      2.198      2.956
REMARK  4 active torsions:
REMARK  status: ('A' for Active; 'I' for Inactive)
REMARK    1  A    between atoms: N_6  and  C_7 
REMARK    2  A    between atoms: C_7  and  C_8 
REMARK    3  A    between atoms: C_8  and  N_9 
REMARK       I    between atoms: N_9  and  C_10 
REMARK       I    between atoms: C_10  and  N_12 
REMARK    4  A    between atoms: N_12  and  C_13 
ROOT
HETATM    1  N   UNL     1     -41.743 -52.067  12.343  1.00  0.00    -0.341 N 
HETATM    2  C   UNL     1     -40.390 -51.933  12.411  1.00  0.00     0.322 C 
HETATM    3  O   UNL     1     -39.640 -52.813  12.823  1.00  0.00    -0.247 OA
HETATM    4  N   UNL     1     -39.870 -50.768  11.932  1.00  0.00    -0.289 N 
HETATM    5  H   UNL     1     -42.273 -51.254  12.044  1.00  0.00     0.164 HD
HETATM    6  H   UNL     1     -38.864 -50.725  11.867  1.00  0.00     0.172 HD
ENDROOT
BRANCH   1   7
HETATM    7  C   UNL     1     -42.457 -53.278  12.675  1.00  0.00     0.154 C 
BRANCH   7   8
HETATM    8  C   UNL     1     -43.967 -53.170  12.402  1.00  0.00     0.292 C 
BRANCH   8   9
HETATM    9  N   UNL     1     -44.761 -52.916  13.622  1.00  0.00     0.090 N 
HETATM   10  C   UNL     1     -45.612 -54.059  13.983  1.00  0.00     0.272 C 
HETATM   11  C   UNL     1     -46.387 -53.802  15.276  1.00  0.00     0.031 C 
HETATM   12  C   UNL     1     -47.191 -52.512  15.199  1.00  0.00     0.007 C 
HETATM   13  C   UNL     1     -46.319 -51.332  14.753  1.00  0.00     0.010 C 
HETATM   14  C   UNL     1     -45.355 -50.893  15.861  1.00  0.00     0.011 C 
HETATM   15  C   UNL     1     -45.566 -51.695  13.460  1.00  0.00     0.276 C 
ENDBRANCH   8   9
ENDBRANCH   7   8
ENDBRANCH   1   7
BRANCH   4  16
HETATM   16  C   UNL     1     -40.600 -49.687  11.530  1.00  0.00     0.152 A 
HETATM   17  N   UNL     1     -40.978 -49.384  10.310  1.00  0.00    -0.346 N 
HETATM   18  C   UNL     1     -41.715 -48.219  10.343  1.00  0.00     0.097 A 
ATOM     19  HN  UNL     1     -40.762 -49.924   9.473  1.00  0.00     0.167 HD
HETATM   20  C   UNL     1     -41.834 -47.629  11.584  1.00  0.00     0.070 A 
HETATM   21  S   UNL     1     -41.060 -48.609  12.766  1.00  0.00    -0.064 SA
ENDBRANCH   4  16
TORSDOF 4
ENDMDL
MODEL 7
REMARK VINA RESULT:      -5.5      2.528      3.590
REMARK  4 active torsions:
REMARK  status: ('A' for Active; 'I' for Inactive)
REMARK    1  A    between atoms: N_6  and  C_7 
REMARK    2  A    between atoms: C_7  and  C_8 
REMARK    3  A    between atoms: C_8  and  N_9 
REMARK       I    between atoms: N_9  and  C_10 
REMARK       I    between atoms: C_10  and  N_12 
REMARK    4  A    between atoms: N_12  and  C_13 
ROOT
HETATM    1  N   UNL     1     -42.121 -49.542  11.563  1.00  0.00    -0.341 N 
HETATM    2  C   UNL     1     -41.024 -48.764  11.351  1.00  0.00     0.322 C 
HETATM    3  O   UNL     1     -39.966 -48.903  11.958  1.00  0.00    -0.247 OA
HETATM    4  N   UNL     1     -41.124 -47.829  10.365  1.00  0.00    -0.289 N 
HETATM    5  H   UNL     1     -42.965 -49.301  11.051  1.00  0.00     0.164 HD
HETATM    6  H   UNL     1     -40.272 -47.344  10.127  1.00  0.00     0.172 HD
ENDROOT
BRANCH   1   7
HETATM    7  C   UNL     1     -42.156 -50.669  12.466  1.00  0.00     0.154 C 
BRANCH   7   8
HETATM    8  C   UNL     1     -41.440 -51.907  11.900  1.00  0.00     0.292 C 
BRANCH   8   9
HETATM    9  N   UNL     1     -41.271 -52.985  12.894  1.00  0.00     0.090 N 
HETATM   10  C   UNL     1     -42.557 -53.481  13.405  1.00  0.00     0.272 C 
HETATM   11  C   UNL     1     -42.369 -54.633  14.394  1.00  0.00     0.031 C 
HETATM   12  C   UNL     1     -41.431 -54.247  15.529  1.00  0.00     0.007 C 
HETATM   13  C   UNL     1     -40.116 -53.663  14.998  1.00  0.00     0.010 C 
HETATM   14  C   UNL     1     -39.229 -54.746  14.374  1.00  0.00     0.011 C 
HETATM   15  C   UNL     1     -40.410 -52.530  13.998  1.00  0.00     0.276 C 
ENDBRANCH   8   9
ENDBRANCH   7   8
ENDBRANCH   1   7
BRANCH   4  16
HETATM   16  C   UNL     1     -42.266 -47.522   9.684  1.00  0.00     0.152 A 
HETATM   17  N   UNL     1     -42.827 -48.203   8.712  1.00  0.00    -0.346 N 
HETATM   18  C   UNL     1     -43.978 -47.556   8.314  1.00  0.00     0.097 A 
ATOM     19  HN  UNL     1     -42.470 -49.072   8.316  1.00  0.00     0.167 HD
HETATM   20  C   UNL     1     -44.238 -46.364   8.956  1.00  0.00     0.070 A 
HETATM   21  S   UNL     1     -43.039 -46.080  10.155  1.00  0.00    -0.064 SA
ENDBRANCH   4  16
TORSDOF 4
ENDMDL
MODEL 8
REMARK VINA RESULT:      -5.3      1.727      2.350
REMARK  4 active torsions:
REMARK  status: ('A' for Active; 'I' for Inactive)
REMARK    1  A    between atoms: N_6  and  C_7 
REMARK    2  A    between atoms: C_7  and  C_8 
REMARK    3  A    between atoms: C_8  and  N_9 
REMARK       I    between atoms: N_9  and  C_10 
REMARK       I    between atoms: C_10  and  N_12 
REMARK    4  A    between atoms: N_12  and  C_13 
ROOT
HETATM    1  N   UNL     1     -42.022 -49.717  11.487  1.00  0.00    -0.341 N 
HETATM    2  C   UNL     1     -40.947 -48.889  11.367  1.00  0.00     0.322 C 
HETATM    3  O   UNL     1     -39.901 -49.041  11.992  1.00  0.00    -0.247 OA
HETATM    4  N   UNL     1     -41.052 -47.886  10.451  1.00  0.00    -0.289 N 
HETATM    5  H   UNL     1     -42.859 -49.465  10.970  1.00  0.00     0.164 HD
HETATM    6  H   UNL     1     -40.212 -47.357  10.275  1.00  0.00     0.172 HD
ENDROOT
BRANCH   1   7
HETATM    7  C   UNL     1     -42.043 -50.909  12.302  1.00  0.00     0.154 C 
BRANCH   7   8
HETATM    8  C   UNL     1     -43.210 -50.924  13.304  1.00  0.00     0.292 C 
BRANCH   8   9
HETATM    9  N   UNL     1     -43.228 -52.130  14.156  1.00  0.00     0.090 N 
HETATM   10  C   UNL     1     -41.899 -52.746  14.281  1.00  0.00     0.272 C 
HETATM   11  C   UNL     1     -41.923 -53.962  15.208  1.00  0.00     0.031 C 
HETATM   12  C   UNL     1     -42.968 -54.978  14.771  1.00  0.00     0.007 C 
HETATM   13  C   UNL     1     -44.340 -54.323  14.571  1.00  0.00     0.010 C 
HETATM   14  C   UNL     1     -44.985 -53.946  15.910  1.00  0.00     0.011 C 
HETATM   15  C   UNL     1     -44.209 -53.101  13.645  1.00  0.00     0.276 C 
ENDBRANCH   8   9
ENDBRANCH   7   8
ENDBRANCH   1   7
BRANCH   4  16
HETATM   16  C   UNL     1     -42.186 -47.565   9.762  1.00  0.00     0.152 A 
HETATM   17  N   UNL     1     -42.718 -48.210   8.750  1.00  0.00    -0.346 N 
HETATM   18  C   UNL     1     -43.871 -47.561   8.359  1.00  0.00     0.097 A 
ATOM     19  HN  UNL     1     -42.340 -49.055   8.323  1.00  0.00     0.167 HD
HETATM   20  C   UNL     1     -44.160 -46.403   9.048  1.00  0.00     0.070 A 
HETATM   21  S   UNL     1     -42.989 -46.156  10.281  1.00  0.00    -0.064 SA
ENDBRANCH   4  16
TORSDOF 4
ENDMDL
MODEL 9
REMARK VINA RESULT:      -5.1      2.962      6.733
REMARK  4 active torsions:
REMARK  status: ('A' for Active; 'I' for Inactive)
REMARK    1  A    between atoms: N_6  and  C_7 
REMARK    2  A    between atoms: C_7  and  C_8 
REMARK    3  A    between atoms: C_8  and  N_9 
REMARK       I    between atoms: N_9  and  C_10 
REMARK       I    between atoms: C_10  and  N_12 
REMARK    4  A    between atoms: N_12  and  C_13 
ROOT
HETATM    1  N   UNL     1     -41.339 -50.828  11.723  1.00  0.00    -0.341 N 
HETATM    2  C   UNL     1     -40.801 -51.907  12.356  1.00  0.00     0.322 C 
HETATM    3  O   UNL     1     -39.595 -52.132  12.406  1.00  0.00    -0.247 OA
HETATM    4  N   UNL     1     -41.672 -52.726  13.009  1.00  0.00    -0.289 N 
HETATM    5  H   UNL     1     -42.353 -50.771  11.690  1.00  0.00     0.164 HD
HETATM    6  H   UNL     1     -41.259 -53.448  13.580  1.00  0.00     0.172 HD
ENDROOT
BRANCH   1   7
HETATM    7  C   UNL     1     -40.564 -49.782  11.098  1.00  0.00     0.154 C 
BRANCH   7   8
HETATM    8  C   UNL     1     -41.390 -48.512  10.829  1.00  0.00     0.292 C 
BRANCH   8   9
HETATM    9  N   UNL     1     -40.646 -47.267  11.108  1.00  0.00     0.090 N 
HETATM   10  C   UNL     1     -40.375 -47.087  12.542  1.00  0.00     0.272 C 
HETATM   11  C   UNL     1     -39.559 -45.822  12.810  1.00  0.00     0.031 C 
HETATM   12  C   UNL     1     -40.223 -44.590  12.210  1.00  0.00     0.007 C 
HETATM   13  C   UNL     1     -40.571 -44.803  10.731  1.00  0.00     0.010 C 
HETATM   14  C   UNL     1     -39.317 -44.794   9.851  1.00  0.00     0.011 C 
HETATM   15  C   UNL     1     -41.370 -46.107  10.563  1.00  0.00     0.276 C 
ENDBRANCH   8   9
ENDBRANCH   7   8
ENDBRANCH   1   7
BRANCH   4  16
HETATM   16  C   UNL     1     -43.032 -52.630  12.956  1.00  0.00     0.152 A 
HETATM   17  N   UNL     1     -43.840 -53.168  12.071  1.00  0.00    -0.346 N 
HETATM   18  C   UNL     1     -45.141 -52.841  12.391  1.00  0.00     0.097 A 
ATOM     19  HN  UNL     1     -43.551 -53.736  11.276  1.00  0.00     0.167 HD
HETATM   20  C   UNL     1     -45.290 -52.012  13.483  1.00  0.00     0.070 A 
HETATM   21  S   UNL     1     -43.753 -51.693  14.181  1.00  0.00    -0.064 SA
ENDBRANCH   4  16
TORSDOF 4
ENDMDL
