MODEL 1
REMARK VINA RESULT:      -6.0      0.000      0.000
REMARK  5 active torsions:
REMARK  status: ('A' for Active; 'I' for Inactive)
REMARK    1  A    between atoms: C_4  and  C_5 
REMARK       I    between atoms: C_5  and  N_7 
REMARK    2  A    between atoms: N_7  and  C_8 
REMARK    3  A    between atoms: C_8  and  C_9 
REMARK    4  A    between atoms: C_9  and  C_10 
REMARK    5  A    between atoms: C_13  and  C_16 
ROOT
HETATM    1  C   UNL     1     -41.611 -48.832  11.269  1.00  0.00     0.052 A 
HETATM    2  N   UNL     1     -42.345 -48.652  10.191  1.00  0.00    -0.356 N 
ATOM      3  HN  UNL     1     -42.347 -49.269   9.379  1.00  0.00     0.166 HD
HETATM    4  C   UNL     1     -43.117 -47.501  10.313  1.00  0.00     0.024 A 
HETATM    5  C   UNL     1     -42.944 -46.832  11.513  1.00  0.00     0.077 A 
HETATM    6  S   UNL     1     -41.819 -47.654  12.502  1.00  0.00    -0.087 SA
ENDROOT
BRANCH   1   7
HETATM    7  C   UNL     1     -40.626 -49.944  11.447  1.00  0.00     0.084 C 
BRANCH   7   8
HETATM    8  C   UNL     1     -41.104 -50.960  12.486  1.00  0.00     0.129 C 
BRANCH   8   9
HETATM    9  N   UNL     1     -42.270 -51.718  12.052  1.00  0.00    -0.360 N 
HETATM   10  C   UNL     1     -42.852 -52.657  12.868  1.00  0.00     0.222 C 
HETATM   11  O   UNL     1     -42.416 -52.974  13.965  1.00  0.00    -0.273 OA
HETATM   12  H   UNL     1     -42.751 -51.428  11.210  1.00  0.00     0.162 HD
BRANCH  10  13
HETATM   13  C   UNL     1     -44.094 -53.272  12.319  1.00  0.00     0.082 A 
HETATM   14  C   UNL     1     -45.464 -52.700  12.632  1.00  0.00    -0.005 A 
HETATM   15  C   UNL     1     -45.633 -51.496  13.499  1.00  0.00     0.011 C 
HETATM   16  C   UNL     1     -45.046 -54.013  13.235  1.00  0.00     0.019 A 
ENDBRANCH  10  13
ENDBRANCH   8   9
ENDBRANCH   7   8
ENDBRANCH   1   7
BRANCH   4  17
HETATM   17  C   UNL     1     -44.038 -47.084   9.174  1.00  0.00    -0.008 C 
HETATM   18  C   UNL     1     -44.050 -45.553   8.989  1.00  0.00     0.021 C 
HETATM   19  C   UNL     1     -43.566 -47.721   7.852  1.00  0.00     0.021 C 
HETATM   20  C   UNL     1     -45.482 -47.540   9.462  1.00  0.00     0.021 C 
ENDBRANCH   4  17
TORSDOF 5
ENDMDL
MODEL 2
REMARK VINA RESULT:      -6.0      2.150      5.925
REMARK  5 active torsions:
REMARK  status: ('A' for Active; 'I' for Inactive)
REMARK    1  A    between atoms: C_4  and  C_5 
REMARK       I    between atoms: C_5  and  N_7 
REMARK    2  A    between atoms: N_7  and  C_8 
REMARK    3  A    between atoms: C_8  and  C_9 
REMARK    4  A    between atoms: C_9  and  C_10 
REMARK    5  A    between atoms: C_13  and  C_16 
ROOT
HETATM    1  C   UNL     1     -42.526 -50.852  12.990  1.00  0.00     0.052 A 
HETATM    2  N   UNL     1     -43.641 -51.507  12.744  1.00  0.00    -0.356 N 
ATOM      3  HN  UNL     1     -43.806 -52.087  11.922  1.00  0.00     0.166 HD
HETATM    4  C   UNL     1     -44.565 -51.295  13.762  1.00  0.00     0.024 A 
HETATM    5  C   UNL     1     -44.106 -50.472  14.776  1.00  0.00     0.077 A 
HETATM    6  S   UNL     1     -42.504 -49.967  14.462  1.00  0.00    -0.087 SA
ENDROOT
BRANCH   1   7
HETATM    7  C   UNL     1     -41.345 -50.817  12.072  1.00  0.00     0.084 C 
BRANCH   7   8
HETATM    8  C   UNL     1     -41.192 -49.451  11.401  1.00  0.00     0.129 C 
BRANCH   8   9
HETATM    9  N   UNL     1     -42.461 -48.877  10.974  1.00  0.00    -0.360 N 
HETATM   10  C   UNL     1     -42.525 -47.616  10.432  1.00  0.00     0.222 C 
HETATM   11  O   UNL     1     -41.564 -46.868  10.326  1.00  0.00    -0.273 OA
HETATM   12  H   UNL     1     -43.273 -49.478  10.924  1.00  0.00     0.162 HD
BRANCH  10  13
HETATM   13  C   UNL     1     -43.878 -47.214   9.954  1.00  0.00     0.082 A 
HETATM   14  C   UNL     1     -44.297 -47.412   8.510  1.00  0.00    -0.005 A 
HETATM   15  C   UNL     1     -43.379 -48.020   7.501  1.00  0.00     0.011 C 
HETATM   16  C   UNL     1     -44.037 -46.024   9.030  1.00  0.00     0.019 A 
ENDBRANCH  10  13
ENDBRANCH   8   9
ENDBRANCH   7   8
ENDBRANCH   1   7
BRANCH   4  17
HETATM   17  C   UNL     1     -45.940 -51.946  13.684  1.00  0.00    -0.008 C 
HETATM   18  C   UNL     1     -46.870 -51.440  14.805  1.00  0.00     0.021 C 
HETATM   19  C   UNL     1     -46.602 -51.620  12.330  1.00  0.00     0.021 C 
HETATM   20  C   UNL     1     -45.814 -53.476  13.824  1.00  0.00     0.021 C 
ENDBRANCH   4  17
TORSDOF 5
ENDMDL
MODEL 3
REMARK VINA RESULT:      -5.8      3.637      4.932
REMARK  5 active torsions:
REMARK  status: ('A' for Active; 'I' for Inactive)
REMARK    1  A    between atoms: C_4  and  C_5 
REMARK       I    between atoms: C_5  and  N_7 
REMARK    2  A    between atoms: N_7  and  C_8 
REMARK    3  A    between atoms: C_8  and  C_9 
REMARK    4  A    between atoms: C_9  and  C_10 
REMARK    5  A    between atoms: C_13  and  C_16 
ROOT
HETATM    1  C   UNL     1     -40.338 -52.968  13.203  1.00  0.00     0.052 A 
HETATM    2  N   UNL     1     -40.148 -51.912  12.441  1.00  0.00    -0.356 N 
ATOM      3  HN  UNL     1     -40.665 -51.711  11.586  1.00  0.00     0.166 HD
HETATM    4  C   UNL     1     -39.142 -51.107  12.966  1.00  0.00     0.024 A 
HETATM    5  C   UNL     1     -38.592 -51.588  14.142  1.00  0.00     0.077 A 
HETATM    6  S   UNL     1     -39.347 -53.051  14.603  1.00  0.00    -0.087 SA
ENDROOT
BRANCH   1   7
HETATM    7  C   UNL     1     -41.308 -54.067  12.901  1.00  0.00     0.084 C 
BRANCH   7   8
HETATM    8  C   UNL     1     -42.487 -54.062  13.875  1.00  0.00     0.129 C 
BRANCH   8   9
HETATM    9  N   UNL     1     -43.323 -52.874  13.758  1.00  0.00    -0.360 N 
HETATM   10  C   UNL     1     -44.486 -52.893  13.028  1.00  0.00     0.222 C 
HETATM   11  O   UNL     1     -44.873 -53.855  12.382  1.00  0.00    -0.273 OA
HETATM   12  H   UNL     1     -43.127 -52.082  14.357  1.00  0.00     0.162 HD
BRANCH  10  13
HETATM   13  C   UNL     1     -45.277 -51.630  13.088  1.00  0.00     0.082 A 
HETATM   14  C   UNL     1     -46.459 -51.483  14.028  1.00  0.00    -0.005 A 
HETATM   15  C   UNL     1     -46.884 -52.590  14.936  1.00  0.00     0.011 C 
HETATM   16  C   UNL     1     -46.690 -51.590  12.545  1.00  0.00     0.019 A 
ENDBRANCH  10  13
ENDBRANCH   8   9
ENDBRANCH   7   8
ENDBRANCH   1   7
BRANCH   4  17
HETATM   17  C   UNL     1     -38.739 -49.830  12.240  1.00  0.00    -0.008 C 
HETATM   18  C   UNL     1     -38.295 -48.733  13.230  1.00  0.00     0.021 C 
HETATM   19  C   UNL     1     -37.564 -50.114  11.284  1.00  0.00     0.021 C 
HETATM   20  C   UNL     1     -39.927 -49.283  11.425  1.00  0.00     0.021 C 
ENDBRANCH   4  17
TORSDOF 5
ENDMDL
MODEL 4
REMARK VINA RESULT:      -5.4      2.455      6.098
REMARK  5 active torsions:
REMARK  status: ('A' for Active; 'I' for Inactive)
REMARK    1  A    between atoms: C_4  and  C_5 
REMARK       I    between atoms: C_5  and  N_7 
REMARK    2  A    between atoms: N_7  and  C_8 
REMARK    3  A    between atoms: C_8  and  C_9 
REMARK    4  A    between atoms: C_9  and  C_10 
REMARK    5  A    between atoms: C_13  and  C_16 
ROOT
HETATM    1  C   UNL     1     -42.489 -52.751  12.635  1.00  0.00     0.052 A 
HETATM    2  N   UNL     1     -43.662 -52.157  12.699  1.00  0.00    -0.356 N 
ATOM      3  HN  UNL     1     -43.957 -51.388  12.099  1.00  0.00     0.166 HD
HETATM    4  C   UNL     1     -44.442 -52.724  13.701  1.00  0.00     0.024 A 
HETATM    5  C   UNL     1     -43.822 -53.762  14.377  1.00  0.00     0.077 A 
HETATM    6  S   UNL     1     -42.257 -54.039  13.748  1.00  0.00    -0.087 SA
ENDROOT
BRANCH   1   7
HETATM    7  C   UNL     1     -41.387 -52.353  11.704  1.00  0.00     0.084 C 
BRANCH   7   8
HETATM    8  C   UNL     1     -40.718 -51.050  12.146  1.00  0.00     0.129 C 
BRANCH   8   9
HETATM    9  N   UNL     1     -40.934 -49.950  11.216  1.00  0.00    -0.360 N 
HETATM   10  C   UNL     1     -41.950 -49.046  11.408  1.00  0.00     0.222 C 
HETATM   11  O   UNL     1     -42.773 -49.124  12.308  1.00  0.00    -0.273 OA
HETATM   12  H   UNL     1     -40.226 -49.757  10.519  1.00  0.00     0.162 HD
BRANCH  10  13
HETATM   13  C   UNL     1     -41.976 -47.924  10.426  1.00  0.00     0.082 A 
HETATM   14  C   UNL     1     -41.238 -46.626  10.692  1.00  0.00    -0.005 A 
HETATM   15  C   UNL     1     -40.451 -46.411  11.942  1.00  0.00     0.011 C 
HETATM   16  C   UNL     1     -42.742 -46.655  10.740  1.00  0.00     0.019 A 
ENDBRANCH  10  13
ENDBRANCH   8   9
ENDBRANCH   7   8
ENDBRANCH   1   7
BRANCH   4  17
HETATM   17  C   UNL     1     -45.841 -52.185  13.968  1.00  0.00    -0.008 C 
HETATM   18  C   UNL     1     -45.825 -51.079  15.043  1.00  0.00     0.021 C 
HETATM   19  C   UNL     1     -46.431 -51.586  12.676  1.00  0.00     0.021 C 
HETATM   20  C   UNL     1     -46.763 -53.317  14.462  1.00  0.00     0.021 C 
ENDBRANCH   4  17
TORSDOF 5
ENDMDL
MODEL 5
REMARK VINA RESULT:      -5.4      3.982      5.173
REMARK  5 active torsions:
REMARK  status: ('A' for Active; 'I' for Inactive)
REMARK    1  A    between atoms: C_4  and  C_5 
REMARK       I    between atoms: C_5  and  N_7 
REMARK    2  A    between atoms: N_7  and  C_8 
REMARK    3  A    between atoms: C_8  and  C_9 
REMARK    4  A    between atoms: C_9  and  C_10 
REMARK    5  A    between atoms: C_13  and  C_16 
ROOT
HETATM    1  C   UNL     1     -40.838 -52.549  13.537  1.00  0.00     0.052 A 
HETATM    2  N   UNL     1     -39.706 -51.906  13.734  1.00  0.00    -0.356 N 
ATOM      3  HN  UNL     1     -39.040 -52.116  14.477  1.00  0.00     0.166 HD
HETATM    4  C   UNL     1     -39.545 -50.901  12.786  1.00  0.00     0.024 A 
HETATM    5  C   UNL     1     -40.583 -50.816  11.874  1.00  0.00     0.077 A 
HETATM    6  S   UNL     1     -41.764 -52.009  12.195  1.00  0.00    -0.087 SA
ENDROOT
BRANCH   1   7
HETATM    7  C   UNL     1     -41.348 -53.653  14.409  1.00  0.00     0.084 C 
BRANCH   7   8
HETATM    8  C   UNL     1     -42.497 -54.412  13.744  1.00  0.00     0.129 C 
BRANCH   8   9
HETATM    9  N   UNL     1     -43.772 -54.238  14.429  1.00  0.00    -0.360 N 
HETATM   10  C   UNL     1     -44.957 -54.226  13.734  1.00  0.00     0.222 C 
HETATM   11  O   UNL     1     -45.036 -54.290  12.516  1.00  0.00    -0.273 OA
HETATM   12  H   UNL     1     -43.791 -54.296  15.439  1.00  0.00     0.162 HD
BRANCH  10  13
HETATM   13  C   UNL     1     -46.176 -54.140  14.588  1.00  0.00     0.082 A 
HETATM   14  C   UNL     1     -46.905 -52.825  14.792  1.00  0.00    -0.005 A 
HETATM   15  C   UNL     1     -46.442 -51.561  14.147  1.00  0.00     0.011 C 
HETATM   16  C   UNL     1     -46.121 -53.429  15.925  1.00  0.00     0.019 A 
ENDBRANCH  10  13
ENDBRANCH   8   9
ENDBRANCH   7   8
ENDBRANCH   1   7
BRANCH   4  17
HETATM   17  C   UNL     1     -38.307 -50.015  12.827  1.00  0.00    -0.008 C 
HETATM   18  C   UNL     1     -37.409 -50.353  14.035  1.00  0.00     0.021 C 
HETATM   19  C   UNL     1     -37.475 -50.210  11.544  1.00  0.00     0.021 C 
HETATM   20  C   UNL     1     -38.717 -48.533  12.938  1.00  0.00     0.021 C 
ENDBRANCH   4  17
TORSDOF 5
ENDMDL
MODEL 6
REMARK VINA RESULT:      -5.4      2.616      3.232
REMARK  5 active torsions:
REMARK  status: ('A' for Active; 'I' for Inactive)
REMARK    1  A    between atoms: C_4  and  C_5 
REMARK       I    between atoms: C_5  and  N_7 
REMARK    2  A    between atoms: N_7  and  C_8 
REMARK    3  A    between atoms: C_8  and  C_9 
REMARK    4  A    between atoms: C_9  and  C_10 
REMARK    5  A    between atoms: C_13  and  C_16 
ROOT
HETATM    1  C   UNL     1     -41.434 -48.612  11.225  1.00  0.00     0.052 A 
HETATM    2  N   UNL     1     -42.262 -48.561  10.203  1.00  0.00    -0.356 N 
ATOM      3  HN  UNL     1     -42.349 -49.284   9.488  1.00  0.00     0.166 HD
HETATM    4  C   UNL     1     -43.002 -47.384  10.233  1.00  0.00     0.024 A 
HETATM    5  C   UNL     1     -42.709 -46.562  11.307  1.00  0.00     0.077 A 
HETATM    6  S   UNL     1     -41.508 -47.271  12.295  1.00  0.00    -0.087 SA
ENDROOT
BRANCH   1   7
HETATM    7  C   UNL     1     -40.453 -49.716  11.466  1.00  0.00     0.084 C 
BRANCH   7   8
HETATM    8  C   UNL     1     -39.782 -49.586  12.835  1.00  0.00     0.129 C 
BRANCH   8   9
HETATM    9  N   UNL     1     -39.912 -50.785  13.652  1.00  0.00    -0.360 N 
HETATM   10  C   UNL     1     -38.979 -51.791  13.591  1.00  0.00     0.222 C 
HETATM   11  O   UNL     1     -38.028 -51.796  12.823  1.00  0.00    -0.273 OA
HETATM   12  H   UNL     1     -40.605 -50.797  14.390  1.00  0.00     0.162 HD
BRANCH  10  13
HETATM   13  C   UNL     1     -39.200 -52.903  14.560  1.00  0.00     0.082 A 
HETATM   14  C   UNL     1     -40.132 -54.056  14.239  1.00  0.00    -0.005 A 
HETATM   15  C   UNL     1     -40.867 -54.135  12.941  1.00  0.00     0.011 C 
HETATM   16  C   UNL     1     -40.529 -53.038  15.273  1.00  0.00     0.019 A 
ENDBRANCH  10  13
ENDBRANCH   8   9
ENDBRANCH   7   8
ENDBRANCH   1   7
BRANCH   4  17
HETATM   17  C   UNL     1     -44.020 -47.102   9.135  1.00  0.00    -0.008 C 
HETATM   18  C   UNL     1     -45.416 -47.643   9.506  1.00  0.00     0.021 C 
HETATM   19  C   UNL     1     -44.141 -45.582   8.905  1.00  0.00     0.021 C 
HETATM   20  C   UNL     1     -43.584 -47.774   7.818  1.00  0.00     0.021 C 
ENDBRANCH   4  17
TORSDOF 5
ENDMDL
MODEL 7
REMARK VINA RESULT:      -5.1      3.063      4.900
REMARK  5 active torsions:
REMARK  status: ('A' for Active; 'I' for Inactive)
REMARK    1  A    between atoms: C_4  and  C_5 
REMARK       I    between atoms: C_5  and  N_7 
REMARK    2  A    between atoms: N_7  and  C_8 
REMARK    3  A    between atoms: C_8  and  C_9 
REMARK    4  A    between atoms: C_9  and  C_10 
REMARK    5  A    between atoms: C_13  and  C_16 
ROOT
HETATM    1  C   UNL     1     -42.853 -50.084  12.956  1.00  0.00     0.052 A 
HETATM    2  N   UNL     1     -43.909 -50.824  12.690  1.00  0.00    -0.356 N 
ATOM      3  HN  UNL     1     -44.137 -51.203  11.772  1.00  0.00     0.166 HD
HETATM    4  C   UNL     1     -44.670 -51.017  13.838  1.00  0.00     0.024 A 
HETATM    5  C   UNL     1     -44.151 -50.407  14.967  1.00  0.00     0.077 A 
HETATM    6  S   UNL     1     -42.693 -49.597  14.595  1.00  0.00    -0.087 SA
ENDROOT
BRANCH   1   7
HETATM    7  C   UNL     1     -41.852 -49.640  11.937  1.00  0.00     0.084 C 
BRANCH   7   8
HETATM    8  C   UNL     1     -40.486 -50.291  12.165  1.00  0.00     0.129 C 
BRANCH   8   9
HETATM    9  N   UNL     1     -40.563 -51.734  12.347  1.00  0.00    -0.360 N 
HETATM   10  C   UNL     1     -39.946 -52.352  13.408  1.00  0.00     0.222 C 
HETATM   11  O   UNL     1     -39.248 -51.770  14.225  1.00  0.00    -0.273 OA
HETATM   12  H   UNL     1     -41.215 -52.261  11.779  1.00  0.00     0.162 HD
BRANCH  10  13
HETATM   13  C   UNL     1     -40.202 -53.817  13.508  1.00  0.00     0.082 A 
HETATM   14  C   UNL     1     -41.304 -54.367  14.394  1.00  0.00    -0.005 A 
HETATM   15  C   UNL     1     -42.182 -53.472  15.203  1.00  0.00     0.011 C 
HETATM   16  C   UNL     1     -39.863 -54.564  14.781  1.00  0.00     0.019 A 
ENDBRANCH  10  13
ENDBRANCH   8   9
ENDBRANCH   7   8
ENDBRANCH   1   7
BRANCH   4  17
HETATM   17  C   UNL     1     -45.953 -51.836  13.766  1.00  0.00    -0.008 C 
HETATM   18  C   UNL     1     -45.665 -53.347  13.876  1.00  0.00     0.021 C 
HETATM   19  C   UNL     1     -46.895 -51.443  14.922  1.00  0.00     0.021 C 
HETATM   20  C   UNL     1     -46.671 -51.583  12.426  1.00  0.00     0.021 C 
ENDBRANCH   4  17
TORSDOF 5
ENDMDL
MODEL 8
REMARK VINA RESULT:      -5.0      3.390      4.877
REMARK  5 active torsions:
REMARK  status: ('A' for Active; 'I' for Inactive)
REMARK    1  A    between atoms: C_4  and  C_5 
REMARK       I    between atoms: C_5  and  N_7 
REMARK    2  A    between atoms: N_7  and  C_8 
REMARK    3  A    between atoms: C_8  and  C_9 
REMARK    4  A    between atoms: C_9  and  C_10 
REMARK    5  A    between atoms: C_13  and  C_16 
ROOT
HETATM    1  C   UNL     1     -41.675 -53.303  14.342  1.00  0.00     0.052 A 
HETATM    2  N   UNL     1     -41.703 -51.994  14.484  1.00  0.00    -0.356 N 
ATOM      3  HN  UNL     1     -41.965 -51.508  15.341  1.00  0.00     0.166 HD
HETATM    4  C   UNL     1     -41.325 -51.367  13.301  1.00  0.00     0.024 A 
HETATM    5  C   UNL     1     -41.009 -52.243  12.276  1.00  0.00     0.077 A 
HETATM    6  S   UNL     1     -41.172 -53.862  12.798  1.00  0.00    -0.087 SA
ENDROOT
BRANCH   1   7
HETATM    7  C   UNL     1     -42.076 -54.278  15.403  1.00  0.00     0.084 C 
BRANCH   7   8
HETATM    8  C   UNL     1     -43.388 -54.983  15.055  1.00  0.00     0.129 C 
BRANCH   8   9
HETATM    9  N   UNL     1     -44.531 -54.080  15.014  1.00  0.00    -0.360 N 
HETATM   10  C   UNL     1     -45.327 -53.991  13.898  1.00  0.00     0.222 C 
HETATM   11  O   UNL     1     -45.113 -54.592  12.855  1.00  0.00    -0.273 OA
HETATM   12  H   UNL     1     -44.835 -53.642  15.874  1.00  0.00     0.162 HD
BRANCH  10  13
HETATM   13  C   UNL     1     -46.511 -53.098  14.050  1.00  0.00     0.082 A 
HETATM   14  C   UNL     1     -46.432 -51.619  13.722  1.00  0.00    -0.005 A 
HETATM   15  C   UNL     1     -45.170 -50.990  13.231  1.00  0.00     0.011 C 
HETATM   16  C   UNL     1     -46.548 -52.063  15.155  1.00  0.00     0.019 A 
ENDBRANCH  10  13
ENDBRANCH   8   9
ENDBRANCH   7   8
ENDBRANCH   1   7
BRANCH   4  17
HETATM   17  C   UNL     1     -41.297 -49.846  13.227  1.00  0.00    -0.008 C 
HETATM   18  C   UNL     1     -39.855 -49.303  13.307  1.00  0.00     0.021 C 
HETATM   19  C   UNL     1     -41.913 -49.371  11.896  1.00  0.00     0.021 C 
HETATM   20  C   UNL     1     -42.100 -49.241  14.395  1.00  0.00     0.021 C 
ENDBRANCH   4  17
TORSDOF 5
ENDMDL
MODEL 9
REMARK VINA RESULT:      -5.0      4.377      5.720
REMARK  5 active torsions:
REMARK  status: ('A' for Active; 'I' for Inactive)
REMARK    1  A    between atoms: C_4  and  C_5 
REMARK       I    between atoms: C_5  and  N_7 
REMARK    2  A    between atoms: N_7  and  C_8 
REMARK    3  A    between atoms: C_8  and  C_9 
REMARK    4  A    between atoms: C_9  and  C_10 
REMARK    5  A    between atoms: C_13  and  C_16 
ROOT
HETATM    1  C   UNL     1     -40.155 -53.163  14.810  1.00  0.00     0.052 A 
HETATM    2  N   UNL     1     -39.802 -52.413  13.788  1.00  0.00    -0.356 N 
ATOM      3  HN  UNL     1     -40.153 -52.524  12.837  1.00  0.00     0.166 HD
HETATM    4  C   UNL     1     -38.886 -51.445  14.186  1.00  0.00     0.024 A 
HETATM    5  C   UNL     1     -38.569 -51.491  15.533  1.00  0.00     0.077 A 
HETATM    6  S   UNL     1     -39.433 -52.744  16.311  1.00  0.00    -0.087 SA
ENDROOT
BRANCH   1   7
HETATM    7  C   UNL     1     -41.084 -54.333  14.722  1.00  0.00     0.084 C 
BRANCH   7   8
HETATM    8  C   UNL     1     -42.235 -54.066  13.750  1.00  0.00     0.129 C 
BRANCH   8   9
HETATM    9  N   UNL     1     -43.546 -54.129  14.384  1.00  0.00    -0.360 N 
HETATM   10  C   UNL     1     -44.687 -54.302  13.640  1.00  0.00     0.222 C 
HETATM   11  O   UNL     1     -44.707 -54.349  12.418  1.00  0.00    -0.273 OA
HETATM   12  H   UNL     1     -43.594 -54.214  15.391  1.00  0.00     0.162 HD
BRANCH  10  13
HETATM   13  C   UNL     1     -45.936 -54.446  14.442  1.00  0.00     0.082 A 
HETATM   14  C   UNL     1     -46.851 -53.264  14.697  1.00  0.00    -0.005 A 
HETATM   15  C   UNL     1     -46.549 -51.905  14.157  1.00  0.00     0.011 C 
HETATM   16  C   UNL     1     -46.029 -53.830  15.823  1.00  0.00     0.019 A 
ENDBRANCH  10  13
ENDBRANCH   8   9
ENDBRANCH   7   8
ENDBRANCH   1   7
BRANCH   4  17
HETATM   17  C   UNL     1     -38.325 -50.467  13.162  1.00  0.00    -0.008 C 
HETATM   18  C   UNL     1     -39.402 -50.035  12.145  1.00  0.00     0.021 C 
HETATM   19  C   UNL     1     -37.803 -49.202  13.871  1.00  0.00     0.021 C 
HETATM   20  C   UNL     1     -37.167 -51.118  12.381  1.00  0.00     0.021 C 
ENDBRANCH   4  17
TORSDOF 5
ENDMDL
