MODEL 1
REMARK VINA RESULT:      -6.3      0.000      0.000
REMARK  5 active torsions:
REMARK  status: ('A' for Active; 'I' for Inactive)
REMARK    1  A    between atoms: C_2  and  N_5 
REMARK    2  A    between atoms: C_8  and  N_9 
REMARK       I    between atoms: N_9  and  C_10 
REMARK       I    between atoms: C_10  and  N_12 
REMARK    3  A    between atoms: N_12  and  C_13 
REMARK    4  A    between atoms: C_18  and  C_19 
REMARK    5  A    between atoms: C_19  and  O_20 
ROOT
HETATM    1  N   UNL     1     -41.328 -50.020  11.695  1.00  0.00    -0.294 N 
HETATM    2  C   UNL     1     -41.736 -51.219  12.218  1.00  0.00     0.322 C 
HETATM    3  O   UNL     1     -40.926 -52.123  12.406  1.00  0.00    -0.247 OA
HETATM    4  N   UNL     1     -43.044 -51.286  12.607  1.00  0.00    -0.338 N 
HETATM    5  H   UNL     1     -40.331 -49.936  11.546  1.00  0.00     0.172 HD
HETATM    6  H   UNL     1     -43.624 -50.525  12.249  1.00  0.00     0.164 HD
ENDROOT
BRANCH   1   7
HETATM    7  C   UNL     1     -42.116 -48.927  11.414  1.00  0.00     0.125 A 
HETATM    8  C   UNL     1     -42.476 -47.919  12.332  1.00  0.00     0.069 A 
HETATM    9  C   UNL     1     -43.297 -47.066  11.626  1.00  0.00     0.115 A 
HETATM   10  N   UNL     1     -43.338 -47.543  10.346  1.00  0.00    -0.293 N 
HETATM   11  N   UNL     1     -42.659 -48.700  10.214  1.00  0.00    -0.283 N 
ATOM     12  HN  UNL     1     -42.576 -49.279   9.378  1.00  0.00     0.189 HD
BRANCH  10  13
HETATM   13  C   UNL     1     -44.102 -47.028   9.195  1.00  0.00     0.042 C 
HETATM   14  C   UNL     1     -45.611 -47.298   9.326  1.00  0.00     0.039 C 
HETATM   15  C   UNL     1     -43.562 -47.689   7.915  1.00  0.00     0.039 C 
HETATM   16  C   UNL     1     -43.947 -45.500   9.071  1.00  0.00     0.039 C 
ENDBRANCH  10  13
ENDBRANCH   1   7
BRANCH   4  17
HETATM   17  C   UNL     1     -43.684 -52.410  13.273  1.00  0.00     0.092 C 
HETATM   18  C   UNL     1     -44.929 -52.855  12.488  1.00  0.00     0.026 C 
HETATM   19  C   UNL     1     -46.096 -51.879  12.607  1.00  0.00     0.002 C 
HETATM   20  C   UNL     1     -46.418 -51.483  14.043  1.00  0.00     0.001 C 
HETATM   21  C   UNL     1     -45.181 -51.026  14.807  1.00  0.00     0.009 C 
HETATM   22  C   UNL     1     -44.060 -52.075  14.738  1.00  0.00     0.032 C 
BRANCH  22  23
HETATM   23  C   UNL     1     -42.851 -51.661  15.589  1.00  0.00     0.170 C 
BRANCH  23  24
HETATM   24  O   UNL     1     -41.703 -52.460  15.336  1.00  0.00    -0.400 OA
HETATM   25  H   UNL     1     -41.351 -52.721  16.208  1.00  0.00     0.209 HD
ENDBRANCH  23  24
ENDBRANCH  22  23
ENDBRANCH   4  17
TORSDOF 5
ENDMDL
MODEL 2
REMARK VINA RESULT:      -5.7      1.931      2.443
REMARK  5 active torsions:
REMARK  status: ('A' for Active; 'I' for Inactive)
REMARK    1  A    between atoms: C_2  and  N_5 
REMARK    2  A    between atoms: C_8  and  N_9 
REMARK       I    between atoms: N_9  and  C_10 
REMARK       I    between atoms: C_10  and  N_12 
REMARK    3  A    between atoms: N_12  and  C_13 
REMARK    4  A    between atoms: C_18  and  C_19 
REMARK    5  A    between atoms: C_19  and  O_20 
ROOT
HETATM    1  N   UNL     1     -39.953 -48.673  11.036  1.00  0.00    -0.294 N 
HETATM    2  C   UNL     1     -39.563 -49.876  11.564  1.00  0.00     0.322 C 
HETATM    3  O   UNL     1     -38.378 -50.198  11.570  1.00  0.00    -0.247 OA
HETATM    4  N   UNL     1     -40.547 -50.611  12.163  1.00  0.00    -0.338 N 
HETATM    5  H   UNL     1     -39.196 -48.078  10.726  1.00  0.00     0.172 HD
HETATM    6  H   UNL     1     -41.494 -50.297  11.944  1.00  0.00     0.164 HD
ENDROOT
BRANCH   1   7
HETATM    7  C   UNL     1     -41.237 -48.185  10.943  1.00  0.00     0.125 A 
HETATM    8  C   UNL     1     -42.061 -47.834  12.032  1.00  0.00     0.069 A 
HETATM    9  C   UNL     1     -43.255 -47.443  11.468  1.00  0.00     0.115 A 
HETATM   10  N   UNL     1     -43.082 -47.508  10.114  1.00  0.00    -0.293 N 
HETATM   11  N   UNL     1     -41.871 -48.001   9.782  1.00  0.00    -0.283 N 
ATOM     12  HN  UNL     1     -41.516 -48.192   8.845  1.00  0.00     0.189 HD
BRANCH  10  13
HETATM   13  C   UNL     1     -44.060 -47.235   9.046  1.00  0.00     0.042 C 
HETATM   14  C   UNL     1     -45.464 -47.760   9.388  1.00  0.00     0.039 C 
HETATM   15  C   UNL     1     -43.559 -47.891   7.747  1.00  0.00     0.039 C 
HETATM   16  C   UNL     1     -44.212 -45.720   8.813  1.00  0.00     0.039 C 
ENDBRANCH  10  13
ENDBRANCH   1   7
BRANCH   4  17
HETATM   17  C   UNL     1     -40.367 -51.868  12.874  1.00  0.00     0.092 C 
HETATM   18  C   UNL     1     -41.221 -52.972  12.229  1.00  0.00     0.026 C 
HETATM   19  C   UNL     1     -42.714 -52.815  12.505  1.00  0.00     0.002 C 
HETATM   20  C   UNL     1     -43.044 -52.600  13.977  1.00  0.00     0.001 C 
HETATM   21  C   UNL     1     -42.205 -51.493  14.602  1.00  0.00     0.009 C 
HETATM   22  C   UNL     1     -40.704 -51.733  14.379  1.00  0.00     0.032 C 
BRANCH  22  23
HETATM   23  C   UNL     1     -39.854 -50.672  15.092  1.00  0.00     0.170 C 
BRANCH  23  24
HETATM   24  O   UNL     1     -40.394 -49.364  14.969  1.00  0.00    -0.400 OA
HETATM   25  H   UNL     1     -41.354 -49.472  14.837  1.00  0.00     0.209 HD
ENDBRANCH  23  24
ENDBRANCH  22  23
ENDBRANCH   4  17
TORSDOF 5
ENDMDL
MODEL 3
REMARK VINA RESULT:      -5.6      2.883      4.001
REMARK  5 active torsions:
REMARK  status: ('A' for Active; 'I' for Inactive)
REMARK    1  A    between atoms: C_2  and  N_5 
REMARK    2  A    between atoms: C_8  and  N_9 
REMARK       I    between atoms: N_9  and  C_10 
REMARK       I    between atoms: C_10  and  N_12 
REMARK    3  A    between atoms: N_12  and  C_13 
REMARK    4  A    between atoms: C_18  and  C_19 
REMARK    5  A    between atoms: C_19  and  O_20 
ROOT
HETATM    1  N   UNL     1     -43.490 -53.776  12.338  1.00  0.00    -0.294 N 
HETATM    2  C   UNL     1     -44.557 -54.084  13.142  1.00  0.00     0.322 C 
HETATM    3  O   UNL     1     -45.307 -55.012  12.851  1.00  0.00    -0.247 OA
HETATM    4  N   UNL     1     -44.648 -53.377  14.307  1.00  0.00    -0.338 N 
HETATM    5  H   UNL     1     -43.352 -54.401  11.554  1.00  0.00     0.172 HD
HETATM    6  H   UNL     1     -44.056 -52.545  14.337  1.00  0.00     0.164 HD
ENDROOT
BRANCH   1   7
HETATM    7  C   UNL     1     -42.578 -52.762  12.522  1.00  0.00     0.125 A 
HETATM    8  C   UNL     1     -41.296 -52.907  13.091  1.00  0.00     0.069 A 
HETATM    9  C   UNL     1     -40.766 -51.636  13.113  1.00  0.00     0.115 A 
HETATM   10  N   UNL     1     -41.690 -50.823  12.517  1.00  0.00    -0.293 N 
HETATM   11  N   UNL     1     -42.816 -51.490  12.193  1.00  0.00    -0.283 N 
ATOM     12  HN  UNL     1     -43.668 -51.105  11.783  1.00  0.00     0.189 HD
BRANCH  10  13
HETATM   13  C   UNL     1     -41.641 -49.364  12.318  1.00  0.00     0.042 C 
HETATM   14  C   UNL     1     -43.043 -48.741  12.203  1.00  0.00     0.039 C 
HETATM   15  C   UNL     1     -40.834 -49.071  11.041  1.00  0.00     0.039 C 
HETATM   16  C   UNL     1     -40.957 -48.668  13.511  1.00  0.00     0.039 C 
ENDBRANCH  10  13
ENDBRANCH   1   7
BRANCH   4  17
HETATM   17  C   UNL     1     -45.629 -53.585  15.362  1.00  0.00     0.092 C 
HETATM   18  C   UNL     1     -46.943 -52.866  15.016  1.00  0.00     0.026 C 
HETATM   19  C   UNL     1     -46.850 -51.348  15.145  1.00  0.00     0.002 C 
HETATM   20  C   UNL     1     -46.257 -50.883  16.470  1.00  0.00     0.001 C 
HETATM   21  C   UNL     1     -44.946 -51.589  16.795  1.00  0.00     0.009 C 
HETATM   22  C   UNL     1     -45.103 -53.116  16.741  1.00  0.00     0.032 C 
BRANCH  22  23
HETATM   23  C   UNL     1     -43.810 -53.828  17.164  1.00  0.00     0.170 C 
BRANCH  23  24
HETATM   24  O   UNL     1     -43.618 -55.063  16.489  1.00  0.00    -0.400 OA
HETATM   25  H   UNL     1     -43.225 -55.676  17.139  1.00  0.00     0.209 HD
ENDBRANCH  23  24
ENDBRANCH  22  23
ENDBRANCH   4  17
TORSDOF 5
ENDMDL
MODEL 4
REMARK VINA RESULT:      -5.5      3.172      4.486
REMARK  5 active torsions:
REMARK  status: ('A' for Active; 'I' for Inactive)
REMARK    1  A    between atoms: C_2  and  N_5 
REMARK    2  A    between atoms: C_8  and  N_9 
REMARK       I    between atoms: N_9  and  C_10 
REMARK       I    between atoms: C_10  and  N_12 
REMARK    3  A    between atoms: N_12  and  C_13 
REMARK    4  A    between atoms: C_18  and  C_19 
REMARK    5  A    between atoms: C_19  and  O_20 
ROOT
HETATM    1  N   UNL     1     -42.871 -52.770  11.731  1.00  0.00    -0.294 N 
HETATM    2  C   UNL     1     -43.979 -52.961  12.514  1.00  0.00     0.322 C 
HETATM    3  O   UNL     1     -45.005 -53.437  12.036  1.00  0.00    -0.247 OA
HETATM    4  N   UNL     1     -43.821 -52.696  13.845  1.00  0.00    -0.338 N 
HETATM    5  H   UNL     1     -42.958 -53.105  10.780  1.00  0.00     0.172 HD
HETATM    6  H   UNL     1     -42.976 -52.165  14.066  1.00  0.00     0.164 HD
ENDROOT
BRANCH   1   7
HETATM    7  C   UNL     1     -41.663 -52.236  12.118  1.00  0.00     0.125 A 
HETATM    8  C   UNL     1     -40.677 -52.901  12.874  1.00  0.00     0.069 A 
HETATM    9  C   UNL     1     -39.675 -51.974  13.055  1.00  0.00     0.115 A 
HETATM   10  N   UNL     1     -40.057 -50.855  12.368  1.00  0.00    -0.293 N 
HETATM   11  N   UNL     1     -41.286 -50.987  11.829  1.00  0.00    -0.283 N 
ATOM     12  HN  UNL     1     -41.815 -50.283  11.313  1.00  0.00     0.189 HD
BRANCH  10  13
HETATM   13  C   UNL     1     -39.367 -49.557  12.265  1.00  0.00     0.042 C 
HETATM   14  C   UNL     1     -38.044 -49.656  11.487  1.00  0.00     0.039 C 
HETATM   15  C   UNL     1     -39.100 -49.032  13.686  1.00  0.00     0.039 C 
HETATM   16  C   UNL     1     -40.234 -48.531  11.509  1.00  0.00     0.039 C 
ENDBRANCH  10  13
ENDBRANCH   1   7
BRANCH   4  17
HETATM   17  C   UNL     1     -44.814 -52.910  14.887  1.00  0.00     0.092 C 
HETATM   18  C   UNL     1     -45.640 -51.632  15.105  1.00  0.00     0.026 C 
HETATM   19  C   UNL     1     -44.863 -50.527  15.814  1.00  0.00     0.002 C 
HETATM   20  C   UNL     1     -44.156 -50.993  17.081  1.00  0.00     0.001 C 
HETATM   21  C   UNL     1     -43.326 -52.250  16.851  1.00  0.00     0.009 C 
HETATM   22  C   UNL     1     -44.166 -53.369  16.217  1.00  0.00     0.032 C 
BRANCH  22  23
HETATM   23  C   UNL     1     -43.357 -54.666  16.075  1.00  0.00     0.170 C 
BRANCH  23  24
HETATM   24  O   UNL     1     -43.816 -55.484  15.008  1.00  0.00    -0.400 OA
HETATM   25  H   UNL     1     -43.540 -55.043  14.182  1.00  0.00     0.209 HD
ENDBRANCH  23  24
ENDBRANCH  22  23
ENDBRANCH   4  17
TORSDOF 5
ENDMDL
MODEL 5
REMARK VINA RESULT:      -5.4      4.295      6.325
REMARK  5 active torsions:
REMARK  status: ('A' for Active; 'I' for Inactive)
REMARK    1  A    between atoms: C_2  and  N_5 
REMARK    2  A    between atoms: C_8  and  N_9 
REMARK       I    between atoms: N_9  and  C_10 
REMARK       I    between atoms: C_10  and  N_12 
REMARK    3  A    between atoms: N_12  and  C_13 
REMARK    4  A    between atoms: C_18  and  C_19 
REMARK    5  A    between atoms: C_19  and  O_20 
ROOT
HETATM    1  N   UNL     1     -42.616 -55.146  15.418  1.00  0.00    -0.294 N 
HETATM    2  C   UNL     1     -41.350 -54.644  15.268  1.00  0.00     0.322 C 
HETATM    3  O   UNL     1     -40.383 -55.253  15.717  1.00  0.00    -0.247 OA
HETATM    4  N   UNL     1     -41.244 -53.513  14.510  1.00  0.00    -0.338 N 
HETATM    5  H   UNL     1     -42.666 -56.057  15.857  1.00  0.00     0.172 HD
HETATM    6  H   UNL     1     -42.133 -53.040  14.340  1.00  0.00     0.164 HD
ENDROOT
BRANCH   1   7
HETATM    7  C   UNL     1     -43.792 -54.574  14.988  1.00  0.00     0.125 A 
HETATM    8  C   UNL     1     -44.722 -55.171  14.112  1.00  0.00     0.069 A 
HETATM    9  C   UNL     1     -45.706 -54.225  13.932  1.00  0.00     0.115 A 
HETATM   10  N   UNL     1     -45.374 -53.166  14.731  1.00  0.00    -0.293 N 
HETATM   11  N   UNL     1     -44.187 -53.349  15.345  1.00  0.00    -0.283 N 
ATOM     12  HN  UNL     1     -43.697 -52.692  15.953  1.00  0.00     0.189 HD
BRANCH  10  13
HETATM   13  C   UNL     1     -46.067 -51.875  14.885  1.00  0.00     0.042 C 
HETATM   14  C   UNL     1     -47.240 -51.955  15.877  1.00  0.00     0.039 C 
HETATM   15  C   UNL     1     -46.579 -51.428  13.505  1.00  0.00     0.039 C 
HETATM   16  C   UNL     1     -45.111 -50.799  15.435  1.00  0.00     0.039 C 
ENDBRANCH  10  13
ENDBRANCH   1   7
BRANCH   4  17
HETATM   17  C   UNL     1     -40.006 -52.849  14.129  1.00  0.00     0.092 C 
HETATM   18  C   UNL     1     -39.272 -52.335  15.379  1.00  0.00     0.026 C 
HETATM   19  C   UNL     1     -39.945 -51.123  16.016  1.00  0.00     0.002 C 
HETATM   20  C   UNL     1     -40.266 -50.011  15.025  1.00  0.00     0.001 C 
HETATM   21  C   UNL     1     -41.009 -50.527  13.798  1.00  0.00     0.009 C 
HETATM   22  C   UNL     1     -40.255 -51.689  13.134  1.00  0.00     0.032 C 
BRANCH  22  23
HETATM   23  C   UNL     1     -40.951 -52.144  11.843  1.00  0.00     0.170 C 
BRANCH  23  24
HETATM   24  O   UNL     1     -40.587 -53.463  11.460  1.00  0.00    -0.400 OA
HETATM   25  H   UNL     1     -39.952 -53.781  12.130  1.00  0.00     0.209 HD
ENDBRANCH  23  24
ENDBRANCH  22  23
ENDBRANCH   4  17
TORSDOF 5
ENDMDL
MODEL 6
REMARK VINA RESULT:      -5.4      3.123      6.466
REMARK  5 active torsions:
REMARK  status: ('A' for Active; 'I' for Inactive)
REMARK    1  A    between atoms: C_2  and  N_5 
REMARK    2  A    between atoms: C_8  and  N_9 
REMARK       I    between atoms: N_9  and  C_10 
REMARK       I    between atoms: C_10  and  N_12 
REMARK    3  A    between atoms: N_12  and  C_13 
REMARK    4  A    between atoms: C_18  and  C_19 
REMARK    5  A    between atoms: C_19  and  O_20 
ROOT
HETATM    1  N   UNL     1     -42.620 -49.309  11.644  1.00  0.00    -0.294 N 
HETATM    2  C   UNL     1     -41.391 -48.805  11.309  1.00  0.00     0.322 C 
HETATM    3  O   UNL     1     -41.283 -47.975  10.411  1.00  0.00    -0.247 OA
HETATM    4  N   UNL     1     -40.350 -49.200  12.100  1.00  0.00    -0.338 N 
HETATM    5  H   UNL     1     -43.400 -48.899  11.145  1.00  0.00     0.172 HD
HETATM    6  H   UNL     1     -40.561 -50.001  12.697  1.00  0.00     0.164 HD
ENDROOT
BRANCH   1   7
HETATM    7  C   UNL     1     -42.896 -50.250  12.610  1.00  0.00     0.125 A 
HETATM    8  C   UNL     1     -43.283 -49.973  13.937  1.00  0.00     0.069 A 
HETATM    9  C   UNL     1     -43.405 -51.205  14.541  1.00  0.00     0.115 A 
HETATM   10  N   UNL     1     -43.164 -52.136  13.569  1.00  0.00    -0.293 N 
HETATM   11  N   UNL     1     -42.810 -51.566  12.399  1.00  0.00    -0.283 N 
ATOM     12  HN  UNL     1     -42.534 -52.039  11.538  1.00  0.00     0.189 HD
BRANCH  10  13
HETATM   13  C   UNL     1     -43.128 -53.605  13.688  1.00  0.00     0.042 C 
HETATM   14  C   UNL     1     -41.774 -54.195  13.257  1.00  0.00     0.039 C 
HETATM   15  C   UNL     1     -44.254 -54.193  12.820  1.00  0.00     0.039 C 
HETATM   16  C   UNL     1     -43.344 -54.044  15.149  1.00  0.00     0.039 C 
ENDBRANCH  10  13
ENDBRANCH   1   7
BRANCH   4  17
HETATM   17  C   UNL     1     -38.975 -48.731  12.007  1.00  0.00     0.092 C 
HETATM   18  C   UNL     1     -38.038 -49.897  11.653  1.00  0.00     0.026 C 
HETATM   19  C   UNL     1     -37.824 -50.868  12.810  1.00  0.00     0.002 C 
HETATM   20  C   UNL     1     -37.445 -50.186  14.119  1.00  0.00     0.001 C 
HETATM   21  C   UNL     1     -38.390 -49.044  14.470  1.00  0.00     0.009 C 
HETATM   22  C   UNL     1     -38.510 -48.040  13.312  1.00  0.00     0.032 C 
BRANCH  22  23
HETATM   23  C   UNL     1     -39.383 -46.838  13.700  1.00  0.00     0.170 C 
BRANCH  23  24
HETATM   24  O   UNL     1     -39.857 -46.118  12.571  1.00  0.00    -0.400 OA
HETATM   25  H   UNL     1     -40.790 -45.897  12.755  1.00  0.00     0.209 HD
ENDBRANCH  23  24
ENDBRANCH  22  23
ENDBRANCH   4  17
TORSDOF 5
ENDMDL
MODEL 7
REMARK VINA RESULT:      -5.4      3.358      6.131
REMARK  5 active torsions:
REMARK  status: ('A' for Active; 'I' for Inactive)
REMARK    1  A    between atoms: C_2  and  N_5 
REMARK    2  A    between atoms: C_8  and  N_9 
REMARK       I    between atoms: N_9  and  C_10 
REMARK       I    between atoms: C_10  and  N_12 
REMARK    3  A    between atoms: N_12  and  C_13 
REMARK    4  A    between atoms: C_18  and  C_19 
REMARK    5  A    between atoms: C_19  and  O_20 
ROOT
HETATM    1  N   UNL     1     -41.650 -54.059  13.429  1.00  0.00    -0.294 N 
HETATM    2  C   UNL     1     -40.462 -53.384  13.331  1.00  0.00     0.322 C 
HETATM    3  O   UNL     1     -39.397 -53.997  13.322  1.00  0.00    -0.247 OA
HETATM    4  N   UNL     1     -40.557 -52.035  13.135  1.00  0.00    -0.338 N 
HETATM    5  H   UNL     1     -41.570 -55.068  13.429  1.00  0.00     0.172 HD
HETATM    6  H   UNL     1     -41.485 -51.652  13.320  1.00  0.00     0.164 HD
ENDROOT
BRANCH   1   7
HETATM    7  C   UNL     1     -42.913 -53.513  13.468  1.00  0.00     0.125 A 
HETATM    8  C   UNL     1     -43.796 -53.410  12.373  1.00  0.00     0.069 A 
HETATM    9  C   UNL     1     -44.909 -52.765  12.867  1.00  0.00     0.115 A 
HETATM   10  N   UNL     1     -44.684 -52.577  14.203  1.00  0.00    -0.293 N 
HETATM   11  N   UNL     1     -43.454 -52.989  14.572  1.00  0.00    -0.283 N 
ATOM     12  HN  UNL     1     -43.028 -52.916  15.496  1.00  0.00     0.189 HD
BRANCH  10  13
HETATM   13  C   UNL     1     -45.539 -51.901  15.194  1.00  0.00     0.042 C 
HETATM   14  C   UNL     1     -45.925 -52.824  16.362  1.00  0.00     0.039 C 
HETATM   15  C   UNL     1     -46.807 -51.398  14.484  1.00  0.00     0.039 C 
HETATM   16  C   UNL     1     -44.808 -50.697  15.821  1.00  0.00     0.039 C 
ENDBRANCH  10  13
ENDBRANCH   1   7
BRANCH   4  17
HETATM   17  C   UNL     1     -39.448 -51.121  12.906  1.00  0.00     0.092 C 
HETATM   18  C   UNL     1     -38.457 -51.182  14.080  1.00  0.00     0.026 C 
HETATM   19  C   UNL     1     -38.987 -50.517  15.348  1.00  0.00     0.002 C 
HETATM   20  C   UNL     1     -39.541 -49.117  15.118  1.00  0.00     0.001 C 
HETATM   21  C   UNL     1     -40.534 -49.071  13.964  1.00  0.00     0.009 C 
HETATM   22  C   UNL     1     -39.933 -49.668  12.682  1.00  0.00     0.032 C 
BRANCH  22  23
HETATM   23  C   UNL     1     -40.897 -49.533  11.495  1.00  0.00     0.170 C 
BRANCH  23  24
HETATM   24  O   UNL     1     -40.397 -50.140  10.311  1.00  0.00    -0.400 OA
HETATM   25  H   UNL     1     -39.581 -49.659  10.076  1.00  0.00     0.209 HD
ENDBRANCH  23  24
ENDBRANCH  22  23
ENDBRANCH   4  17
TORSDOF 5
ENDMDL
MODEL 8
REMARK VINA RESULT:      -5.3      2.611      5.848
REMARK  5 active torsions:
REMARK  status: ('A' for Active; 'I' for Inactive)
REMARK    1  A    between atoms: C_2  and  N_5 
REMARK    2  A    between atoms: C_8  and  N_9 
REMARK       I    between atoms: N_9  and  C_10 
REMARK       I    between atoms: C_10  and  N_12 
REMARK    3  A    between atoms: N_12  and  C_13 
REMARK    4  A    between atoms: C_18  and  C_19 
REMARK    5  A    between atoms: C_19  and  O_20 
ROOT
HETATM    1  N   UNL     1     -41.067 -51.752  11.429  1.00  0.00    -0.294 N 
HETATM    2  C   UNL     1     -40.526 -50.507  11.613  1.00  0.00     0.322 C 
HETATM    3  O   UNL     1     -39.786 -50.018  10.763  1.00  0.00    -0.247 OA
HETATM    4  N   UNL     1     -40.951 -49.830  12.721  1.00  0.00    -0.338 N 
HETATM    5  H   UNL     1     -40.857 -52.181  10.537  1.00  0.00     0.172 HD
HETATM    6  H   UNL     1     -41.435 -50.414  13.405  1.00  0.00     0.164 HD
ENDROOT
BRANCH   1   7
HETATM    7  C   UNL     1     -41.894 -52.433  12.293  1.00  0.00     0.125 A 
HETATM    8  C   UNL     1     -41.480 -53.396  13.235  1.00  0.00     0.069 A 
HETATM    9  C   UNL     1     -42.639 -53.835  13.836  1.00  0.00     0.115 A 
HETATM   10  N   UNL     1     -43.655 -53.095  13.298  1.00  0.00    -0.293 N 
HETATM   11  N   UNL     1     -43.220 -52.269  12.325  1.00  0.00    -0.283 N 
ATOM     12  HN  UNL     1     -43.782 -51.651  11.739  1.00  0.00     0.189 HD
BRANCH  10  13
HETATM   13  C   UNL     1     -45.102 -53.188  13.561  1.00  0.00     0.042 C 
HETATM   14  C   UNL     1     -45.517 -52.423  14.829  1.00  0.00     0.039 C 
HETATM   15  C   UNL     1     -45.479 -54.673  13.700  1.00  0.00     0.039 C 
HETATM   16  C   UNL     1     -45.913 -52.574  12.403  1.00  0.00     0.039 C 
ENDBRANCH  10  13
ENDBRANCH   1   7
BRANCH   4  17
HETATM   17  C   UNL     1     -40.598 -48.465  13.081  1.00  0.00     0.092 C 
HETATM   18  C   UNL     1     -40.244 -48.383  14.575  1.00  0.00     0.026 C 
HETATM   19  C   UNL     1     -41.460 -48.507  15.488  1.00  0.00     0.002 C 
HETATM   20  C   UNL     1     -42.610 -47.583  15.105  1.00  0.00     0.001 C 
HETATM   21  C   UNL     1     -42.964 -47.684  13.626  1.00  0.00     0.009 C 
HETATM   22  C   UNL     1     -41.730 -47.466  12.738  1.00  0.00     0.032 C 
BRANCH  22  23
HETATM   23  C   UNL     1     -42.103 -47.470  11.248  1.00  0.00     0.170 C 
BRANCH  23  24
HETATM   24  O   UNL     1     -40.968 -47.393  10.398  1.00  0.00    -0.400 OA
HETATM   25  H   UNL     1     -41.201 -47.872   9.581  1.00  0.00     0.209 HD
ENDBRANCH  23  24
ENDBRANCH  22  23
ENDBRANCH   4  17
TORSDOF 5
ENDMDL
MODEL 9
REMARK VINA RESULT:      -5.2      4.058      5.148
REMARK  5 active torsions:
REMARK  status: ('A' for Active; 'I' for Inactive)
REMARK    1  A    between atoms: C_2  and  N_5 
REMARK    2  A    between atoms: C_8  and  N_9 
REMARK       I    between atoms: N_9  and  C_10 
REMARK       I    between atoms: C_10  and  N_12 
REMARK    3  A    between atoms: N_12  and  C_13 
REMARK    4  A    between atoms: C_18  and  C_19 
REMARK    5  A    between atoms: C_19  and  O_20 
ROOT
HETATM    1  N   UNL     1     -41.569 -54.590  14.574  1.00  0.00    -0.294 N 
HETATM    2  C   UNL     1     -42.853 -54.922  14.916  1.00  0.00     0.322 C 
HETATM    3  O   UNL     1     -43.079 -55.928  15.584  1.00  0.00    -0.247 OA
HETATM    4  N   UNL     1     -43.816 -54.018  14.566  1.00  0.00    -0.338 N 
HETATM    5  H   UNL     1     -40.854 -55.192  14.962  1.00  0.00     0.172 HD
HETATM    6  H   UNL     1     -43.505 -53.321  13.888  1.00  0.00     0.164 HD
ENDROOT
BRANCH   1   7
HETATM    7  C   UNL     1     -41.163 -53.512  13.821  1.00  0.00     0.125 A 
HETATM    8  C   UNL     1     -41.595 -53.218  12.511  1.00  0.00     0.069 A 
HETATM    9  C   UNL     1     -40.900 -52.085  12.148  1.00  0.00     0.115 A 
HETATM   10  N   UNL     1     -40.160 -51.721  13.239  1.00  0.00    -0.293 N 
HETATM   11  N   UNL     1     -40.278 -52.607  14.249  1.00  0.00    -0.283 N 
ATOM     12  HN  UNL     1     -39.795 -52.590  15.147  1.00  0.00     0.189 HD
BRANCH  10  13
HETATM   13  C   UNL     1     -39.208 -50.605  13.376  1.00  0.00     0.042 C 
HETATM   14  C   UNL     1     -39.318 -49.906  14.742  1.00  0.00     0.039 C 
HETATM   15  C   UNL     1     -39.477 -49.593  12.248  1.00  0.00     0.039 C 
HETATM   16  C   UNL     1     -37.754 -51.103  13.263  1.00  0.00     0.039 C 
ENDBRANCH  10  13
ENDBRANCH   1   7
BRANCH   4  17
HETATM   17  C   UNL     1     -45.230 -54.098  14.901  1.00  0.00     0.092 C 
HETATM   18  C   UNL     1     -46.087 -53.908  13.638  1.00  0.00     0.026 C 
HETATM   19  C   UNL     1     -46.097 -52.469  13.130  1.00  0.00     0.002 C 
HETATM   20  C   UNL     1     -46.407 -51.440  14.211  1.00  0.00     0.001 C 
HETATM   21  C   UNL     1     -45.541 -51.627  15.450  1.00  0.00     0.009 C 
HETATM   22  C   UNL     1     -45.627 -53.065  15.984  1.00  0.00     0.032 C 
BRANCH  22  23
HETATM   23  C   UNL     1     -44.833 -53.228  17.288  1.00  0.00     0.170 C 
BRANCH  23  24
HETATM   24  O   UNL     1     -44.729 -54.583  17.701  1.00  0.00    -0.400 OA
HETATM   25  H   UNL     1     -43.958 -54.956  17.234  1.00  0.00     0.209 HD
ENDBRANCH  23  24
ENDBRANCH  22  23
ENDBRANCH   4  17
TORSDOF 5
ENDMDL
