MODEL 1
REMARK VINA RESULT:      -6.3      0.000      0.000
REMARK  7 active torsions:
REMARK  status: ('A' for Active; 'I' for Inactive)
REMARK    1  A    between atoms: O_2  and  C_3 
REMARK    2  A    between atoms: C_3  and  C_4 
REMARK    3  A    between atoms: C_4  and  N_5 
REMARK    4  A    between atoms: C_6  and  N_7 
REMARK    5  A    between atoms: N_11  and  C_12 
REMARK    6  A    between atoms: C_12  and  C_13 
REMARK       I    between atoms: C_13  and  N_15 
REMARK    7  A    between atoms: N_15  and  C_16 
ROOT
HETATM    1  N   UNL     1     -42.135 -46.862  10.729  1.00  0.00    -0.288 N 
HETATM    2  C   UNL     1     -40.879 -46.283  10.627  1.00  0.00     0.089 C 
HETATM    3  C   UNL     1     -39.858 -46.843  11.288  1.00  0.00     0.117 C 
HETATM    4  C   UNL     1     -40.037 -48.049  12.105  1.00  0.00     0.255 C 
HETATM    5  O   UNL     1     -39.052 -48.561  12.628  1.00  0.00    -0.268 OA
HETATM    6  N   UNL     1     -41.327 -48.499  12.235  1.00  0.00    -0.257 N 
HETATM    7  C   UNL     1     -42.385 -47.981  11.520  1.00  0.00     0.333 C 
HETATM    8  O   UNL     1     -43.500 -48.511  11.575  1.00  0.00    -0.246 OA
ENDROOT
BRANCH   6   9
HETATM    9  C   UNL     1     -41.589 -49.593  13.163  1.00  0.00     0.239 C 
BRANCH   9  10
HETATM   10  C   UNL     1     -41.685 -50.959  12.481  1.00  0.00     0.236 C 
HETATM   11  O   UNL     1     -40.979 -51.256  11.522  1.00  0.00    -0.272 OA
HETATM   12  N   UNL     1     -42.517 -51.875  13.094  1.00  0.00    -0.355 N 
HETATM   13  H   UNL     1     -43.058 -51.557  13.898  1.00  0.00     0.162 HD
BRANCH  12  14
HETATM   14  C   UNL     1     -42.627 -53.267  12.674  1.00  0.00     0.088 C 
HETATM   15  C   UNL     1     -44.080 -53.664  12.398  1.00  0.00     0.025 C 
HETATM   16  C   UNL     1     -44.921 -53.896  13.651  1.00  0.00     0.002 C 
HETATM   17  C   UNL     1     -44.227 -54.706  14.743  1.00  0.00     0.005 C 
HETATM   18  C   UNL     1     -42.771 -54.290  15.013  1.00  0.00    -0.013 C 
HETATM   19  C   UNL     1     -42.164 -55.254  16.040  1.00  0.00     0.010 C 
HETATM   20  C   UNL     1     -41.977 -54.242  13.686  1.00  0.00     0.008 C 
HETATM   21  C   UNL     1     -40.489 -53.923  13.868  1.00  0.00     0.012 C 
ENDBRANCH  12  14
ENDBRANCH   9  10
ENDBRANCH   6   9
BRANCH   1  22
HETATM   22  C   UNL     1     -43.300 -46.316  10.014  1.00  0.00     0.161 C 
BRANCH  22  23
HETATM   23  C   UNL     1     -43.434 -46.835   8.577  1.00  0.00     0.187 C 
BRANCH  23  24
HETATM   24  O   UNL     1     -44.531 -47.748   8.493  1.00  0.00    -0.394 OA
HETATM   25  C   UNL     1     -45.688 -47.197   9.113  1.00  0.00     0.201 C 
ENDBRANCH  23  24
ENDBRANCH  22  23
ENDBRANCH   1  22
BRANCH   2  26
HETATM   26  N   UNL     1     -40.642 -45.154   9.865  1.00  0.00    -0.288 NA
HETATM   27  H   UNL     1     -39.659 -44.897   9.836  1.00  0.00     0.125 HD
HETATM   28  H   UNL     1     -41.202 -44.350  10.135  1.00  0.00     0.125 HD
ENDBRANCH   2  26
TORSDOF 7
ENDMDL
MODEL 2
REMARK VINA RESULT:      -6.2      2.228      3.327
REMARK  7 active torsions:
REMARK  status: ('A' for Active; 'I' for Inactive)
REMARK    1  A    between atoms: O_2  and  C_3 
REMARK    2  A    between atoms: C_3  and  C_4 
REMARK    3  A    between atoms: C_4  and  N_5 
REMARK    4  A    between atoms: C_6  and  N_7 
REMARK    5  A    between atoms: N_11  and  C_12 
REMARK    6  A    between atoms: C_12  and  C_13 
REMARK       I    between atoms: C_13  and  N_15 
REMARK    7  A    between atoms: N_15  and  C_16 
ROOT
HETATM    1  N   UNL     1     -41.136 -48.426  12.714  1.00  0.00    -0.288 N 
HETATM    2  C   UNL     1     -40.063 -48.530  11.843  1.00  0.00     0.089 C 
HETATM    3  C   UNL     1     -39.362 -49.671  11.822  1.00  0.00     0.117 C 
HETATM    4  C   UNL     1     -39.707 -50.804  12.688  1.00  0.00     0.255 C 
HETATM    5  O   UNL     1     -39.076 -51.850  12.572  1.00  0.00    -0.268 OA
HETATM    6  N   UNL     1     -40.717 -50.584  13.591  1.00  0.00    -0.257 N 
HETATM    7  C   UNL     1     -41.494 -49.445  13.594  1.00  0.00     0.333 C 
HETATM    8  O   UNL     1     -42.475 -49.355  14.340  1.00  0.00    -0.246 OA
ENDROOT
BRANCH   6   9
HETATM    9  C   UNL     1     -40.995 -51.613  14.585  1.00  0.00     0.239 C 
BRANCH   9  10
HETATM   10  C   UNL     1     -42.072 -52.607  14.146  1.00  0.00     0.236 C 
HETATM   11  O   UNL     1     -41.788 -53.685  13.630  1.00  0.00    -0.272 OA
HETATM   12  N   UNL     1     -43.368 -52.273  14.487  1.00  0.00    -0.355 N 
HETATM   13  H   UNL     1     -43.520 -51.367  14.929  1.00  0.00     0.162 HD
BRANCH  12  14
HETATM   14  C   UNL     1     -44.506 -53.159  14.279  1.00  0.00     0.088 C 
HETATM   15  C   UNL     1     -45.115 -52.986  12.885  1.00  0.00     0.025 C 
HETATM   16  C   UNL     1     -45.966 -51.729  12.718  1.00  0.00     0.002 C 
HETATM   17  C   UNL     1     -46.917 -51.445  13.878  1.00  0.00     0.005 C 
HETATM   18  C   UNL     1     -46.289 -51.617  15.271  1.00  0.00    -0.013 C 
HETATM   19  C   UNL     1     -47.377 -51.417  16.333  1.00  0.00     0.010 C 
HETATM   20  C   UNL     1     -45.590 -52.994  15.373  1.00  0.00     0.008 C 
HETATM   21  C   UNL     1     -45.010 -53.291  16.761  1.00  0.00     0.012 C 
ENDBRANCH  12  14
ENDBRANCH   9  10
ENDBRANCH   6   9
BRANCH   1  22
HETATM   22  C   UNL     1     -41.966 -47.211  12.777  1.00  0.00     0.161 C 
BRANCH  22  23
HETATM   23  C   UNL     1     -43.116 -47.202  11.763  1.00  0.00     0.187 C 
BRANCH  23  24
HETATM   24  O   UNL     1     -42.657 -46.670  10.518  1.00  0.00    -0.394 OA
HETATM   25  C   UNL     1     -43.061 -47.506   9.437  1.00  0.00     0.201 C 
ENDBRANCH  23  24
ENDBRANCH  22  23
ENDBRANCH   1  22
BRANCH   2  26
HETATM   26  N   UNL     1     -39.693 -47.504  10.993  1.00  0.00    -0.288 NA
HETATM   27  H   UNL     1     -39.878 -46.584  11.381  1.00  0.00     0.125 HD
HETATM   28  H   UNL     1     -40.098 -47.574  10.062  1.00  0.00     0.125 HD
ENDBRANCH   2  26
TORSDOF 7
ENDMDL
MODEL 3
REMARK VINA RESULT:      -6.0      1.746      2.879
REMARK  7 active torsions:
REMARK  status: ('A' for Active; 'I' for Inactive)
REMARK    1  A    between atoms: O_2  and  C_3 
REMARK    2  A    between atoms: C_3  and  C_4 
REMARK    3  A    between atoms: C_4  and  N_5 
REMARK    4  A    between atoms: C_6  and  N_7 
REMARK    5  A    between atoms: N_11  and  C_12 
REMARK    6  A    between atoms: C_12  and  C_13 
REMARK       I    between atoms: C_13  and  N_15 
REMARK    7  A    between atoms: N_15  and  C_16 
ROOT
HETATM    1  N   UNL     1     -42.210 -46.887  10.282  1.00  0.00    -0.288 N 
HETATM    2  C   UNL     1     -42.219 -45.547  10.637  1.00  0.00     0.089 C 
HETATM    3  C   UNL     1     -41.303 -45.108  11.511  1.00  0.00     0.117 C 
HETATM    4  C   UNL     1     -40.297 -46.006  12.089  1.00  0.00     0.255 C 
HETATM    5  O   UNL     1     -39.437 -45.533  12.826  1.00  0.00    -0.268 OA
HETATM    6  N   UNL     1     -40.420 -47.334  11.765  1.00  0.00    -0.257 N 
HETATM    7  C   UNL     1     -41.311 -47.803  10.824  1.00  0.00     0.333 C 
HETATM    8  O   UNL     1     -41.288 -48.987  10.473  1.00  0.00    -0.246 OA
ENDROOT
BRANCH   6   9
HETATM    9  C   UNL     1     -39.552 -48.295  12.435  1.00  0.00     0.239 C 
BRANCH   9  10
HETATM   10  C   UNL     1     -40.194 -48.937  13.667  1.00  0.00     0.236 C 
HETATM   11  O   UNL     1     -40.269 -48.348  14.741  1.00  0.00    -0.272 OA
HETATM   12  N   UNL     1     -40.798 -50.161  13.455  1.00  0.00    -0.355 N 
HETATM   13  H   UNL     1     -40.707 -50.578  12.529  1.00  0.00     0.162 HD
BRANCH  12  14
HETATM   14  C   UNL     1     -41.580 -50.856  14.469  1.00  0.00     0.088 C 
HETATM   15  C   UNL     1     -40.765 -51.950  15.166  1.00  0.00     0.025 C 
HETATM   16  C   UNL     1     -40.570 -53.217  14.337  1.00  0.00     0.002 C 
HETATM   17  C   UNL     1     -41.824 -53.707  13.617  1.00  0.00     0.005 C 
HETATM   18  C   UNL     1     -42.628 -52.598  12.918  1.00  0.00    -0.013 C 
HETATM   19  C   UNL     1     -43.912 -53.207  12.341  1.00  0.00     0.010 C 
HETATM   20  C   UNL     1     -42.900 -51.436  13.903  1.00  0.00     0.008 C 
HETATM   21  C   UNL     1     -43.775 -50.322  13.317  1.00  0.00     0.012 C 
ENDBRANCH  12  14
ENDBRANCH   9  10
ENDBRANCH   6   9
BRANCH   1  22
HETATM   22  C   UNL     1     -43.170 -47.437   9.311  1.00  0.00     0.161 C 
BRANCH  22  23
HETATM   23  C   UNL     1     -44.600 -47.539   9.856  1.00  0.00     0.187 C 
BRANCH  23  24
HETATM   24  O   UNL     1     -45.461 -46.666   9.120  1.00  0.00    -0.394 OA
HETATM   25  C   UNL     1     -46.791 -47.173   9.102  1.00  0.00     0.201 C 
ENDBRANCH  23  24
ENDBRANCH  22  23
ENDBRANCH   1  22
BRANCH   2  26
HETATM   26  N   UNL     1     -43.132 -44.647  10.120  1.00  0.00    -0.288 NA
HETATM   27  H   UNL     1     -43.496 -44.008  10.820  1.00  0.00     0.125 HD
HETATM   28  H   UNL     1     -43.901 -45.084   9.617  1.00  0.00     0.125 HD
ENDBRANCH   2  26
TORSDOF 7
ENDMDL
MODEL 4
REMARK VINA RESULT:      -6.0      2.388      3.525
REMARK  7 active torsions:
REMARK  status: ('A' for Active; 'I' for Inactive)
REMARK    1  A    between atoms: O_2  and  C_3 
REMARK    2  A    between atoms: C_3  and  C_4 
REMARK    3  A    between atoms: C_4  and  N_5 
REMARK    4  A    between atoms: C_6  and  N_7 
REMARK    5  A    between atoms: N_11  and  C_12 
REMARK    6  A    between atoms: C_12  and  C_13 
REMARK       I    between atoms: C_13  and  N_15 
REMARK    7  A    between atoms: N_15  and  C_16 
ROOT
HETATM    1  N   UNL     1     -40.705 -48.576  12.930  1.00  0.00    -0.288 N 
HETATM    2  C   UNL     1     -39.371 -48.339  13.221  1.00  0.00     0.089 C 
HETATM    3  C   UNL     1     -38.499 -49.349  13.101  1.00  0.00     0.117 C 
HETATM    4  C   UNL     1     -38.921 -50.685  12.666  1.00  0.00     0.255 C 
HETATM    5  O   UNL     1     -38.068 -51.551  12.502  1.00  0.00    -0.268 OA
HETATM    6  N   UNL     1     -40.272 -50.862  12.496  1.00  0.00    -0.257 N 
HETATM    7  C   UNL     1     -41.183 -49.829  12.553  1.00  0.00     0.333 C 
HETATM    8  O   UNL     1     -42.368 -50.020  12.261  1.00  0.00    -0.246 OA
ENDROOT
BRANCH   6   9
HETATM    9  C   UNL     1     -40.767 -52.206  12.224  1.00  0.00     0.239 C 
BRANCH   9  10
HETATM   10  C   UNL     1     -41.313 -52.915  13.465  1.00  0.00     0.236 C 
HETATM   11  O   UNL     1     -40.572 -53.383  14.324  1.00  0.00    -0.272 OA
HETATM   12  N   UNL     1     -42.685 -52.875  13.619  1.00  0.00    -0.355 N 
HETATM   13  H   UNL     1     -43.232 -52.453  12.869  1.00  0.00     0.162 HD
BRANCH  12  14
HETATM   14  C   UNL     1     -43.374 -53.370  14.805  1.00  0.00     0.088 C 
HETATM   15  C   UNL     1     -43.923 -54.785  14.596  1.00  0.00     0.025 C 
HETATM   16  C   UNL     1     -45.184 -54.854  13.739  1.00  0.00     0.002 C 
HETATM   17  C   UNL     1     -46.236 -53.796  14.067  1.00  0.00     0.005 C 
HETATM   18  C   UNL     1     -45.671 -52.380  14.268  1.00  0.00    -0.013 C 
HETATM   19  C   UNL     1     -46.810 -51.450  14.704  1.00  0.00     0.010 C 
HETATM   20  C   UNL     1     -44.498 -52.413  15.276  1.00  0.00     0.008 C 
HETATM   21  C   UNL     1     -43.928 -51.029  15.607  1.00  0.00     0.012 C 
ENDBRANCH  12  14
ENDBRANCH   9  10
ENDBRANCH   6   9
BRANCH   1  22
HETATM   22  C   UNL     1     -41.717 -47.510  13.018  1.00  0.00     0.161 C 
BRANCH  22  23
HETATM   23  C   UNL     1     -41.847 -46.681  11.734  1.00  0.00     0.187 C 
BRANCH  23  24
HETATM   24  O   UNL     1     -40.920 -45.593  11.766  1.00  0.00    -0.394 OA
HETATM   25  C   UNL     1     -40.142 -45.563  10.574  1.00  0.00     0.201 C 
ENDBRANCH  23  24
ENDBRANCH  22  23
ENDBRANCH   1  22
BRANCH   2  26
HETATM   26  N   UNL     1     -38.906 -47.101  13.624  1.00  0.00    -0.288 NA
HETATM   27  H   UNL     1     -38.871 -47.003  14.634  1.00  0.00     0.125 HD
HETATM   28  H   UNL     1     -39.413 -46.318  13.217  1.00  0.00     0.125 HD
ENDBRANCH   2  26
TORSDOF 7
ENDMDL
MODEL 5
REMARK VINA RESULT:      -5.9      1.599      2.831
REMARK  7 active torsions:
REMARK  status: ('A' for Active; 'I' for Inactive)
REMARK    1  A    between atoms: O_2  and  C_3 
REMARK    2  A    between atoms: C_3  and  C_4 
REMARK    3  A    between atoms: C_4  and  N_5 
REMARK    4  A    between atoms: C_6  and  N_7 
REMARK    5  A    between atoms: N_11  and  C_12 
REMARK    6  A    between atoms: C_12  and  C_13 
REMARK       I    between atoms: C_13  and  N_15 
REMARK    7  A    between atoms: N_15  and  C_16 
ROOT
HETATM    1  N   UNL     1     -40.851 -46.772  10.975  1.00  0.00    -0.288 N 
HETATM    2  C   UNL     1     -42.123 -46.662  10.435  1.00  0.00     0.089 C 
HETATM    3  C   UNL     1     -43.078 -47.495  10.868  1.00  0.00     0.117 C 
HETATM    4  C   UNL     1     -42.811 -48.507  11.896  1.00  0.00     0.255 C 
HETATM    5  O   UNL     1     -43.742 -49.193  12.307  1.00  0.00    -0.268 OA
HETATM    6  N   UNL     1     -41.505 -48.618  12.304  1.00  0.00    -0.257 N 
HETATM    7  C   UNL     1     -40.516 -47.737  11.922  1.00  0.00     0.333 C 
HETATM    8  O   UNL     1     -39.389 -47.802  12.424  1.00  0.00    -0.246 OA
ENDROOT
BRANCH   6   9
HETATM    9  C   UNL     1     -41.149 -49.711  13.200  1.00  0.00     0.239 C 
BRANCH   9  10
HETATM   10  C   UNL     1     -41.282 -51.093  12.556  1.00  0.00     0.236 C 
HETATM   11  O   UNL     1     -40.545 -51.457  11.645  1.00  0.00    -0.272 OA
HETATM   12  N   UNL     1     -42.190 -51.945  13.154  1.00  0.00    -0.355 N 
HETATM   13  H   UNL     1     -42.753 -51.573  13.919  1.00  0.00     0.162 HD
BRANCH  12  14
HETATM   14  C   UNL     1     -42.351 -53.342  12.771  1.00  0.00     0.088 C 
HETATM   15  C   UNL     1     -43.807 -53.676  12.436  1.00  0.00     0.025 C 
HETATM   16  C   UNL     1     -44.719 -53.823  13.652  1.00  0.00     0.002 C 
HETATM   17  C   UNL     1     -44.121 -54.630  14.802  1.00  0.00     0.005 C 
HETATM   18  C   UNL     1     -42.660 -54.279  15.131  1.00  0.00    -0.013 C 
HETATM   19  C   UNL     1     -42.154 -55.237  16.216  1.00  0.00     0.010 C 
HETATM   20  C   UNL     1     -41.801 -54.315  13.844  1.00  0.00     0.008 C 
HETATM   21  C   UNL     1     -40.309 -54.064  14.090  1.00  0.00     0.012 C 
ENDBRANCH  12  14
ENDBRANCH   9  10
ENDBRANCH   6   9
BRANCH   1  22
HETATM   22  C   UNL     1     -39.756 -45.877  10.565  1.00  0.00     0.161 C 
BRANCH  22  23
HETATM   23  C   UNL     1     -39.743 -44.541  11.317  1.00  0.00     0.187 C 
BRANCH  23  24
HETATM   24  O   UNL     1     -40.597 -43.606  10.655  1.00  0.00    -0.394 OA
HETATM   25  C   UNL     1     -40.808 -42.457  11.470  1.00  0.00     0.201 C 
ENDBRANCH  23  24
ENDBRANCH  22  23
ENDBRANCH   1  22
BRANCH   2  26
HETATM   26  N   UNL     1     -42.443 -45.723   9.472  1.00  0.00    -0.288 NA
HETATM   27  H   UNL     1     -42.434 -46.103   8.531  1.00  0.00     0.125 HD
HETATM   28  H   UNL     1     -41.871 -44.882   9.511  1.00  0.00     0.125 HD
ENDBRANCH   2  26
TORSDOF 7
ENDMDL
MODEL 6
REMARK VINA RESULT:      -5.9      2.515      7.701
REMARK  7 active torsions:
REMARK  status: ('A' for Active; 'I' for Inactive)
REMARK    1  A    between atoms: O_2  and  C_3 
REMARK    2  A    between atoms: C_3  and  C_4 
REMARK    3  A    between atoms: C_4  and  N_5 
REMARK    4  A    between atoms: C_6  and  N_7 
REMARK    5  A    between atoms: N_11  and  C_12 
REMARK    6  A    between atoms: C_12  and  C_13 
REMARK       I    between atoms: C_13  and  N_15 
REMARK    7  A    between atoms: N_15  and  C_16 
ROOT
HETATM    1  N   UNL     1     -43.812 -54.468  13.983  1.00  0.00    -0.288 N 
HETATM    2  C   UNL     1     -42.876 -54.944  14.888  1.00  0.00     0.089 C 
HETATM    3  C   UNL     1     -41.705 -54.302  14.996  1.00  0.00     0.117 C 
HETATM    4  C   UNL     1     -41.399 -53.114  14.191  1.00  0.00     0.255 C 
HETATM    5  O   UNL     1     -40.342 -52.523  14.387  1.00  0.00    -0.268 OA
HETATM    6  N   UNL     1     -42.337 -52.769  13.250  1.00  0.00    -0.257 N 
HETATM    7  C   UNL     1     -43.573 -53.372  13.157  1.00  0.00     0.333 C 
HETATM    8  O   UNL     1     -44.429 -52.935  12.381  1.00  0.00    -0.246 OA
ENDROOT
BRANCH   6   9
HETATM    9  C   UNL     1     -42.017 -51.700  12.312  1.00  0.00     0.239 C 
BRANCH   9  10
HETATM   10  C   UNL     1     -42.663 -50.361  12.674  1.00  0.00     0.236 C 
HETATM   11  O   UNL     1     -43.102 -50.135  13.798  1.00  0.00    -0.272 OA
HETATM   12  N   UNL     1     -42.600 -49.385  11.699  1.00  0.00    -0.355 N 
HETATM   13  H   UNL     1     -42.204 -49.645  10.796  1.00  0.00     0.162 HD
BRANCH  12  14
HETATM   14  C   UNL     1     -43.032 -48.009  11.912  1.00  0.00     0.088 C 
HETATM   15  C   UNL     1     -44.009 -47.546  10.827  1.00  0.00     0.025 C 
HETATM   16  C   UNL     1     -43.356 -47.215   9.487  1.00  0.00     0.002 C 
HETATM   17  C   UNL     1     -42.070 -46.397   9.589  1.00  0.00     0.005 C 
HETATM   18  C   UNL     1     -41.097 -46.879  10.679  1.00  0.00    -0.013 C 
HETATM   19  C   UNL     1     -39.914 -45.906  10.750  1.00  0.00     0.010 C 
HETATM   20  C   UNL     1     -41.840 -47.027  12.029  1.00  0.00     0.008 C 
HETATM   21  C   UNL     1     -40.928 -47.418  13.196  1.00  0.00     0.012 C 
ENDBRANCH  12  14
ENDBRANCH   9  10
ENDBRANCH   6   9
BRANCH   1  22
HETATM   22  C   UNL     1     -45.129 -55.108  13.824  1.00  0.00     0.161 C 
BRANCH  22  23
HETATM   23  C   UNL     1     -46.232 -54.458  14.669  1.00  0.00     0.187 C 
BRANCH  23  24
HETATM   24  O   UNL     1     -45.963 -54.666  16.057  1.00  0.00    -0.394 OA
HETATM   25  C   UNL     1     -45.898 -53.421  16.746  1.00  0.00     0.201 C 
ENDBRANCH  23  24
ENDBRANCH  22  23
ENDBRANCH   1  22
BRANCH   2  26
HETATM   26  N   UNL     1     -43.106 -56.050  15.684  1.00  0.00    -0.288 NA
HETATM   27  H   UNL     1     -43.054 -56.924  15.169  1.00  0.00     0.125 HD
HETATM   28  H   UNL     1     -43.978 -56.007  16.206  1.00  0.00     0.125 HD
ENDBRANCH   2  26
TORSDOF 7
ENDMDL
MODEL 7
REMARK VINA RESULT:      -5.9      2.010      2.801
REMARK  7 active torsions:
REMARK  status: ('A' for Active; 'I' for Inactive)
REMARK    1  A    between atoms: O_2  and  C_3 
REMARK    2  A    between atoms: C_3  and  C_4 
REMARK    3  A    between atoms: C_4  and  N_5 
REMARK    4  A    between atoms: C_6  and  N_7 
REMARK    5  A    between atoms: N_11  and  C_12 
REMARK    6  A    between atoms: C_12  and  C_13 
REMARK       I    between atoms: C_13  and  N_15 
REMARK    7  A    between atoms: N_15  and  C_16 
ROOT
HETATM    1  N   UNL     1     -41.937 -47.526  11.965  1.00  0.00    -0.288 N 
HETATM    2  C   UNL     1     -42.608 -46.878  12.991  1.00  0.00     0.089 C 
HETATM    3  C   UNL     1     -42.815 -47.538  14.138  1.00  0.00     0.117 C 
HETATM    4  C   UNL     1     -42.346 -48.914  14.332  1.00  0.00     0.255 C 
HETATM    5  O   UNL     1     -42.498 -49.442  15.430  1.00  0.00    -0.268 OA
HETATM    6  N   UNL     1     -41.783 -49.517  13.235  1.00  0.00    -0.257 N 
HETATM    7  C   UNL     1     -41.502 -48.846  12.064  1.00  0.00     0.333 C 
HETATM    8  O   UNL     1     -40.874 -49.401  11.157  1.00  0.00    -0.246 OA
ENDROOT
BRANCH   6   9
HETATM    9  C   UNL     1     -41.447 -50.933  13.318  1.00  0.00     0.239 C 
BRANCH   9  10
HETATM   10  C   UNL     1     -42.565 -51.852  12.822  1.00  0.00     0.236 C 
HETATM   11  O   UNL     1     -42.419 -52.585  11.848  1.00  0.00    -0.272 OA
HETATM   12  N   UNL     1     -43.694 -51.901  13.616  1.00  0.00    -0.355 N 
HETATM   13  H   UNL     1     -43.733 -51.274  14.420  1.00  0.00     0.162 HD
BRANCH  12  14
HETATM   14  C   UNL     1     -44.800 -52.821  13.384  1.00  0.00     0.088 C 
HETATM   15  C   UNL     1     -46.089 -52.080  13.017  1.00  0.00     0.025 C 
HETATM   16  C   UNL     1     -46.792 -51.412  14.196  1.00  0.00     0.002 C 
HETATM   17  C   UNL     1     -46.877 -52.270  15.457  1.00  0.00     0.005 C 
HETATM   18  C   UNL     1     -45.573 -53.002  15.815  1.00  0.00    -0.013 C 
HETATM   19  C   UNL     1     -45.832 -53.911  17.023  1.00  0.00     0.010 C 
HETATM   20  C   UNL     1     -45.039 -53.772  14.583  1.00  0.00     0.008 C 
HETATM   21  C   UNL     1     -43.786 -54.607  14.871  1.00  0.00     0.012 C 
ENDBRANCH  12  14
ENDBRANCH   9  10
ENDBRANCH   6   9
BRANCH   1  22
HETATM   22  C   UNL     1     -41.653 -46.858  10.683  1.00  0.00     0.161 C 
BRANCH  22  23
HETATM   23  C   UNL     1     -42.855 -46.825   9.730  1.00  0.00     0.187 C 
BRANCH  23  24
HETATM   24  O   UNL     1     -42.862 -48.004   8.922  1.00  0.00    -0.394 OA
HETATM   25  C   UNL     1     -43.529 -47.760   7.688  1.00  0.00     0.201 C 
ENDBRANCH  23  24
ENDBRANCH  22  23
ENDBRANCH   1  22
BRANCH   2  26
HETATM   26  N   UNL     1     -43.065 -45.579  12.876  1.00  0.00    -0.288 NA
HETATM   27  H   UNL     1     -44.006 -45.458  13.237  1.00  0.00     0.125 HD
HETATM   28  H   UNL     1     -43.005 -45.203  11.932  1.00  0.00     0.125 HD
ENDBRANCH   2  26
TORSDOF 7
ENDMDL
MODEL 8
REMARK VINA RESULT:      -5.8      3.326      6.888
REMARK  7 active torsions:
REMARK  status: ('A' for Active; 'I' for Inactive)
REMARK    1  A    between atoms: O_2  and  C_3 
REMARK    2  A    between atoms: C_3  and  C_4 
REMARK    3  A    between atoms: C_4  and  N_5 
REMARK    4  A    between atoms: C_6  and  N_7 
REMARK    5  A    between atoms: N_11  and  C_12 
REMARK    6  A    between atoms: C_12  and  C_13 
REMARK       I    between atoms: C_13  and  N_15 
REMARK    7  A    between atoms: N_15  and  C_16 
ROOT
HETATM    1  N   UNL     1     -43.231 -52.105  13.507  1.00  0.00    -0.288 N 
HETATM    2  C   UNL     1     -43.264 -53.377  12.958  1.00  0.00     0.089 C 
HETATM    3  C   UNL     1     -42.251 -54.214  13.217  1.00  0.00     0.117 C 
HETATM    4  C   UNL     1     -41.123 -53.819  14.068  1.00  0.00     0.255 C 
HETATM    5  O   UNL     1     -40.261 -54.652  14.332  1.00  0.00    -0.268 OA
HETATM    6  N   UNL     1     -41.116 -52.513  14.488  1.00  0.00    -0.257 N 
HETATM    7  C   UNL     1     -42.172 -51.649  14.288  1.00  0.00     0.333 C 
HETATM    8  O   UNL     1     -42.170 -50.526  14.802  1.00  0.00    -0.246 OA
ENDROOT
BRANCH   6   9
HETATM    9  C   UNL     1     -39.943 -52.018  15.198  1.00  0.00     0.239 C 
BRANCH   9  10
HETATM   10  C   UNL     1     -38.936 -51.310  14.288  1.00  0.00     0.236 C 
HETATM   11  O   UNL     1     -38.202 -51.932  13.526  1.00  0.00    -0.272 OA
HETATM   12  N   UNL     1     -39.002 -49.931  14.285  1.00  0.00    -0.355 N 
HETATM   13  H   UNL     1     -39.652 -49.488  14.935  1.00  0.00     0.162 HD
BRANCH  12  14
HETATM   14  C   UNL     1     -38.225 -49.092  13.381  1.00  0.00     0.088 C 
HETATM   15  C   UNL     1     -37.435 -48.020  14.138  1.00  0.00     0.025 C 
HETATM   16  C   UNL     1     -38.276 -46.844  14.629  1.00  0.00     0.002 C 
HETATM   17  C   UNL     1     -39.279 -46.308  13.610  1.00  0.00     0.005 C 
HETATM   18  C   UNL     1     -40.068 -47.397  12.863  1.00  0.00    -0.013 C 
HETATM   19  C   UNL     1     -40.944 -46.729  11.797  1.00  0.00     0.010 C 
HETATM   20  C   UNL     1     -39.097 -48.449  12.275  1.00  0.00     0.008 C 
HETATM   21  C   UNL     1     -39.791 -49.528  11.435  1.00  0.00     0.012 C 
ENDBRANCH  12  14
ENDBRANCH   9  10
ENDBRANCH   6   9
BRANCH   1  22
HETATM   22  C   UNL     1     -44.319 -51.138  13.284  1.00  0.00     0.161 C 
BRANCH  22  23
HETATM   23  C   UNL     1     -45.487 -51.293  14.265  1.00  0.00     0.187 C 
BRANCH  23  24
HETATM   24  O   UNL     1     -46.455 -52.194  13.724  1.00  0.00    -0.394 OA
HETATM   25  C   UNL     1     -46.858 -53.144  14.706  1.00  0.00     0.201 C 
ENDBRANCH  23  24
ENDBRANCH  22  23
ENDBRANCH   1  22
BRANCH   2  26
HETATM   26  N   UNL     1     -44.303 -53.815  12.158  1.00  0.00    -0.288 NA
HETATM   27  H   UNL     1     -45.214 -53.523  12.499  1.00  0.00     0.125 HD
HETATM   28  H   UNL     1     -44.301 -54.819  11.993  1.00  0.00     0.125 HD
ENDBRANCH   2  26
TORSDOF 7
ENDMDL
MODEL 9
REMARK VINA RESULT:      -5.8      2.273      4.009
REMARK  7 active torsions:
REMARK  status: ('A' for Active; 'I' for Inactive)
REMARK    1  A    between atoms: O_2  and  C_3 
REMARK    2  A    between atoms: C_3  and  C_4 
REMARK    3  A    between atoms: C_4  and  N_5 
REMARK    4  A    between atoms: C_6  and  N_7 
REMARK    5  A    between atoms: N_11  and  C_12 
REMARK    6  A    between atoms: C_12  and  C_13 
REMARK       I    between atoms: C_13  and  N_15 
REMARK    7  A    between atoms: N_15  and  C_16 
ROOT
HETATM    1  N   UNL     1     -40.961 -45.817  11.596  1.00  0.00    -0.288 N 
HETATM    2  C   UNL     1     -42.299 -45.458  11.606  1.00  0.00     0.089 C 
HETATM    3  C   UNL     1     -43.224 -46.424  11.530  1.00  0.00     0.117 C 
HETATM    4  C   UNL     1     -42.853 -47.841  11.446  1.00  0.00     0.255 C 
HETATM    5  O   UNL     1     -43.742 -48.687  11.455  1.00  0.00    -0.268 OA
HETATM    6  N   UNL     1     -41.510 -48.105  11.339  1.00  0.00    -0.257 N 
HETATM    7  C   UNL     1     -40.536 -47.138  11.474  1.00  0.00     0.333 C 
HETATM    8  O   UNL     1     -39.341 -47.450  11.504  1.00  0.00    -0.246 OA
ENDROOT
BRANCH   6   9
HETATM    9  C   UNL     1     -41.090 -49.479  11.089  1.00  0.00     0.239 C 
BRANCH   9  10
HETATM   10  C   UNL     1     -41.186 -50.378  12.323  1.00  0.00     0.236 C 
HETATM   11  O   UNL     1     -40.360 -50.325  13.229  1.00  0.00    -0.272 OA
HETATM   12  N   UNL     1     -42.327 -51.151  12.411  1.00  0.00    -0.355 N 
HETATM   13  H   UNL     1     -42.975 -51.127  11.624  1.00  0.00     0.162 HD
BRANCH  12  14
HETATM   14  C   UNL     1     -42.660 -51.960  13.577  1.00  0.00     0.088 C 
HETATM   15  C   UNL     1     -42.719 -53.452  13.236  1.00  0.00     0.025 C 
HETATM   16  C   UNL     1     -43.977 -53.879  12.484  1.00  0.00     0.002 C 
HETATM   17  C   UNL     1     -45.276 -53.290  13.028  1.00  0.00     0.005 C 
HETATM   18  C   UNL     1     -45.203 -51.790  13.359  1.00  0.00    -0.013 C 
HETATM   19  C   UNL     1     -46.527 -51.360  14.001  1.00  0.00     0.010 C 
HETATM   20  C   UNL     1     -43.975 -51.502  14.256  1.00  0.00     0.008 C 
HETATM   21  C   UNL     1     -43.871 -50.042  14.711  1.00  0.00     0.012 C 
ENDBRANCH  12  14
ENDBRANCH   9  10
ENDBRANCH   6   9
BRANCH   1  22
HETATM   22  C   UNL     1     -39.889 -44.812  11.697  1.00  0.00     0.161 C 
BRANCH  22  23
HETATM   23  C   UNL     1     -39.484 -44.492  13.141  1.00  0.00     0.187 C 
BRANCH  23  24
HETATM   24  O   UNL     1     -38.987 -43.154  13.218  1.00  0.00    -0.394 OA
HETATM   25  C   UNL     1     -39.942 -42.235  12.697  1.00  0.00     0.201 C 
ENDBRANCH  23  24
ENDBRANCH  22  23
ENDBRANCH   1  22
BRANCH   2  26
HETATM   26  N   UNL     1     -42.715 -44.142  11.695  1.00  0.00    -0.288 NA
HETATM   27  H   UNL     1     -43.117 -43.796  10.829  1.00  0.00     0.125 HD
HETATM   28  H   UNL     1     -41.994 -43.504  12.022  1.00  0.00     0.125 HD
ENDBRANCH   2  26
TORSDOF 7
ENDMDL
