MODEL 1
REMARK VINA RESULT:      -6.3      0.000      0.000
REMARK  6 active torsions:
REMARK  status: ('A' for Active; 'I' for Inactive)
REMARK    1  A    between atoms: C_2  and  N_3 
REMARK       I    between atoms: N_6  and  C_9 
REMARK    2  A    between atoms: C_9  and  C_11 
REMARK    3  A    between atoms: C_11  and  N_13 
REMARK    4  A    between atoms: N_13  and  C_14 
REMARK    5  A    between atoms: C_14  and  C_15 
REMARK    6  A    between atoms: C_15  and  N_16 
ROOT
HETATM    1  C   UNL     1     -40.614 -50.756  12.408  1.00  0.00     0.307 C 
HETATM    2  C   UNL     1     -39.113 -50.982  12.550  1.00  0.00     0.053 C 
ENDROOT
BRANCH   1   3
HETATM    3  C   UNL     1     -41.332 -52.126  12.341  1.00  0.00     0.253 C 
HETATM    4  N   UNL     1     -42.633 -52.209  12.811  1.00  0.00    -0.347 N 
HETATM    5  C   UNL     1     -43.375 -51.159  13.518  1.00  0.00     0.156 C 
HETATM    6  C   UNL     1     -43.383 -53.456  12.642  1.00  0.00     0.156 C 
HETATM    7  C   UNL     1     -43.930 -51.696  14.851  1.00  0.00     0.292 C 
HETATM    8  N   UNL     1     -44.753 -52.918  14.730  1.00  0.00     0.091 N 
HETATM    9  C   UNL     1     -43.978 -53.942  13.982  1.00  0.00     0.292 C 
HETATM   10  O   UNL     1     -40.742 -53.106  11.878  1.00  0.00    -0.271 OA
BRANCH   8  11
HETATM   11  C   UNL     1     -46.063 -52.692  14.101  1.00  0.00     0.268 C 
HETATM   12  C   UNL     1     -46.809 -51.482  14.653  1.00  0.00     0.037 C 
ENDBRANCH   8  11
ENDBRANCH   1   3
BRANCH   1  13
HETATM   13  N   UNL     1     -40.888 -49.955  11.185  1.00  0.00     0.098 N 
HETATM   14  H   UNL     1     -41.437 -50.559  10.562  1.00  0.00     0.317 HD
BRANCH  13  15
HETATM   15  C   UNL     1     -41.707 -48.754  11.459  1.00  0.00     0.292 C 
BRANCH  15  16
HETATM   16  C   UNL     1     -41.671 -47.696  10.355  1.00  0.00     0.178 C 
BRANCH  16  17
HETATM   17  N   UNL     1     -42.913 -47.653   9.608  1.00  0.00    -0.302 N 
HETATM   18  C   UNL     1     -44.153 -47.382  10.103  1.00  0.00     0.118 A 
HETATM   19  C   UNL     1     -45.030 -47.517   9.046  1.00  0.00    -0.028 A 
HETATM   20  C   UNL     1     -46.497 -47.340   9.048  1.00  0.00     0.051 C 
HETATM   21  C   UNL     1     -44.201 -47.871   7.957  1.00  0.00     0.115 A 
HETATM   22  N   UNL     1     -42.915 -47.959   8.297  1.00  0.00    -0.310 N 
ATOM     23  HN  UNL     1     -42.121 -48.200   7.705  1.00  0.00     0.186 HD
ENDBRANCH  16  17
ENDBRANCH  15  16
ENDBRANCH  13  15
ENDBRANCH   1  13
TORSDOF 6
ENDMDL
MODEL 2
REMARK VINA RESULT:      -6.1      1.481      1.770
REMARK  6 active torsions:
REMARK  status: ('A' for Active; 'I' for Inactive)
REMARK    1  A    between atoms: C_2  and  N_3 
REMARK       I    between atoms: N_6  and  C_9 
REMARK    2  A    between atoms: C_9  and  C_11 
REMARK    3  A    between atoms: C_11  and  N_13 
REMARK    4  A    between atoms: N_13  and  C_14 
REMARK    5  A    between atoms: C_14  and  C_15 
REMARK    6  A    between atoms: C_15  and  N_16 
ROOT
HETATM    1  C   UNL     1     -39.821 -49.552  12.707  1.00  0.00     0.307 C 
HETATM    2  C   UNL     1     -38.653 -49.050  13.547  1.00  0.00     0.053 C 
ENDROOT
BRANCH   1   3
HETATM    3  C   UNL     1     -39.753 -51.095  12.607  1.00  0.00     0.253 C 
HETATM    4  N   UNL     1     -40.934 -51.812  12.710  1.00  0.00    -0.347 N 
HETATM    5  C   UNL     1     -42.254 -51.276  13.061  1.00  0.00     0.156 C 
HETATM    6  C   UNL     1     -40.919 -53.261  12.491  1.00  0.00     0.156 C 
HETATM    7  C   UNL     1     -42.855 -52.056  14.245  1.00  0.00     0.292 C 
HETATM    8  N   UNL     1     -42.928 -53.519  14.048  1.00  0.00     0.091 N 
HETATM    9  C   UNL     1     -41.580 -54.016  13.665  1.00  0.00     0.292 C 
HETATM   10  O   UNL     1     -38.664 -51.652  12.440  1.00  0.00    -0.271 OA
BRANCH   8  11
HETATM   11  C   UNL     1     -43.937 -53.937  13.064  1.00  0.00     0.268 C 
HETATM   12  C   UNL     1     -45.038 -54.817  13.648  1.00  0.00     0.037 C 
ENDBRANCH   8  11
ENDBRANCH   1   3
BRANCH   1  13
HETATM   13  N   UNL     1     -39.771 -48.932  11.356  1.00  0.00     0.098 N 
HETATM   14  H   UNL     1     -39.154 -49.525  10.789  1.00  0.00     0.317 HD
BRANCH  13  15
HETATM   15  C   UNL     1     -41.089 -48.912  10.685  1.00  0.00     0.292 C 
BRANCH  15  16
HETATM   16  C   UNL     1     -41.743 -47.531  10.609  1.00  0.00     0.178 C 
BRANCH  16  17
HETATM   17  N   UNL     1     -42.939 -47.545   9.789  1.00  0.00    -0.302 N 
HETATM   18  C   UNL     1     -44.215 -47.310  10.205  1.00  0.00     0.118 A 
HETATM   19  C   UNL     1     -45.022 -47.493   9.101  1.00  0.00    -0.028 A 
HETATM   20  C   UNL     1     -46.491 -47.369   9.013  1.00  0.00     0.051 C 
HETATM   21  C   UNL     1     -44.118 -47.837   8.070  1.00  0.00     0.115 A 
HETATM   22  N   UNL     1     -42.852 -47.874   8.487  1.00  0.00    -0.310 N 
ATOM     23  HN  UNL     1     -42.016 -48.097   7.948  1.00  0.00     0.186 HD
ENDBRANCH  16  17
ENDBRANCH  15  16
ENDBRANCH  13  15
ENDBRANCH   1  13
TORSDOF 6
ENDMDL
MODEL 3
REMARK VINA RESULT:      -5.9      2.354      3.048
REMARK  6 active torsions:
REMARK  status: ('A' for Active; 'I' for Inactive)
REMARK    1  A    between atoms: C_2  and  N_3 
REMARK       I    between atoms: N_6  and  C_9 
REMARK    2  A    between atoms: C_9  and  C_11 
REMARK    3  A    between atoms: C_11  and  N_13 
REMARK    4  A    between atoms: N_13  and  C_14 
REMARK    5  A    between atoms: C_14  and  C_15 
REMARK    6  A    between atoms: C_15  and  N_16 
ROOT
HETATM    1  C   UNL     1     -40.244 -50.443  12.015  1.00  0.00     0.307 C 
HETATM    2  C   UNL     1     -38.768 -50.731  12.264  1.00  0.00     0.053 C 
ENDROOT
BRANCH   1   3
HETATM    3  C   UNL     1     -41.056 -51.749  12.192  1.00  0.00     0.253 C 
HETATM    4  N   UNL     1     -42.356 -51.655  12.661  1.00  0.00    -0.347 N 
HETATM    5  C   UNL     1     -43.018 -50.445  13.164  1.00  0.00     0.156 C 
HETATM    6  C   UNL     1     -43.192 -52.857  12.715  1.00  0.00     0.156 C 
HETATM    7  C   UNL     1     -43.600 -50.694  14.568  1.00  0.00     0.292 C 
HETATM    8  N   UNL     1     -44.507 -51.857  14.664  1.00  0.00     0.091 N 
HETATM    9  C   UNL     1     -43.810 -53.051  14.117  1.00  0.00     0.292 C 
HETATM   10  O   UNL     1     -40.539 -52.835  11.916  1.00  0.00    -0.271 OA
BRANCH   8  11
HETATM   11  C   UNL     1     -45.803 -51.658  13.997  1.00  0.00     0.268 C 
HETATM   12  C   UNL     1     -46.963 -51.441  14.963  1.00  0.00     0.037 C 
ENDBRANCH   8  11
ENDBRANCH   1   3
BRANCH   1  13
HETATM   13  N   UNL     1     -40.423 -49.890  10.646  1.00  0.00     0.098 N 
HETATM   14  H   UNL     1     -41.024 -50.553  10.144  1.00  0.00     0.317 HD
BRANCH  13  15
HETATM   15  C   UNL     1     -41.120 -48.585  10.643  1.00  0.00     0.292 C 
BRANCH  15  16
HETATM   16  C   UNL     1     -40.806 -47.693  11.846  1.00  0.00     0.178 C 
BRANCH  16  17
HETATM   17  N   UNL     1     -40.486 -46.338  11.444  1.00  0.00    -0.302 N 
HETATM   18  C   UNL     1     -40.869 -45.190  12.071  1.00  0.00     0.118 A 
HETATM   19  C   UNL     1     -40.390 -44.150  11.300  1.00  0.00    -0.028 A 
HETATM   20  C   UNL     1     -40.538 -42.698  11.532  1.00  0.00     0.051 C 
HETATM   21  C   UNL     1     -39.729 -44.794  10.229  1.00  0.00     0.115 A 
HETATM   22  N   UNL     1     -39.790 -46.124  10.313  1.00  0.00    -0.310 N 
ATOM     23  HN  UNL     1     -39.402 -46.814   9.671  1.00  0.00     0.186 HD
ENDBRANCH  16  17
ENDBRANCH  15  16
ENDBRANCH  13  15
ENDBRANCH   1  13
TORSDOF 6
ENDMDL
MODEL 4
REMARK VINA RESULT:      -5.6      2.065      3.323
REMARK  6 active torsions:
REMARK  status: ('A' for Active; 'I' for Inactive)
REMARK    1  A    between atoms: C_2  and  N_3 
REMARK       I    between atoms: N_6  and  C_9 
REMARK    2  A    between atoms: C_9  and  C_11 
REMARK    3  A    between atoms: C_11  and  N_13 
REMARK    4  A    between atoms: N_13  and  C_14 
REMARK    5  A    between atoms: C_14  and  C_15 
REMARK    6  A    between atoms: C_15  and  N_16 
ROOT
HETATM    1  C   UNL     1     -42.450 -52.984  12.948  1.00  0.00     0.307 C 
HETATM    2  C   UNL     1     -41.623 -54.223  13.274  1.00  0.00     0.053 C 
ENDROOT
BRANCH   1   3
HETATM    3  C   UNL     1     -43.951 -53.364  12.925  1.00  0.00     0.253 C 
HETATM    4  N   UNL     1     -44.803 -52.723  13.810  1.00  0.00    -0.347 N 
HETATM    5  C   UNL     1     -44.414 -51.814  14.894  1.00  0.00     0.156 C 
HETATM    6  C   UNL     1     -46.245 -52.964  13.723  1.00  0.00     0.156 C 
HETATM    7  C   UNL     1     -45.012 -52.286  16.233  1.00  0.00     0.292 C 
HETATM    8  N   UNL     1     -46.478 -52.479  16.221  1.00  0.00     0.091 N 
HETATM    9  C   UNL     1     -46.830 -53.379  15.091  1.00  0.00     0.292 C 
HETATM   10  O   UNL     1     -44.356 -54.217  12.131  1.00  0.00    -0.271 OA
BRANCH   8  11
HETATM   11  C   UNL     1     -47.243 -51.225  16.148  1.00  0.00     0.268 C 
HETATM   12  C   UNL     1     -48.173 -51.003  17.336  1.00  0.00     0.037 C 
ENDBRANCH   8  11
ENDBRANCH   1   3
BRANCH   1  13
HETATM   13  N   UNL     1     -42.024 -52.428  11.636  1.00  0.00     0.098 N 
HETATM   14  H   UNL     1     -42.875 -52.077  11.182  1.00  0.00     0.317 HD
BRANCH  13  15
HETATM   15  C   UNL     1     -41.100 -51.282  11.773  1.00  0.00     0.292 C 
BRANCH  15  16
HETATM   16  C   UNL     1     -41.703 -50.058  12.466  1.00  0.00     0.178 C 
BRANCH  16  17
HETATM   17  N   UNL     1     -41.574 -48.862  11.658  1.00  0.00    -0.302 N 
HETATM   18  C   UNL     1     -40.631 -47.886  11.789  1.00  0.00     0.118 A 
HETATM   19  C   UNL     1     -40.938 -46.922  10.852  1.00  0.00    -0.028 A 
HETATM   20  C   UNL     1     -40.234 -45.651  10.585  1.00  0.00     0.051 C 
HETATM   21  C   UNL     1     -42.091 -47.426  10.207  1.00  0.00     0.115 A 
HETATM   22  N   UNL     1     -42.481 -48.603  10.698  1.00  0.00    -0.310 N 
ATOM     23  HN  UNL     1     -43.279 -49.171  10.415  1.00  0.00     0.186 HD
ENDBRANCH  16  17
ENDBRANCH  15  16
ENDBRANCH  13  15
ENDBRANCH   1  13
TORSDOF 6
ENDMDL
MODEL 5
REMARK VINA RESULT:      -5.6      2.579      6.332
REMARK  6 active torsions:
REMARK  status: ('A' for Active; 'I' for Inactive)
REMARK    1  A    between atoms: C_2  and  N_3 
REMARK       I    between atoms: N_6  and  C_9 
REMARK    2  A    between atoms: C_9  and  C_11 
REMARK    3  A    between atoms: C_11  and  N_13 
REMARK    4  A    between atoms: N_13  and  C_14 
REMARK    5  A    between atoms: C_14  and  C_15 
REMARK    6  A    between atoms: C_15  and  N_16 
ROOT
HETATM    1  C   UNL     1     -41.586 -51.627  12.367  1.00  0.00     0.307 C 
HETATM    2  C   UNL     1     -41.163 -52.065  13.765  1.00  0.00     0.053 C 
ENDROOT
BRANCH   1   3
HETATM    3  C   UNL     1     -42.291 -50.251  12.454  1.00  0.00     0.253 C 
HETATM    4  N   UNL     1     -41.615 -49.137  11.981  1.00  0.00    -0.347 N 
HETATM    5  C   UNL     1     -40.219 -49.087  11.535  1.00  0.00     0.156 C 
HETATM    6  C   UNL     1     -42.304 -47.845  11.930  1.00  0.00     0.156 C 
HETATM    7  C   UNL     1     -39.452 -47.983  12.288  1.00  0.00     0.292 C 
HETATM    8  N   UNL     1     -40.068 -46.641  12.210  1.00  0.00     0.091 N 
HETATM    9  C   UNL     1     -41.487 -46.743  12.640  1.00  0.00     0.292 C 
HETATM   10  O   UNL     1     -43.424 -50.171  12.935  1.00  0.00    -0.271 OA
BRANCH   8  11
HETATM   11  C   UNL     1     -39.968 -46.016  10.883  1.00  0.00     0.268 C 
HETATM   12  C   UNL     1     -40.648 -44.654  10.792  1.00  0.00     0.037 C 
ENDBRANCH   8  11
ENDBRANCH   1   3
BRANCH   1  13
HETATM   13  N   UNL     1     -42.491 -52.648  11.774  1.00  0.00     0.098 N 
HETATM   14  H   UNL     1     -41.967 -53.088  11.009  1.00  0.00     0.317 HD
BRANCH  13  15
HETATM   15  C   UNL     1     -42.847 -53.720  12.729  1.00  0.00     0.292 C 
BRANCH  15  16
HETATM   16  C   UNL     1     -44.314 -54.153  12.680  1.00  0.00     0.178 C 
BRANCH  16  17
HETATM   17  N   UNL     1     -45.198 -53.122  13.186  1.00  0.00    -0.302 N 
HETATM   18  C   UNL     1     -45.549 -52.915  14.486  1.00  0.00     0.118 A 
HETATM   19  C   UNL     1     -46.452 -51.872  14.482  1.00  0.00    -0.028 A 
HETATM   20  C   UNL     1     -47.145 -51.259  15.634  1.00  0.00     0.051 C 
HETATM   21  C   UNL     1     -46.568 -51.525  13.116  1.00  0.00     0.115 A 
HETATM   22  N   UNL     1     -45.811 -52.287  12.327  1.00  0.00    -0.310 N 
ATOM     23  HN  UNL     1     -45.718 -52.246  11.312  1.00  0.00     0.186 HD
ENDBRANCH  16  17
ENDBRANCH  15  16
ENDBRANCH  13  15
ENDBRANCH   1  13
TORSDOF 6
ENDMDL
MODEL 6
REMARK VINA RESULT:      -5.5      2.173      3.249
REMARK  6 active torsions:
REMARK  status: ('A' for Active; 'I' for Inactive)
REMARK    1  A    between atoms: C_2  and  N_3 
REMARK       I    between atoms: N_6  and  C_9 
REMARK    2  A    between atoms: C_9  and  C_11 
REMARK    3  A    between atoms: C_11  and  N_13 
REMARK    4  A    between atoms: N_13  and  C_14 
REMARK    5  A    between atoms: C_14  and  C_15 
REMARK    6  A    between atoms: C_15  and  N_16 
ROOT
HETATM    1  C   UNL     1     -41.343 -49.149  11.852  1.00  0.00     0.307 C 
HETATM    2  C   UNL     1     -39.855 -48.819  11.867  1.00  0.00     0.053 C 
ENDROOT
BRANCH   1   3
HETATM    3  C   UNL     1     -41.535 -50.658  12.142  1.00  0.00     0.253 C 
HETATM    4  N   UNL     1     -42.712 -51.064  12.749  1.00  0.00    -0.347 N 
HETATM    5  C   UNL     1     -43.758 -50.194  13.297  1.00  0.00     0.156 C 
HETATM    6  C   UNL     1     -42.979 -52.495  12.918  1.00  0.00     0.156 C 
HETATM    7  C   UNL     1     -44.057 -50.567  14.762  1.00  0.00     0.292 C 
HETATM    8  N   UNL     1     -44.401 -51.988  14.980  1.00  0.00     0.091 N 
HETATM    9  C   UNL     1     -43.333 -52.833  14.383  1.00  0.00     0.292 C 
HETATM   10  O   UNL     1     -40.650 -51.459  11.833  1.00  0.00    -0.271 OA
BRANCH   8  11
HETATM   11  C   UNL     1     -45.721 -52.368  14.455  1.00  0.00     0.268 C 
HETATM   12  C   UNL     1     -46.853 -51.458  14.923  1.00  0.00     0.037 C 
ENDBRANCH   8  11
ENDBRANCH   1   3
BRANCH   1  13
HETATM   13  N   UNL     1     -41.923 -48.787  10.531  1.00  0.00     0.098 N 
HETATM   14  H   UNL     1     -42.375 -49.635  10.172  1.00  0.00     0.317 HD
BRANCH  13  15
HETATM   15  C   UNL     1     -42.971 -47.748  10.632  1.00  0.00     0.292 C 
BRANCH  15  16
HETATM   16  C   UNL     1     -42.614 -46.417   9.967  1.00  0.00     0.178 C 
BRANCH  16  17
HETATM   17  N   UNL     1     -41.436 -45.816  10.561  1.00  0.00    -0.302 N 
HETATM   18  C   UNL     1     -41.335 -45.283  11.811  1.00  0.00     0.118 A 
HETATM   19  C   UNL     1     -40.057 -44.775  11.914  1.00  0.00    -0.028 A 
HETATM   20  C   UNL     1     -39.438 -44.084  13.064  1.00  0.00     0.051 C 
HETATM   21  C   UNL     1     -39.472 -45.063  10.659  1.00  0.00     0.115 A 
HETATM   22  N   UNL     1     -40.310 -45.691   9.834  1.00  0.00    -0.310 N 
ATOM     23  HN  UNL     1     -40.139 -46.003   8.879  1.00  0.00     0.186 HD
ENDBRANCH  16  17
ENDBRANCH  15  16
ENDBRANCH  13  15
ENDBRANCH   1  13
TORSDOF 6
ENDMDL
MODEL 7
REMARK VINA RESULT:      -5.4      3.260      6.421
REMARK  6 active torsions:
REMARK  status: ('A' for Active; 'I' for Inactive)
REMARK    1  A    between atoms: C_2  and  N_3 
REMARK       I    between atoms: N_6  and  C_9 
REMARK    2  A    between atoms: C_9  and  C_11 
REMARK    3  A    between atoms: C_11  and  N_13 
REMARK    4  A    between atoms: N_13  and  C_14 
REMARK    5  A    between atoms: C_14  and  C_15 
REMARK    6  A    between atoms: C_15  and  N_16 
ROOT
HETATM    1  C   UNL     1     -41.874 -52.913  12.678  1.00  0.00     0.307 C 
HETATM    2  C   UNL     1     -41.834 -54.108  13.623  1.00  0.00     0.053 C 
ENDROOT
BRANCH   1   3
HETATM    3  C   UNL     1     -41.859 -51.606  13.507  1.00  0.00     0.253 C 
HETATM    4  N   UNL     1     -41.334 -50.464  12.923  1.00  0.00    -0.347 N 
HETATM    5  C   UNL     1     -40.637 -50.383  11.635  1.00  0.00     0.156 C 
HETATM    6  C   UNL     1     -41.425 -49.185  13.632  1.00  0.00     0.156 C 
HETATM    7  C   UNL     1     -39.263 -49.708  11.807  1.00  0.00     0.292 C 
HETATM    8  N   UNL     1     -39.304 -48.381  12.456  1.00  0.00     0.091 N 
HETATM    9  C   UNL     1     -40.044 -48.501  13.740  1.00  0.00     0.292 C 
HETATM   10  O   UNL     1     -42.309 -51.603  14.656  1.00  0.00    -0.271 OA
BRANCH   8  11
HETATM   11  C   UNL     1     -39.887 -47.325  11.615  1.00  0.00     0.268 C 
HETATM   12  C   UNL     1     -39.876 -45.945  12.265  1.00  0.00     0.037 C 
ENDBRANCH   8  11
ENDBRANCH   1   3
BRANCH   1  13
HETATM   13  N   UNL     1     -43.091 -52.986  11.827  1.00  0.00     0.098 N 
HETATM   14  H   UNL     1     -42.863 -53.618  11.051  1.00  0.00     0.317 HD
BRANCH  13  15
HETATM   15  C   UNL     1     -44.250 -53.571  12.536  1.00  0.00     0.292 C 
BRANCH  15  16
HETATM   16  C   UNL     1     -45.461 -52.642  12.649  1.00  0.00     0.178 C 
BRANCH  16  17
HETATM   17  N   UNL     1     -45.850 -52.429  14.029  1.00  0.00    -0.302 N 
HETATM   18  C   UNL     1     -46.893 -51.676  14.476  1.00  0.00     0.118 A 
HETATM   19  C   UNL     1     -46.838 -51.714  15.853  1.00  0.00    -0.028 A 
HETATM   20  C   UNL     1     -47.736 -51.054  16.823  1.00  0.00     0.051 C 
HETATM   21  C   UNL     1     -45.714 -52.528  16.128  1.00  0.00     0.115 A 
HETATM   22  N   UNL     1     -45.110 -52.960  15.021  1.00  0.00    -0.310 N 
ATOM     23  HN  UNL     1     -44.283 -53.551  14.943  1.00  0.00     0.186 HD
ENDBRANCH  16  17
ENDBRANCH  15  16
ENDBRANCH  13  15
ENDBRANCH   1  13
TORSDOF 6
ENDMDL
MODEL 8
REMARK VINA RESULT:      -5.4      3.388      7.013
REMARK  6 active torsions:
REMARK  status: ('A' for Active; 'I' for Inactive)
REMARK    1  A    between atoms: C_2  and  N_3 
REMARK       I    between atoms: N_6  and  C_9 
REMARK    2  A    between atoms: C_9  and  C_11 
REMARK    3  A    between atoms: C_11  and  N_13 
REMARK    4  A    between atoms: N_13  and  C_14 
REMARK    5  A    between atoms: C_14  and  C_15 
REMARK    6  A    between atoms: C_15  and  N_16 
ROOT
HETATM    1  C   UNL     1     -38.649 -49.771  11.672  1.00  0.00     0.307 C 
HETATM    2  C   UNL     1     -37.271 -49.941  11.043  1.00  0.00     0.053 C 
ENDROOT
BRANCH   1   3
HETATM    3  C   UNL     1     -38.589 -48.645  12.734  1.00  0.00     0.253 C 
HETATM    4  N   UNL     1     -39.425 -47.551  12.579  1.00  0.00    -0.347 N 
HETATM    5  C   UNL     1     -40.273 -47.258  11.418  1.00  0.00     0.156 C 
HETATM    6  C   UNL     1     -39.486 -46.535  13.632  1.00  0.00     0.156 C 
HETATM    7  C   UNL     1     -39.986 -45.842  10.885  1.00  0.00     0.292 C 
HETATM    8  N   UNL     1     -40.101 -44.767  11.894  1.00  0.00     0.091 N 
HETATM    9  C   UNL     1     -39.254 -45.118  13.063  1.00  0.00     0.292 C 
HETATM   10  O   UNL     1     -37.810 -48.741  13.686  1.00  0.00    -0.271 OA
BRANCH   8  11
HETATM   11  C   UNL     1     -41.484 -44.493  12.315  1.00  0.00     0.268 C 
HETATM   12  C   UNL     1     -42.436 -44.220  11.156  1.00  0.00     0.037 C 
ENDBRANCH   8  11
ENDBRANCH   1   3
BRANCH   1  13
HETATM   13  N   UNL     1     -39.082 -51.054  12.286  1.00  0.00     0.098 N 
HETATM   14  H   UNL     1     -38.651 -51.089  13.216  1.00  0.00     0.317 HD
BRANCH  13  15
HETATM   15  C   UNL     1     -40.546 -51.128  12.484  1.00  0.00     0.292 C 
BRANCH  15  16
HETATM   16  C   UNL     1     -41.249 -52.194  11.640  1.00  0.00     0.178 C 
BRANCH  16  17
HETATM   17  N   UNL     1     -42.217 -52.943  12.416  1.00  0.00    -0.302 N 
HETATM   18  C   UNL     1     -41.965 -53.713  13.511  1.00  0.00     0.118 A 
HETATM   19  C   UNL     1     -43.169 -54.279  13.873  1.00  0.00    -0.028 A 
HETATM   20  C   UNL     1     -43.445 -55.205  14.992  1.00  0.00     0.051 C 
HETATM   21  C   UNL     1     -44.084 -53.775  12.921  1.00  0.00     0.115 A 
HETATM   22  N   UNL     1     -43.507 -52.966  12.032  1.00  0.00    -0.310 N 
ATOM     23  HN  UNL     1     -43.940 -52.481  11.247  1.00  0.00     0.186 HD
ENDBRANCH  16  17
ENDBRANCH  15  16
ENDBRANCH  13  15
ENDBRANCH   1  13
TORSDOF 6
ENDMDL
MODEL 9
REMARK VINA RESULT:      -5.3      2.200      2.870
REMARK  6 active torsions:
REMARK  status: ('A' for Active; 'I' for Inactive)
REMARK    1  A    between atoms: C_2  and  N_3 
REMARK       I    between atoms: N_6  and  C_9 
REMARK    2  A    between atoms: C_9  and  C_11 
REMARK    3  A    between atoms: C_11  and  N_13 
REMARK    4  A    between atoms: N_13  and  C_14 
REMARK    5  A    between atoms: C_14  and  C_15 
REMARK    6  A    between atoms: C_15  and  N_16 
ROOT
HETATM    1  C   UNL     1     -39.186 -51.204  13.737  1.00  0.00     0.307 C 
HETATM    2  C   UNL     1     -38.534 -50.949  15.092  1.00  0.00     0.053 C 
ENDROOT
BRANCH   1   3
HETATM    3  C   UNL     1     -39.697 -52.664  13.684  1.00  0.00     0.253 C 
HETATM    4  N   UNL     1     -41.066 -52.881  13.713  1.00  0.00    -0.347 N 
HETATM    5  C   UNL     1     -42.105 -51.873  13.946  1.00  0.00     0.156 C 
HETATM    6  C   UNL     1     -41.584 -54.240  13.533  1.00  0.00     0.156 C 
HETATM    7  C   UNL     1     -43.029 -52.308  15.100  1.00  0.00     0.292 C 
HETATM    8  N   UNL     1     -43.635 -53.646  14.936  1.00  0.00     0.091 N 
HETATM    9  C   UNL     1     -42.552 -54.629  14.671  1.00  0.00     0.292 C 
HETATM   10  O   UNL     1     -38.890 -53.595  13.616  1.00  0.00    -0.271 OA
BRANCH   8  11
HETATM   11  C   UNL     1     -44.664 -53.708  13.887  1.00  0.00     0.268 C 
HETATM   12  C   UNL     1     -45.340 -55.070  13.771  1.00  0.00     0.037 C 
ENDBRANCH   8  11
ENDBRANCH   1   3
BRANCH   1  13
HETATM   13  N   UNL     1     -38.202 -50.948  12.652  1.00  0.00     0.098 N 
HETATM   14  H   UNL     1     -38.148 -51.812  12.102  1.00  0.00     0.317 HD
BRANCH  13  15
HETATM   15  C   UNL     1     -38.633 -49.874  11.731  1.00  0.00     0.292 C 
BRANCH  15  16
HETATM   16  C   UNL     1     -40.133 -49.857  11.431  1.00  0.00     0.178 C 
BRANCH  16  17
HETATM   17  N   UNL     1     -40.608 -48.521  11.128  1.00  0.00    -0.302 N 
HETATM   18  C   UNL     1     -41.849 -48.177  10.685  1.00  0.00     0.118 A 
HETATM   19  C   UNL     1     -41.822 -46.815  10.474  1.00  0.00    -0.028 A 
HETATM   20  C   UNL     1     -42.911 -45.944   9.985  1.00  0.00     0.051 C 
HETATM   21  C   UNL     1     -40.505 -46.440  10.827  1.00  0.00     0.115 A 
HETATM   22  N   UNL     1     -39.764 -47.476  11.220  1.00  0.00    -0.310 N 
ATOM     23  HN  UNL     1     -38.790 -47.477  11.520  1.00  0.00     0.186 HD
ENDBRANCH  16  17
ENDBRANCH  15  16
ENDBRANCH  13  15
ENDBRANCH   1  13
TORSDOF 6
ENDMDL
