MODEL 1
REMARK VINA RESULT:      -5.7      0.000      0.000
REMARK  5 active torsions:
REMARK  status: ('A' for Active; 'I' for Inactive)
REMARK    1  A    between atoms: C_2  and  C_3 
REMARK    2  A    between atoms: C_7  and  C_8 
REMARK    3  A    between atoms: C_10  and  C_11 
REMARK    4  A    between atoms: C_11  and  C_12 
REMARK       I    between atoms: C_12  and  N_14 
REMARK    5  A    between atoms: N_14  and  C_15 
ROOT
HETATM    1  C   UNL     1     -43.226 -47.695  11.245  1.00  0.00     0.122 C 
HETATM    2  C   UNL     1     -44.164 -47.448  10.023  1.00  0.00     0.047 C 
HETATM    3  C   UNL     1     -42.901 -47.310   9.149  1.00  0.00     0.007 C 
HETATM    4  C   UNL     1     -42.171 -48.178  10.197  1.00  0.00     0.047 C 
HETATM    5  C   UNL     1     -42.821 -46.504  11.989  1.00  0.00     0.091 C 
HETATM    6  N   UNL     1     -42.464 -45.574  12.586  1.00  0.00    -0.195 NA
ENDROOT
BRANCH   1   7
HETATM    7  N   UNL     1     -43.677 -48.778  12.170  1.00  0.00    -0.339 N 
HETATM    8  C   UNL     1     -42.804 -49.370  13.065  1.00  0.00     0.223 C 
HETATM    9  O   UNL     1     -41.644 -48.986  13.197  1.00  0.00    -0.273 OA
HETATM   10  H   UNL     1     -44.569 -49.234  12.005  1.00  0.00     0.164 HD
BRANCH   8  11
HETATM   11  C   UNL     1     -43.385 -50.484  13.911  1.00  0.00     0.146 C 
BRANCH  11  12
HETATM   12  C   UNL     1     -43.781 -51.732  13.192  1.00  0.00     0.007 A 
HETATM   13  C   UNL     1     -43.021 -52.829  12.670  1.00  0.00     0.041 A 
HETATM   14  N   UNL     1     -43.824 -53.766  12.146  1.00  0.00    -0.265 N 
HETATM   15  O   UNL     1     -45.108 -53.323  12.327  1.00  0.00    -0.242 OA
ATOM     16  HN  UNL     1     -43.536 -54.637  11.700  1.00  0.00     0.194 HD
HETATM   17  C   UNL     1     -45.090 -52.123  12.952  1.00  0.00     0.084 A 
BRANCH  13  18
HETATM   18  C   UNL     1     -41.552 -53.086  12.621  1.00  0.00     0.055 C 
HETATM   19  C   UNL     1     -41.118 -54.221  13.536  1.00  0.00     0.011 C 
ENDBRANCH  13  18
BRANCH  17  20
HETATM   20  C   UNL     1     -46.425 -51.540  13.238  1.00  0.00     0.063 C 
HETATM   21  C   UNL     1     -46.738 -51.573  14.725  1.00  0.00     0.012 C 
ENDBRANCH  17  20
ENDBRANCH  11  12
ENDBRANCH   8  11
ENDBRANCH   1   7
TORSDOF 5
ENDMDL
MODEL 2
REMARK VINA RESULT:      -5.6      3.281      4.279
REMARK  5 active torsions:
REMARK  status: ('A' for Active; 'I' for Inactive)
REMARK    1  A    between atoms: C_2  and  C_3 
REMARK    2  A    between atoms: C_7  and  C_8 
REMARK    3  A    between atoms: C_10  and  C_11 
REMARK    4  A    between atoms: C_11  and  C_12 
REMARK       I    between atoms: C_12  and  N_14 
REMARK    5  A    between atoms: N_14  and  C_15 
ROOT
HETATM    1  C   UNL     1     -42.777 -47.359   9.734  1.00  0.00     0.122 C 
HETATM    2  C   UNL     1     -44.117 -47.726  10.443  1.00  0.00     0.047 C 
HETATM    3  C   UNL     1     -44.860 -47.131   9.229  1.00  0.00     0.007 C 
HETATM    4  C   UNL     1     -43.591 -47.427   8.402  1.00  0.00     0.047 C 
HETATM    5  C   UNL     1     -42.240 -46.033  10.034  1.00  0.00     0.091 C 
HETATM    6  N   UNL     1     -41.800 -44.978  10.236  1.00  0.00    -0.195 NA
ENDROOT
BRANCH   1   7
HETATM    7  N   UNL     1     -41.713 -48.403   9.831  1.00  0.00    -0.339 N 
HETATM    8  C   UNL     1     -41.181 -48.778  11.052  1.00  0.00     0.223 C 
HETATM    9  O   UNL     1     -41.607 -48.332  12.114  1.00  0.00    -0.273 OA
HETATM   10  H   UNL     1     -41.222 -48.693   8.991  1.00  0.00     0.164 HD
BRANCH   8  11
HETATM   11  C   UNL     1     -40.079 -49.815  10.998  1.00  0.00     0.146 C 
BRANCH  11  12
HETATM   12  C   UNL     1     -39.713 -50.470  12.290  1.00  0.00     0.007 A 
HETATM   13  C   UNL     1     -38.824 -50.089  13.347  1.00  0.00     0.041 A 
HETATM   14  N   UNL     1     -38.860 -50.978  14.350  1.00  0.00    -0.265 N 
HETATM   15  O   UNL     1     -39.772 -51.934  13.990  1.00  0.00    -0.242 OA
ATOM     16  HN  UNL     1     -38.315 -50.947  15.212  1.00  0.00     0.194 HD
HETATM   17  C   UNL     1     -40.286 -51.636  12.774  1.00  0.00     0.084 A 
BRANCH  13  18
HETATM   18  C   UNL     1     -37.911 -48.919  13.507  1.00  0.00     0.055 C 
HETATM   19  C   UNL     1     -38.650 -47.635  13.852  1.00  0.00     0.011 C 
ENDBRANCH  13  18
BRANCH  17  20
HETATM   20  C   UNL     1     -41.315 -52.582  12.275  1.00  0.00     0.063 C 
HETATM   21  C   UNL     1     -41.205 -53.934  12.961  1.00  0.00     0.012 C 
ENDBRANCH  17  20
ENDBRANCH  11  12
ENDBRANCH   8  11
ENDBRANCH   1   7
TORSDOF 5
ENDMDL
MODEL 3
REMARK VINA RESULT:      -5.6      3.166      4.355
REMARK  5 active torsions:
REMARK  status: ('A' for Active; 'I' for Inactive)
REMARK    1  A    between atoms: C_2  and  C_3 
REMARK    2  A    between atoms: C_7  and  C_8 
REMARK    3  A    between atoms: C_10  and  C_11 
REMARK    4  A    between atoms: C_11  and  C_12 
REMARK       I    between atoms: C_12  and  N_14 
REMARK    5  A    between atoms: N_14  and  C_15 
ROOT
HETATM    1  C   UNL     1     -42.768 -47.343   9.734  1.00  0.00     0.122 C 
HETATM    2  C   UNL     1     -44.109 -47.707  10.445  1.00  0.00     0.047 C 
HETATM    3  C   UNL     1     -44.852 -47.117   9.229  1.00  0.00     0.007 C 
HETATM    4  C   UNL     1     -43.583 -47.416   8.403  1.00  0.00     0.047 C 
HETATM    5  C   UNL     1     -42.231 -46.016  10.028  1.00  0.00     0.091 C 
HETATM    6  N   UNL     1     -41.791 -44.960  10.226  1.00  0.00    -0.195 NA
ENDROOT
BRANCH   1   7
HETATM    7  N   UNL     1     -41.705 -48.387   9.834  1.00  0.00    -0.339 N 
HETATM    8  C   UNL     1     -41.177 -48.762  11.057  1.00  0.00     0.223 C 
HETATM    9  O   UNL     1     -41.607 -48.316  12.119  1.00  0.00    -0.273 OA
HETATM   10  H   UNL     1     -41.211 -48.676   8.996  1.00  0.00     0.164 HD
BRANCH   8  11
HETATM   11  C   UNL     1     -40.075 -49.799  11.007  1.00  0.00     0.146 C 
BRANCH  11  12
HETATM   12  C   UNL     1     -39.821 -50.566  12.264  1.00  0.00     0.007 A 
HETATM   13  C   UNL     1     -40.356 -51.795  12.769  1.00  0.00     0.041 A 
HETATM   14  N   UNL     1     -39.781 -52.129  13.934  1.00  0.00    -0.265 N 
HETATM   15  O   UNL     1     -38.856 -51.154  14.204  1.00  0.00    -0.242 OA
ATOM     16  HN  UNL     1     -39.991 -52.947  14.505  1.00  0.00     0.194 HD
HETATM   17  C   UNL     1     -38.870 -50.229  13.216  1.00  0.00     0.084 A 
BRANCH  13  18
HETATM   18  C   UNL     1     -41.398 -52.721  12.234  1.00  0.00     0.055 C 
HETATM   19  C   UNL     1     -41.689 -53.886  13.167  1.00  0.00     0.011 C 
ENDBRANCH  13  18
BRANCH  17  20
HETATM   20  C   UNL     1     -37.889 -49.127  13.371  1.00  0.00     0.063 C 
HETATM   21  C   UNL     1     -38.554 -47.860  13.884  1.00  0.00     0.012 C 
ENDBRANCH  17  20
ENDBRANCH  11  12
ENDBRANCH   8  11
ENDBRANCH   1   7
TORSDOF 5
ENDMDL
MODEL 4
REMARK VINA RESULT:      -5.6      4.062      6.060
REMARK  5 active torsions:
REMARK  status: ('A' for Active; 'I' for Inactive)
REMARK    1  A    between atoms: C_2  and  C_3 
REMARK    2  A    between atoms: C_7  and  C_8 
REMARK    3  A    between atoms: C_10  and  C_11 
REMARK    4  A    between atoms: C_11  and  C_12 
REMARK       I    between atoms: C_12  and  N_14 
REMARK    5  A    between atoms: N_14  and  C_15 
ROOT
HETATM    1  C   UNL     1     -45.363 -52.749  14.064  1.00  0.00     0.122 C 
HETATM    2  C   UNL     1     -45.286 -52.543  12.520  1.00  0.00     0.047 C 
HETATM    3  C   UNL     1     -46.615 -51.766  12.610  1.00  0.00     0.007 C 
HETATM    4  C   UNL     1     -46.251 -51.463  14.080  1.00  0.00     0.047 C 
HETATM    5  C   UNL     1     -46.056 -53.954  14.513  1.00  0.00     0.091 C 
HETATM    6  N   UNL     1     -46.621 -54.892  14.900  1.00  0.00    -0.195 NA
ENDROOT
BRANCH   1   7
HETATM    7  N   UNL     1     -44.064 -52.578  14.783  1.00  0.00    -0.339 N 
HETATM    8  C   UNL     1     -43.095 -53.565  14.761  1.00  0.00     0.223 C 
HETATM    9  O   UNL     1     -43.219 -54.589  14.092  1.00  0.00    -0.273 OA
HETATM   10  H   UNL     1     -43.967 -51.833  15.465  1.00  0.00     0.164 HD
BRANCH   8  11
HETATM   11  C   UNL     1     -41.846 -53.278  15.568  1.00  0.00     0.146 C 
BRANCH  11  12
HETATM   12  C   UNL     1     -40.548 -53.712  14.970  1.00  0.00     0.007 A 
HETATM   13  C   UNL     1     -39.665 -54.800  15.265  1.00  0.00     0.041 A 
HETATM   14  N   UNL     1     -38.628 -54.825  14.415  1.00  0.00    -0.265 N 
HETATM   15  O   UNL     1     -38.815 -53.784  13.544  1.00  0.00    -0.242 OA
ATOM     16  HN  UNL     1     -37.853 -55.489  14.417  1.00  0.00     0.194 HD
HETATM   17  C   UNL     1     -39.953 -53.125  13.863  1.00  0.00     0.084 A 
BRANCH  13  18
HETATM   18  C   UNL     1     -39.710 -55.862  16.314  1.00  0.00     0.055 C 
HETATM   19  C   UNL     1     -38.355 -56.119  16.956  1.00  0.00     0.011 C 
ENDBRANCH  13  18
BRANCH  17  20
HETATM   20  C   UNL     1     -40.292 -51.985  12.974  1.00  0.00     0.063 C 
HETATM   21  C   UNL     1     -41.245 -52.409  11.868  1.00  0.00     0.012 C 
ENDBRANCH  17  20
ENDBRANCH  11  12
ENDBRANCH   8  11
ENDBRANCH   1   7
TORSDOF 5
ENDMDL
MODEL 5
REMARK VINA RESULT:      -5.6      2.682      5.763
REMARK  5 active torsions:
REMARK  status: ('A' for Active; 'I' for Inactive)
REMARK    1  A    between atoms: C_2  and  C_3 
REMARK    2  A    between atoms: C_7  and  C_8 
REMARK    3  A    between atoms: C_10  and  C_11 
REMARK    4  A    between atoms: C_11  and  C_12 
REMARK       I    between atoms: C_12  and  N_14 
REMARK    5  A    between atoms: N_14  and  C_15 
ROOT
HETATM    1  C   UNL     1     -45.200 -52.716  13.211  1.00  0.00     0.122 C 
HETATM    2  C   UNL     1     -46.393 -51.955  12.554  1.00  0.00     0.047 C 
HETATM    3  C   UNL     1     -46.785 -51.461  13.962  1.00  0.00     0.007 C 
HETATM    4  C   UNL     1     -45.307 -51.663  14.361  1.00  0.00     0.047 C 
HETATM    5  C   UNL     1     -45.474 -54.087  13.634  1.00  0.00     0.091 C 
HETATM    6  N   UNL     1     -45.668 -55.172  14.002  1.00  0.00    -0.195 NA
ENDROOT
BRANCH   1   7
HETATM    7  N   UNL     1     -43.915 -52.635  12.453  1.00  0.00    -0.339 N 
HETATM    8  C   UNL     1     -42.701 -52.888  13.067  1.00  0.00     0.223 C 
HETATM    9  O   UNL     1     -42.625 -53.264  14.234  1.00  0.00    -0.273 OA
HETATM   10  H   UNL     1     -43.902 -52.189  11.541  1.00  0.00     0.164 HD
BRANCH   8  11
HETATM   11  C   UNL     1     -41.476 -52.726  12.192  1.00  0.00     0.146 C 
BRANCH  11  12
HETATM   12  C   UNL     1     -40.362 -51.900  12.747  1.00  0.00     0.007 A 
HETATM   13  C   UNL     1     -39.402 -52.144  13.782  1.00  0.00     0.041 A 
HETATM   14  N   UNL     1     -38.545 -51.120  13.897  1.00  0.00    -0.265 N 
HETATM   15  O   UNL     1     -38.903 -50.204  12.942  1.00  0.00    -0.242 OA
ATOM     16  HN  UNL     1     -37.778 -51.038  14.564  1.00  0.00     0.194 HD
HETATM   17  C   UNL     1     -39.974 -50.663  12.253  1.00  0.00     0.084 A 
BRANCH  13  18
HETATM   18  C   UNL     1     -39.209 -53.300  14.707  1.00  0.00     0.055 C 
HETATM   19  C   UNL     1     -39.185 -54.639  13.985  1.00  0.00     0.011 C 
ENDBRANCH  13  18
BRANCH  17  20
HETATM   20  C   UNL     1     -40.449 -49.776  11.162  1.00  0.00     0.063 C 
HETATM   21  C   UNL     1     -41.740 -49.069  11.545  1.00  0.00     0.012 C 
ENDBRANCH  17  20
ENDBRANCH  11  12
ENDBRANCH   8  11
ENDBRANCH   1   7
TORSDOF 5
ENDMDL
MODEL 6
REMARK VINA RESULT:      -5.5      3.183      6.168
REMARK  5 active torsions:
REMARK  status: ('A' for Active; 'I' for Inactive)
REMARK    1  A    between atoms: C_2  and  C_3 
REMARK    2  A    between atoms: C_7  and  C_8 
REMARK    3  A    between atoms: C_10  and  C_11 
REMARK    4  A    between atoms: C_11  and  C_12 
REMARK       I    between atoms: C_12  and  N_14 
REMARK    5  A    between atoms: N_14  and  C_15 
ROOT
HETATM    1  C   UNL     1     -45.337 -52.998  13.632  1.00  0.00     0.122 C 
HETATM    2  C   UNL     1     -46.244 -52.047  12.791  1.00  0.00     0.047 C 
HETATM    3  C   UNL     1     -46.538 -51.267  14.089  1.00  0.00     0.007 C 
HETATM    4  C   UNL     1     -45.192 -51.800  14.626  1.00  0.00     0.047 C 
HETATM    5  C   UNL     1     -45.998 -54.168  14.206  1.00  0.00     0.091 C 
HETATM    6  N   UNL     1     -46.501 -55.095  14.693  1.00  0.00    -0.195 NA
ENDROOT
BRANCH   1   7
HETATM    7  N   UNL     1     -44.051 -53.378  12.974  1.00  0.00    -0.339 N 
HETATM    8  C   UNL     1     -42.984 -53.867  13.707  1.00  0.00     0.223 C 
HETATM    9  O   UNL     1     -43.066 -54.085  14.914  1.00  0.00    -0.273 OA
HETATM   10  H   UNL     1     -43.874 -53.083  12.019  1.00  0.00     0.164 HD
BRANCH   8  11
HETATM   11  C   UNL     1     -41.728 -54.170  12.918  1.00  0.00     0.146 C 
BRANCH  11  12
HETATM   12  C   UNL     1     -40.574 -53.241  13.116  1.00  0.00     0.007 A 
HETATM   13  C   UNL     1     -40.345 -51.886  12.712  1.00  0.00     0.041 A 
HETATM   14  N   UNL     1     -39.167 -51.439  13.170  1.00  0.00    -0.265 N 
HETATM   15  O   UNL     1     -38.614 -52.465  13.889  1.00  0.00    -0.242 OA
ATOM     16  HN  UNL     1     -38.762 -50.516  13.013  1.00  0.00     0.194 HD
HETATM   17  C   UNL     1     -39.445 -53.534  13.867  1.00  0.00     0.084 A 
BRANCH  13  18
HETATM   18  C   UNL     1     -41.168 -50.935  11.906  1.00  0.00     0.055 C 
HETATM   19  C   UNL     1     -42.281 -50.285  12.713  1.00  0.00     0.011 C 
ENDBRANCH  13  18
BRANCH  17  20
HETATM   20  C   UNL     1     -38.977 -54.713  14.637  1.00  0.00     0.063 C 
HETATM   21  C   UNL     1     -39.744 -54.862  15.942  1.00  0.00     0.012 C 
ENDBRANCH  17  20
ENDBRANCH  11  12
ENDBRANCH   8  11
ENDBRANCH   1   7
TORSDOF 5
ENDMDL
MODEL 7
REMARK VINA RESULT:      -5.5      2.001      5.389
REMARK  5 active torsions:
REMARK  status: ('A' for Active; 'I' for Inactive)
REMARK    1  A    between atoms: C_2  and  C_3 
REMARK    2  A    between atoms: C_7  and  C_8 
REMARK    3  A    between atoms: C_10  and  C_11 
REMARK    4  A    between atoms: C_11  and  C_12 
REMARK       I    between atoms: C_12  and  N_14 
REMARK    5  A    between atoms: N_14  and  C_15 
ROOT
HETATM    1  C   UNL     1     -45.284 -51.908  13.676  1.00  0.00     0.122 C 
HETATM    2  C   UNL     1     -46.809 -51.587  13.611  1.00  0.00     0.047 C 
HETATM    3  C   UNL     1     -46.985 -52.415  14.900  1.00  0.00     0.007 C 
HETATM    4  C   UNL     1     -45.504 -52.106  15.211  1.00  0.00     0.047 C 
HETATM    5  C   UNL     1     -44.857 -53.118  12.977  1.00  0.00     0.091 C 
HETATM    6  N   UNL     1     -44.491 -54.086  12.450  1.00  0.00    -0.195 NA
ENDROOT
BRANCH   1   7
HETATM    7  N   UNL     1     -44.389 -50.757  13.351  1.00  0.00    -0.339 N 
HETATM    8  C   UNL     1     -43.238 -50.513  14.080  1.00  0.00     0.223 C 
HETATM    9  O   UNL     1     -42.856 -51.268  14.971  1.00  0.00    -0.273 OA
HETATM   10  H   UNL     1     -44.724 -50.024  12.735  1.00  0.00     0.164 HD
BRANCH   8  11
HETATM   11  C   UNL     1     -42.449 -49.288  13.670  1.00  0.00     0.146 C 
BRANCH  11  12
HETATM   12  C   UNL     1     -41.834 -49.312  12.308  1.00  0.00     0.007 A 
HETATM   13  C   UNL     1     -40.876 -50.185  11.698  1.00  0.00     0.041 A 
HETATM   14  N   UNL     1     -40.661 -49.846  10.418  1.00  0.00    -0.265 N 
HETATM   15  O   UNL     1     -41.474 -48.774  10.158  1.00  0.00    -0.242 OA
ATOM     16  HN  UNL     1     -40.019 -50.297   9.767  1.00  0.00     0.194 HD
HETATM   17  C   UNL     1     -42.176 -48.457  11.272  1.00  0.00     0.084 A 
BRANCH  13  18
HETATM   18  C   UNL     1     -40.117 -51.357  12.228  1.00  0.00     0.055 C 
HETATM   19  C   UNL     1     -40.906 -52.655  12.154  1.00  0.00     0.011 C 
ENDBRANCH  13  18
BRANCH  17  20
HETATM   20  C   UNL     1     -43.123 -47.324  11.119  1.00  0.00     0.063 C 
HETATM   21  C   UNL     1     -43.503 -47.112   9.662  1.00  0.00     0.012 C 
ENDBRANCH  17  20
ENDBRANCH  11  12
ENDBRANCH   8  11
ENDBRANCH   1   7
TORSDOF 5
ENDMDL
MODEL 8
REMARK VINA RESULT:      -5.5      2.325      6.280
REMARK  5 active torsions:
REMARK  status: ('A' for Active; 'I' for Inactive)
REMARK    1  A    between atoms: C_2  and  C_3 
REMARK    2  A    between atoms: C_7  and  C_8 
REMARK    3  A    between atoms: C_10  and  C_11 
REMARK    4  A    between atoms: C_11  and  C_12 
REMARK       I    between atoms: C_12  and  N_14 
REMARK    5  A    between atoms: N_14  and  C_15 
ROOT
HETATM    1  C   UNL     1     -45.182 -52.225  13.277  1.00  0.00     0.122 C 
HETATM    2  C   UNL     1     -46.499 -51.458  12.943  1.00  0.00     0.047 C 
HETATM    3  C   UNL     1     -46.817 -51.454  14.452  1.00  0.00     0.007 C 
HETATM    4  C   UNL     1     -45.298 -51.580  14.696  1.00  0.00     0.047 C 
HETATM    5  C   UNL     1     -45.277 -53.683  13.279  1.00  0.00     0.091 C 
HETATM    6  N   UNL     1     -45.326 -54.843  13.310  1.00  0.00    -0.195 NA
ENDROOT
BRANCH   1   7
HETATM    7  N   UNL     1     -43.981 -51.767  12.516  1.00  0.00    -0.339 N 
HETATM    8  C   UNL     1     -42.702 -51.956  13.008  1.00  0.00     0.223 C 
HETATM    9  O   UNL     1     -42.487 -52.575  14.048  1.00  0.00    -0.273 OA
HETATM   10  H   UNL     1     -44.100 -51.126  11.738  1.00  0.00     0.164 HD
BRANCH   8  11
HETATM   11  C   UNL     1     -41.581 -51.403  12.154  1.00  0.00     0.146 C 
BRANCH  11  12
HETATM   12  C   UNL     1     -40.910 -50.164  12.652  1.00  0.00     0.007 A 
HETATM   13  C   UNL     1     -41.412 -48.871  13.011  1.00  0.00     0.041 A 
HETATM   14  N   UNL     1     -40.429 -48.081  13.464  1.00  0.00    -0.265 N 
HETATM   15  O   UNL     1     -39.282 -48.830  13.433  1.00  0.00    -0.242 OA
ATOM     16  HN  UNL     1     -40.518 -47.112  13.771  1.00  0.00     0.194 HD
HETATM   17  C   UNL     1     -39.561 -50.067  12.959  1.00  0.00     0.084 A 
BRANCH  13  18
HETATM   18  C   UNL     1     -42.787 -48.291  12.968  1.00  0.00     0.055 C 
HETATM   19  C   UNL     1     -43.299 -48.087  11.550  1.00  0.00     0.011 C 
ENDBRANCH  13  18
BRANCH  17  20
HETATM   20  C   UNL     1     -38.405 -50.995  12.901  1.00  0.00     0.063 C 
HETATM   21  C   UNL     1     -37.400 -50.565  11.844  1.00  0.00     0.012 C 
ENDBRANCH  17  20
ENDBRANCH  11  12
ENDBRANCH   8  11
ENDBRANCH   1   7
TORSDOF 5
ENDMDL
MODEL 9
REMARK VINA RESULT:      -5.4      4.644      6.827
REMARK  5 active torsions:
REMARK  status: ('A' for Active; 'I' for Inactive)
REMARK    1  A    between atoms: C_2  and  C_3 
REMARK    2  A    between atoms: C_7  and  C_8 
REMARK    3  A    between atoms: C_10  and  C_11 
REMARK    4  A    between atoms: C_11  and  C_12 
REMARK       I    between atoms: C_12  and  N_14 
REMARK    5  A    between atoms: N_14  and  C_15 
ROOT
HETATM    1  C   UNL     1     -43.616 -46.974   9.293  1.00  0.00     0.122 C 
HETATM    2  C   UNL     1     -44.775 -47.794   9.939  1.00  0.00     0.047 C 
HETATM    3  C   UNL     1     -45.387 -47.938   8.531  1.00  0.00     0.007 C 
HETATM    4  C   UNL     1     -43.962 -47.736   7.973  1.00  0.00     0.047 C 
HETATM    5  C   UNL     1     -43.822 -45.530   9.216  1.00  0.00     0.091 C 
HETATM    6  N   UNL     1     -43.966 -44.381   9.121  1.00  0.00    -0.195 NA
ENDROOT
BRANCH   1   7
HETATM    7  N   UNL     1     -42.255 -47.295   9.821  1.00  0.00    -0.339 N 
HETATM    8  C   UNL     1     -41.917 -47.044  11.139  1.00  0.00     0.223 C 
HETATM    9  O   UNL     1     -42.733 -46.622  11.954  1.00  0.00    -0.273 OA
HETATM   10  H   UNL     1     -41.504 -47.500   9.169  1.00  0.00     0.164 HD
BRANCH   8  11
HETATM   11  C   UNL     1     -40.491 -47.377  11.526  1.00  0.00     0.146 C 
BRANCH  11  12
HETATM   12  C   UNL     1     -39.754 -46.345  12.315  1.00  0.00     0.007 A 
HETATM   13  C   UNL     1     -39.573 -44.936  12.131  1.00  0.00     0.041 A 
HETATM   14  N   UNL     1     -38.868 -44.404  13.140  1.00  0.00    -0.265 N 
HETATM   15  O   UNL     1     -38.593 -45.430  14.005  1.00  0.00    -0.242 OA
ATOM     16  HN  UNL     1     -38.592 -43.427  13.242  1.00  0.00     0.194 HD
HETATM   17  C   UNL     1     -39.120 -46.581  13.526  1.00  0.00     0.084 A 
BRANCH  13  18
HETATM   18  C   UNL     1     -40.023 -44.008  11.051  1.00  0.00     0.055 C 
HETATM   19  C   UNL     1     -41.330 -43.303  11.382  1.00  0.00     0.011 C 
ENDBRANCH  13  18
BRANCH  17  20
HETATM   20  C   UNL     1     -38.919 -47.773  14.387  1.00  0.00     0.063 C 
HETATM   21  C   UNL     1     -37.462 -48.207  14.403  1.00  0.00     0.012 C 
ENDBRANCH  17  20
ENDBRANCH  11  12
ENDBRANCH   8  11
ENDBRANCH   1   7
TORSDOF 5
ENDMDL
