MODEL 1
REMARK VINA RESULT:      -5.8      0.000      0.000
REMARK  5 active torsions:
REMARK  status: ('A' for Active; 'I' for Inactive)
REMARK    1  A    between atoms: C_2  and  C_3 
REMARK    2  A    between atoms: C_2  and  C_13 
REMARK    3  A    between atoms: C_3  and  N_4 
REMARK    4  A    between atoms: N_4  and  C_5 
REMARK    5  A    between atoms: C_5  and  C_6 
ROOT
HETATM    1  C   UNL     1     -42.626 -48.928  11.910  1.00  0.00     0.278 C 
ENDROOT
BRANCH   1   2
HETATM    2  C   UNL     1     -42.120 -48.103  10.696  1.00  0.00     0.042 C 
HETATM    3  C   UNL     1     -40.930 -47.208  11.069  1.00  0.00     0.016 C 
BRANCH   2   4
HETATM    4  C   UNL     1     -43.261 -47.351  10.025  1.00  0.00    -0.050 A 
HETATM    5  C   UNL     1     -44.544 -47.903  10.024  1.00  0.00     0.024 A 
HETATM    6  C   UNL     1     -45.583 -47.186   9.443  1.00  0.00     0.088 A 
HETATM    7  N   UNL     1     -45.432 -45.970   8.881  1.00  0.00    -0.375 N 
HETATM    8  C   UNL     1     -44.187 -45.448   8.896  1.00  0.00     0.088 A 
ATOM      9  HN  UNL     1     -46.218 -45.469   8.467  1.00  0.00     0.164 HD
HETATM   10  C   UNL     1     -43.089 -46.089   9.446  1.00  0.00     0.024 A 
ENDBRANCH   2   4
ENDBRANCH   1   2
BRANCH   1  11
HETATM   11  N   UNL     1     -42.188 -50.326  11.872  1.00  0.00     0.084 N 
HETATM   12  H   UNL     1     -41.166 -50.363  11.859  1.00  0.00     0.315 HD
BRANCH  11  13
HETATM   13  C   UNL     1     -42.677 -51.091  13.019  1.00  0.00     0.274 C 
BRANCH  13  14
HETATM   14  C   UNL     1     -44.152 -50.744  13.322  1.00  0.00     0.022 C 
HETATM   15  C   UNL     1     -44.408 -50.523  14.850  1.00  0.00     0.015 C 
HETATM   16  C   UNL     1     -45.335 -51.703  15.227  1.00  0.00     0.009 C 
HETATM   17  C   UNL     1     -44.901 -52.807  14.257  1.00  0.00     0.017 C 
HETATM   18  C   UNL     1     -46.679 -51.404  14.623  1.00  0.00    -0.026 C 
HETATM   19  C   UNL     1     -45.110 -51.930  13.015  1.00  0.00     0.014 C 
HETATM   20  C   UNL     1     -46.544 -51.511  13.294  1.00  0.00    -0.025 C 
ENDBRANCH  13  14
ENDBRANCH  11  13
ENDBRANCH   1  11
TORSDOF 5
ENDMDL
MODEL 2
REMARK VINA RESULT:      -5.7      4.619      7.077
REMARK  5 active torsions:
REMARK  status: ('A' for Active; 'I' for Inactive)
REMARK    1  A    between atoms: C_2  and  C_3 
REMARK    2  A    between atoms: C_2  and  C_13 
REMARK    3  A    between atoms: C_3  and  N_4 
REMARK    4  A    between atoms: N_4  and  C_5 
REMARK    5  A    between atoms: C_5  and  C_6 
ROOT
HETATM    1  C   UNL     1     -43.530 -53.753  12.779  1.00  0.00     0.278 C 
ENDROOT
BRANCH   1   2
HETATM    2  C   UNL     1     -42.187 -53.339  13.439  1.00  0.00     0.042 C 
HETATM    3  C   UNL     1     -41.082 -53.116  12.397  1.00  0.00     0.016 C 
BRANCH   2   4
HETATM    4  C   UNL     1     -41.793 -54.308  14.546  1.00  0.00    -0.050 A 
HETATM    5  C   UNL     1     -40.453 -54.410  14.927  1.00  0.00     0.024 A 
HETATM    6  C   UNL     1     -40.114 -55.269  15.966  1.00  0.00     0.088 A 
HETATM    7  N   UNL     1     -41.010 -56.013  16.646  1.00  0.00    -0.375 N 
HETATM    8  C   UNL     1     -42.300 -55.898  16.269  1.00  0.00     0.088 A 
ATOM      9  HN  UNL     1     -40.726 -56.631  17.406  1.00  0.00     0.164 HD
HETATM   10  C   UNL     1     -42.733 -55.074  15.243  1.00  0.00     0.024 A 
ENDBRANCH   2   4
ENDBRANCH   1   2
BRANCH   1  11
HETATM   11  N   UNL     1     -44.332 -52.603  12.351  1.00  0.00     0.084 N 
HETATM   12  H   UNL     1     -44.223 -52.468  11.343  1.00  0.00     0.315 HD
BRANCH  11  13
HETATM   13  C   UNL     1     -45.752 -52.773  12.658  1.00  0.00     0.274 C 
BRANCH  13  14
HETATM   14  C   UNL     1     -46.207 -51.757  13.730  1.00  0.00     0.022 C 
HETATM   15  C   UNL     1     -44.998 -51.041  14.420  1.00  0.00     0.015 C 
HETATM   16  C   UNL     1     -45.068 -51.556  15.877  1.00  0.00     0.009 C 
HETATM   17  C   UNL     1     -45.669 -52.957  15.721  1.00  0.00     0.017 C 
HETATM   18  C   UNL     1     -46.252 -50.885  16.515  1.00  0.00    -0.026 C 
HETATM   19  C   UNL     1     -46.891 -52.450  14.943  1.00  0.00     0.014 C 
HETATM   20  C   UNL     1     -47.349 -51.397  15.939  1.00  0.00    -0.025 C 
ENDBRANCH  13  14
ENDBRANCH  11  13
ENDBRANCH   1  11
TORSDOF 5
ENDMDL
MODEL 3
REMARK VINA RESULT:      -5.7      4.068      5.317
REMARK  5 active torsions:
REMARK  status: ('A' for Active; 'I' for Inactive)
REMARK    1  A    between atoms: C_2  and  C_3 
REMARK    2  A    between atoms: C_2  and  C_13 
REMARK    3  A    between atoms: C_3  and  N_4 
REMARK    4  A    between atoms: N_4  and  C_5 
REMARK    5  A    between atoms: C_5  and  C_6 
ROOT
HETATM    1  C   UNL     1     -44.171 -53.830  12.492  1.00  0.00     0.278 C 
ENDROOT
BRANCH   1   2
HETATM    2  C   UNL     1     -42.816 -54.001  13.230  1.00  0.00     0.042 C 
HETATM    3  C   UNL     1     -43.005 -54.535  14.657  1.00  0.00     0.016 C 
BRANCH   2   4
HETATM    4  C   UNL     1     -41.984 -52.728  13.161  1.00  0.00    -0.050 A 
HETATM    5  C   UNL     1     -41.693 -52.031  14.337  1.00  0.00     0.024 A 
HETATM    6  C   UNL     1     -40.899 -50.893  14.263  1.00  0.00     0.088 A 
HETATM    7  N   UNL     1     -40.376 -50.417  13.115  1.00  0.00    -0.375 N 
HETATM    8  C   UNL     1     -40.662 -51.105  11.990  1.00  0.00     0.088 A 
ATOM      9  HN  UNL     1     -39.793 -49.580  13.098  1.00  0.00     0.164 HD
HETATM   10  C   UNL     1     -41.447 -52.246  11.963  1.00  0.00     0.024 A 
ENDBRANCH   2   4
ENDBRANCH   1   2
BRANCH   1  11
HETATM   11  N   UNL     1     -44.705 -52.468  12.590  1.00  0.00     0.084 N 
HETATM   12  H   UNL     1     -44.541 -51.974  11.711  1.00  0.00     0.315 HD
BRANCH  11  13
HETATM   13  C   UNL     1     -46.138 -52.455  12.884  1.00  0.00     0.274 C 
BRANCH  13  14
HETATM   14  C   UNL     1     -46.448 -51.503  14.062  1.00  0.00     0.022 C 
HETATM   15  C   UNL     1     -45.148 -50.979  14.759  1.00  0.00     0.015 C 
HETATM   16  C   UNL     1     -45.222 -51.618  16.166  1.00  0.00     0.009 C 
HETATM   17  C   UNL     1     -45.971 -52.930  15.912  1.00  0.00     0.017 C 
HETATM   18  C   UNL     1     -46.308 -50.893  16.912  1.00  0.00    -0.026 C 
HETATM   19  C   UNL     1     -47.159 -52.232  15.236  1.00  0.00     0.014 C 
HETATM   20  C   UNL     1     -47.471 -51.236  16.341  1.00  0.00    -0.025 C 
ENDBRANCH  13  14
ENDBRANCH  11  13
ENDBRANCH   1  11
TORSDOF 5
ENDMDL
MODEL 4
REMARK VINA RESULT:      -5.6      4.982      6.715
REMARK  5 active torsions:
REMARK  status: ('A' for Active; 'I' for Inactive)
REMARK    1  A    between atoms: C_2  and  C_3 
REMARK    2  A    between atoms: C_2  and  C_13 
REMARK    3  A    between atoms: C_3  and  N_4 
REMARK    4  A    between atoms: N_4  and  C_5 
REMARK    5  A    between atoms: C_5  and  C_6 
ROOT
HETATM    1  C   UNL     1     -45.188 -52.954  12.532  1.00  0.00     0.278 C 
ENDROOT
BRANCH   1   2
HETATM    2  C   UNL     1     -44.548 -54.281  13.021  1.00  0.00     0.042 C 
HETATM    3  C   UNL     1     -45.556 -55.157  13.779  1.00  0.00     0.016 C 
BRANCH   2   4
HETATM    4  C   UNL     1     -43.263 -54.022  13.797  1.00  0.00    -0.050 A 
HETATM    5  C   UNL     1     -42.899 -54.884  14.834  1.00  0.00     0.024 A 
HETATM    6  C   UNL     1     -41.704 -54.659  15.506  1.00  0.00     0.088 A 
HETATM    7  N   UNL     1     -40.856 -53.653  15.210  1.00  0.00    -0.375 N 
HETATM    8  C   UNL     1     -41.220 -52.833  14.201  1.00  0.00     0.088 A 
ATOM      9  HN  UNL     1     -39.984 -53.519  15.722  1.00  0.00     0.164 HD
HETATM   10  C   UNL     1     -42.392 -52.975  13.478  1.00  0.00     0.024 A 
ENDBRANCH   2   4
ENDBRANCH   1   2
BRANCH   1  11
HETATM   11  N   UNL     1     -46.542 -52.748  13.055  1.00  0.00     0.084 N 
HETATM   12  H   UNL     1     -46.860 -53.599  13.522  1.00  0.00     0.315 HD
BRANCH  11  13
HETATM   13  C   UNL     1     -46.607 -51.633  13.999  1.00  0.00     0.274 C 
BRANCH  13  14
HETATM   14  C   UNL     1     -46.645 -52.149  15.456  1.00  0.00     0.022 C 
HETATM   15  C   UNL     1     -47.531 -51.250  16.381  1.00  0.00     0.015 C 
HETATM   16  C   UNL     1     -46.505 -50.635  17.362  1.00  0.00     0.009 C 
HETATM   17  C   UNL     1     -45.227 -50.552  16.520  1.00  0.00     0.017 C 
HETATM   18  C   UNL     1     -46.079 -51.739  18.289  1.00  0.00    -0.026 C 
HETATM   19  C   UNL     1     -45.259 -52.043  16.154  1.00  0.00     0.014 C 
HETATM   20  C   UNL     1     -45.354 -52.602  17.564  1.00  0.00    -0.025 C 
ENDBRANCH  13  14
ENDBRANCH  11  13
ENDBRANCH   1  11
TORSDOF 5
ENDMDL
MODEL 5
REMARK VINA RESULT:      -5.5      3.284      4.735
REMARK  5 active torsions:
REMARK  status: ('A' for Active; 'I' for Inactive)
REMARK    1  A    between atoms: C_2  and  C_3 
REMARK    2  A    between atoms: C_2  and  C_13 
REMARK    3  A    between atoms: C_3  and  N_4 
REMARK    4  A    between atoms: N_4  and  C_5 
REMARK    5  A    between atoms: C_5  and  C_6 
ROOT
HETATM    1  C   UNL     1     -41.132 -53.734  12.915  1.00  0.00     0.278 C 
ENDROOT
BRANCH   1   2
HETATM    2  C   UNL     1     -40.299 -52.629  13.621  1.00  0.00     0.042 C 
HETATM    3  C   UNL     1     -40.892 -52.250  14.985  1.00  0.00     0.016 C 
BRANCH   2   4
HETATM    4  C   UNL     1     -40.073 -51.436  12.703  1.00  0.00    -0.050 A 
HETATM    5  C   UNL     1     -41.166 -50.834  12.073  1.00  0.00     0.024 A 
HETATM    6  C   UNL     1     -40.949 -49.721  11.271  1.00  0.00     0.088 A 
HETATM    7  N   UNL     1     -39.735 -49.170  11.065  1.00  0.00    -0.375 N 
HETATM    8  C   UNL     1     -38.691 -49.760  11.685  1.00  0.00     0.088 A 
ATOM      9  HN  UNL     1     -39.612 -48.350  10.472  1.00  0.00     0.164 HD
HETATM   10  C   UNL     1     -38.808 -50.875  12.499  1.00  0.00     0.024 A 
ENDBRANCH   2   4
ENDBRANCH   1   2
BRANCH   1  11
HETATM   11  N   UNL     1     -42.430 -53.965  13.556  1.00  0.00     0.084 N 
HETATM   12  H   UNL     1     -42.523 -53.353  14.370  1.00  0.00     0.315 HD
BRANCH  11  13
HETATM   13  C   UNL     1     -43.549 -53.721  12.646  1.00  0.00     0.274 C 
BRANCH  13  14
HETATM   14  C   UNL     1     -44.833 -53.379  13.434  1.00  0.00     0.022 C 
HETATM   15  C   UNL     1     -45.932 -52.731  12.527  1.00  0.00     0.015 C 
HETATM   16  C   UNL     1     -46.043 -51.291  13.079  1.00  0.00     0.009 C 
HETATM   17  C   UNL     1     -44.627 -51.007  13.592  1.00  0.00     0.017 C 
HETATM   18  C   UNL     1     -46.736 -51.392  14.410  1.00  0.00    -0.026 C 
HETATM   19  C   UNL     1     -44.597 -52.256  14.484  1.00  0.00     0.014 C 
HETATM   20  C   UNL     1     -45.883 -51.996  15.250  1.00  0.00    -0.025 C 
ENDBRANCH  13  14
ENDBRANCH  11  13
ENDBRANCH   1  11
TORSDOF 5
ENDMDL
MODEL 6
REMARK VINA RESULT:      -5.5      4.914      6.731
REMARK  5 active torsions:
REMARK  status: ('A' for Active; 'I' for Inactive)
REMARK    1  A    between atoms: C_2  and  C_3 
REMARK    2  A    between atoms: C_2  and  C_13 
REMARK    3  A    between atoms: C_3  and  N_4 
REMARK    4  A    between atoms: N_4  and  C_5 
REMARK    5  A    between atoms: C_5  and  C_6 
ROOT
HETATM    1  C   UNL     1     -46.840 -53.549  14.352  1.00  0.00     0.278 C 
ENDROOT
BRANCH   1   2
HETATM    2  C   UNL     1     -46.815 -52.005  14.196  1.00  0.00     0.042 C 
HETATM    3  C   UNL     1     -45.862 -51.559  13.078  1.00  0.00     0.016 C 
BRANCH   2   4
HETATM    4  C   UNL     1     -46.552 -51.318  15.530  1.00  0.00    -0.050 A 
HETATM    5  C   UNL     1     -47.584 -51.218  16.468  1.00  0.00     0.024 A 
HETATM    6  C   UNL     1     -47.318 -50.625  17.696  1.00  0.00     0.088 A 
HETATM    7  N   UNL     1     -46.110 -50.143  18.050  1.00  0.00    -0.375 N 
HETATM    8  C   UNL     1     -45.124 -50.253  17.135  1.00  0.00     0.088 A 
ATOM      9  HN  UNL     1     -45.949 -49.716  18.962  1.00  0.00     0.164 HD
HETATM   10  C   UNL     1     -45.293 -50.823  15.884  1.00  0.00     0.024 A 
ENDBRANCH   2   4
ENDBRANCH   1   2
BRANCH   1  11
HETATM   11  N   UNL     1     -45.612 -54.191  13.871  1.00  0.00     0.084 N 
HETATM   12  H   UNL     1     -45.121 -53.555  13.238  1.00  0.00     0.315 HD
BRANCH  11  13
HETATM   13  C   UNL     1     -44.715 -54.562  14.965  1.00  0.00     0.274 C 
BRANCH  13  14
HETATM   14  C   UNL     1     -43.298 -54.875  14.431  1.00  0.00     0.022 C 
HETATM   15  C   UNL     1     -42.230 -54.920  15.574  1.00  0.00     0.015 C 
HETATM   16  C   UNL     1     -41.324 -53.706  15.258  1.00  0.00     0.009 C 
HETATM   17  C   UNL     1     -42.288 -52.720  14.590  1.00  0.00     0.017 C 
HETATM   18  C   UNL     1     -40.519 -54.074  14.043  1.00  0.00    -0.026 C 
HETATM   19  C   UNL     1     -42.744 -53.733  13.532  1.00  0.00     0.014 C 
HETATM   20  C   UNL     1     -41.370 -54.119  13.008  1.00  0.00    -0.025 C 
ENDBRANCH  13  14
ENDBRANCH  11  13
ENDBRANCH   1  11
TORSDOF 5
ENDMDL
MODEL 7
REMARK VINA RESULT:      -5.5      1.523      2.295
REMARK  5 active torsions:
REMARK  status: ('A' for Active; 'I' for Inactive)
REMARK    1  A    between atoms: C_2  and  C_3 
REMARK    2  A    between atoms: C_2  and  C_13 
REMARK    3  A    between atoms: C_3  and  N_4 
REMARK    4  A    between atoms: N_4  and  C_5 
REMARK    5  A    between atoms: C_5  and  C_6 
ROOT
HETATM    1  C   UNL     1     -40.816 -50.998  12.300  1.00  0.00     0.278 C 
ENDROOT
BRANCH   1   2
HETATM    2  C   UNL     1     -40.415 -49.794  11.406  1.00  0.00     0.042 C 
HETATM    3  C   UNL     1     -39.000 -49.290  11.727  1.00  0.00     0.016 C 
BRANCH   2   4
HETATM    4  C   UNL     1     -41.474 -48.700  11.442  1.00  0.00    -0.050 A 
HETATM    5  C   UNL     1     -41.975 -48.187  10.243  1.00  0.00     0.024 A 
HETATM    6  C   UNL     1     -42.971 -47.219  10.292  1.00  0.00     0.088 A 
HETATM    7  N   UNL     1     -43.497 -46.743  11.438  1.00  0.00    -0.375 N 
HETATM    8  C   UNL     1     -43.006 -47.253  12.586  1.00  0.00     0.088 A 
ATOM      9  HN  UNL     1     -44.231 -46.034  11.437  1.00  0.00     0.164 HD
HETATM   10  C   UNL     1     -42.012 -48.216  12.639  1.00  0.00     0.024 A 
ENDBRANCH   2   4
ENDBRANCH   1   2
BRANCH   1  11
HETATM   11  N   UNL     1     -41.970 -51.736  11.778  1.00  0.00     0.084 N 
HETATM   12  H   UNL     1     -41.646 -52.470  11.143  1.00  0.00     0.315 HD
BRANCH  11  13
HETATM   13  C   UNL     1     -42.767 -52.345  12.843  1.00  0.00     0.274 C 
BRANCH  13  14
HETATM   14  C   UNL     1     -44.086 -51.567  13.054  1.00  0.00     0.022 C 
HETATM   15  C   UNL     1     -44.276 -51.113  14.539  1.00  0.00     0.015 C 
HETATM   16  C   UNL     1     -45.499 -51.937  15.006  1.00  0.00     0.009 C 
HETATM   17  C   UNL     1     -45.390 -53.219  14.175  1.00  0.00     0.017 C 
HETATM   18  C   UNL     1     -46.702 -51.344  14.327  1.00  0.00    -0.026 C 
HETATM   19  C   UNL     1     -45.338 -52.464  12.840  1.00  0.00     0.014 C 
HETATM   20  C   UNL     1     -46.597 -51.633  13.022  1.00  0.00    -0.025 C 
ENDBRANCH  13  14
ENDBRANCH  11  13
ENDBRANCH   1  11
TORSDOF 5
ENDMDL
MODEL 8
REMARK VINA RESULT:      -5.4      4.316      5.879
REMARK  5 active torsions:
REMARK  status: ('A' for Active; 'I' for Inactive)
REMARK    1  A    between atoms: C_2  and  C_3 
REMARK    2  A    between atoms: C_2  and  C_13 
REMARK    3  A    between atoms: C_3  and  N_4 
REMARK    4  A    between atoms: N_4  and  C_5 
REMARK    5  A    between atoms: C_5  and  C_6 
ROOT
HETATM    1  C   UNL     1     -41.772 -53.901  16.118  1.00  0.00     0.278 C 
ENDROOT
BRANCH   1   2
HETATM    2  C   UNL     1     -40.866 -54.447  14.982  1.00  0.00     0.042 C 
HETATM    3  C   UNL     1     -39.559 -55.039  15.528  1.00  0.00     0.016 C 
BRANCH   2   4
HETATM    4  C   UNL     1     -40.653 -53.403  13.894  1.00  0.00    -0.050 A 
HETATM    5  C   UNL     1     -41.507 -53.376  12.788  1.00  0.00     0.024 A 
HETATM    6  C   UNL     1     -41.326 -52.393  11.824  1.00  0.00     0.088 A 
HETATM    7  N   UNL     1     -40.371 -51.443  11.892  1.00  0.00    -0.375 N 
HETATM    8  C   UNL     1     -39.559 -51.479  12.969  1.00  0.00     0.088 A 
ATOM      9  HN  UNL     1     -40.269 -50.733  11.167  1.00  0.00     0.164 HD
HETATM   10  C   UNL     1     -39.659 -52.423  13.978  1.00  0.00     0.024 A 
ENDBRANCH   2   4
ENDBRANCH   1   2
BRANCH   1  11
HETATM   11  N   UNL     1     -43.192 -54.199  15.907  1.00  0.00     0.084 N 
HETATM   12  H   UNL     1     -43.489 -54.926  16.562  1.00  0.00     0.315 HD
BRANCH  11  13
HETATM   13  C   UNL     1     -44.038 -53.020  16.088  1.00  0.00     0.274 C 
BRANCH  13  14
HETATM   14  C   UNL     1     -44.422 -52.405  14.723  1.00  0.00     0.022 C 
HETATM   15  C   UNL     1     -45.265 -51.095  14.877  1.00  0.00     0.015 C 
HETATM   16  C   UNL     1     -46.644 -51.492  14.302  1.00  0.00     0.009 C 
HETATM   17  C   UNL     1     -46.733 -52.989  14.618  1.00  0.00     0.017 C 
HETATM   18  C   UNL     1     -46.475 -51.598  12.812  1.00  0.00    -0.026 C 
HETATM   19  C   UNL     1     -45.402 -53.312  13.925  1.00  0.00     0.014 C 
HETATM   20  C   UNL     1     -45.707 -52.672  12.580  1.00  0.00    -0.025 C 
ENDBRANCH  13  14
ENDBRANCH  11  13
ENDBRANCH   1  11
TORSDOF 5
ENDMDL
MODEL 9
REMARK VINA RESULT:      -5.4      1.867      6.279
REMARK  5 active torsions:
REMARK  status: ('A' for Active; 'I' for Inactive)
REMARK    1  A    between atoms: C_2  and  C_3 
REMARK    2  A    between atoms: C_2  and  C_13 
REMARK    3  A    between atoms: C_3  and  N_4 
REMARK    4  A    between atoms: N_4  and  C_5 
REMARK    5  A    between atoms: C_5  and  C_6 
ROOT
HETATM    1  C   UNL     1     -42.324 -51.111  12.994  1.00  0.00     0.278 C 
ENDROOT
BRANCH   1   2
HETATM    2  C   UNL     1     -43.678 -50.517  13.466  1.00  0.00     0.042 C 
HETATM    3  C   UNL     1     -43.510 -49.620  14.700  1.00  0.00     0.016 C 
BRANCH   2   4
HETATM    4  C   UNL     1     -44.728 -51.606  13.643  1.00  0.00    -0.050 A 
HETATM    5  C   UNL     1     -44.490 -52.882  13.126  1.00  0.00     0.024 A 
HETATM    6  C   UNL     1     -45.439 -53.877  13.331  1.00  0.00     0.088 A 
HETATM    7  N   UNL     1     -46.586 -53.689  14.015  1.00  0.00    -0.375 N 
HETATM    8  C   UNL     1     -46.797 -52.452  14.513  1.00  0.00     0.088 A 
ATOM      9  HN  UNL     1     -47.259 -54.443  14.150  1.00  0.00     0.164 HD
HETATM   10  C   UNL     1     -45.913 -51.397  14.356  1.00  0.00     0.024 A 
ENDBRANCH   2   4
ENDBRANCH   1   2
BRANCH   1  11
HETATM   11  N   UNL     1     -41.911 -50.614  11.678  1.00  0.00     0.084 N 
HETATM   12  H   UNL     1     -42.739 -50.432  11.107  1.00  0.00     0.315 HD
BRANCH  11  13
HETATM   13  C   UNL     1     -41.118 -49.389  11.772  1.00  0.00     0.274 C 
BRANCH  13  14
HETATM   14  C   UNL     1     -41.585 -48.352  10.725  1.00  0.00     0.022 C 
HETATM   15  C   UNL     1     -40.886 -46.964  10.912  1.00  0.00     0.015 C 
HETATM   16  C   UNL     1     -42.051 -46.035  11.327  1.00  0.00     0.009 C 
HETATM   17  C   UNL     1     -43.000 -46.982  12.070  1.00  0.00     0.017 C 
HETATM   18  C   UNL     1     -42.888 -45.817  10.097  1.00  0.00    -0.026 C 
HETATM   19  C   UNL     1     -43.082 -47.972  10.901  1.00  0.00     0.014 C 
HETATM   20  C   UNL     1     -43.488 -46.984   9.819  1.00  0.00    -0.025 C 
ENDBRANCH  13  14
ENDBRANCH  11  13
ENDBRANCH   1  11
TORSDOF 5
ENDMDL
