MODEL 1
REMARK VINA RESULT:      -5.8      0.000      0.000
REMARK  3 active torsions:
REMARK  status: ('A' for Active; 'I' for Inactive)
REMARK    1  A    between atoms: C_2  and  C_3 
REMARK       I    between atoms: C_2  and  N_10 
REMARK    2  A    between atoms: C_3  and  N_4 
REMARK    3  A    between atoms: N_10  and  C_11 
ROOT
HETATM    1  O   UNL     1     -40.454 -53.100  12.139  1.00  0.00    -0.272 OA
HETATM    2  C   UNL     1     -40.626 -52.333  13.083  1.00  0.00     0.237 C 
HETATM    3  N   UNL     1     -41.837 -52.181  13.734  1.00  0.00    -0.353 N 
HETATM    4  H   UNL     1     -41.922 -51.512  14.489  1.00  0.00     0.163 HD
ENDROOT
BRANCH   3   5
HETATM    5  C   UNL     1     -43.009 -53.022  13.464  1.00  0.00     0.119 C 
HETATM    6  C   UNL     1     -42.839 -54.478  13.926  1.00  0.00     0.057 C 
HETATM    7  C   UNL     1     -43.993 -54.739  14.896  1.00  0.00     0.275 C 
HETATM    8  N   UNL     1     -45.016 -53.782  14.482  1.00  0.00     0.095 N 
HETATM    9  C   UNL     1     -46.023 -53.509  15.508  1.00  0.00     0.273 C 
HETATM   10  C   UNL     1     -44.275 -52.548  14.190  1.00  0.00     0.245 C 
HETATM   11  C   UNL     1     -47.013 -52.441  15.007  1.00  0.00     0.030 C 
HETATM   12  C   UNL     1     -46.330 -51.208  14.395  1.00  0.00     0.004 C 
HETATM   13  C   UNL     1     -45.203 -51.605  13.435  1.00  0.00     0.038 C 
ENDBRANCH   3   5
BRANCH   2  14
HETATM   14  C   UNL     1     -39.480 -51.517  13.633  1.00  0.00     0.249 C 
BRANCH  14  15
HETATM   15  N   UNL     1     -38.755 -50.857  12.577  1.00  0.00    -0.264 N 
HETATM   16  C   UNL     1     -39.132 -49.828  11.778  1.00  0.00     0.213 A 
HETATM   17  N   UNL     1     -38.125 -49.528  10.986  1.00  0.00    -0.281 N 
HETATM   18  N   UNL     1     -37.112 -50.390  11.324  1.00  0.00    -0.008 NA
ATOM     19  HN  UNL     1     -38.102 -48.803  10.269  1.00  0.00     0.184 HD
HETATM   20  N   UNL     1     -37.489 -51.206  12.301  1.00  0.00    -0.005 NA
ENDBRANCH  14  15
ENDBRANCH   2  14
TORSDOF 3
ENDMDL
MODEL 2
REMARK VINA RESULT:      -5.8      4.514      5.799
REMARK  3 active torsions:
REMARK  status: ('A' for Active; 'I' for Inactive)
REMARK    1  A    between atoms: C_2  and  C_3 
REMARK       I    between atoms: C_2  and  N_10 
REMARK    2  A    between atoms: C_3  and  N_4 
REMARK    3  A    between atoms: N_10  and  C_11 
ROOT
HETATM    1  O   UNL     1     -42.114 -47.267  12.170  1.00  0.00    -0.272 OA
HETATM    2  C   UNL     1     -42.269 -48.046  11.233  1.00  0.00     0.237 C 
HETATM    3  N   UNL     1     -42.381 -49.416  11.389  1.00  0.00    -0.353 N 
HETATM    4  H   UNL     1     -42.479 -50.008  10.573  1.00  0.00     0.163 HD
ENDROOT
BRANCH   3   5
HETATM    5  C   UNL     1     -42.471 -50.075  12.697  1.00  0.00     0.119 C 
HETATM    6  C   UNL     1     -43.861 -49.964  13.344  1.00  0.00     0.057 C 
HETATM    7  C   UNL     1     -44.317 -51.403  13.588  1.00  0.00     0.275 C 
HETATM    8  N   UNL     1     -43.065 -52.151  13.685  1.00  0.00     0.095 N 
HETATM    9  C   UNL     1     -43.216 -53.590  13.465  1.00  0.00     0.273 C 
HETATM   10  C   UNL     1     -42.212 -51.586  12.632  1.00  0.00     0.245 C 
HETATM   11  C   UNL     1     -41.840 -54.280  13.517  1.00  0.00     0.030 C 
HETATM   12  C   UNL     1     -40.769 -53.580  12.665  1.00  0.00     0.004 C 
HETATM   13  C   UNL     1     -40.785 -52.062  12.872  1.00  0.00     0.038 C 
ENDBRANCH   3   5
BRANCH   2  14
HETATM   14  C   UNL     1     -42.393 -47.534   9.817  1.00  0.00     0.249 C 
BRANCH  14  15
HETATM   15  N   UNL     1     -43.730 -47.073   9.543  1.00  0.00    -0.264 N 
HETATM   16  C   UNL     1     -44.147 -45.964   8.884  1.00  0.00     0.213 A 
HETATM   17  N   UNL     1     -45.462 -45.977   8.839  1.00  0.00    -0.281 N 
HETATM   18  N   UNL     1     -45.847 -47.130   9.477  1.00  0.00    -0.008 NA
ATOM     19  HN  UNL     1     -46.070 -45.276   8.416  1.00  0.00     0.184 HD
HETATM   20  N   UNL     1     -44.791 -47.809   9.909  1.00  0.00    -0.005 NA
ENDBRANCH  14  15
ENDBRANCH   2  14
TORSDOF 3
ENDMDL
MODEL 3
REMARK VINA RESULT:      -5.5      2.194      6.560
REMARK  3 active torsions:
REMARK  status: ('A' for Active; 'I' for Inactive)
REMARK    1  A    between atoms: C_2  and  C_3 
REMARK       I    between atoms: C_2  and  N_10 
REMARK    2  A    between atoms: C_3  and  N_4 
REMARK    3  A    between atoms: N_10  and  C_11 
ROOT
HETATM    1  O   UNL     1     -43.130 -51.305  14.229  1.00  0.00    -0.272 OA
HETATM    2  C   UNL     1     -43.658 -51.691  13.188  1.00  0.00     0.237 C 
HETATM    3  N   UNL     1     -42.947 -52.042  12.055  1.00  0.00    -0.353 N 
HETATM    4  H   UNL     1     -43.442 -52.326  11.219  1.00  0.00     0.163 HD
ENDROOT
BRANCH   3   5
HETATM    5  C   UNL     1     -41.483 -52.130  12.016  1.00  0.00     0.119 C 
HETATM    6  C   UNL     1     -40.790 -50.765  11.872  1.00  0.00     0.057 C 
HETATM    7  C   UNL     1     -39.857 -50.648  13.078  1.00  0.00     0.275 C 
HETATM    8  N   UNL     1     -39.585 -52.038  13.441  1.00  0.00     0.095 N 
HETATM    9  C   UNL     1     -39.098 -52.209  14.811  1.00  0.00     0.273 C 
HETATM   10  C   UNL     1     -40.878 -52.720  13.297  1.00  0.00     0.245 C 
HETATM   11  C   UNL     1     -38.908 -53.706  15.121  1.00  0.00     0.030 C 
HETATM   12  C   UNL     1     -40.114 -54.573  14.725  1.00  0.00     0.004 C 
HETATM   13  C   UNL     1     -40.627 -54.222  13.324  1.00  0.00     0.038 C 
ENDBRANCH   3   5
BRANCH   2  14
HETATM   14  C   UNL     1     -45.158 -51.851  13.097  1.00  0.00     0.249 C 
BRANCH  14  15
HETATM   15  N   UNL     1     -45.570 -53.165  13.520  1.00  0.00    -0.264 N 
HETATM   16  C   UNL     1     -46.540 -53.531  14.395  1.00  0.00     0.213 A 
HETATM   17  N   UNL     1     -46.589 -54.845  14.435  1.00  0.00    -0.281 N 
HETATM   18  N   UNL     1     -45.632 -55.282  13.554  1.00  0.00    -0.008 NA
ATOM     19  HN  UNL     1     -47.211 -55.419  15.004  1.00  0.00     0.184 HD
HETATM   20  N   UNL     1     -45.005 -54.259  12.987  1.00  0.00    -0.005 NA
ENDBRANCH  14  15
ENDBRANCH   2  14
TORSDOF 3
ENDMDL
MODEL 4
REMARK VINA RESULT:      -5.5      2.615      6.787
REMARK  3 active torsions:
REMARK  status: ('A' for Active; 'I' for Inactive)
REMARK    1  A    between atoms: C_2  and  C_3 
REMARK       I    between atoms: C_2  and  N_10 
REMARK    2  A    between atoms: C_3  and  N_4 
REMARK    3  A    between atoms: N_10  and  C_11 
ROOT
HETATM    1  O   UNL     1     -42.569 -53.007  14.268  1.00  0.00    -0.272 OA
HETATM    2  C   UNL     1     -43.089 -52.821  13.170  1.00  0.00     0.237 C 
HETATM    3  N   UNL     1     -42.829 -51.718  12.378  1.00  0.00    -0.353 N 
HETATM    4  H   UNL     1     -43.311 -51.609  11.494  1.00  0.00     0.163 HD
ENDROOT
BRANCH   3   5
HETATM    5  C   UNL     1     -41.797 -50.723  12.693  1.00  0.00     0.119 C 
HETATM    6  C   UNL     1     -40.427 -51.043  12.075  1.00  0.00     0.057 C 
HETATM    7  C   UNL     1     -40.068 -49.828  11.218  1.00  0.00     0.275 C 
HETATM    8  N   UNL     1     -40.819 -48.736  11.835  1.00  0.00     0.095 N 
HETATM    9  C   UNL     1     -41.013 -47.581  10.958  1.00  0.00     0.273 C 
HETATM   10  C   UNL     1     -42.126 -49.321  12.161  1.00  0.00     0.245 C 
HETATM   11  C   UNL     1     -41.870 -46.517  11.667  1.00  0.00     0.030 C 
HETATM   12  C   UNL     1     -43.142 -47.085  12.317  1.00  0.00     0.004 C 
HETATM   13  C   UNL     1     -42.850 -48.368  13.103  1.00  0.00     0.038 C 
ENDBRANCH   3   5
BRANCH   2  14
HETATM   14  C   UNL     1     -44.041 -53.839  12.586  1.00  0.00     0.249 C 
BRANCH  14  15
HETATM   15  N   UNL     1     -45.199 -54.013  13.424  1.00  0.00    -0.264 N 
HETATM   16  C   UNL     1     -46.211 -53.151  13.696  1.00  0.00     0.213 A 
HETATM   17  N   UNL     1     -47.075 -53.759  14.480  1.00  0.00    -0.281 N 
HETATM   18  N   UNL     1     -46.577 -55.023  14.677  1.00  0.00    -0.008 NA
ATOM     19  HN  UNL     1     -47.937 -53.371  14.862  1.00  0.00     0.184 HD
HETATM   20  N   UNL     1     -45.429 -55.188  14.031  1.00  0.00    -0.005 NA
ENDBRANCH  14  15
ENDBRANCH   2  14
TORSDOF 3
ENDMDL
MODEL 5
REMARK VINA RESULT:      -5.4      2.214      2.563
REMARK  3 active torsions:
REMARK  status: ('A' for Active; 'I' for Inactive)
REMARK    1  A    between atoms: C_2  and  C_3 
REMARK       I    between atoms: C_2  and  N_10 
REMARK    2  A    between atoms: C_3  and  N_4 
REMARK    3  A    between atoms: N_10  and  C_11 
ROOT
HETATM    1  O   UNL     1     -42.181 -51.984  14.649  1.00  0.00    -0.272 OA
HETATM    2  C   UNL     1     -42.027 -51.555  13.508  1.00  0.00     0.237 C 
HETATM    3  N   UNL     1     -42.782 -51.970  12.426  1.00  0.00    -0.353 N 
HETATM    4  H   UNL     1     -42.588 -51.598  11.505  1.00  0.00     0.163 HD
ENDROOT
BRANCH   3   5
HETATM    5  C   UNL     1     -43.943 -52.860  12.547  1.00  0.00     0.119 C 
HETATM    6  C   UNL     1     -43.571 -54.312  12.886  1.00  0.00     0.057 C 
HETATM    7  C   UNL     1     -44.315 -54.636  14.182  1.00  0.00     0.275 C 
HETATM    8  N   UNL     1     -45.455 -53.721  14.165  1.00  0.00     0.095 N 
HETATM    9  C   UNL     1     -46.063 -53.506  15.479  1.00  0.00     0.273 C 
HETATM   10  C   UNL     1     -44.904 -52.451  13.672  1.00  0.00     0.245 C 
HETATM   11  C   UNL     1     -47.204 -52.478  15.371  1.00  0.00     0.030 C 
HETATM   12  C   UNL     1     -46.817 -51.208  14.596  1.00  0.00     0.004 C 
HETATM   13  C   UNL     1     -46.068 -51.542  13.301  1.00  0.00     0.038 C 
ENDBRANCH   3   5
BRANCH   2  14
HETATM   14  C   UNL     1     -41.001 -50.484  13.218  1.00  0.00     0.249 C 
BRANCH  14  15
HETATM   15  N   UNL     1     -41.424 -49.635  12.135  1.00  0.00    -0.264 N 
HETATM   16  C   UNL     1     -40.804 -49.349  10.963  1.00  0.00     0.213 A 
HETATM   17  N   UNL     1     -41.587 -48.560  10.260  1.00  0.00    -0.281 N 
HETATM   18  N   UNL     1     -42.713 -48.373  11.023  1.00  0.00    -0.008 NA
ATOM     19  HN  UNL     1     -41.397 -48.167   9.338  1.00  0.00     0.184 HD
HETATM   20  N   UNL     1     -42.622 -49.031  12.172  1.00  0.00    -0.005 NA
ENDBRANCH  14  15
ENDBRANCH   2  14
TORSDOF 3
ENDMDL
MODEL 6
REMARK VINA RESULT:      -5.4      2.116      2.699
REMARK  3 active torsions:
REMARK  status: ('A' for Active; 'I' for Inactive)
REMARK    1  A    between atoms: C_2  and  C_3 
REMARK       I    between atoms: C_2  and  N_10 
REMARK    2  A    between atoms: C_3  and  N_4 
REMARK    3  A    between atoms: N_10  and  C_11 
ROOT
HETATM    1  O   UNL     1     -42.240 -50.451  12.222  1.00  0.00    -0.272 OA
HETATM    2  C   UNL     1     -41.685 -51.462  12.646  1.00  0.00     0.237 C 
HETATM    3  N   UNL     1     -42.365 -52.596  13.051  1.00  0.00    -0.353 N 
HETATM    4  H   UNL     1     -41.850 -53.387  13.417  1.00  0.00     0.163 HD
ENDROOT
BRANCH   3   5
HETATM    5  C   UNL     1     -43.812 -52.771  12.883  1.00  0.00     0.119 C 
HETATM    6  C   UNL     1     -44.218 -54.208  12.518  1.00  0.00     0.057 C 
HETATM    7  C   UNL     1     -45.195 -54.650  13.608  1.00  0.00     0.275 C 
HETATM    8  N   UNL     1     -45.754 -53.393  14.102  1.00  0.00     0.095 N 
HETATM    9  C   UNL     1     -46.361 -53.495  15.430  1.00  0.00     0.273 C 
HETATM   10  C   UNL     1     -44.610 -52.475  14.161  1.00  0.00     0.245 C 
HETATM   11  C   UNL     1     -46.856 -52.112  15.892  1.00  0.00     0.030 C 
HETATM   12  C   UNL     1     -45.815 -50.996  15.715  1.00  0.00     0.004 C 
HETATM   13  C   UNL     1     -45.145 -51.060  14.338  1.00  0.00     0.038 C 
ENDBRANCH   3   5
BRANCH   2  14
HETATM   14  C   UNL     1     -40.177 -51.543  12.712  1.00  0.00     0.249 C 
BRANCH  14  15
HETATM   15  N   UNL     1     -39.749 -52.559  13.639  1.00  0.00    -0.264 N 
HETATM   16  C   UNL     1     -39.404 -52.451  14.947  1.00  0.00     0.213 A 
HETATM   17  N   UNL     1     -39.125 -53.653  15.403  1.00  0.00    -0.281 N 
HETATM   18  N   UNL     1     -39.318 -54.509  14.347  1.00  0.00    -0.008 NA
ATOM     19  HN  UNL     1     -38.827 -53.899  16.347  1.00  0.00     0.184 HD
HETATM   20  N   UNL     1     -39.704 -53.847  13.263  1.00  0.00    -0.005 NA
ENDBRANCH  14  15
ENDBRANCH   2  14
TORSDOF 3
ENDMDL
MODEL 7
REMARK VINA RESULT:      -5.4      2.143      6.873
REMARK  3 active torsions:
REMARK  status: ('A' for Active; 'I' for Inactive)
REMARK    1  A    between atoms: C_2  and  C_3 
REMARK       I    between atoms: C_2  and  N_10 
REMARK    2  A    between atoms: C_3  and  N_4 
REMARK    3  A    between atoms: N_10  and  C_11 
ROOT
HETATM    1  O   UNL     1     -41.396 -54.527  15.716  1.00  0.00    -0.272 OA
HETATM    2  C   UNL     1     -42.347 -53.792  15.463  1.00  0.00     0.237 C 
HETATM    3  N   UNL     1     -42.344 -52.862  14.440  1.00  0.00    -0.353 N 
HETATM    4  H   UNL     1     -43.151 -52.266  14.300  1.00  0.00     0.163 HD
ENDROOT
BRANCH   3   5
HETATM    5  C   UNL     1     -41.263 -52.750  13.455  1.00  0.00     0.119 C 
HETATM    6  C   UNL     1     -41.742 -52.294  12.067  1.00  0.00     0.057 C 
HETATM    7  C   UNL     1     -40.949 -51.025  11.754  1.00  0.00     0.275 C 
HETATM    8  N   UNL     1     -39.735 -51.168  12.555  1.00  0.00     0.095 N 
HETATM    9  C   UNL     1     -39.027 -49.909  12.792  1.00  0.00     0.273 C 
HETATM   10  C   UNL     1     -40.199 -51.712  13.839  1.00  0.00     0.245 C 
HETATM   11  C   UNL     1     -37.808 -50.151  13.700  1.00  0.00     0.030 C 
HETATM   12  C   UNL     1     -38.128 -50.984  14.951  1.00  0.00     0.004 C 
HETATM   13  C   UNL     1     -38.984 -52.209  14.611  1.00  0.00     0.038 C 
ENDBRANCH   3   5
BRANCH   2  14
HETATM   14  C   UNL     1     -43.632 -53.894  16.253  1.00  0.00     0.249 C 
BRANCH  14  15
HETATM   15  N   UNL     1     -44.707 -54.399  15.438  1.00  0.00    -0.264 N 
HETATM   16  C   UNL     1     -46.016 -54.044  15.411  1.00  0.00     0.213 A 
HETATM   17  N   UNL     1     -46.617 -54.744  14.473  1.00  0.00    -0.281 N 
HETATM   18  N   UNL     1     -45.643 -55.534  13.913  1.00  0.00    -0.008 NA
ATOM     19  HN  UNL     1     -47.602 -54.708  14.215  1.00  0.00     0.184 HD
HETATM   20  N   UNL     1     -44.469 -55.326  14.497  1.00  0.00    -0.005 NA
ENDBRANCH  14  15
ENDBRANCH   2  14
TORSDOF 3
ENDMDL
MODEL 8
REMARK VINA RESULT:      -5.1     11.530     14.089
REMARK  3 active torsions:
REMARK  status: ('A' for Active; 'I' for Inactive)
REMARK    1  A    between atoms: C_2  and  C_3 
REMARK       I    between atoms: C_2  and  N_10 
REMARK    2  A    between atoms: C_3  and  N_4 
REMARK    3  A    between atoms: N_10  and  C_11 
ROOT
HETATM    1  O   UNL     1     -33.734 -57.406  16.628  1.00  0.00    -0.272 OA
HETATM    2  C   UNL     1     -33.698 -57.654  17.831  1.00  0.00     0.237 C 
HETATM    3  N   UNL     1     -32.811 -57.056  18.708  1.00  0.00    -0.353 N 
HETATM    4  H   UNL     1     -32.813 -57.323  19.685  1.00  0.00     0.163 HD
ENDROOT
BRANCH   3   5
HETATM    5  C   UNL     1     -31.917 -55.956  18.328  1.00  0.00     0.119 C 
HETATM    6  C   UNL     1     -32.577 -54.570  18.416  1.00  0.00     0.057 C 
HETATM    7  C   UNL     1     -31.703 -53.759  19.374  1.00  0.00     0.275 C 
HETATM    8  N   UNL     1     -30.392 -54.399  19.273  1.00  0.00     0.095 N 
HETATM    9  C   UNL     1     -29.505 -54.117  20.402  1.00  0.00     0.273 C 
HETATM   10  C   UNL     1     -30.683 -55.838  19.233  1.00  0.00     0.245 C 
HETATM   11  C   UNL     1     -28.182 -54.887  20.240  1.00  0.00     0.030 C 
HETATM   12  C   UNL     1     -28.374 -56.372  19.894  1.00  0.00     0.004 C 
HETATM   13  C   UNL     1     -29.420 -56.566  18.791  1.00  0.00     0.038 C 
ENDBRANCH   3   5
BRANCH   2  14
HETATM   14  C   UNL     1     -34.677 -58.626  18.448  1.00  0.00     0.249 C 
BRANCH  14  15
HETATM   15  N   UNL     1     -34.185 -59.977  18.376  1.00  0.00    -0.264 N 
HETATM   16  C   UNL     1     -34.809 -61.107  17.957  1.00  0.00     0.213 A 
HETATM   17  N   UNL     1     -33.954 -62.104  18.025  1.00  0.00    -0.281 N 
HETATM   18  N   UNL     1     -32.780 -61.560  18.486  1.00  0.00    -0.008 NA
ATOM     19  HN  UNL     1     -34.127 -63.080  17.785  1.00  0.00     0.184 HD
HETATM   20  N   UNL     1     -32.913 -60.257  18.701  1.00  0.00    -0.005 NA
ENDBRANCH  14  15
ENDBRANCH   2  14
TORSDOF 3
ENDMDL
MODEL 9
REMARK VINA RESULT:      -5.1      2.269      3.331
REMARK  3 active torsions:
REMARK  status: ('A' for Active; 'I' for Inactive)
REMARK    1  A    between atoms: C_2  and  C_3 
REMARK       I    between atoms: C_2  and  N_10 
REMARK    2  A    between atoms: C_3  and  N_4 
REMARK    3  A    between atoms: N_10  and  C_11 
ROOT
HETATM    1  O   UNL     1     -39.507 -49.412  16.067  1.00  0.00    -0.272 OA
HETATM    2  C   UNL     1     -39.419 -49.513  14.846  1.00  0.00     0.237 C 
HETATM    3  N   UNL     1     -40.391 -50.097  14.054  1.00  0.00    -0.353 N 
HETATM    4  H   UNL     1     -40.247 -50.174  13.055  1.00  0.00     0.163 HD
ENDROOT
BRANCH   3   5
HETATM    5  C   UNL     1     -41.697 -50.528  14.567  1.00  0.00     0.119 C 
HETATM    6  C   UNL     1     -42.836 -49.547  14.246  1.00  0.00     0.057 C 
HETATM    7  C   UNL     1     -43.874 -50.361  13.472  1.00  0.00     0.275 C 
HETATM    8  N   UNL     1     -43.635 -51.734  13.912  1.00  0.00     0.095 N 
HETATM    9  C   UNL     1     -44.172 -52.750  13.005  1.00  0.00     0.273 C 
HETATM   10  C   UNL     1     -42.173 -51.858  13.967  1.00  0.00     0.245 C 
HETATM   11  C   UNL     1     -43.811 -54.157  13.514  1.00  0.00     0.030 C 
HETATM   12  C   UNL     1     -42.330 -54.313  13.893  1.00  0.00     0.004 C 
HETATM   13  C   UNL     1     -41.833 -53.131  14.733  1.00  0.00     0.038 C 
ENDBRANCH   3   5
BRANCH   2  14
HETATM   14  C   UNL     1     -38.224 -48.951  14.109  1.00  0.00     0.249 C 
BRANCH  14  15
HETATM   15  N   UNL     1     -37.814 -49.822  13.039  1.00  0.00    -0.264 N 
HETATM   16  C   UNL     1     -37.745 -49.584  11.705  1.00  0.00     0.213 A 
HETATM   17  N   UNL     1     -37.270 -50.661  11.115  1.00  0.00    -0.281 N 
HETATM   18  N   UNL     1     -37.036 -51.566  12.120  1.00  0.00    -0.008 NA
ATOM     19  HN  UNL     1     -37.109 -50.794  10.117  1.00  0.00     0.184 HD
HETATM   20  N   UNL     1     -37.364 -51.059  13.302  1.00  0.00    -0.005 NA
ENDBRANCH  14  15
ENDBRANCH   2  14
TORSDOF 3
ENDMDL
