MODEL 1
REMARK VINA RESULT:      -5.5      0.000      0.000
REMARK  6 active torsions:
REMARK  status: ('A' for Active; 'I' for Inactive)
REMARK    1  A    between atoms: C_2  and  C_4 
REMARK    2  A    between atoms: N_9  and  C_10 
REMARK    3  A    between atoms: C_10  and  C_11 
REMARK       I    between atoms: C_11  and  N_13 
REMARK    4  A    between atoms: N_13  and  C_14 
REMARK    5  A    between atoms: C_14  and  C_15 
REMARK    6  A    between atoms: C_14  and  C_18 
ROOT
HETATM    1  C   UNL     1     -42.316 -52.000  12.886  1.00  0.00     0.236 C 
HETATM    2  O   UNL     1     -42.585 -52.708  11.915  1.00  0.00    -0.272 OA
HETATM    3  N   UNL     1     -43.201 -51.835  13.942  1.00  0.00    -0.354 N 
HETATM    4  H   UNL     1     -43.088 -51.052  14.572  1.00  0.00     0.162 HD
ENDROOT
BRANCH   1   5
HETATM    5  C   UNL     1     -40.951 -51.358  13.009  1.00  0.00     0.232 C 
BRANCH   5   6
HETATM    6  N   UNL     1     -40.722 -50.199  12.156  1.00  0.00    -0.336 N 
HETATM    7  C   UNL     1     -39.542 -49.563  11.833  1.00  0.00     0.087 A 
HETATM    8  N   UNL     1     -39.796 -48.448  11.162  1.00  0.00    -0.354 N 
HETATM    9  C   UNL     1     -41.154 -48.329  11.097  1.00  0.00     0.106 A 
ATOM     10  HN  UNL     1     -39.110 -47.804  10.769  1.00  0.00     0.166 HD
HETATM   11  C   UNL     1     -41.753 -49.392  11.715  1.00  0.00     0.110 A 
BRANCH   7  12
HETATM   12  C   UNL     1     -38.143 -49.981  12.209  1.00  0.00     0.045 C 
HETATM   13  C   UNL     1     -37.245 -49.955  10.966  1.00  0.00     0.017 C 
HETATM   14  C   UNL     1     -37.591 -49.070  13.311  1.00  0.00     0.017 C 
ENDBRANCH   7  12
ENDBRANCH   5   6
ENDBRANCH   1   5
BRANCH   3  15
HETATM   15  C   UNL     1     -44.520 -52.446  13.843  1.00  0.00     0.092 C 
BRANCH  15  16
HETATM   16  C   UNL     1     -44.697 -53.725  14.619  1.00  0.00     0.009 A 
HETATM   17  C   UNL     1     -43.730 -54.886  14.589  1.00  0.00     0.007 A 
HETATM   18  C   UNL     1     -45.115 -55.050  14.022  1.00  0.00     0.007 A 
ENDBRANCH  15  16
BRANCH  15  19
HETATM   19  C   UNL     1     -45.571 -51.404  14.150  1.00  0.00     0.009 A 
HETATM   20  C   UNL     1     -46.892 -51.727  14.811  1.00  0.00     0.007 A 
HETATM   21  C   UNL     1     -46.849 -51.435  13.341  1.00  0.00     0.007 A 
ENDBRANCH  15  19
ENDBRANCH   3  15
TORSDOF 6
ENDMDL
MODEL 2
REMARK VINA RESULT:      -5.5      1.816      3.002
REMARK  6 active torsions:
REMARK  status: ('A' for Active; 'I' for Inactive)
REMARK    1  A    between atoms: C_2  and  C_4 
REMARK    2  A    between atoms: N_9  and  C_10 
REMARK    3  A    between atoms: C_10  and  C_11 
REMARK       I    between atoms: C_11  and  N_13 
REMARK    4  A    between atoms: N_13  and  C_14 
REMARK    5  A    between atoms: C_14  and  C_15 
REMARK    6  A    between atoms: C_14  and  C_18 
ROOT
HETATM    1  C   UNL     1     -43.508 -49.812  13.897  1.00  0.00     0.236 C 
HETATM    2  O   UNL     1     -43.353 -50.102  15.084  1.00  0.00    -0.272 OA
HETATM    3  N   UNL     1     -44.225 -50.625  13.031  1.00  0.00    -0.354 N 
HETATM    4  H   UNL     1     -44.104 -50.522  12.032  1.00  0.00     0.162 HD
ENDROOT
BRANCH   1   5
HETATM    5  C   UNL     1     -42.997 -48.493  13.360  1.00  0.00     0.232 C 
BRANCH   5   6
HETATM    6  N   UNL     1     -42.565 -48.504  11.969  1.00  0.00    -0.336 N 
HETATM    7  C   UNL     1     -41.431 -49.049  11.404  1.00  0.00     0.087 A 
HETATM    8  N   UNL     1     -41.342 -48.690  10.130  1.00  0.00    -0.354 N 
HETATM    9  C   UNL     1     -42.397 -47.861   9.881  1.00  0.00     0.106 A 
ATOM     10  HN  UNL     1     -40.624 -48.979   9.466  1.00  0.00     0.166 HD
HETATM   11  C   UNL     1     -43.163 -47.717  11.004  1.00  0.00     0.110 A 
BRANCH   7  12
HETATM   12  C   UNL     1     -40.376 -49.880  12.087  1.00  0.00     0.045 C 
HETATM   13  C   UNL     1     -40.726 -51.368  11.957  1.00  0.00     0.017 C 
HETATM   14  C   UNL     1     -38.994 -49.582  11.495  1.00  0.00     0.017 C 
ENDBRANCH   7  12
ENDBRANCH   5   6
ENDBRANCH   1   5
BRANCH   3  15
HETATM   15  C   UNL     1     -44.725 -51.899  13.529  1.00  0.00     0.092 C 
BRANCH  15  16
HETATM   16  C   UNL     1     -46.211 -51.957  13.773  1.00  0.00     0.009 A 
HETATM   17  C   UNL     1     -46.919 -51.264  14.914  1.00  0.00     0.007 A 
HETATM   18  C   UNL     1     -46.879 -52.768  14.861  1.00  0.00     0.007 A 
ENDBRANCH  15  16
BRANCH  15  19
HETATM   19  C   UNL     1     -44.216 -53.010  12.640  1.00  0.00     0.009 A 
HETATM   20  C   UNL     1     -44.481 -54.475  12.908  1.00  0.00     0.007 A 
HETATM   21  C   UNL     1     -43.123 -53.903  13.185  1.00  0.00     0.007 A 
ENDBRANCH  15  19
ENDBRANCH   3  15
TORSDOF 6
ENDMDL
MODEL 3
REMARK VINA RESULT:      -5.4      1.017      2.398
REMARK  6 active torsions:
REMARK  status: ('A' for Active; 'I' for Inactive)
REMARK    1  A    between atoms: C_2  and  C_4 
REMARK    2  A    between atoms: N_9  and  C_10 
REMARK    3  A    between atoms: C_10  and  C_11 
REMARK       I    between atoms: C_11  and  N_13 
REMARK    4  A    between atoms: N_13  and  C_14 
REMARK    5  A    between atoms: C_14  and  C_15 
REMARK    6  A    between atoms: C_14  and  C_18 
ROOT
HETATM    1  C   UNL     1     -42.193 -52.087  12.731  1.00  0.00     0.236 C 
HETATM    2  O   UNL     1     -42.022 -51.971  13.945  1.00  0.00    -0.272 OA
HETATM    3  N   UNL     1     -43.386 -52.554  12.199  1.00  0.00    -0.354 N 
HETATM    4  H   UNL     1     -43.408 -52.902  11.249  1.00  0.00     0.162 HD
ENDROOT
BRANCH   1   5
HETATM    5  C   UNL     1     -41.127 -51.622  11.762  1.00  0.00     0.232 C 
BRANCH   5   6
HETATM    6  N   UNL     1     -40.853 -50.192  11.766  1.00  0.00    -0.336 N 
HETATM    7  C   UNL     1     -39.689 -49.519  12.072  1.00  0.00     0.087 A 
HETATM    8  N   UNL     1     -39.916 -48.213  12.111  1.00  0.00    -0.354 N 
HETATM    9  C   UNL     1     -41.251 -48.039  11.884  1.00  0.00     0.106 A 
ATOM     10  HN  UNL     1     -39.227 -47.480  12.279  1.00  0.00     0.166 HD
HETATM   11  C   UNL     1     -41.858 -49.248  11.679  1.00  0.00     0.110 A 
BRANCH   7  12
HETATM   12  C   UNL     1     -38.342 -50.116  12.390  1.00  0.00     0.045 C 
HETATM   13  C   UNL     1     -37.409 -49.959  11.183  1.00  0.00     0.017 C 
HETATM   14  C   UNL     1     -37.747 -49.459  13.641  1.00  0.00     0.017 C 
ENDBRANCH   7  12
ENDBRANCH   5   6
ENDBRANCH   1   5
BRANCH   3  15
HETATM   15  C   UNL     1     -44.425 -53.005  13.115  1.00  0.00     0.092 C 
BRANCH  15  16
HETATM   16  C   UNL     1     -45.813 -52.505  12.811  1.00  0.00     0.009 A 
HETATM   17  C   UNL     1     -46.140 -51.098  12.371  1.00  0.00     0.007 A 
HETATM   18  C   UNL     1     -46.622 -51.595  13.707  1.00  0.00     0.007 A 
ENDBRANCH  15  16
BRANCH  15  19
HETATM   19  C   UNL     1     -44.341 -54.507  13.254  1.00  0.00     0.009 A 
HETATM   20  C   UNL     1     -45.410 -55.340  13.926  1.00  0.00     0.007 A 
HETATM   21  C   UNL     1     -44.119 -55.075  14.639  1.00  0.00     0.007 A 
ENDBRANCH  15  19
ENDBRANCH   3  15
TORSDOF 6
ENDMDL
MODEL 4
REMARK VINA RESULT:      -5.4      1.229      3.326
REMARK  6 active torsions:
REMARK  status: ('A' for Active; 'I' for Inactive)
REMARK    1  A    between atoms: C_2  and  C_4 
REMARK    2  A    between atoms: N_9  and  C_10 
REMARK    3  A    between atoms: C_10  and  C_11 
REMARK       I    between atoms: C_11  and  N_13 
REMARK    4  A    between atoms: N_13  and  C_14 
REMARK    5  A    between atoms: C_14  and  C_15 
REMARK    6  A    between atoms: C_14  and  C_18 
ROOT
HETATM    1  C   UNL     1     -42.099 -52.276  12.659  1.00  0.00     0.236 C 
HETATM    2  O   UNL     1     -41.957 -52.083  13.867  1.00  0.00    -0.272 OA
HETATM    3  N   UNL     1     -43.292 -52.742  12.125  1.00  0.00    -0.354 N 
HETATM    4  H   UNL     1     -43.300 -53.153  11.201  1.00  0.00     0.162 HD
ENDROOT
BRANCH   1   5
HETATM    5  C   UNL     1     -40.994 -51.910  11.692  1.00  0.00     0.232 C 
BRANCH   5   6
HETATM    6  N   UNL     1     -40.283 -50.674  11.987  1.00  0.00    -0.336 N 
HETATM    7  C   UNL     1     -40.682 -49.365  11.811  1.00  0.00     0.087 A 
HETATM    8  N   UNL     1     -39.668 -48.545  12.052  1.00  0.00    -0.354 N 
HETATM    9  C   UNL     1     -38.586 -49.329  12.333  1.00  0.00     0.106 A 
ATOM     10  HN  UNL     1     -39.691 -47.526  12.033  1.00  0.00     0.166 HD
HETATM   11  C   UNL     1     -38.934 -50.651  12.287  1.00  0.00     0.110 A 
BRANCH   7  12
HETATM   12  C   UNL     1     -42.030 -48.873  11.352  1.00  0.00     0.045 C 
HETATM   13  C   UNL     1     -42.904 -48.549  12.570  1.00  0.00     0.017 C 
HETATM   14  C   UNL     1     -41.871 -47.648  10.443  1.00  0.00     0.017 C 
ENDBRANCH   7  12
ENDBRANCH   5   6
ENDBRANCH   1   5
BRANCH   3  15
HETATM   15  C   UNL     1     -44.369 -53.098  13.039  1.00  0.00     0.092 C 
BRANCH  15  16
HETATM   16  C   UNL     1     -45.716 -52.513  12.707  1.00  0.00     0.009 A 
HETATM   17  C   UNL     1     -45.978 -51.043  12.474  1.00  0.00     0.007 A 
HETATM   18  C   UNL     1     -46.582 -51.731  13.669  1.00  0.00     0.007 A 
ENDBRANCH  15  16
BRANCH  15  19
HETATM   19  C   UNL     1     -44.390 -54.599  13.215  1.00  0.00     0.009 A 
HETATM   20  C   UNL     1     -45.513 -55.338  13.907  1.00  0.00     0.007 A 
HETATM   21  C   UNL     1     -44.206 -55.146  14.614  1.00  0.00     0.007 A 
ENDBRANCH  15  19
ENDBRANCH   3  15
TORSDOF 6
ENDMDL
MODEL 5
REMARK VINA RESULT:      -5.4      1.359      6.943
REMARK  6 active torsions:
REMARK  status: ('A' for Active; 'I' for Inactive)
REMARK    1  A    between atoms: C_2  and  C_4 
REMARK    2  A    between atoms: N_9  and  C_10 
REMARK    3  A    between atoms: C_10  and  C_11 
REMARK       I    between atoms: C_11  and  N_13 
REMARK    4  A    between atoms: N_13  and  C_14 
REMARK    5  A    between atoms: C_14  and  C_15 
REMARK    6  A    between atoms: C_14  and  C_18 
ROOT
HETATM    1  C   UNL     1     -42.267 -51.693  13.298  1.00  0.00     0.236 C 
HETATM    2  O   UNL     1     -42.284 -52.183  12.168  1.00  0.00    -0.272 OA
HETATM    3  N   UNL     1     -41.650 -50.479  13.563  1.00  0.00    -0.354 N 
HETATM    4  H   UNL     1     -41.405 -50.240  14.515  1.00  0.00     0.162 HD
ENDROOT
BRANCH   1   5
HETATM    5  C   UNL     1     -43.017 -52.361  14.430  1.00  0.00     0.232 C 
BRANCH   5   6
HETATM    6  N   UNL     1     -44.083 -53.269  14.030  1.00  0.00    -0.336 N 
HETATM    7  C   UNL     1     -45.385 -52.993  13.665  1.00  0.00     0.087 A 
HETATM    8  N   UNL     1     -46.069 -54.122  13.536  1.00  0.00    -0.354 N 
HETATM    9  C   UNL     1     -45.221 -55.136  13.874  1.00  0.00     0.106 A 
ATOM     10  HN  UNL     1     -47.041 -54.214  13.241  1.00  0.00     0.166 HD
HETATM   11  C   UNL     1     -43.989 -54.637  14.197  1.00  0.00     0.110 A 
BRANCH   7  12
HETATM   12  C   UNL     1     -46.018 -51.637  13.485  1.00  0.00     0.045 C 
HETATM   13  C   UNL     1     -46.811 -51.607  12.173  1.00  0.00     0.017 C 
HETATM   14  C   UNL     1     -46.915 -51.303  14.683  1.00  0.00     0.017 C 
ENDBRANCH   7  12
ENDBRANCH   5   6
ENDBRANCH   1   5
BRANCH   3  15
HETATM   15  C   UNL     1     -40.923 -49.821  12.486  1.00  0.00     0.092 C 
BRANCH  15  16
HETATM   16  C   UNL     1     -41.520 -48.524  12.005  1.00  0.00     0.009 A 
HETATM   17  C   UNL     1     -42.964 -48.346  11.595  1.00  0.00     0.007 A 
HETATM   18  C   UNL     1     -41.872 -48.214  10.567  1.00  0.00     0.007 A 
ENDBRANCH  15  16
BRANCH  15  19
HETATM   19  C   UNL     1     -39.466 -49.707  12.871  1.00  0.00     0.009 A 
HETATM   20  C   UNL     1     -38.402 -49.163  11.944  1.00  0.00     0.007 A 
HETATM   21  C   UNL     1     -38.484 -50.639  12.194  1.00  0.00     0.007 A 
ENDBRANCH  15  19
ENDBRANCH   3  15
TORSDOF 6
ENDMDL
MODEL 6
REMARK VINA RESULT:      -5.2      1.604      6.684
REMARK  6 active torsions:
REMARK  status: ('A' for Active; 'I' for Inactive)
REMARK    1  A    between atoms: C_2  and  C_4 
REMARK    2  A    between atoms: N_9  and  C_10 
REMARK    3  A    between atoms: C_10  and  C_11 
REMARK       I    between atoms: C_11  and  N_13 
REMARK    4  A    between atoms: N_13  and  C_14 
REMARK    5  A    between atoms: C_14  and  C_15 
REMARK    6  A    between atoms: C_14  and  C_18 
ROOT
HETATM    1  C   UNL     1     -41.462 -51.469  12.306  1.00  0.00     0.236 C 
HETATM    2  O   UNL     1     -41.892 -50.955  13.339  1.00  0.00    -0.272 OA
HETATM    3  N   UNL     1     -40.691 -50.759  11.397  1.00  0.00    -0.354 N 
HETATM    4  H   UNL     1     -40.591 -51.100  10.451  1.00  0.00     0.162 HD
ENDROOT
BRANCH   1   5
HETATM    5  C   UNL     1     -41.682 -52.943  12.038  1.00  0.00     0.232 C 
BRANCH   5   6
HETATM    6  N   UNL     1     -41.919 -53.768  13.215  1.00  0.00    -0.336 N 
HETATM    7  C   UNL     1     -43.108 -54.221  13.747  1.00  0.00     0.087 A 
HETATM    8  N   UNL     1     -42.888 -54.803  14.918  1.00  0.00    -0.354 N 
HETATM    9  C   UNL     1     -41.553 -54.677  15.175  1.00  0.00     0.106 A 
ATOM     10  HN  UNL     1     -43.582 -55.257  15.512  1.00  0.00     0.166 HD
HETATM   11  C   UNL     1     -40.931 -54.029  14.144  1.00  0.00     0.110 A 
BRANCH   7  12
HETATM   12  C   UNL     1     -44.491 -54.058  13.171  1.00  0.00     0.045 C 
HETATM   13  C   UNL     1     -45.420 -55.136  13.743  1.00  0.00     0.017 C 
HETATM   14  C   UNL     1     -45.029 -52.652  13.461  1.00  0.00     0.017 C 
ENDBRANCH   7  12
ENDBRANCH   5   6
ENDBRANCH   1   5
BRANCH   3  15
HETATM   15  C   UNL     1     -40.468 -49.339  11.637  1.00  0.00     0.092 C 
BRANCH  15  16
HETATM   16  C   UNL     1     -39.024 -48.908  11.653  1.00  0.00     0.009 A 
HETATM   17  C   UNL     1     -37.847 -49.854  11.689  1.00  0.00     0.007 A 
HETATM   18  C   UNL     1     -38.119 -48.952  12.863  1.00  0.00     0.007 A 
ENDBRANCH  15  16
BRANCH  15  19
HETATM   19  C   UNL     1     -41.327 -48.537  10.689  1.00  0.00     0.009 A 
HETATM   20  C   UNL     1     -41.402 -47.027  10.711  1.00  0.00     0.007 A 
HETATM   21  C   UNL     1     -42.539 -47.835  11.260  1.00  0.00     0.007 A 
ENDBRANCH  15  19
ENDBRANCH   3  15
TORSDOF 6
ENDMDL
MODEL 7
REMARK VINA RESULT:      -5.2      3.516      5.723
REMARK  6 active torsions:
REMARK  status: ('A' for Active; 'I' for Inactive)
REMARK    1  A    between atoms: C_2  and  C_4 
REMARK    2  A    between atoms: N_9  and  C_10 
REMARK    3  A    between atoms: C_10  and  C_11 
REMARK       I    between atoms: C_11  and  N_13 
REMARK    4  A    between atoms: N_13  and  C_14 
REMARK    5  A    between atoms: C_14  and  C_15 
REMARK    6  A    between atoms: C_14  and  C_18 
ROOT
HETATM    1  C   UNL     1     -41.286 -49.499  11.524  1.00  0.00     0.236 C 
HETATM    2  O   UNL     1     -41.746 -49.111  12.598  1.00  0.00    -0.272 OA
HETATM    3  N   UNL     1     -41.407 -48.752  10.360  1.00  0.00    -0.354 N 
HETATM    4  H   UNL     1     -41.281 -49.201   9.463  1.00  0.00     0.162 HD
ENDROOT
BRANCH   1   5
HETATM    5  C   UNL     1     -40.475 -50.776  11.457  1.00  0.00     0.232 C 
BRANCH   5   6
HETATM    6  N   UNL     1     -39.945 -51.252  12.727  1.00  0.00    -0.336 N 
HETATM    7  C   UNL     1     -38.776 -50.913  13.376  1.00  0.00     0.087 A 
HETATM    8  N   UNL     1     -38.594 -51.702  14.426  1.00  0.00    -0.354 N 
HETATM    9  C   UNL     1     -39.625 -52.597  14.428  1.00  0.00     0.106 A 
ATOM     10  HN  UNL     1     -37.832 -51.650  15.102  1.00  0.00     0.166 HD
HETATM   11  C   UNL     1     -40.469 -52.350  13.381  1.00  0.00     0.110 A 
BRANCH   7  12
HETATM   12  C   UNL     1     -37.776 -49.860  12.971  1.00  0.00     0.045 C 
HETATM   13  C   UNL     1     -37.480 -49.978  11.470  1.00  0.00     0.017 C 
HETATM   14  C   UNL     1     -38.297 -48.463  13.325  1.00  0.00     0.017 C 
ENDBRANCH   7  12
ENDBRANCH   5   6
ENDBRANCH   1   5
BRANCH   3  15
HETATM   15  C   UNL     1     -42.183 -47.521  10.404  1.00  0.00     0.092 C 
BRANCH  15  16
HETATM   16  C   UNL     1     -41.373 -46.252  10.479  1.00  0.00     0.009 A 
HETATM   17  C   UNL     1     -39.934 -46.179  10.932  1.00  0.00     0.007 A 
HETATM   18  C   UNL     1     -41.012 -45.529  11.757  1.00  0.00     0.007 A 
ENDBRANCH  15  16
BRANCH  15  19
HETATM   19  C   UNL     1     -43.188 -47.529   9.276  1.00  0.00     0.009 A 
HETATM   20  C   UNL     1     -43.983 -46.312   8.863  1.00  0.00     0.007 A 
HETATM   21  C   UNL     1     -44.652 -47.408   9.637  1.00  0.00     0.007 A 
ENDBRANCH  15  19
ENDBRANCH   3  15
TORSDOF 6
ENDMDL
MODEL 8
REMARK VINA RESULT:      -5.1      2.506      4.364
REMARK  6 active torsions:
REMARK  status: ('A' for Active; 'I' for Inactive)
REMARK    1  A    between atoms: C_2  and  C_4 
REMARK    2  A    between atoms: N_9  and  C_10 
REMARK    3  A    between atoms: C_10  and  C_11 
REMARK       I    between atoms: C_11  and  N_13 
REMARK    4  A    between atoms: N_13  and  C_14 
REMARK    5  A    between atoms: C_14  and  C_15 
REMARK    6  A    between atoms: C_14  and  C_18 
ROOT
HETATM    1  C   UNL     1     -42.659 -50.229  12.884  1.00  0.00     0.236 C 
HETATM    2  O   UNL     1     -42.388 -50.038  14.070  1.00  0.00    -0.272 OA
HETATM    3  N   UNL     1     -43.531 -51.231  12.481  1.00  0.00    -0.354 N 
HETATM    4  H   UNL     1     -43.519 -51.549  11.521  1.00  0.00     0.162 HD
ENDROOT
BRANCH   1   5
HETATM    5  C   UNL     1     -42.118 -49.301  11.818  1.00  0.00     0.232 C 
BRANCH   5   6
HETATM    6  N   UNL     1     -42.514 -47.905  11.939  1.00  0.00    -0.336 N 
HETATM    7  C   UNL     1     -43.143 -47.086  11.025  1.00  0.00     0.087 A 
HETATM    8  N   UNL     1     -43.169 -45.838  11.475  1.00  0.00    -0.354 N 
HETATM    9  C   UNL     1     -42.502 -45.837  12.666  1.00  0.00     0.106 A 
ATOM     10  HN  UNL     1     -43.603 -45.036  11.020  1.00  0.00     0.166 HD
HETATM   11  C   UNL     1     -42.074 -47.100  12.972  1.00  0.00     0.110 A 
BRANCH   7  12
HETATM   12  C   UNL     1     -43.685 -47.469   9.672  1.00  0.00     0.045 C 
HETATM   13  C   UNL     1     -45.201 -47.681   9.764  1.00  0.00     0.017 C 
HETATM   14  C   UNL     1     -43.337 -46.397   8.633  1.00  0.00     0.017 C 
ENDBRANCH   7  12
ENDBRANCH   5   6
ENDBRANCH   1   5
BRANCH   3  15
HETATM   15  C   UNL     1     -44.063 -52.134  13.493  1.00  0.00     0.092 C 
BRANCH  15  16
HETATM   16  C   UNL     1     -45.553 -52.353  13.442  1.00  0.00     0.009 A 
HETATM   17  C   UNL     1     -46.515 -51.513  12.634  1.00  0.00     0.007 A 
HETATM   18  C   UNL     1     -46.579 -51.488  14.137  1.00  0.00     0.007 A 
ENDBRANCH  15  16
BRANCH  15  19
HETATM   19  C   UNL     1     -43.264 -53.417  13.477  1.00  0.00     0.009 A 
HETATM   20  C   UNL     1     -43.637 -54.637  14.291  1.00  0.00     0.007 A 
HETATM   21  C   UNL     1     -42.488 -53.778  14.725  1.00  0.00     0.007 A 
ENDBRANCH  15  19
ENDBRANCH   3  15
TORSDOF 6
ENDMDL
MODEL 9
REMARK VINA RESULT:      -5.1      3.371      5.176
REMARK  6 active torsions:
REMARK  status: ('A' for Active; 'I' for Inactive)
REMARK    1  A    between atoms: C_2  and  C_4 
REMARK    2  A    between atoms: N_9  and  C_10 
REMARK    3  A    between atoms: C_10  and  C_11 
REMARK       I    between atoms: C_11  and  N_13 
REMARK    4  A    between atoms: N_13  and  C_14 
REMARK    5  A    between atoms: C_14  and  C_15 
REMARK    6  A    between atoms: C_14  and  C_18 
ROOT
HETATM    1  C   UNL     1     -40.999 -49.667  12.063  1.00  0.00     0.236 C 
HETATM    2  O   UNL     1     -40.467 -49.886  10.974  1.00  0.00    -0.272 OA
HETATM    3  N   UNL     1     -40.705 -50.422  13.189  1.00  0.00    -0.354 N 
HETATM    4  H   UNL     1     -41.340 -50.415  13.976  1.00  0.00     0.162 HD
ENDROOT
BRANCH   1   5
HETATM    5  C   UNL     1     -41.931 -48.486  12.234  1.00  0.00     0.232 C 
BRANCH   5   6
HETATM    6  N   UNL     1     -42.136 -47.669  11.046  1.00  0.00    -0.336 N 
HETATM    7  C   UNL     1     -41.422 -46.579  10.594  1.00  0.00     0.087 A 
HETATM    8  N   UNL     1     -42.044 -46.026   9.561  1.00  0.00    -0.354 N 
HETATM    9  C   UNL     1     -43.199 -46.730   9.375  1.00  0.00     0.106 A 
ATOM     10  HN  UNL     1     -41.721 -45.230   9.011  1.00  0.00     0.166 HD
HETATM   11  C   UNL     1     -43.288 -47.744  10.288  1.00  0.00     0.110 A 
BRANCH   7  12
HETATM   12  C   UNL     1     -40.156 -46.006  11.177  1.00  0.00     0.045 C 
HETATM   13  C   UNL     1     -39.468 -45.110  10.139  1.00  0.00     0.017 C 
HETATM   14  C   UNL     1     -40.462 -45.231  12.463  1.00  0.00     0.017 C 
ENDBRANCH   7  12
ENDBRANCH   5   6
ENDBRANCH   1   5
BRANCH   3  15
HETATM   15  C   UNL     1     -39.811 -51.563  13.045  1.00  0.00     0.092 C 
BRANCH  15  16
HETATM   16  C   UNL     1     -38.382 -51.317  13.455  1.00  0.00     0.009 A 
HETATM   17  C   UNL     1     -37.720 -49.959  13.482  1.00  0.00     0.007 A 
HETATM   18  C   UNL     1     -37.249 -51.002  12.504  1.00  0.00     0.007 A 
ENDBRANCH  15  16
BRANCH  15  19
HETATM   19  C   UNL     1     -40.432 -52.766  13.716  1.00  0.00     0.009 A 
HETATM   20  C   UNL     1     -39.734 -54.102  13.838  1.00  0.00     0.007 A 
HETATM   21  C   UNL     1     -40.838 -53.930  12.839  1.00  0.00     0.007 A 
ENDBRANCH  15  19
ENDBRANCH   3  15
TORSDOF 6
ENDMDL
