MODEL 1
REMARK VINA RESULT:      -5.8      0.000      0.000
REMARK  6 active torsions:
REMARK  status: ('A' for Active; 'I' for Inactive)
REMARK    1  A    between atoms: N_1  and  C1*_2 
REMARK    2  A    between atoms: C2*_8  and  O2*_15 
REMARK    3  A    between atoms: C_11  and  N_16 
REMARK    4  A    between atoms: C3*_12  and  O3*_17 
REMARK    5  A    between atoms: C4*_13  and  C5*_18 
REMARK    6  A    between atoms: C5*_18  and  O5*_19 
ROOT
HETATM    1  N   UNL     1     -42.643 -45.922  10.094  1.00  0.00    -0.266 N 
HETATM    2  C   UNL     1     -43.594 -45.497   9.207  1.00  0.00     0.331 A 
HETATM    3  N   UNL     1     -44.084 -46.388   8.299  1.00  0.00    -0.285 N 
ATOM      4  HN  UNL     1     -44.774 -46.089   7.611  1.00  0.00     0.173 HD
HETATM    5  N   UNL     1     -42.721 -48.059   9.161  1.00  0.00    -0.329 N 
ATOM      6  HN  UNL     1     -42.381 -49.020   9.119  1.00  0.00     0.169 HD
HETATM    7  C   UNL     1     -42.264 -47.226  10.022  1.00  0.00     0.192 A 
HETATM    8  C   UNL     1     -43.673 -47.607   8.312  1.00  0.00     0.159 A 
HETATM    9  O   UNL     1     -44.021 -44.350   9.233  1.00  0.00    -0.246 OA
ENDROOT
BRANCH   1  10
HETATM   10  C1* UNL     1     -42.176 -45.124  11.212  1.00  0.00     0.265 C 
HETATM   11  C2* UNL     1     -41.519 -45.782  12.437  1.00  0.00     0.198 C 
HETATM   12  C3* UNL     1     -40.016 -45.625  12.197  1.00  0.00     0.182 C 
HETATM   13  C4* UNL     1     -39.898 -44.566  11.101  1.00  0.00     0.179 C 
HETATM   14  O4* UNL     1     -41.232 -44.160  10.711  1.00  0.00    -0.353 OA
BRANCH  11  15
HETATM   15  O2* UNL     1     -41.887 -45.078  13.648  1.00  0.00    -0.388 OA
HETATM   16  H2* UNL     1     -42.220 -44.192  13.412  1.00  0.00     0.210 HD
ENDBRANCH  11  15
BRANCH  12  17
HETATM   17  O3* UNL     1     -39.311 -45.197  13.368  1.00  0.00    -0.390 OA
HETATM   18  H3* UNL     1     -38.989 -44.291  13.204  1.00  0.00     0.210 HD
ENDBRANCH  12  17
BRANCH  13  19
HETATM   19  C5* UNL     1     -39.157 -45.081   9.860  1.00  0.00     0.198 C 
BRANCH  19  20
HETATM   20  O5* UNL     1     -39.289 -44.141   8.793  1.00  0.00    -0.398 OA
HETATM   21  H5* UNL     1     -38.729 -44.472   8.066  1.00  0.00     0.209 HD
ENDBRANCH  19  20
ENDBRANCH  13  19
ENDBRANCH   1  10
BRANCH   8  22
HETATM   22  N   UNL     1     -44.191 -48.490   7.435  1.00  0.00    -0.274 NA
HETATM   23  H   UNL     1     -44.941 -48.104   6.868  1.00  0.00     0.127 HD
HETATM   24  H   UNL     1     -43.498 -49.022   6.926  1.00  0.00     0.127 HD
ENDBRANCH   8  22
TORSDOF 6
ENDMDL
MODEL 2
REMARK VINA RESULT:      -5.6      3.019      4.741
REMARK  6 active torsions:
REMARK  status: ('A' for Active; 'I' for Inactive)
REMARK    1  A    between atoms: N_1  and  C1*_2 
REMARK    2  A    between atoms: C2*_8  and  O2*_15 
REMARK    3  A    between atoms: C_11  and  N_16 
REMARK    4  A    between atoms: C3*_12  and  O3*_17 
REMARK    5  A    between atoms: C4*_13  and  C5*_18 
REMARK    6  A    between atoms: C5*_18  and  O5*_19 
ROOT
HETATM    1  N   UNL     1     -42.416 -48.578  11.504  1.00  0.00    -0.266 N 
HETATM    2  C   UNL     1     -42.643 -49.608  12.375  1.00  0.00     0.331 A 
HETATM    3  N   UNL     1     -41.744 -50.631  12.425  1.00  0.00    -0.285 N 
ATOM      4  HN  UNL     1     -41.905 -51.423  13.047  1.00  0.00     0.173 HD
HETATM    5  N   UNL     1     -40.443 -49.603  10.799  1.00  0.00    -0.329 N 
ATOM      6  HN  UNL     1     -39.623 -49.624  10.192  1.00  0.00     0.169 HD
HETATM    7  C   UNL     1     -41.282 -48.636  10.755  1.00  0.00     0.192 A 
HETATM    8  C   UNL     1     -40.692 -50.596  11.685  1.00  0.00     0.159 A 
HETATM    9  O   UNL     1     -43.618 -49.611  13.116  1.00  0.00    -0.246 OA
ENDROOT
BRANCH   1  10
HETATM   10  C1* UNL     1     -43.200 -47.356  11.485  1.00  0.00     0.265 C 
HETATM   11  C2* UNL     1     -42.576 -46.021  11.049  1.00  0.00     0.198 C 
HETATM   12  C3* UNL     1     -42.997 -45.857   9.588  1.00  0.00     0.182 C 
HETATM   13  C4* UNL     1     -44.137 -46.858   9.390  1.00  0.00     0.179 C 
HETATM   14  O4* UNL     1     -44.341 -47.571  10.634  1.00  0.00    -0.353 OA
BRANCH  11  15
HETATM   15  O2* UNL     1     -43.121 -44.929  11.830  1.00  0.00    -0.388 OA
HETATM   16  H2* UNL     1     -43.652 -45.296  12.561  1.00  0.00     0.210 HD
ENDBRANCH  11  15
BRANCH  12  17
HETATM   17  O3* UNL     1     -43.453 -44.533   9.287  1.00  0.00    -0.390 OA
HETATM   18  H3* UNL     1     -43.818 -44.544   8.383  1.00  0.00     0.210 HD
ENDBRANCH  12  17
BRANCH  13  19
HETATM   19  C5* UNL     1     -43.842 -47.877   8.281  1.00  0.00     0.198 C 
BRANCH  19  20
HETATM   20  O5* UNL     1     -43.188 -47.229   7.189  1.00  0.00    -0.398 OA
HETATM   21  H5* UNL     1     -43.296 -47.817   6.419  1.00  0.00     0.209 HD
ENDBRANCH  19  20
ENDBRANCH  13  19
ENDBRANCH   1  10
BRANCH   8  22
HETATM   22  N   UNL     1     -39.790 -51.594  11.769  1.00  0.00    -0.274 NA
HETATM   23  H   UNL     1     -40.138 -52.414  12.257  1.00  0.00     0.127 HD
HETATM   24  H   UNL     1     -39.301 -51.782  10.905  1.00  0.00     0.127 HD
ENDBRANCH   8  22
TORSDOF 6
ENDMDL
MODEL 3
REMARK VINA RESULT:      -5.5      7.647      8.526
REMARK  6 active torsions:
REMARK  status: ('A' for Active; 'I' for Inactive)
REMARK    1  A    between atoms: N_1  and  C1*_2 
REMARK    2  A    between atoms: C2*_8  and  O2*_15 
REMARK    3  A    between atoms: C_11  and  N_16 
REMARK    4  A    between atoms: C3*_12  and  O3*_17 
REMARK    5  A    between atoms: C4*_13  and  C5*_18 
REMARK    6  A    between atoms: C5*_18  and  O5*_19 
ROOT
HETATM    1  N   UNL     1     -43.547 -53.076  13.989  1.00  0.00    -0.266 N 
HETATM    2  C   UNL     1     -44.494 -54.058  13.882  1.00  0.00     0.331 A 
HETATM    3  N   UNL     1     -45.603 -53.816  13.126  1.00  0.00    -0.285 N 
ATOM      4  HN  UNL     1     -46.335 -54.523  13.052  1.00  0.00     0.173 HD
HETATM    5  N   UNL     1     -44.817 -51.694  12.604  1.00  0.00    -0.329 N 
ATOM      6  HN  UNL     1     -44.961 -50.798  12.139  1.00  0.00     0.169 HD
HETATM    7  C   UNL     1     -43.770 -51.921  13.308  1.00  0.00     0.192 A 
HETATM    8  C   UNL     1     -45.723 -52.695  12.507  1.00  0.00     0.159 A 
HETATM    9  O   UNL     1     -44.350 -55.144  14.430  1.00  0.00    -0.246 OA
ENDROOT
BRANCH   1  10
HETATM   10  C1* UNL     1     -42.253 -53.276  14.615  1.00  0.00     0.265 C 
HETATM   11  C2* UNL     1     -41.383 -54.494  14.264  1.00  0.00     0.198 C 
HETATM   12  C3* UNL     1     -40.376 -53.966  13.240  1.00  0.00     0.182 C 
HETATM   13  C4* UNL     1     -40.450 -52.444  13.360  1.00  0.00     0.179 C 
HETATM   14  O4* UNL     1     -41.447 -52.112  14.357  1.00  0.00    -0.353 OA
BRANCH  11  15
HETATM   15  O2* UNL     1     -40.673 -54.963  15.436  1.00  0.00    -0.388 OA
HETATM   16  H2* UNL     1     -40.244 -54.203  15.872  1.00  0.00     0.210 HD
ENDBRANCH  11  15
BRANCH  12  17
HETATM   17  O3* UNL     1     -39.039 -54.411  13.498  1.00  0.00    -0.390 OA
HETATM   18  H3* UNL     1     -38.822 -54.177  14.420  1.00  0.00     0.210 HD
ENDBRANCH  12  17
BRANCH  13  19
HETATM   19  C5* UNL     1     -40.830 -51.765  12.038  1.00  0.00     0.198 C 
BRANCH  19  20
HETATM   20  O5* UNL     1     -41.175 -52.754  11.068  1.00  0.00    -0.398 OA
HETATM   21  H5* UNL     1     -42.081 -52.545  10.773  1.00  0.00     0.209 HD
ENDBRANCH  19  20
ENDBRANCH  13  19
ENDBRANCH   1  10
BRANCH   8  22
HETATM   22  N   UNL     1     -46.805 -52.480  11.732  1.00  0.00    -0.274 NA
HETATM   23  H   UNL     1     -46.701 -52.834  10.786  1.00  0.00     0.127 HD
HETATM   24  H   UNL     1     -47.685 -52.700  12.180  1.00  0.00     0.127 HD
ENDBRANCH   8  22
TORSDOF 6
ENDMDL
MODEL 4
REMARK VINA RESULT:      -5.5      7.152      8.695
REMARK  6 active torsions:
REMARK  status: ('A' for Active; 'I' for Inactive)
REMARK    1  A    between atoms: N_1  and  C1*_2 
REMARK    2  A    between atoms: C2*_8  and  O2*_15 
REMARK    3  A    between atoms: C_11  and  N_16 
REMARK    4  A    between atoms: C3*_12  and  O3*_17 
REMARK    5  A    between atoms: C4*_13  and  C5*_18 
REMARK    6  A    between atoms: C5*_18  and  O5*_19 
ROOT
HETATM    1  N   UNL     1     -43.006 -51.608  12.874  1.00  0.00    -0.266 N 
HETATM    2  C   UNL     1     -42.565 -50.333  13.102  1.00  0.00     0.331 A 
HETATM    3  N   UNL     1     -41.385 -49.941  12.544  1.00  0.00    -0.285 N 
ATOM      4  HN  UNL     1     -41.023 -49.004  12.720  1.00  0.00     0.173 HD
HETATM    5  N   UNL     1     -41.124 -52.029  11.562  1.00  0.00    -0.329 N 
ATOM      6  HN  UNL     1     -40.560 -52.668  11.000  1.00  0.00     0.169 HD
HETATM    7  C   UNL     1     -42.237 -52.398  12.078  1.00  0.00     0.192 A 
HETATM    8  C   UNL     1     -40.729 -50.755  11.795  1.00  0.00     0.159 A 
HETATM    9  O   UNL     1     -43.219 -49.544  13.772  1.00  0.00    -0.246 OA
ENDROOT
BRANCH   1  10
HETATM   10  C1* UNL     1     -44.321 -52.083  13.263  1.00  0.00     0.265 C 
HETATM   11  C2* UNL     1     -45.008 -53.228  12.501  1.00  0.00     0.198 C 
HETATM   12  C3* UNL     1     -44.732 -54.473  13.346  1.00  0.00     0.182 C 
HETATM   13  C4* UNL     1     -44.277 -53.938  14.704  1.00  0.00     0.179 C 
HETATM   14  O4* UNL     1     -44.259 -52.491  14.642  1.00  0.00    -0.353 OA
BRANCH  11  15
HETATM   15  O2* UNL     1     -46.437 -53.003  12.431  1.00  0.00    -0.388 OA
HETATM   16  H2* UNL     1     -46.642 -52.516  11.611  1.00  0.00     0.210 HD
ENDBRANCH  11  15
BRANCH  12  17
HETATM   17  O3* UNL     1     -45.892 -55.298  13.511  1.00  0.00    -0.390 OA
HETATM   18  H3* UNL     1     -45.601 -56.228  13.470  1.00  0.00     0.210 HD
ENDBRANCH  12  17
BRANCH  13  19
HETATM   19  C5* UNL     1     -42.877 -54.431  15.093  1.00  0.00     0.198 C 
BRANCH  19  20
HETATM   20  O5* UNL     1     -42.953 -55.774  15.573  1.00  0.00    -0.398 OA
HETATM   21  H5* UNL     1     -42.183 -56.242  15.199  1.00  0.00     0.209 HD
ENDBRANCH  19  20
ENDBRANCH  13  19
ENDBRANCH   1  10
BRANCH   8  22
HETATM   22  N   UNL     1     -39.582 -50.346  11.217  1.00  0.00    -0.274 NA
HETATM   23  H   UNL     1     -39.117 -51.074  10.682  1.00  0.00     0.127 HD
HETATM   24  H   UNL     1     -39.648 -49.449  10.756  1.00  0.00     0.127 HD
ENDBRANCH   8  22
TORSDOF 6
ENDMDL
MODEL 5
REMARK VINA RESULT:      -5.4      1.630      2.817
REMARK  6 active torsions:
REMARK  status: ('A' for Active; 'I' for Inactive)
REMARK    1  A    between atoms: N_1  and  C1*_2 
REMARK    2  A    between atoms: C2*_8  and  O2*_15 
REMARK    3  A    between atoms: C_11  and  N_16 
REMARK    4  A    between atoms: C3*_12  and  O3*_17 
REMARK    5  A    between atoms: C4*_13  and  C5*_18 
REMARK    6  A    between atoms: C5*_18  and  O5*_19 
ROOT
HETATM    1  N   UNL     1     -43.107 -46.246   9.544  1.00  0.00    -0.266 N 
HETATM    2  C   UNL     1     -44.058 -45.303   9.267  1.00  0.00     0.331 A 
HETATM    3  N   UNL     1     -45.319 -45.718   8.957  1.00  0.00    -0.285 N 
ATOM      4  HN  UNL     1     -46.038 -45.035   8.722  1.00  0.00     0.173 HD
HETATM    5  N   UNL     1     -44.680 -47.937   9.212  1.00  0.00    -0.329 N 
ATOM      6  HN  UNL     1     -44.919 -48.927   9.164  1.00  0.00     0.169 HD
HETATM    7  C   UNL     1     -43.496 -47.549   9.511  1.00  0.00     0.192 A 
HETATM    8  C   UNL     1     -45.598 -46.974   8.962  1.00  0.00     0.159 A 
HETATM    9  O   UNL     1     -43.801 -44.107   9.316  1.00  0.00    -0.246 OA
ENDROOT
BRANCH   1  10
HETATM   10  C1* UNL     1     -41.786 -45.928  10.055  1.00  0.00     0.265 C 
HETATM   11  C2* UNL     1     -41.509 -44.585  10.751  1.00  0.00     0.198 C 
HETATM   12  C3* UNL     1     -41.588 -44.903  12.245  1.00  0.00     0.182 C 
HETATM   13  C4* UNL     1     -41.500 -46.427  12.332  1.00  0.00     0.179 C 
HETATM   14  O4* UNL     1     -41.407 -46.957  10.987  1.00  0.00    -0.353 OA
BRANCH  11  15
HETATM   15  O2* UNL     1     -40.176 -44.115  10.431  1.00  0.00    -0.388 OA
HETATM   16  H2* UNL     1     -39.801 -43.670  11.214  1.00  0.00     0.210 HD
ENDBRANCH  11  15
BRANCH  12  17
HETATM   17  O3* UNL     1     -40.522 -44.309  12.995  1.00  0.00    -0.390 OA
HETATM   18  H3* UNL     1     -40.918 -43.674  13.620  1.00  0.00     0.210 HD
ENDBRANCH  12  17
BRANCH  13  19
HETATM   19  C5* UNL     1     -42.719 -47.051  13.024  1.00  0.00     0.198 C 
BRANCH  19  20
HETATM   20  O5* UNL     1     -43.696 -46.043  13.284  1.00  0.00    -0.398 OA
HETATM   21  H5* UNL     1     -43.697 -45.456  12.505  1.00  0.00     0.209 HD
ENDBRANCH  19  20
ENDBRANCH  13  19
ENDBRANCH   1  10
BRANCH   8  22
HETATM   22  N   UNL     1     -46.857 -47.373   8.691  1.00  0.00    -0.274 NA
HETATM   23  H   UNL     1     -47.201 -47.045   7.793  1.00  0.00     0.127 HD
HETATM   24  H   UNL     1     -47.033 -48.349   8.888  1.00  0.00     0.127 HD
ENDBRANCH   8  22
TORSDOF 6
ENDMDL
MODEL 6
REMARK VINA RESULT:      -5.3      8.075      9.618
REMARK  6 active torsions:
REMARK  status: ('A' for Active; 'I' for Inactive)
REMARK    1  A    between atoms: N_1  and  C1*_2 
REMARK    2  A    between atoms: C2*_8  and  O2*_15 
REMARK    3  A    between atoms: C_11  and  N_16 
REMARK    4  A    between atoms: C3*_12  and  O3*_17 
REMARK    5  A    between atoms: C4*_13  and  C5*_18 
REMARK    6  A    between atoms: C5*_18  and  O5*_19 
ROOT
HETATM    1  N   UNL     1     -43.429 -53.916  13.520  1.00  0.00    -0.266 N 
HETATM    2  C   UNL     1     -42.172 -54.154  14.005  1.00  0.00     0.331 A 
HETATM    3  N   UNL     1     -41.107 -53.601  13.358  1.00  0.00    -0.285 N 
ATOM      4  HN  UNL     1     -40.159 -53.785  13.686  1.00  0.00     0.173 HD
HETATM    5  N   UNL     1     -42.527 -52.605  11.814  1.00  0.00    -0.329 N 
ATOM      6  HN  UNL     1     -42.647 -52.040  10.973  1.00  0.00     0.169 HD
HETATM    7  C   UNL     1     -43.531 -53.117  12.425  1.00  0.00     0.192 A 
HETATM    8  C   UNL     1     -41.301 -52.848  12.334  1.00  0.00     0.159 A 
HETATM    9  O   UNL     1     -41.996 -54.828  15.012  1.00  0.00    -0.246 OA
ENDROOT
BRANCH   1  10
HETATM   10  C1* UNL     1     -44.643 -54.299  14.217  1.00  0.00     0.265 C 
HETATM   11  C2* UNL     1     -45.080 -53.579  15.502  1.00  0.00     0.198 C 
HETATM   12  C3* UNL     1     -46.126 -52.564  15.038  1.00  0.00     0.182 C 
HETATM   13  C4* UNL     1     -46.522 -53.018  13.632  1.00  0.00     0.179 C 
HETATM   14  O4* UNL     1     -45.742 -54.189  13.294  1.00  0.00    -0.353 OA
BRANCH  11  15
HETATM   15  O2* UNL     1     -45.695 -54.514  16.423  1.00  0.00    -0.388 OA
HETATM   16  H2* UNL     1     -46.264 -54.020  17.043  1.00  0.00     0.210 HD
ENDBRANCH  11  15
BRANCH  12  17
HETATM   17  O3* UNL     1     -47.282 -52.533  15.884  1.00  0.00    -0.390 OA
HETATM   18  H3* UNL     1     -47.814 -53.327  15.687  1.00  0.00     0.210 HD
ENDBRANCH  12  17
BRANCH  13  19
HETATM   19  C5* UNL     1     -46.274 -51.937  12.572  1.00  0.00     0.198 C 
BRANCH  19  20
HETATM   20  O5* UNL     1     -46.797 -52.365  11.313  1.00  0.00    -0.398 OA
HETATM   21  H5* UNL     1     -47.767 -52.387  11.414  1.00  0.00     0.209 HD
ENDBRANCH  19  20
ENDBRANCH  13  19
ENDBRANCH   1  10
BRANCH   8  22
HETATM   22  N   UNL     1     -40.244 -52.275  11.724  1.00  0.00    -0.274 NA
HETATM   23  H   UNL     1     -40.168 -52.515  10.739  1.00  0.00     0.127 HD
HETATM   24  H   UNL     1     -40.124 -51.295  11.939  1.00  0.00     0.127 HD
ENDBRANCH   8  22
TORSDOF 6
ENDMDL
MODEL 7
REMARK VINA RESULT:      -5.2      7.403      8.605
REMARK  6 active torsions:
REMARK  status: ('A' for Active; 'I' for Inactive)
REMARK    1  A    between atoms: N_1  and  C1*_2 
REMARK    2  A    between atoms: C2*_8  and  O2*_15 
REMARK    3  A    between atoms: C_11  and  N_16 
REMARK    4  A    between atoms: C3*_12  and  O3*_17 
REMARK    5  A    between atoms: C4*_13  and  C5*_18 
REMARK    6  A    between atoms: C5*_18  and  O5*_19 
ROOT
HETATM    1  N   UNL     1     -43.301 -53.593  13.852  1.00  0.00    -0.266 N 
HETATM    2  C   UNL     1     -43.616 -54.045  15.104  1.00  0.00     0.331 A 
HETATM    3  N   UNL     1     -44.868 -54.539  15.324  1.00  0.00    -0.285 N 
ATOM      4  HN  UNL     1     -45.135 -54.858  16.255  1.00  0.00     0.173 HD
HETATM    5  N   UNL     1     -45.443 -54.145  13.108  1.00  0.00    -0.329 N 
ATOM      6  HN  UNL     1     -46.147 -54.165  12.370  1.00  0.00     0.169 HD
HETATM    7  C   UNL     1     -44.264 -53.688  12.896  1.00  0.00     0.192 A 
HETATM    8  C   UNL     1     -45.711 -54.600  14.355  1.00  0.00     0.159 A 
HETATM    9  O   UNL     1     -42.793 -54.035  16.010  1.00  0.00    -0.246 OA
ENDROOT
BRANCH   1  10
HETATM   10  C1* UNL     1     -41.960 -53.212  13.451  1.00  0.00     0.265 C 
HETATM   11  C2* UNL     1     -41.629 -52.903  11.982  1.00  0.00     0.198 C 
HETATM   12  C3* UNL     1     -41.674 -51.376  11.890  1.00  0.00     0.182 C 
HETATM   13  C4* UNL     1     -41.621 -50.890  13.339  1.00  0.00     0.179 C 
HETATM   14  O4* UNL     1     -41.580 -52.048  14.208  1.00  0.00    -0.353 OA
BRANCH  11  15
HETATM   15  O2* UNL     1     -40.295 -53.363  11.655  1.00  0.00    -0.388 OA
HETATM   16  H2* UNL     1     -40.083 -53.099  10.740  1.00  0.00     0.210 HD
ENDBRANCH  11  15
BRANCH  12  17
HETATM   17  O3* UNL     1     -40.572 -50.833  11.153  1.00  0.00    -0.390 OA
HETATM   18  H3* UNL     1     -39.804 -50.796  11.754  1.00  0.00     0.210 HD
ENDBRANCH  12  17
BRANCH  13  19
HETATM   19  C5* UNL     1     -42.835 -50.032  13.719  1.00  0.00     0.198 C 
BRANCH  19  20
HETATM   20  O5* UNL     1     -43.716 -49.918  12.601  1.00  0.00    -0.398 OA
HETATM   21  H5* UNL     1     -44.086 -49.016  12.636  1.00  0.00     0.209 HD
ENDBRANCH  19  20
ENDBRANCH  13  19
ENDBRANCH   1  10
BRANCH   8  22
HETATM   22  N   UNL     1     -46.934 -55.125  14.573  1.00  0.00    -0.274 NA
HETATM   23  H   UNL     1     -47.153 -55.243  15.558  1.00  0.00     0.127 HD
HETATM   24  H   UNL     1     -47.668 -54.708  14.017  1.00  0.00     0.127 HD
ENDBRANCH   8  22
TORSDOF 6
ENDMDL
MODEL 8
REMARK VINA RESULT:      -5.2      6.720      8.036
REMARK  6 active torsions:
REMARK  status: ('A' for Active; 'I' for Inactive)
REMARK    1  A    between atoms: N_1  and  C1*_2 
REMARK    2  A    between atoms: C2*_8  and  O2*_15 
REMARK    3  A    between atoms: C_11  and  N_16 
REMARK    4  A    between atoms: C3*_12  and  O3*_17 
REMARK    5  A    between atoms: C4*_13  and  C5*_18 
REMARK    6  A    between atoms: C5*_18  and  O5*_19 
ROOT
HETATM    1  N   UNL     1     -38.984 -50.926  13.146  1.00  0.00    -0.266 N 
HETATM    2  C   UNL     1     -38.164 -50.550  12.117  1.00  0.00     0.331 A 
HETATM    3  N   UNL     1     -38.474 -49.424  11.414  1.00  0.00    -0.285 N 
ATOM      4  HN  UNL     1     -37.892 -49.138  10.627  1.00  0.00     0.173 HD
HETATM    5  N   UNL     1     -40.343 -49.073  12.746  1.00  0.00    -0.329 N 
ATOM      6  HN  UNL     1     -41.176 -48.522  12.958  1.00  0.00     0.169 HD
HETATM    7  C   UNL     1     -40.051 -50.127  13.414  1.00  0.00     0.192 A 
HETATM    8  C   UNL     1     -39.499 -48.723  11.747  1.00  0.00     0.159 A 
HETATM    9  O   UNL     1     -37.159 -51.191  11.839  1.00  0.00    -0.246 OA
ENDROOT
BRANCH   1  10
HETATM   10  C1* UNL     1     -38.667 -51.996  14.074  1.00  0.00     0.265 C 
HETATM   11  C2* UNL     1     -39.395 -52.117  15.423  1.00  0.00     0.198 C 
HETATM   12  C3* UNL     1     -40.480 -53.168  15.182  1.00  0.00     0.182 C 
HETATM   13  C4* UNL     1     -40.073 -53.868  13.884  1.00  0.00     0.179 C 
HETATM   14  O4* UNL     1     -38.860 -53.250  13.393  1.00  0.00    -0.353 OA
BRANCH  11  15
HETATM   15  O2* UNL     1     -38.487 -52.593  16.447  1.00  0.00    -0.388 OA
HETATM   16  H2* UNL     1     -38.702 -52.152  17.290  1.00  0.00     0.210 HD
ENDBRANCH  11  15
BRANCH  12  17
HETATM   17  O3* UNL     1     -40.571 -54.125  16.244  1.00  0.00    -0.390 OA
HETATM   18  H3* UNL     1     -41.307 -54.729  16.036  1.00  0.00     0.210 HD
ENDBRANCH  12  17
BRANCH  13  19
HETATM   19  C5* UNL     1     -41.151 -53.770  12.797  1.00  0.00     0.198 C 
BRANCH  19  20
HETATM   20  O5* UNL     1     -40.543 -53.495  11.535  1.00  0.00    -0.398 OA
HETATM   21  H5* UNL     1     -39.708 -53.030  11.730  1.00  0.00     0.209 HD
ENDBRANCH  19  20
ENDBRANCH  13  19
ENDBRANCH   1  10
BRANCH   8  22
HETATM   22  N   UNL     1     -39.776 -47.590  11.069  1.00  0.00    -0.274 NA
HETATM   23  H   UNL     1     -38.994 -47.250  10.517  1.00  0.00     0.127 HD
HETATM   24  H   UNL     1     -40.668 -47.600  10.594  1.00  0.00     0.127 HD
ENDBRANCH   8  22
TORSDOF 6
ENDMDL
MODEL 9
REMARK VINA RESULT:      -5.1      2.965      4.996
REMARK  6 active torsions:
REMARK  status: ('A' for Active; 'I' for Inactive)
REMARK    1  A    between atoms: N_1  and  C1*_2 
REMARK    2  A    between atoms: C2*_8  and  O2*_15 
REMARK    3  A    between atoms: C_11  and  N_16 
REMARK    4  A    between atoms: C3*_12  and  O3*_17 
REMARK    5  A    between atoms: C4*_13  and  C5*_18 
REMARK    6  A    between atoms: C5*_18  and  O5*_19 
ROOT
HETATM    1  N   UNL     1     -40.339 -48.118  11.787  1.00  0.00    -0.266 N 
HETATM    2  C   UNL     1     -39.400 -48.686  12.603  1.00  0.00     0.331 A 
HETATM    3  N   UNL     1     -39.359 -50.045  12.704  1.00  0.00    -0.285 N 
ATOM      4  HN  UNL     1     -38.685 -50.492  13.325  1.00  0.00     0.173 HD
HETATM    5  N   UNL     1     -41.127 -50.236  11.210  1.00  0.00    -0.329 N 
ATOM      6  HN  UNL     1     -41.789 -50.829  10.709  1.00  0.00     0.169 HD
HETATM    7  C   UNL     1     -41.163 -48.959  11.107  1.00  0.00     0.192 A 
HETATM    8  C   UNL     1     -40.173 -50.763  12.013  1.00  0.00     0.159 A 
HETATM    9  O   UNL     1     -38.592 -48.001  13.217  1.00  0.00    -0.246 OA
ENDROOT
BRANCH   1  10
HETATM   10  C1* UNL     1     -40.369 -46.704  11.463  1.00  0.00     0.265 C 
HETATM   11  C2* UNL     1     -41.239 -46.172  10.312  1.00  0.00     0.198 C 
HETATM   12  C3* UNL     1     -42.503 -45.647  10.997  1.00  0.00     0.182 C 
HETATM   13  C4* UNL     1     -42.132 -45.529  12.476  1.00  0.00     0.179 C 
HETATM   14  O4* UNL     1     -40.767 -45.982  12.643  1.00  0.00    -0.353 OA
BRANCH  11  15
HETATM   15  O2* UNL     1     -40.572 -45.080   9.635  1.00  0.00    -0.388 OA
HETATM   16  H2* UNL     1     -40.677 -44.267  10.165  1.00  0.00     0.210 HD
ENDBRANCH  11  15
BRANCH  12  17
HETATM   17  O3* UNL     1     -42.915 -44.370  10.494  1.00  0.00    -0.390 OA
HETATM   18  H3* UNL     1     -43.890 -44.360  10.477  1.00  0.00     0.210 HD
ENDBRANCH  12  17
BRANCH  13  19
HETATM   19  C5* UNL     1     -43.043 -46.369  13.381  1.00  0.00     0.198 C 
BRANCH  19  20
HETATM   20  O5* UNL     1     -43.879 -45.510  14.157  1.00  0.00    -0.398 OA
HETATM   21  H5* UNL     1     -44.024 -44.710  13.618  1.00  0.00     0.209 HD
ENDBRANCH  19  20
ENDBRANCH  13  19
ENDBRANCH   1  10
BRANCH   8  22
HETATM   22  N   UNL     1     -40.100 -52.107  12.090  1.00  0.00    -0.274 NA
HETATM   23  H   UNL     1     -40.935 -52.577  11.753  1.00  0.00     0.127 HD
HETATM   24  H   UNL     1     -39.226 -52.493  11.761  1.00  0.00     0.127 HD
ENDBRANCH   8  22
TORSDOF 6
ENDMDL
