MODEL 1
REMARK VINA RESULT:      -7.1      0.000      0.000
REMARK  8 active torsions:
REMARK  status: ('A' for Active; 'I' for Inactive)
REMARK    1  A    between atoms: O_1  and  C_2 
REMARK    2  A    between atoms: C_2  and  C_12 
REMARK    3  A    between atoms: C_2  and  C_3 
REMARK    4  A    between atoms: C_3  and  O_4 
REMARK    5  A    between atoms: O_4  and  C_5 
REMARK    6  A    between atoms: C_5  and  C_6 
REMARK    7  A    between atoms: C_12  and  N_13 
REMARK    8  A    between atoms: C_16  and  C_21 
ROOT
HETATM    1  C   UNL     1     -42.581 -47.833  11.862  1.00  0.00     0.186 C 
ENDROOT
BRANCH   1   2
HETATM    2  C   UNL     1     -41.422 -48.679  11.314  1.00  0.00     0.162 C 
BRANCH   2   3
HETATM    3  O   UNL     1     -41.554 -48.858   9.893  1.00  0.00    -0.392 OA
HETATM    4  H   UNL     1     -41.810 -49.792   9.762  1.00  0.00     0.210 HD
ENDBRANCH   2   3
BRANCH   2   5
HETATM    5  C   UNL     1     -41.361 -50.055  11.995  1.00  0.00     0.201 C 
BRANCH   5   6
HETATM    6  O   UNL     1     -42.407 -50.177  12.965  1.00  0.00    -0.384 OA
BRANCH   6   7
HETATM    7  C   UNL     1     -43.054 -51.448  12.897  1.00  0.00     0.206 C 
BRANCH   7   8
HETATM    8  C   UNL     1     -44.349 -51.420  13.674  1.00  0.00    -0.035 A 
HETATM    9  C   UNL     1     -44.368 -51.113  15.042  1.00  0.00     0.009 A 
HETATM   10  C   UNL     1     -45.574 -51.056  15.745  1.00  0.00     0.001 A 
HETATM   11  C   UNL     1     -46.778 -51.293  15.083  1.00  0.00     0.000 A 
HETATM   12  C   UNL     1     -46.777 -51.580  13.720  1.00  0.00     0.001 A 
HETATM   13  C   UNL     1     -45.570 -51.636  13.018  1.00  0.00     0.009 A 
ENDBRANCH   7   8
ENDBRANCH   6   7
ENDBRANCH   5   6
ENDBRANCH   2   5
ENDBRANCH   1   2
BRANCH   1  14
HETATM   14  N   UNL     1     -43.375 -47.249  10.776  1.00  0.00    -0.255 N 
HETATM   15  N   UNL     1     -44.460 -47.993  10.353  1.00  0.00    -0.291 N 
HETATM   16  C   UNL     1     -45.217 -47.502   9.414  1.00  0.00     0.132 A 
ATOM     17  HN  UNL     1     -44.662 -48.904  10.764  1.00  0.00     0.187 HD
HETATM   18  C   UNL     1     -44.932 -46.215   8.734  1.00  0.00     0.041 A 
HETATM   19  C   UNL     1     -43.870 -45.521   9.147  1.00  0.00     0.078 A 
HETATM   20  C   UNL     1     -43.012 -46.023  10.240  1.00  0.00     0.262 A 
HETATM   21  O   UNL     1     -42.048 -45.354  10.601  1.00  0.00    -0.267 OA
BRANCH  16  22
HETATM   22  C   UNL     1     -46.472 -48.263   8.978  1.00  0.00     0.433 C 
HETATM   23  F   UNL     1     -46.736 -49.339   9.770  1.00  0.00    -0.165 F 
HETATM   24  F   UNL     1     -47.586 -47.484   9.010  1.00  0.00    -0.165 F 
HETATM   25  F   UNL     1     -46.365 -48.744   7.710  1.00  0.00    -0.165 F 
ENDBRANCH  16  22
ENDBRANCH   1  14
TORSDOF 8
ENDMDL
MODEL 2
REMARK VINA RESULT:      -6.7      1.708      2.470
REMARK  8 active torsions:
REMARK  status: ('A' for Active; 'I' for Inactive)
REMARK    1  A    between atoms: O_1  and  C_2 
REMARK    2  A    between atoms: C_2  and  C_12 
REMARK    3  A    between atoms: C_2  and  C_3 
REMARK    4  A    between atoms: C_3  and  O_4 
REMARK    5  A    between atoms: O_4  and  C_5 
REMARK    6  A    between atoms: C_5  and  C_6 
REMARK    7  A    between atoms: C_12  and  N_13 
REMARK    8  A    between atoms: C_16  and  C_21 
ROOT
HETATM    1  C   UNL     1     -41.643 -49.534  12.397  1.00  0.00     0.186 C 
ENDROOT
BRANCH   1   2
HETATM    2  C   UNL     1     -40.661 -50.503  11.722  1.00  0.00     0.162 C 
BRANCH   2   3
HETATM    3  O   UNL     1     -40.480 -50.158  10.338  1.00  0.00    -0.392 OA
HETATM    4  H   UNL     1     -40.594 -50.989   9.837  1.00  0.00     0.210 HD
ENDBRANCH   2   3
BRANCH   2   5
HETATM    5  C   UNL     1     -41.148 -51.956  11.825  1.00  0.00     0.201 C 
BRANCH   5   6
HETATM    6  O   UNL     1     -41.673 -52.214  13.131  1.00  0.00    -0.384 OA
BRANCH   6   7
HETATM    7  C   UNL     1     -42.698 -53.207  13.109  1.00  0.00     0.206 C 
BRANCH   7   8
HETATM    8  C   UNL     1     -44.047 -52.573  13.352  1.00  0.00    -0.035 A 
HETATM    9  C   UNL     1     -45.141 -52.851  12.519  1.00  0.00     0.009 A 
HETATM   10  C   UNL     1     -46.393 -52.286  12.773  1.00  0.00     0.001 A 
HETATM   11  C   UNL     1     -46.570 -51.445  13.871  1.00  0.00     0.000 A 
HETATM   12  C   UNL     1     -45.497 -51.176  14.718  1.00  0.00     0.001 A 
HETATM   13  C   UNL     1     -44.245 -51.741  14.465  1.00  0.00     0.009 A 
ENDBRANCH   7   8
ENDBRANCH   6   7
ENDBRANCH   5   6
ENDBRANCH   2   5
ENDBRANCH   1   2
BRANCH   1  14
HETATM   14  N   UNL     1     -41.867 -48.341  11.572  1.00  0.00    -0.255 N 
HETATM   15  N   UNL     1     -42.899 -48.425  10.657  1.00  0.00    -0.291 N 
HETATM   16  C   UNL     1     -43.161 -47.380   9.925  1.00  0.00     0.132 A 
ATOM     17  HN  UNL     1     -43.442 -49.282  10.558  1.00  0.00     0.187 HD
HETATM   18  C   UNL     1     -42.362 -46.132   9.980  1.00  0.00     0.041 A 
HETATM   19  C   UNL     1     -41.360 -46.079  10.859  1.00  0.00     0.078 A 
HETATM   20  C   UNL     1     -41.060 -47.227  11.740  1.00  0.00     0.262 A 
HETATM   21  O   UNL     1     -40.135 -47.140  12.543  1.00  0.00    -0.267 OA
BRANCH  16  22
HETATM   22  C   UNL     1     -44.348 -47.411   8.959  1.00  0.00     0.433 C 
HETATM   23  F   UNL     1     -44.741 -46.166   8.569  1.00  0.00    -0.165 F 
HETATM   24  F   UNL     1     -44.069 -48.096   7.818  1.00  0.00    -0.165 F 
HETATM   25  F   UNL     1     -45.444 -47.997   9.512  1.00  0.00    -0.165 F 
ENDBRANCH  16  22
ENDBRANCH   1  14
TORSDOF 8
ENDMDL
MODEL 3
REMARK VINA RESULT:      -6.7      2.193      2.716
REMARK  8 active torsions:
REMARK  status: ('A' for Active; 'I' for Inactive)
REMARK    1  A    between atoms: O_1  and  C_2 
REMARK    2  A    between atoms: C_2  and  C_12 
REMARK    3  A    between atoms: C_2  and  C_3 
REMARK    4  A    between atoms: C_3  and  O_4 
REMARK    5  A    between atoms: O_4  and  C_5 
REMARK    6  A    between atoms: C_5  and  C_6 
REMARK    7  A    between atoms: C_12  and  N_13 
REMARK    8  A    between atoms: C_16  and  C_21 
ROOT
HETATM    1  C   UNL     1     -41.603 -49.175  12.197  1.00  0.00     0.186 C 
ENDROOT
BRANCH   1   2
HETATM    2  C   UNL     1     -40.352 -49.831  11.593  1.00  0.00     0.162 C 
BRANCH   2   3
HETATM    3  O   UNL     1     -40.514 -50.020  10.177  1.00  0.00    -0.392 OA
HETATM    4  H   UNL     1     -40.843 -49.169   9.828  1.00  0.00     0.210 HD
ENDBRANCH   2   3
BRANCH   2   5
HETATM    5  C   UNL     1     -40.055 -51.185  12.256  1.00  0.00     0.201 C 
BRANCH   5   6
HETATM    6  O   UNL     1     -41.030 -52.156  11.866  1.00  0.00    -0.384 OA
BRANCH   6   7
HETATM    7  C   UNL     1     -40.910 -53.366  12.613  1.00  0.00     0.206 C 
BRANCH   7   8
HETATM    8  C   UNL     1     -42.255 -53.782  13.159  1.00  0.00    -0.035 A 
HETATM    9  C   UNL     1     -43.442 -53.477  12.476  1.00  0.00     0.009 A 
HETATM   10  C   UNL     1     -44.679 -53.896  12.973  1.00  0.00     0.001 A 
HETATM   11  C   UNL     1     -44.743 -54.636  14.153  1.00  0.00     0.000 A 
HETATM   12  C   UNL     1     -43.571 -54.963  14.832  1.00  0.00     0.001 A 
HETATM   13  C   UNL     1     -42.334 -54.544  14.334  1.00  0.00     0.009 A 
ENDBRANCH   7   8
ENDBRANCH   6   7
ENDBRANCH   5   6
ENDBRANCH   2   5
ENDBRANCH   1   2
BRANCH   1  14
HETATM   14  N   UNL     1     -42.060 -48.046  11.379  1.00  0.00    -0.255 N 
HETATM   15  N   UNL     1     -43.167 -48.284  10.586  1.00  0.00    -0.291 N 
HETATM   16  C   UNL     1     -43.633 -47.303   9.867  1.00  0.00     0.132 A 
ATOM     17  HN  UNL     1     -43.607 -49.203  10.564  1.00  0.00     0.187 HD
HETATM   18  C   UNL     1     -42.994 -45.967   9.808  1.00  0.00     0.041 A 
HETATM   19  C   UNL     1     -41.917 -45.764  10.570  1.00  0.00     0.078 A 
HETATM   20  C   UNL     1     -41.383 -46.837  11.434  1.00  0.00     0.262 A 
HETATM   21  O   UNL     1     -40.396 -46.613  12.128  1.00  0.00    -0.267 OA
BRANCH  16  22
HETATM   22  C   UNL     1     -44.905 -47.509   9.039  1.00  0.00     0.433 C 
HETATM   23  F   UNL     1     -45.858 -48.216   9.709  1.00  0.00    -0.165 F 
HETATM   24  F   UNL     1     -45.484 -46.333   8.680  1.00  0.00    -0.165 F 
HETATM   25  F   UNL     1     -44.662 -48.197   7.891  1.00  0.00    -0.165 F 
ENDBRANCH  16  22
ENDBRANCH   1  14
TORSDOF 8
ENDMDL
MODEL 4
REMARK VINA RESULT:      -6.5      2.702      3.389
REMARK  8 active torsions:
REMARK  status: ('A' for Active; 'I' for Inactive)
REMARK    1  A    between atoms: O_1  and  C_2 
REMARK    2  A    between atoms: C_2  and  C_12 
REMARK    3  A    between atoms: C_2  and  C_3 
REMARK    4  A    between atoms: C_3  and  O_4 
REMARK    5  A    between atoms: O_4  and  C_5 
REMARK    6  A    between atoms: C_5  and  C_6 
REMARK    7  A    between atoms: C_12  and  N_13 
REMARK    8  A    between atoms: C_16  and  C_21 
ROOT
HETATM    1  C   UNL     1     -40.009 -49.562  11.277  1.00  0.00     0.186 C 
ENDROOT
BRANCH   1   2
HETATM    2  C   UNL     1     -40.730 -50.893  11.535  1.00  0.00     0.162 C 
BRANCH   2   3
HETATM    3  O   UNL     1     -42.114 -50.666  11.852  1.00  0.00    -0.392 OA
HETATM    4  H   UNL     1     -42.313 -51.242  12.616  1.00  0.00     0.210 HD
ENDBRANCH   2   3
BRANCH   2   5
HETATM    5  C   UNL     1     -40.068 -51.676  12.679  1.00  0.00     0.201 C 
BRANCH   5   6
HETATM    6  O   UNL     1     -40.303 -53.079  12.524  1.00  0.00    -0.384 OA
BRANCH   6   7
HETATM    7  C   UNL     1     -40.604 -53.712  13.768  1.00  0.00     0.206 C 
BRANCH   7   8
HETATM    8  C   UNL     1     -42.055 -54.127  13.808  1.00  0.00    -0.035 A 
HETATM    9  C   UNL     1     -42.575 -54.846  14.894  1.00  0.00     0.009 A 
HETATM   10  C   UNL     1     -43.927 -55.196  14.938  1.00  0.00     0.001 A 
HETATM   11  C   UNL     1     -44.779 -54.819  13.900  1.00  0.00     0.000 A 
HETATM   12  C   UNL     1     -44.281 -54.086  12.824  1.00  0.00     0.001 A 
HETATM   13  C   UNL     1     -42.929 -53.737  12.782  1.00  0.00     0.009 A 
ENDBRANCH   7   8
ENDBRANCH   6   7
ENDBRANCH   5   6
ENDBRANCH   2   5
ENDBRANCH   1   2
BRANCH   1  14
HETATM   14  N   UNL     1     -40.964 -48.458  11.131  1.00  0.00    -0.255 N 
HETATM   15  N   UNL     1     -41.693 -48.441   9.957  1.00  0.00    -0.291 N 
HETATM   16  C   UNL     1     -42.579 -47.500   9.794  1.00  0.00     0.132 A 
ATOM     17  HN  UNL     1     -41.541 -49.146   9.236  1.00  0.00     0.187 HD
HETATM   18  C   UNL     1     -42.794 -46.411  10.778  1.00  0.00     0.041 A 
HETATM   19  C   UNL     1     -42.068 -46.438  11.897  1.00  0.00     0.078 A 
HETATM   20  C   UNL     1     -41.084 -47.514  12.139  1.00  0.00     0.262 A 
HETATM   21  O   UNL     1     -40.439 -47.512  13.184  1.00  0.00    -0.267 OA
BRANCH  16  22
HETATM   22  C   UNL     1     -43.460 -47.498   8.542  1.00  0.00     0.433 C 
HETATM   23  F   UNL     1     -42.982 -48.317   7.563  1.00  0.00    -0.165 F 
HETATM   24  F   UNL     1     -44.728 -47.913   8.800  1.00  0.00    -0.165 F 
HETATM   25  F   UNL     1     -43.556 -46.261   7.985  1.00  0.00    -0.165 F 
ENDBRANCH  16  22
ENDBRANCH   1  14
TORSDOF 8
ENDMDL
MODEL 5
REMARK VINA RESULT:      -6.3      2.699      3.864
REMARK  8 active torsions:
REMARK  status: ('A' for Active; 'I' for Inactive)
REMARK    1  A    between atoms: O_1  and  C_2 
REMARK    2  A    between atoms: C_2  and  C_12 
REMARK    3  A    between atoms: C_2  and  C_3 
REMARK    4  A    between atoms: C_3  and  O_4 
REMARK    5  A    between atoms: O_4  and  C_5 
REMARK    6  A    between atoms: C_5  and  C_6 
REMARK    7  A    between atoms: C_12  and  N_13 
REMARK    8  A    between atoms: C_16  and  C_21 
ROOT
HETATM    1  C   UNL     1     -41.608 -51.218  13.048  1.00  0.00     0.186 C 
ENDROOT
BRANCH   1   2
HETATM    2  C   UNL     1     -40.975 -52.435  12.357  1.00  0.00     0.162 C 
BRANCH   2   3
HETATM    3  O   UNL     1     -41.376 -52.498  10.978  1.00  0.00    -0.392 OA
HETATM    4  H   UNL     1     -41.288 -53.435  10.715  1.00  0.00     0.210 HD
ENDBRANCH   2   3
BRANCH   2   5
HETATM    5  C   UNL     1     -41.364 -53.744  13.060  1.00  0.00     0.201 C 
BRANCH   5   6
HETATM    6  O   UNL     1     -42.747 -54.037  12.838  1.00  0.00    -0.384 OA
BRANCH   6   7
HETATM    7  C   UNL     1     -43.475 -54.147  14.061  1.00  0.00     0.206 C 
BRANCH   7   8
HETATM    8  C   UNL     1     -44.619 -53.161  14.082  1.00  0.00    -0.035 A 
HETATM    9  C   UNL     1     -45.051 -52.526  12.909  1.00  0.00     0.009 A 
HETATM   10  C   UNL     1     -46.132 -51.641  12.933  1.00  0.00     0.001 A 
HETATM   11  C   UNL     1     -46.801 -51.390  14.130  1.00  0.00     0.000 A 
HETATM   12  C   UNL     1     -46.396 -52.029  15.299  1.00  0.00     0.001 A 
HETATM   13  C   UNL     1     -45.315 -52.914  15.275  1.00  0.00     0.009 A 
ENDBRANCH   7   8
ENDBRANCH   6   7
ENDBRANCH   5   6
ENDBRANCH   2   5
ENDBRANCH   1   2
BRANCH   1  14
HETATM   14  N   UNL     1     -41.211 -49.966  12.394  1.00  0.00    -0.255 N 
HETATM   15  N   UNL     1     -42.116 -49.445  11.489  1.00  0.00    -0.291 N 
HETATM   16  C   UNL     1     -41.825 -48.316  10.906  1.00  0.00     0.132 A 
ATOM     17  HN  UNL     1     -42.988 -49.931  11.281  1.00  0.00     0.187 HD
HETATM   18  C   UNL     1     -40.543 -47.602  11.119  1.00  0.00     0.041 A 
HETATM   19  C   UNL     1     -39.678 -48.132  11.985  1.00  0.00     0.078 A 
HETATM   20  C   UNL     1     -39.989 -49.387  12.700  1.00  0.00     0.262 A 
HETATM   21  O   UNL     1     -39.173 -49.842  13.497  1.00  0.00    -0.267 OA
BRANCH  16  22
HETATM   22  C   UNL     1     -42.840 -47.670   9.959  1.00  0.00     0.433 C 
HETATM   23  F   UNL     1     -42.746 -48.146   8.686  1.00  0.00    -0.165 F 
HETATM   24  F   UNL     1     -44.123 -47.885  10.352  1.00  0.00    -0.165 F 
HETATM   25  F   UNL     1     -42.674 -46.323   9.872  1.00  0.00    -0.165 F 
ENDBRANCH  16  22
ENDBRANCH   1  14
TORSDOF 8
ENDMDL
MODEL 6
REMARK VINA RESULT:      -6.3      4.692      5.699
REMARK  8 active torsions:
REMARK  status: ('A' for Active; 'I' for Inactive)
REMARK    1  A    between atoms: O_1  and  C_2 
REMARK    2  A    between atoms: C_2  and  C_12 
REMARK    3  A    between atoms: C_2  and  C_3 
REMARK    4  A    between atoms: C_3  and  O_4 
REMARK    5  A    between atoms: O_4  and  C_5 
REMARK    6  A    between atoms: C_5  and  C_6 
REMARK    7  A    between atoms: C_12  and  N_13 
REMARK    8  A    between atoms: C_16  and  C_21 
ROOT
HETATM    1  C   UNL     1     -41.986 -51.856  12.319  1.00  0.00     0.186 C 
ENDROOT
BRANCH   1   2
HETATM    2  C   UNL     1     -41.104 -53.093  12.547  1.00  0.00     0.162 C 
BRANCH   2   3
HETATM    3  O   UNL     1     -40.584 -53.581  11.299  1.00  0.00    -0.392 OA
HETATM    4  H   UNL     1     -40.160 -54.438  11.500  1.00  0.00     0.210 HD
ENDBRANCH   2   3
BRANCH   2   5
HETATM    5  C   UNL     1     -41.885 -54.216  13.246  1.00  0.00     0.201 C 
BRANCH   5   6
HETATM    6  O   UNL     1     -42.687 -53.682  14.303  1.00  0.00    -0.384 OA
BRANCH   6   7
HETATM    7  C   UNL     1     -43.946 -54.347  14.409  1.00  0.00     0.206 C 
BRANCH   7   8
HETATM    8  C   UNL     1     -45.050 -53.345  14.656  1.00  0.00    -0.035 A 
HETATM    9  C   UNL     1     -45.693 -53.266  15.899  1.00  0.00     0.009 A 
HETATM   10  C   UNL     1     -46.689 -52.313  16.128  1.00  0.00     0.001 A 
HETATM   11  C   UNL     1     -47.045 -51.420  15.118  1.00  0.00     0.000 A 
HETATM   12  C   UNL     1     -46.401 -51.474  13.884  1.00  0.00     0.001 A 
HETATM   13  C   UNL     1     -45.404 -52.427  13.656  1.00  0.00     0.009 A 
ENDBRANCH   7   8
ENDBRANCH   6   7
ENDBRANCH   5   6
ENDBRANCH   2   5
ENDBRANCH   1   2
BRANCH   1  14
HETATM   14  N   UNL     1     -41.173 -50.654  12.103  1.00  0.00    -0.255 N 
HETATM   15  N   UNL     1     -39.806 -50.851  12.045  1.00  0.00    -0.291 N 
HETATM   16  C   UNL     1     -39.043 -49.820  11.821  1.00  0.00     0.132 A 
ATOM     17  HN  UNL     1     -39.406 -51.780  12.176  1.00  0.00     0.187 HD
HETATM   18  C   UNL     1     -39.566 -48.439  11.692  1.00  0.00     0.041 A 
HETATM   19  C   UNL     1     -40.887 -48.269  11.767  1.00  0.00     0.078 A 
HETATM   20  C   UNL     1     -41.791 -49.420  11.975  1.00  0.00     0.262 A 
HETATM   21  O   UNL     1     -43.002 -49.228  12.031  1.00  0.00    -0.267 OA
BRANCH  16  22
HETATM   22  C   UNL     1     -37.532 -50.016  11.672  1.00  0.00     0.433 C 
HETATM   23  F   UNL     1     -36.813 -49.164  12.455  1.00  0.00    -0.165 F 
HETATM   24  F   UNL     1     -37.136 -51.271  12.012  1.00  0.00    -0.165 F 
HETATM   25  F   UNL     1     -37.111 -49.803  10.396  1.00  0.00    -0.165 F 
ENDBRANCH  16  22
ENDBRANCH   1  14
TORSDOF 8
ENDMDL
MODEL 7
REMARK VINA RESULT:      -6.2      2.824      6.188
REMARK  8 active torsions:
REMARK  status: ('A' for Active; 'I' for Inactive)
REMARK    1  A    between atoms: O_1  and  C_2 
REMARK    2  A    between atoms: C_2  and  C_12 
REMARK    3  A    between atoms: C_2  and  C_3 
REMARK    4  A    between atoms: C_3  and  O_4 
REMARK    5  A    between atoms: O_4  and  C_5 
REMARK    6  A    between atoms: C_5  and  C_6 
REMARK    7  A    between atoms: C_12  and  N_13 
REMARK    8  A    between atoms: C_16  and  C_21 
ROOT
HETATM    1  C   UNL     1     -40.678 -50.769  12.440  1.00  0.00     0.186 C 
ENDROOT
BRANCH   1   2
HETATM    2  C   UNL     1     -41.285 -49.827  11.390  1.00  0.00     0.162 C 
BRANCH   2   3
HETATM    3  O   UNL     1     -40.502 -49.841  10.185  1.00  0.00    -0.392 OA
HETATM    4  H   UNL     1     -41.142 -49.880   9.448  1.00  0.00     0.210 HD
ENDBRANCH   2   3
BRANCH   2   5
HETATM    5  C   UNL     1     -41.381 -48.388  11.918  1.00  0.00     0.201 C 
BRANCH   5   6
HETATM    6  O   UNL     1     -42.748 -47.970  11.979  1.00  0.00    -0.384 OA
BRANCH   6   7
HETATM    7  C   UNL     1     -43.021 -46.895  11.080  1.00  0.00     0.206 C 
BRANCH   7   8
HETATM    8  C   UNL     1     -43.767 -47.400   9.869  1.00  0.00    -0.035 A 
HETATM    9  C   UNL     1     -45.162 -47.539   9.881  1.00  0.00     0.009 A 
HETATM   10  C   UNL     1     -45.847 -47.975   8.744  1.00  0.00     0.001 A 
HETATM   11  C   UNL     1     -45.144 -48.267   7.576  1.00  0.00     0.000 A 
HETATM   12  C   UNL     1     -43.759 -48.115   7.543  1.00  0.00     0.001 A 
HETATM   13  C   UNL     1     -43.075 -47.678   8.680  1.00  0.00     0.009 A 
ENDBRANCH   7   8
ENDBRANCH   6   7
ENDBRANCH   5   6
ENDBRANCH   2   5
ENDBRANCH   1   2
BRANCH   1  14
HETATM   14  N   UNL     1     -41.585 -51.881  12.747  1.00  0.00    -0.255 N 
HETATM   15  N   UNL     1     -42.932 -51.575  12.763  1.00  0.00    -0.291 N 
HETATM   16  C   UNL     1     -43.781 -52.535  12.996  1.00  0.00     0.132 A 
ATOM     17  HN  UNL     1     -43.254 -50.622  12.596  1.00  0.00     0.187 HD
HETATM   18  C   UNL     1     -43.366 -53.924  13.311  1.00  0.00     0.041 A 
HETATM   19  C   UNL     1     -42.059 -54.194  13.306  1.00  0.00     0.078 A 
HETATM   20  C   UNL     1     -41.067 -53.142  13.001  1.00  0.00     0.262 A 
HETATM   21  O   UNL     1     -39.872 -53.427  12.998  1.00  0.00    -0.267 OA
BRANCH  16  22
HETATM   22  C   UNL     1     -45.284 -52.247  12.942  1.00  0.00     0.433 C 
HETATM   23  F   UNL     1     -45.972 -52.862  13.943  1.00  0.00    -0.165 F 
HETATM   24  F   UNL     1     -45.560 -50.921  13.048  1.00  0.00    -0.165 F 
HETATM   25  F   UNL     1     -45.845 -52.674  11.779  1.00  0.00    -0.165 F 
ENDBRANCH  16  22
ENDBRANCH   1  14
TORSDOF 8
ENDMDL
MODEL 8
REMARK VINA RESULT:      -6.1      2.283      2.916
REMARK  8 active torsions:
REMARK  status: ('A' for Active; 'I' for Inactive)
REMARK    1  A    between atoms: O_1  and  C_2 
REMARK    2  A    between atoms: C_2  and  C_12 
REMARK    3  A    between atoms: C_2  and  C_3 
REMARK    4  A    between atoms: C_3  and  O_4 
REMARK    5  A    between atoms: O_4  and  C_5 
REMARK    6  A    between atoms: C_5  and  C_6 
REMARK    7  A    between atoms: C_12  and  N_13 
REMARK    8  A    between atoms: C_16  and  C_21 
ROOT
HETATM    1  C   UNL     1     -42.672 -48.058  12.098  1.00  0.00     0.186 C 
ENDROOT
BRANCH   1   2
HETATM    2  C   UNL     1     -42.515 -49.572  11.889  1.00  0.00     0.162 C 
BRANCH   2   3
HETATM    3  O   UNL     1     -43.584 -50.285  12.533  1.00  0.00    -0.392 OA
HETATM    4  H   UNL     1     -44.411 -49.947  12.136  1.00  0.00     0.210 HD
ENDBRANCH   2   3
BRANCH   2   5
HETATM    5  C   UNL     1     -41.169 -50.075  12.432  1.00  0.00     0.201 C 
BRANCH   5   6
HETATM    6  O   UNL     1     -40.965 -51.444  12.067  1.00  0.00    -0.384 OA
BRANCH   6   7
HETATM    7  C   UNL     1     -40.211 -52.154  13.049  1.00  0.00     0.206 C 
BRANCH   7   8
HETATM    8  C   UNL     1     -41.093 -53.142  13.775  1.00  0.00    -0.035 A 
HETATM    9  C   UNL     1     -42.375 -53.454  13.301  1.00  0.00     0.009 A 
HETATM   10  C   UNL     1     -43.170 -54.395  13.960  1.00  0.00     0.001 A 
HETATM   11  C   UNL     1     -42.687 -55.044  15.096  1.00  0.00     0.000 A 
HETATM   12  C   UNL     1     -41.407 -54.759  15.566  1.00  0.00     0.001 A 
HETATM   13  C   UNL     1     -40.612 -53.818  14.906  1.00  0.00     0.009 A 
ENDBRANCH   7   8
ENDBRANCH   6   7
ENDBRANCH   5   6
ENDBRANCH   2   5
ENDBRANCH   1   2
BRANCH   1  14
HETATM   14  N   UNL     1     -43.337 -47.428  10.952  1.00  0.00    -0.255 N 
HETATM   15  N   UNL     1     -44.467 -48.069  10.482  1.00  0.00    -0.291 N 
HETATM   16  C   UNL     1     -45.114 -47.531   9.488  1.00  0.00     0.132 A 
ATOM     17  HN  UNL     1     -44.787 -48.942  10.902  1.00  0.00     0.187 HD
HETATM   18  C   UNL     1     -44.657 -46.302   8.795  1.00  0.00     0.041 A 
HETATM   19  C   UNL     1     -43.554 -45.708   9.256  1.00  0.00     0.078 A 
HETATM   20  C   UNL     1     -42.818 -46.262  10.411  1.00  0.00     0.262 A 
HETATM   21  O   UNL     1     -41.812 -45.685  10.813  1.00  0.00    -0.267 OA
BRANCH  16  22
HETATM   22  C   UNL     1     -46.414 -48.172   8.994  1.00  0.00     0.433 C 
HETATM   23  F   UNL     1     -47.487 -47.343   9.117  1.00  0.00    -0.165 F 
HETATM   24  F   UNL     1     -46.352 -48.524   7.683  1.00  0.00    -0.165 F 
HETATM   25  F   UNL     1     -46.726 -49.299   9.690  1.00  0.00    -0.165 F 
ENDBRANCH  16  22
ENDBRANCH   1  14
TORSDOF 8
ENDMDL
MODEL 9
REMARK VINA RESULT:      -5.9      5.548      6.892
REMARK  8 active torsions:
REMARK  status: ('A' for Active; 'I' for Inactive)
REMARK    1  A    between atoms: O_1  and  C_2 
REMARK    2  A    between atoms: C_2  and  C_12 
REMARK    3  A    between atoms: C_2  and  C_3 
REMARK    4  A    between atoms: C_3  and  O_4 
REMARK    5  A    between atoms: O_4  and  C_5 
REMARK    6  A    between atoms: C_5  and  C_6 
REMARK    7  A    between atoms: C_12  and  N_13 
REMARK    8  A    between atoms: C_16  and  C_21 
ROOT
HETATM    1  C   UNL     1     -39.952 -54.033  13.824  1.00  0.00     0.186 C 
ENDROOT
BRANCH   1   2
HETATM    2  C   UNL     1     -41.062 -53.865  12.776  1.00  0.00     0.162 C 
BRANCH   2   3
HETATM    3  O   UNL     1     -40.513 -53.419  11.525  1.00  0.00    -0.392 OA
HETATM    4  H   UNL     1     -39.879 -54.108  11.247  1.00  0.00     0.210 HD
ENDBRANCH   2   3
BRANCH   2   5
HETATM    5  C   UNL     1     -42.132 -52.868  13.247  1.00  0.00     0.201 C 
BRANCH   5   6
HETATM    6  O   UNL     1     -43.200 -52.797  12.297  1.00  0.00    -0.384 OA
BRANCH   6   7
HETATM    7  C   UNL     1     -44.231 -53.744  12.579  1.00  0.00     0.206 C 
BRANCH   7   8
HETATM    8  C   UNL     1     -45.237 -53.154  13.538  1.00  0.00    -0.035 A 
HETATM    9  C   UNL     1     -45.559 -53.799  14.740  1.00  0.00     0.009 A 
HETATM   10  C   UNL     1     -46.466 -53.228  15.636  1.00  0.00     0.001 A 
HETATM   11  C   UNL     1     -47.053 -51.997  15.345  1.00  0.00     0.000 A 
HETATM   12  C   UNL     1     -46.728 -51.335  14.163  1.00  0.00     0.001 A 
HETATM   13  C   UNL     1     -45.820 -51.907  13.268  1.00  0.00     0.009 A 
ENDBRANCH   7   8
ENDBRANCH   6   7
ENDBRANCH   5   6
ENDBRANCH   2   5
ENDBRANCH   1   2
BRANCH   1  14
HETATM   14  N   UNL     1     -39.436 -52.733  14.267  1.00  0.00    -0.255 N 
HETATM   15  N   UNL     1     -38.915 -51.921  13.277  1.00  0.00    -0.291 N 
HETATM   16  C   UNL     1     -38.475 -50.743  13.614  1.00  0.00     0.132 A 
ATOM     17  HN  UNL     1     -38.876 -52.237  12.309  1.00  0.00     0.187 HD
HETATM   18  C   UNL     1     -38.446 -50.259  15.015  1.00  0.00     0.041 A 
HETATM   19  C   UNL     1     -38.939 -51.066  15.957  1.00  0.00     0.078 A 
HETATM   20  C   UNL     1     -39.489 -52.393  15.610  1.00  0.00     0.262 A 
HETATM   21  O   UNL     1     -39.942 -53.106  16.501  1.00  0.00    -0.267 OA
BRANCH  16  22
HETATM   22  C   UNL     1     -37.966 -49.787  12.531  1.00  0.00     0.433 C 
HETATM   23  F   UNL     1     -38.951 -49.386  11.680  1.00  0.00    -0.165 F 
HETATM   24  F   UNL     1     -37.428 -48.653  13.053  1.00  0.00    -0.165 F 
HETATM   25  F   UNL     1     -37.005 -50.358  11.755  1.00  0.00    -0.165 F 
ENDBRANCH  16  22
ENDBRANCH   1  14
TORSDOF 8
ENDMDL
