MODEL 1
REMARK VINA RESULT:      -5.2      0.000      0.000
REMARK  7 active torsions:
REMARK  status: ('A' for Active; 'I' for Inactive)
REMARK    1  A    between atoms: C_2  and  C_3 
REMARK    2  A    between atoms: C_2  and  N_10 
REMARK    3  A    between atoms: C_3  and  N_4 
REMARK    4  A    between atoms: N_10  and  C_11 
REMARK    5  A    between atoms: C_11  and  C_13 
REMARK       I    between atoms: C_13  and  N_15 
REMARK    6  A    between atoms: N_15  and  C_16 
REMARK    7  A    between atoms: C_16  and  C_17 
ROOT
HETATM    1  N   UNL     1     -41.643 -48.459  10.204  1.00  0.00     0.102 N 
HETATM    2  H   UNL     1     -41.678 -49.277   9.593  1.00  0.00     0.317 HD
ENDROOT
BRANCH   1   3
HETATM    3  C   UNL     1     -40.816 -48.699  11.381  1.00  0.00     0.237 C 
HETATM    4  C   UNL     1     -40.293 -50.137  11.328  1.00  0.00     0.044 C 
BRANCH   3   5
HETATM    5  C   UNL     1     -39.597 -47.732  11.416  1.00  0.00     0.183 C 
BRANCH   5   6
HETATM    6  N   UNL     1     -39.873 -46.314  11.245  1.00  0.00    -0.302 N 
HETATM    7  C   UNL     1     -40.113 -45.403  12.239  1.00  0.00     0.111 A 
HETATM    8  C   UNL     1     -40.023 -44.158  11.660  1.00  0.00     0.037 A 
HETATM    9  C   UNL     1     -39.728 -44.418  10.314  1.00  0.00     0.108 A 
HETATM   10  N   UNL     1     -39.616 -45.722  10.053  1.00  0.00    -0.310 N 
ATOM     11  HN  UNL     1     -39.390 -46.169   9.164  1.00  0.00     0.186 HD
ENDBRANCH   5   6
ENDBRANCH   3   5
ENDBRANCH   1   3
BRANCH   1  12
HETATM   12  C   UNL     1     -42.999 -47.901  10.358  1.00  0.00     0.308 C 
HETATM   13  C   UNL     1     -43.333 -47.322  11.734  1.00  0.00     0.053 C 
BRANCH  12  14
HETATM   14  C   UNL     1     -43.211 -46.792   9.286  1.00  0.00     0.251 C 
HETATM   15  O   UNL     1     -42.672 -45.686   9.394  1.00  0.00    -0.271 OA
HETATM   16  N   UNL     1     -43.960 -47.064   8.163  1.00  0.00    -0.356 N 
HETATM   17  H   UNL     1     -44.127 -46.242   7.597  1.00  0.00     0.162 HD
BRANCH  16  18
HETATM   18  C   UNL     1     -44.904 -48.154   8.048  1.00  0.00     0.149 C 
BRANCH  18  19
HETATM   19  C   UNL     1     -46.099 -47.890   8.896  1.00  0.00    -0.018 C 
HETATM   20  C   UNL     1     -46.657 -46.676   8.995  1.00  0.00     0.008 C 
ENDBRANCH  18  19
ENDBRANCH  16  18
ENDBRANCH  12  14
ENDBRANCH   1  12
TORSDOF 7
ENDMDL
MODEL 2
REMARK VINA RESULT:      -4.8      2.676      6.125
REMARK  7 active torsions:
REMARK  status: ('A' for Active; 'I' for Inactive)
REMARK    1  A    between atoms: C_2  and  C_3 
REMARK    2  A    between atoms: C_2  and  N_10 
REMARK    3  A    between atoms: C_3  and  N_4 
REMARK    4  A    between atoms: N_10  and  C_11 
REMARK    5  A    between atoms: C_11  and  C_13 
REMARK       I    between atoms: C_13  and  N_15 
REMARK    6  A    between atoms: N_15  and  C_16 
REMARK    7  A    between atoms: C_16  and  C_17 
ROOT
HETATM    1  N   UNL     1     -41.784 -49.216  10.824  1.00  0.00     0.102 N 
HETATM    2  H   UNL     1     -40.891 -49.315  10.337  1.00  0.00     0.317 HD
ENDROOT
BRANCH   1   3
HETATM    3  C   UNL     1     -42.328 -47.869  10.684  1.00  0.00     0.237 C 
HETATM    4  C   UNL     1     -41.181 -46.862  10.796  1.00  0.00     0.044 C 
BRANCH   3   5
HETATM    5  C   UNL     1     -43.013 -47.683   9.299  1.00  0.00     0.183 C 
BRANCH   5   6
HETATM    6  N   UNL     1     -44.410 -47.276   9.303  1.00  0.00    -0.302 N 
HETATM    7  C   UNL     1     -44.911 -46.070   8.890  1.00  0.00     0.111 A 
HETATM    8  C   UNL     1     -46.273 -46.227   8.784  1.00  0.00     0.037 A 
HETATM    9  C   UNL     1     -46.503 -47.559   9.154  1.00  0.00     0.108 A 
HETATM   10  N   UNL     1     -45.379 -48.212   9.454  1.00  0.00    -0.310 N 
ATOM     11  HN  UNL     1     -45.273 -49.188   9.732  1.00  0.00     0.186 HD
ENDBRANCH   5   6
ENDBRANCH   3   5
ENDBRANCH   1   3
BRANCH   1  12
HETATM   12  C   UNL     1     -41.690 -49.836  12.158  1.00  0.00     0.308 C 
HETATM   13  C   UNL     1     -43.012 -50.038  12.898  1.00  0.00     0.053 C 
BRANCH  12  14
HETATM   14  C   UNL     1     -40.980 -51.216  12.021  1.00  0.00     0.251 C 
HETATM   15  O   UNL     1     -41.609 -52.230  11.702  1.00  0.00    -0.271 OA
HETATM   16  N   UNL     1     -39.616 -51.301  12.194  1.00  0.00    -0.356 N 
HETATM   17  H   UNL     1     -39.283 -52.256  12.196  1.00  0.00     0.162 HD
BRANCH  16  18
HETATM   18  C   UNL     1     -38.811 -50.312  12.876  1.00  0.00     0.149 C 
BRANCH  18  19
HETATM   19  C   UNL     1     -38.054 -49.496  11.888  1.00  0.00    -0.018 C 
HETATM   20  C   UNL     1     -37.247 -50.043  10.968  1.00  0.00     0.008 C 
ENDBRANCH  18  19
ENDBRANCH  16  18
ENDBRANCH  12  14
ENDBRANCH   1  12
TORSDOF 7
ENDMDL
MODEL 3
REMARK VINA RESULT:      -4.8      2.238      5.671
REMARK  7 active torsions:
REMARK  status: ('A' for Active; 'I' for Inactive)
REMARK    1  A    between atoms: C_2  and  C_3 
REMARK    2  A    between atoms: C_2  and  N_10 
REMARK    3  A    between atoms: C_3  and  N_4 
REMARK    4  A    between atoms: N_10  and  C_11 
REMARK    5  A    between atoms: C_11  and  C_13 
REMARK       I    between atoms: C_13  and  N_15 
REMARK    6  A    between atoms: N_15  and  C_16 
REMARK    7  A    between atoms: C_16  and  C_17 
ROOT
HETATM    1  N   UNL     1     -40.046 -46.976  10.646  1.00  0.00     0.102 N 
HETATM    2  H   UNL     1     -39.393 -47.129   9.874  1.00  0.00     0.317 HD
ENDROOT
BRANCH   1   3
HETATM    3  C   UNL     1     -40.300 -45.557  10.865  1.00  0.00     0.237 C 
HETATM    4  C   UNL     1     -39.440 -44.749   9.890  1.00  0.00     0.044 C 
BRANCH   3   5
HETATM    5  C   UNL     1     -41.795 -45.209  10.608  1.00  0.00     0.183 C 
BRANCH   5   6
HETATM    6  N   UNL     1     -42.628 -46.256  10.038  1.00  0.00    -0.302 N 
HETATM    7  C   UNL     1     -43.539 -47.031  10.707  1.00  0.00     0.111 A 
HETATM    8  C   UNL     1     -44.297 -47.661   9.748  1.00  0.00     0.037 A 
HETATM    9  C   UNL     1     -43.771 -47.207   8.530  1.00  0.00     0.108 A 
HETATM   10  N   UNL     1     -42.769 -46.340   8.693  1.00  0.00    -0.310 N 
ATOM     11  HN  UNL     1     -42.234 -45.854   7.973  1.00  0.00     0.186 HD
ENDBRANCH   5   6
ENDBRANCH   3   5
ENDBRANCH   1   3
BRANCH   1  12
HETATM   12  C   UNL     1     -39.679 -47.842  11.781  1.00  0.00     0.308 C 
HETATM   13  C   UNL     1     -40.298 -47.476  13.131  1.00  0.00     0.053 C 
BRANCH  12  14
HETATM   14  C   UNL     1     -40.065 -49.311  11.438  1.00  0.00     0.251 C 
HETATM   15  O   UNL     1     -41.247 -49.669  11.394  1.00  0.00    -0.271 OA
HETATM   16  N   UNL     1     -39.080 -50.217  11.113  1.00  0.00    -0.356 N 
HETATM   17  H   UNL     1     -39.433 -51.161  11.023  1.00  0.00     0.162 HD
BRANCH  16  18
HETATM   18  C   UNL     1     -37.679 -50.057  11.433  1.00  0.00     0.149 C 
BRANCH  18  19
HETATM   19  C   UNL     1     -37.355 -50.776  12.695  1.00  0.00    -0.018 C 
HETATM   20  C   UNL     1     -38.280 -51.435  13.406  1.00  0.00     0.008 C 
ENDBRANCH  18  19
ENDBRANCH  16  18
ENDBRANCH  12  14
ENDBRANCH   1  12
TORSDOF 7
ENDMDL
MODEL 4
REMARK VINA RESULT:      -4.8      2.403      3.940
REMARK  7 active torsions:
REMARK  status: ('A' for Active; 'I' for Inactive)
REMARK    1  A    between atoms: C_2  and  C_3 
REMARK    2  A    between atoms: C_2  and  N_10 
REMARK    3  A    between atoms: C_3  and  N_4 
REMARK    4  A    between atoms: N_10  and  C_11 
REMARK    5  A    between atoms: C_11  and  C_13 
REMARK       I    between atoms: C_13  and  N_15 
REMARK    6  A    between atoms: N_15  and  C_16 
REMARK    7  A    between atoms: C_16  and  C_17 
ROOT
HETATM    1  N   UNL     1     -42.629 -49.145  11.818  1.00  0.00     0.102 N 
HETATM    2  H   UNL     1     -43.633 -49.300  11.714  1.00  0.00     0.317 HD
ENDROOT
BRANCH   1   3
HETATM    3  C   UNL     1     -42.003 -50.185  12.628  1.00  0.00     0.237 C 
HETATM    4  C   UNL     1     -43.085 -51.164  13.090  1.00  0.00     0.044 C 
BRANCH   3   5
HETATM    5  C   UNL     1     -40.943 -50.974  11.806  1.00  0.00     0.183 C 
BRANCH   5   6
HETATM    6  N   UNL     1     -39.548 -50.613  12.007  1.00  0.00    -0.302 N 
HETATM    7  C   UNL     1     -38.721 -51.068  12.999  1.00  0.00     0.111 A 
HETATM    8  C   UNL     1     -37.442 -50.714  12.636  1.00  0.00     0.037 A 
HETATM    9  C   UNL     1     -37.596 -50.048  11.412  1.00  0.00     0.108 A 
HETATM   10  N   UNL     1     -38.868 -49.995  11.010  1.00  0.00    -0.310 N 
ATOM     11  HN  UNL     1     -39.241 -49.586  10.153  1.00  0.00     0.186 HD
ENDBRANCH   5   6
ENDBRANCH   3   5
ENDBRANCH   1   3
BRANCH   1  12
HETATM   12  C   UNL     1     -42.377 -47.725  12.120  1.00  0.00     0.308 C 
HETATM   13  C   UNL     1     -41.908 -47.415  13.542  1.00  0.00     0.053 C 
BRANCH  12  14
HETATM   14  C   UNL     1     -41.320 -47.177  11.117  1.00  0.00     0.251 C 
HETATM   15  O   UNL     1     -40.110 -47.315  11.322  1.00  0.00    -0.271 OA
HETATM   16  N   UNL     1     -41.735 -46.583   9.945  1.00  0.00    -0.356 N 
HETATM   17  H   UNL     1     -40.973 -46.164   9.429  1.00  0.00     0.162 HD
BRANCH  16  18
HETATM   18  C   UNL     1     -43.064 -46.058   9.716  1.00  0.00     0.149 C 
BRANCH  18  19
HETATM   19  C   UNL     1     -43.545 -46.449   8.364  1.00  0.00    -0.018 C 
HETATM   20  C   UNL     1     -43.529 -47.718   7.932  1.00  0.00     0.008 C 
ENDBRANCH  18  19
ENDBRANCH  16  18
ENDBRANCH  12  14
ENDBRANCH   1  12
TORSDOF 7
ENDMDL
MODEL 5
REMARK VINA RESULT:      -4.7      5.023      6.536
REMARK  7 active torsions:
REMARK  status: ('A' for Active; 'I' for Inactive)
REMARK    1  A    between atoms: C_2  and  C_3 
REMARK    2  A    between atoms: C_2  and  N_10 
REMARK    3  A    between atoms: C_3  and  N_4 
REMARK    4  A    between atoms: N_10  and  C_11 
REMARK    5  A    between atoms: C_11  and  C_13 
REMARK       I    between atoms: C_13  and  N_15 
REMARK    6  A    between atoms: N_15  and  C_16 
REMARK    7  A    between atoms: C_16  and  C_17 
ROOT
HETATM    1  N   UNL     1     -43.355 -50.781  12.488  1.00  0.00     0.102 N 
HETATM    2  H   UNL     1     -43.435 -51.146  11.537  1.00  0.00     0.317 HD
ENDROOT
BRANCH   1   3
HETATM    3  C   UNL     1     -42.007 -50.299  12.769  1.00  0.00     0.237 C 
HETATM    4  C   UNL     1     -41.687 -50.567  14.242  1.00  0.00     0.044 C 
BRANCH   3   5
HETATM    5  C   UNL     1     -40.954 -51.037  11.894  1.00  0.00     0.183 C 
BRANCH   5   6
HETATM    6  N   UNL     1     -39.574 -50.590  12.002  1.00  0.00    -0.302 N 
HETATM    7  C   UNL     1     -38.631 -51.050  12.883  1.00  0.00     0.111 A 
HETATM    8  C   UNL     1     -37.418 -50.579  12.440  1.00  0.00     0.037 A 
HETATM    9  C   UNL     1     -37.725 -49.843  11.287  1.00  0.00     0.108 A 
HETATM   10  N   UNL     1     -39.029 -49.857  11.000  1.00  0.00    -0.310 N 
ATOM     11  HN  UNL     1     -39.504 -49.418  10.210  1.00  0.00     0.186 HD
ENDBRANCH   5   6
ENDBRANCH   3   5
ENDBRANCH   1   3
BRANCH   1  12
HETATM   12  C   UNL     1     -44.018 -51.703  13.428  1.00  0.00     0.308 C 
HETATM   13  C   UNL     1     -45.319 -51.200  14.055  1.00  0.00     0.053 C 
BRANCH  12  14
HETATM   14  C   UNL     1     -44.305 -53.046  12.695  1.00  0.00     0.251 C 
HETATM   15  O   UNL     1     -45.328 -53.201  12.019  1.00  0.00    -0.271 OA
HETATM   16  N   UNL     1     -43.377 -54.063  12.744  1.00  0.00    -0.356 N 
HETATM   17  H   UNL     1     -43.718 -54.922  12.333  1.00  0.00     0.162 HD
BRANCH  16  18
HETATM   18  C   UNL     1     -42.325 -54.167  13.730  1.00  0.00     0.149 C 
BRANCH  18  19
HETATM   19  C   UNL     1     -40.997 -54.228  13.061  1.00  0.00    -0.018 C 
HETATM   20  C   UNL     1     -39.851 -54.352  13.744  1.00  0.00     0.008 C 
ENDBRANCH  18  19
ENDBRANCH  16  18
ENDBRANCH  12  14
ENDBRANCH   1  12
TORSDOF 7
ENDMDL
MODEL 6
REMARK VINA RESULT:      -4.7      3.856      6.171
REMARK  7 active torsions:
REMARK  status: ('A' for Active; 'I' for Inactive)
REMARK    1  A    between atoms: C_2  and  C_3 
REMARK    2  A    between atoms: C_2  and  N_10 
REMARK    3  A    between atoms: C_3  and  N_4 
REMARK    4  A    between atoms: N_10  and  C_11 
REMARK    5  A    between atoms: C_11  and  C_13 
REMARK       I    between atoms: C_13  and  N_15 
REMARK    6  A    between atoms: N_15  and  C_16 
REMARK    7  A    between atoms: C_16  and  C_17 
ROOT
HETATM    1  N   UNL     1     -42.421 -51.023  12.129  1.00  0.00     0.102 N 
HETATM    2  H   UNL     1     -42.186 -51.722  11.421  1.00  0.00     0.317 HD
ENDROOT
BRANCH   1   3
HETATM    3  C   UNL     1     -41.242 -50.286  12.571  1.00  0.00     0.237 C 
HETATM    4  C   UNL     1     -40.016 -50.838  11.839  1.00  0.00     0.044 C 
BRANCH   3   5
HETATM    5  C   UNL     1     -41.372 -48.771  12.243  1.00  0.00     0.183 C 
BRANCH   5   6
HETATM    6  N   UNL     1     -42.283 -48.403  11.170  1.00  0.00    -0.302 N 
HETATM    7  C   UNL     1     -43.523 -47.837  11.309  1.00  0.00     0.111 A 
HETATM    8  C   UNL     1     -43.892 -47.391  10.062  1.00  0.00     0.037 A 
HETATM    9  C   UNL     1     -42.814 -47.731   9.234  1.00  0.00     0.108 A 
HETATM   10  N   UNL     1     -41.822 -48.331   9.898  1.00  0.00    -0.310 N 
ATOM     11  HN  UNL     1     -40.927 -48.657   9.533  1.00  0.00     0.186 HD
ENDBRANCH   5   6
ENDBRANCH   3   5
ENDBRANCH   1   3
BRANCH   1  12
HETATM   12  C   UNL     1     -43.336 -51.615  13.122  1.00  0.00     0.308 C 
HETATM   13  C   UNL     1     -44.612 -50.823  13.412  1.00  0.00     0.053 C 
BRANCH  12  14
HETATM   14  C   UNL     1     -43.732 -53.044  12.650  1.00  0.00     0.251 C 
HETATM   15  O   UNL     1     -44.766 -53.241  12.003  1.00  0.00    -0.271 OA
HETATM   16  N   UNL     1     -42.888 -54.104  12.900  1.00  0.00    -0.356 N 
HETATM   17  H   UNL     1     -43.298 -54.995  12.654  1.00  0.00     0.162 HD
BRANCH  16  18
HETATM   18  C   UNL     1     -41.844 -54.104  13.901  1.00  0.00     0.149 C 
BRANCH  18  19
HETATM   19  C   UNL     1     -40.509 -54.197  13.251  1.00  0.00    -0.018 C 
HETATM   20  C   UNL     1     -39.383 -54.414  13.945  1.00  0.00     0.008 C 
ENDBRANCH  18  19
ENDBRANCH  16  18
ENDBRANCH  12  14
ENDBRANCH   1  12
TORSDOF 7
ENDMDL
MODEL 7
REMARK VINA RESULT:      -4.6      3.888      6.301
REMARK  7 active torsions:
REMARK  status: ('A' for Active; 'I' for Inactive)
REMARK    1  A    between atoms: C_2  and  C_3 
REMARK    2  A    between atoms: C_2  and  N_10 
REMARK    3  A    between atoms: C_3  and  N_4 
REMARK    4  A    between atoms: N_10  and  C_11 
REMARK    5  A    between atoms: C_11  and  C_13 
REMARK       I    between atoms: C_13  and  N_15 
REMARK    6  A    between atoms: N_15  and  C_16 
REMARK    7  A    between atoms: C_16  and  C_17 
ROOT
HETATM    1  N   UNL     1     -40.996 -51.945  11.701  1.00  0.00     0.102 N 
HETATM    2  H   UNL     1     -41.033 -51.700  10.709  1.00  0.00     0.317 HD
ENDROOT
BRANCH   1   3
HETATM    3  C   UNL     1     -42.255 -52.519  12.163  1.00  0.00     0.237 C 
HETATM    4  C   UNL     1     -41.948 -53.768  12.993  1.00  0.00     0.044 C 
BRANCH   3   5
HETATM    5  C   UNL     1     -43.035 -51.512  13.057  1.00  0.00     0.183 C 
BRANCH   5   6
HETATM    6  N   UNL     1     -44.458 -51.755  13.238  1.00  0.00    -0.302 N 
HETATM    7  C   UNL     1     -45.257 -51.237  14.223  1.00  0.00     0.111 A 
HETATM    8  C   UNL     1     -46.556 -51.480  13.842  1.00  0.00     0.037 A 
HETATM    9  C   UNL     1     -46.443 -52.149  12.615  1.00  0.00     0.108 A 
HETATM   10  N   UNL     1     -45.175 -52.307  12.228  1.00  0.00    -0.310 N 
ATOM     11  HN  UNL     1     -44.827 -52.741  11.373  1.00  0.00     0.186 HD
ENDBRANCH   5   6
ENDBRANCH   3   5
ENDBRANCH   1   3
BRANCH   1  12
HETATM   12  C   UNL     1     -40.366 -50.846  12.456  1.00  0.00     0.308 C 
HETATM   13  C   UNL     1     -39.324 -51.260  13.496  1.00  0.00     0.053 C 
BRANCH  12  14
HETATM   14  C   UNL     1     -39.701 -49.862  11.449  1.00  0.00     0.251 C 
HETATM   15  O   UNL     1     -38.484 -49.883  11.241  1.00  0.00    -0.271 OA
HETATM   16  N   UNL     1     -40.487 -48.991  10.726  1.00  0.00    -0.356 N 
HETATM   17  H   UNL     1     -39.943 -48.325  10.195  1.00  0.00     0.162 HD
BRANCH  16  18
HETATM   18  C   UNL     1     -41.839 -48.617  11.082  1.00  0.00     0.149 C 
BRANCH  18  19
HETATM   19  C   UNL     1     -42.394 -47.678  10.069  1.00  0.00    -0.018 C 
HETATM   20  C   UNL     1     -43.711 -47.470   9.926  1.00  0.00     0.008 C 
ENDBRANCH  18  19
ENDBRANCH  16  18
ENDBRANCH  12  14
ENDBRANCH   1  12
TORSDOF 7
ENDMDL
MODEL 8
REMARK VINA RESULT:      -4.6      5.791      7.108
REMARK  7 active torsions:
REMARK  status: ('A' for Active; 'I' for Inactive)
REMARK    1  A    between atoms: C_2  and  C_3 
REMARK    2  A    between atoms: C_2  and  N_10 
REMARK    3  A    between atoms: C_3  and  N_4 
REMARK    4  A    between atoms: N_10  and  C_11 
REMARK    5  A    between atoms: C_11  and  C_13 
REMARK       I    between atoms: C_13  and  N_15 
REMARK    6  A    between atoms: N_15  and  C_16 
REMARK    7  A    between atoms: C_16  and  C_17 
ROOT
HETATM    1  N   UNL     1     -43.480 -53.530  12.481  1.00  0.00     0.102 N 
HETATM    2  H   UNL     1     -43.511 -54.537  12.310  1.00  0.00     0.317 HD
ENDROOT
BRANCH   1   3
HETATM    3  C   UNL     1     -42.180 -53.108  12.990  1.00  0.00     0.237 C 
HETATM    4  C   UNL     1     -41.506 -54.305  13.667  1.00  0.00     0.044 C 
BRANCH   3   5
HETATM    5  C   UNL     1     -41.261 -52.611  11.838  1.00  0.00     0.183 C 
BRANCH   5   6
HETATM    6  N   UNL     1     -40.590 -51.335  12.031  1.00  0.00    -0.302 N 
HETATM    7  C   UNL     1     -39.662 -51.036  12.993  1.00  0.00     0.111 A 
HETATM    8  C   UNL     1     -39.085 -49.843  12.624  1.00  0.00     0.037 A 
HETATM    9  C   UNL     1     -39.728 -49.497  11.428  1.00  0.00     0.108 A 
HETATM   10  N   UNL     1     -40.632 -50.403  11.047  1.00  0.00    -0.310 N 
ATOM     11  HN  UNL     1     -41.217 -50.396  10.211  1.00  0.00     0.186 HD
ENDBRANCH   5   6
ENDBRANCH   3   5
ENDBRANCH   1   3
BRANCH   1  12
HETATM   12  C   UNL     1     -44.713 -53.109  13.170  1.00  0.00     0.308 C 
HETATM   13  C   UNL     1     -45.835 -52.583  12.275  1.00  0.00     0.053 C 
BRANCH  12  14
HETATM   14  C   UNL     1     -45.259 -54.308  14.000  1.00  0.00     0.251 C 
HETATM   15  O   UNL     1     -45.580 -55.370  13.456  1.00  0.00    -0.271 OA
HETATM   16  N   UNL     1     -45.328 -54.213  15.373  1.00  0.00    -0.356 N 
HETATM   17  H   UNL     1     -45.803 -55.001  15.794  1.00  0.00     0.162 HD
BRANCH  16  18
HETATM   18  C   UNL     1     -45.312 -52.970  16.112  1.00  0.00     0.149 C 
BRANCH  18  19
HETATM   19  C   UNL     1     -46.687 -52.408  16.202  1.00  0.00    -0.018 C 
HETATM   20  C   UNL     1     -47.060 -51.307  15.535  1.00  0.00     0.008 C 
ENDBRANCH  18  19
ENDBRANCH  16  18
ENDBRANCH  12  14
ENDBRANCH   1  12
TORSDOF 7
ENDMDL
MODEL 9
REMARK VINA RESULT:      -4.5      5.077      5.994
REMARK  7 active torsions:
REMARK  status: ('A' for Active; 'I' for Inactive)
REMARK    1  A    between atoms: C_2  and  C_3 
REMARK    2  A    between atoms: C_2  and  N_10 
REMARK    3  A    between atoms: C_3  and  N_4 
REMARK    4  A    between atoms: N_10  and  C_11 
REMARK    5  A    between atoms: C_11  and  C_13 
REMARK       I    between atoms: C_13  and  N_15 
REMARK    6  A    between atoms: N_15  and  C_16 
REMARK    7  A    between atoms: C_16  and  C_17 
ROOT
HETATM    1  N   UNL     1     -41.125 -53.009  14.367  1.00  0.00     0.102 N 
HETATM    2  H   UNL     1     -41.248 -53.826  14.970  1.00  0.00     0.317 HD
ENDROOT
BRANCH   1   3
HETATM    3  C   UNL     1     -40.053 -52.143  14.844  1.00  0.00     0.237 C 
HETATM    4  C   UNL     1     -39.678 -52.565  16.267  1.00  0.00     0.044 C 
BRANCH   3   5
HETATM    5  C   UNL     1     -38.790 -52.266  13.944  1.00  0.00     0.183 C 
BRANCH   5   6
HETATM    6  N   UNL     1     -38.505 -51.153  13.051  1.00  0.00    -0.302 N 
HETATM    7  C   UNL     1     -37.315 -50.894  12.424  1.00  0.00     0.111 A 
HETATM    8  C   UNL     1     -37.577 -49.944  11.464  1.00  0.00     0.037 A 
HETATM    9  C   UNL     1     -38.950 -49.691  11.586  1.00  0.00     0.108 A 
HETATM   10  N   UNL     1     -39.529 -50.431  12.535  1.00  0.00    -0.310 N 
ATOM     11  HN  UNL     1     -40.512 -50.450  12.806  1.00  0.00     0.186 HD
ENDBRANCH   5   6
ENDBRANCH   3   5
ENDBRANCH   1   3
BRANCH   1  12
HETATM   12  C   UNL     1     -42.444 -52.437  14.039  1.00  0.00     0.308 C 
HETATM   13  C   UNL     1     -42.671 -50.987  14.467  1.00  0.00     0.053 C 
BRANCH  12  14
HETATM   14  C   UNL     1     -42.668 -52.544  12.501  1.00  0.00     0.251 C 
HETATM   15  O   UNL     1     -41.794 -52.194  11.701  1.00  0.00    -0.271 OA
HETATM   16  N   UNL     1     -43.834 -53.097  12.019  1.00  0.00    -0.356 N 
HETATM   17  H   UNL     1     -43.920 -53.008  11.015  1.00  0.00     0.162 HD
BRANCH  16  18
HETATM   18  C   UNL     1     -45.053 -53.239  12.783  1.00  0.00     0.149 C 
BRANCH  18  19
HETATM   19  C   UNL     1     -45.840 -51.977  12.734  1.00  0.00    -0.018 C 
HETATM   20  C   UNL     1     -46.515 -51.507  13.792  1.00  0.00     0.008 C 
ENDBRANCH  18  19
ENDBRANCH  16  18
ENDBRANCH  12  14
ENDBRANCH   1  12
TORSDOF 7
ENDMDL
