MODEL 1
REMARK VINA RESULT:      -6.8      0.000      0.000
REMARK  5 active torsions:
REMARK  status: ('A' for Active; 'I' for Inactive)
REMARK       I    between atoms: C_2  and  N_3 
REMARK       I    between atoms: C_2  and  N_18 
REMARK    1  A    between atoms: N_3  and  C_4 
REMARK    2  A    between atoms: C_4  and  C_5 
REMARK    3  A    between atoms: C_5  and  N_6 
REMARK       I    between atoms: N_9  and  C_12 
REMARK    4  A    between atoms: C_12  and  C_14 
REMARK    5  A    between atoms: N_18  and  C_19 
ROOT
HETATM    1  C   UNL     1     -41.078 -47.789  11.067  1.00  0.00     0.154 C 
ENDROOT
BRANCH   1   2
HETATM    2  N   UNL     1     -42.328 -47.389  10.468  1.00  0.00    -0.341 N 
HETATM    3  C   UNL     1     -42.510 -46.180   9.880  1.00  0.00     0.321 C 
HETATM    4  O   UNL     1     -41.730 -45.238  10.005  1.00  0.00    -0.247 OA
HETATM    5  N   UNL     1     -43.578 -46.053   9.047  1.00  0.00    -0.295 N 
HETATM    6  H   UNL     1     -43.579 -45.179   8.543  1.00  0.00     0.172 HD
HETATM    7  H   UNL     1     -43.078 -48.067  10.342  1.00  0.00     0.164 HD
BRANCH   5   8
HETATM    8  C   UNL     1     -44.498 -47.038   8.675  1.00  0.00     0.108 A 
HETATM    9  C   UNL     1     -45.680 -47.119   9.401  1.00  0.00     0.049 A 
HETATM   10  C   UNL     1     -46.651 -48.033   8.998  1.00  0.00     0.005 A 
HETATM   11  C   UNL     1     -46.396 -48.868   7.915  1.00  0.00     0.017 A 
HETATM   12  C   UNL     1     -45.180 -48.745   7.271  1.00  0.00     0.089 A 
HETATM   13  N   UNL     1     -44.239 -47.840   7.617  1.00  0.00    -0.352 N 
ATOM     14  HN  UNL     1     -43.363 -47.765   7.099  1.00  0.00     0.166 HD
ENDBRANCH   5   8
ENDBRANCH   1   2
BRANCH   1  15
HETATM   15  C   UNL     1     -40.914 -49.313  11.094  1.00  0.00     0.292 C 
BRANCH  15  16
HETATM   16  N   UNL     1     -40.615 -49.885  12.420  1.00  0.00     0.093 N 
HETATM   17  C   UNL     1     -40.801 -51.352  12.383  1.00  0.00     0.292 C 
HETATM   18  C   UNL     1     -42.271 -51.806  12.261  1.00  0.00     0.156 C 
HETATM   19  N   UNL     1     -43.104 -51.224  13.317  1.00  0.00    -0.348 N 
HETATM   20  C   UNL     1     -42.936 -49.777  13.508  1.00  0.00     0.156 C 
HETATM   21  C   UNL     1     -44.252 -51.825  13.832  1.00  0.00     0.224 C 
HETATM   22  C   UNL     1     -41.458 -49.340  13.509  1.00  0.00     0.292 C 
HETATM   23  O   UNL     1     -44.963 -51.223  14.656  1.00  0.00    -0.273 OA
BRANCH  21  24
HETATM   24  C   UNL     1     -44.619 -53.248  13.320  1.00  0.00     0.078 C 
HETATM   25  C   UNL     1     -45.995 -53.798  13.789  1.00  0.00     0.014 C 
HETATM   26  C   UNL     1     -45.349 -55.192  13.853  1.00  0.00     0.002 C 
HETATM   27  C   UNL     1     -43.994 -54.478  14.037  1.00  0.00     0.014 C 
ENDBRANCH  21  24
ENDBRANCH  15  16
ENDBRANCH   1  15
TORSDOF 5
ENDMDL
MODEL 2
REMARK VINA RESULT:      -6.7      2.057      6.714
REMARK  5 active torsions:
REMARK  status: ('A' for Active; 'I' for Inactive)
REMARK       I    between atoms: C_2  and  N_3 
REMARK       I    between atoms: C_2  and  N_18 
REMARK    1  A    between atoms: N_3  and  C_4 
REMARK    2  A    between atoms: C_4  and  C_5 
REMARK    3  A    between atoms: C_5  and  N_6 
REMARK       I    between atoms: N_9  and  C_12 
REMARK    4  A    between atoms: C_12  and  C_14 
REMARK    5  A    between atoms: N_18  and  C_19 
ROOT
HETATM    1  C   UNL     1     -40.378 -49.669  13.796  1.00  0.00     0.154 C 
ENDROOT
BRANCH   1   2
HETATM    2  N   UNL     1     -40.909 -50.881  13.221  1.00  0.00    -0.341 N 
HETATM    3  C   UNL     1     -40.123 -51.898  12.786  1.00  0.00     0.321 C 
HETATM    4  O   UNL     1     -38.909 -51.795  12.620  1.00  0.00    -0.247 OA
HETATM    5  N   UNL     1     -40.718 -53.108  12.608  1.00  0.00    -0.295 N 
HETATM    6  H   UNL     1     -40.057 -53.845  12.415  1.00  0.00     0.172 HD
HETATM    7  H   UNL     1     -41.909 -51.071  13.255  1.00  0.00     0.164 HD
BRANCH   5   8
HETATM    8  C   UNL     1     -42.048 -53.456  12.868  1.00  0.00     0.108 A 
HETATM    9  C   UNL     1     -42.304 -54.201  14.012  1.00  0.00     0.049 A 
HETATM   10  C   UNL     1     -43.627 -54.489  14.341  1.00  0.00     0.005 A 
HETATM   11  C   UNL     1     -44.648 -54.064  13.498  1.00  0.00     0.017 A 
HETATM   12  C   UNL     1     -44.302 -53.358  12.363  1.00  0.00     0.089 A 
HETATM   13  N   UNL     1     -43.031 -53.032  12.041  1.00  0.00    -0.352 N 
ATOM     14  HN  UNL     1     -42.821 -52.488  11.206  1.00  0.00     0.166 HD
ENDBRANCH   5   8
ENDBRANCH   1   2
BRANCH   1  15
HETATM   15  C   UNL     1     -40.221 -48.558  12.752  1.00  0.00     0.292 C 
BRANCH  15  16
HETATM   16  N   UNL     1     -40.990 -47.330  13.027  1.00  0.00     0.093 N 
HETATM   17  C   UNL     1     -42.432 -47.652  13.099  1.00  0.00     0.292 C 
HETATM   18  C   UNL     1     -43.070 -48.028  11.745  1.00  0.00     0.156 C 
HETATM   19  N   UNL     1     -42.840 -46.992  10.734  1.00  0.00    -0.348 N 
HETATM   20  C   UNL     1     -41.451 -46.526  10.635  1.00  0.00     0.156 C 
HETATM   21  C   UNL     1     -43.698 -46.734   9.666  1.00  0.00     0.224 C 
HETATM   22  C   UNL     1     -40.804 -46.269  12.010  1.00  0.00     0.292 C 
HETATM   23  O   UNL     1     -43.385 -45.906   8.792  1.00  0.00    -0.273 OA
BRANCH  21  24
HETATM   24  C   UNL     1     -45.032 -47.533   9.594  1.00  0.00     0.078 C 
HETATM   25  C   UNL     1     -45.305 -48.267   8.252  1.00  0.00     0.014 C 
HETATM   26  C   UNL     1     -46.795 -47.942   8.447  1.00  0.00     0.002 C 
HETATM   27  C   UNL     1     -46.349 -46.754   9.323  1.00  0.00     0.014 C 
ENDBRANCH  21  24
ENDBRANCH  15  16
ENDBRANCH   1  15
TORSDOF 5
ENDMDL
MODEL 3
REMARK VINA RESULT:      -6.6      1.856      2.463
REMARK  5 active torsions:
REMARK  status: ('A' for Active; 'I' for Inactive)
REMARK       I    between atoms: C_2  and  N_3 
REMARK       I    between atoms: C_2  and  N_18 
REMARK    1  A    between atoms: N_3  and  C_4 
REMARK    2  A    between atoms: C_4  and  C_5 
REMARK    3  A    between atoms: C_5  and  N_6 
REMARK       I    between atoms: N_9  and  C_12 
REMARK    4  A    between atoms: C_12  and  C_14 
REMARK    5  A    between atoms: N_18  and  C_19 
ROOT
HETATM    1  C   UNL     1     -40.063 -50.178  11.114  1.00  0.00     0.154 C 
ENDROOT
BRANCH   1   2
HETATM    2  N   UNL     1     -41.075 -49.184  10.852  1.00  0.00    -0.341 N 
HETATM    3  C   UNL     1     -40.819 -47.852  10.857  1.00  0.00     0.321 C 
HETATM    4  O   UNL     1     -39.787 -47.359  11.307  1.00  0.00    -0.247 OA
HETATM    5  N   UNL     1     -41.732 -47.045  10.253  1.00  0.00    -0.295 N 
HETATM    6  H   UNL     1     -41.419 -46.089  10.174  1.00  0.00     0.172 HD
HETATM    7  H   UNL     1     -41.994 -49.463  10.512  1.00  0.00     0.164 HD
BRANCH   5   8
HETATM    8  C   UNL     1     -42.895 -47.423   9.573  1.00  0.00     0.108 A 
HETATM    9  C   UNL     1     -44.097 -47.338  10.264  1.00  0.00     0.049 A 
HETATM   10  C   UNL     1     -45.280 -47.626   9.585  1.00  0.00     0.005 A 
HETATM   11  C   UNL     1     -45.224 -48.032   8.257  1.00  0.00     0.017 A 
HETATM   12  C   UNL     1     -43.982 -48.123   7.656  1.00  0.00     0.089 A 
HETATM   13  N   UNL     1     -42.825 -47.812   8.280  1.00  0.00    -0.352 N 
ATOM     14  HN  UNL     1     -41.931 -47.869   7.793  1.00  0.00     0.166 HD
ENDBRANCH   5   8
ENDBRANCH   1   2
BRANCH   1  15
HETATM   15  C   UNL     1     -40.201 -50.785  12.514  1.00  0.00     0.292 C 
BRANCH  15  16
HETATM   16  N   UNL     1     -40.516 -52.226  12.542  1.00  0.00     0.093 N 
HETATM   17  C   UNL     1     -41.909 -52.440  12.095  1.00  0.00     0.292 C 
HETATM   18  C   UNL     1     -42.981 -51.950  13.090  1.00  0.00     0.156 C 
HETATM   19  N   UNL     1     -42.790 -52.534  14.420  1.00  0.00    -0.348 N 
HETATM   20  C   UNL     1     -41.415 -52.460  14.933  1.00  0.00     0.156 C 
HETATM   21  C   UNL     1     -43.819 -52.766  15.331  1.00  0.00     0.224 C 
HETATM   22  C   UNL     1     -40.359 -52.846  13.879  1.00  0.00     0.292 C 
HETATM   23  O   UNL     1     -43.565 -53.171  16.479  1.00  0.00    -0.273 OA
BRANCH  21  24
HETATM   24  C   UNL     1     -45.277 -52.474  14.871  1.00  0.00     0.078 C 
HETATM   25  C   UNL     1     -45.858 -51.101  15.307  1.00  0.00     0.014 C 
HETATM   26  C   UNL     1     -47.222 -51.795  15.463  1.00  0.00     0.002 C 
HETATM   27  C   UNL     1     -46.448 -53.113  15.669  1.00  0.00     0.014 C 
ENDBRANCH  21  24
ENDBRANCH  15  16
ENDBRANCH   1  15
TORSDOF 5
ENDMDL
MODEL 4
REMARK VINA RESULT:      -6.5      3.640      4.906
REMARK  5 active torsions:
REMARK  status: ('A' for Active; 'I' for Inactive)
REMARK       I    between atoms: C_2  and  N_3 
REMARK       I    between atoms: C_2  and  N_18 
REMARK    1  A    between atoms: N_3  and  C_4 
REMARK    2  A    between atoms: C_4  and  C_5 
REMARK    3  A    between atoms: C_5  and  N_6 
REMARK       I    between atoms: N_9  and  C_12 
REMARK    4  A    between atoms: C_12  and  C_14 
REMARK    5  A    between atoms: N_18  and  C_19 
ROOT
HETATM    1  C   UNL     1     -37.946 -51.066  14.373  1.00  0.00     0.154 C 
ENDROOT
BRANCH   1   2
HETATM    2  N   UNL     1     -38.435 -50.232  13.302  1.00  0.00    -0.341 N 
HETATM    3  C   UNL     1     -38.123 -50.445  11.999  1.00  0.00     0.321 C 
HETATM    4  O   UNL     1     -37.226 -51.201  11.630  1.00  0.00    -0.247 OA
HETATM    5  N   UNL     1     -38.910 -49.843  11.068  1.00  0.00    -0.295 N 
HETATM    6  H   UNL     1     -38.708 -50.148  10.128  1.00  0.00     0.172 HD
HETATM    7  H   UNL     1     -39.154 -49.533  13.482  1.00  0.00     0.164 HD
BRANCH   5   8
HETATM    8  C   UNL     1     -40.048 -49.059  11.284  1.00  0.00     0.108 A 
HETATM    9  C   UNL     1     -41.221 -49.715  11.637  1.00  0.00     0.049 A 
HETATM   10  C   UNL     1     -42.347 -48.954  11.942  1.00  0.00     0.005 A 
HETATM   11  C   UNL     1     -42.283 -47.569  11.842  1.00  0.00     0.017 A 
HETATM   12  C   UNL     1     -41.087 -47.000  11.451  1.00  0.00     0.089 A 
HETATM   13  N   UNL     1     -39.970 -47.712  11.188  1.00  0.00    -0.352 N 
ATOM     14  HN  UNL     1     -39.099 -47.251  10.925  1.00  0.00     0.166 HD
ENDBRANCH   5   8
ENDBRANCH   1   2
BRANCH   1  15
HETATM   15  C   UNL     1     -39.001 -52.072  14.847  1.00  0.00     0.292 C 
BRANCH  15  16
HETATM   16  N   UNL     1     -39.212 -53.224  13.950  1.00  0.00     0.093 N 
HETATM   17  C   UNL     1     -40.441 -53.016  13.154  1.00  0.00     0.292 C 
HETATM   18  C   UNL     1     -41.750 -53.111  13.965  1.00  0.00     0.156 C 
HETATM   19  N   UNL     1     -41.840 -54.376  14.699  1.00  0.00    -0.348 N 
HETATM   20  C   UNL     1     -40.635 -54.733  15.460  1.00  0.00     0.156 C 
HETATM   21  C   UNL     1     -43.038 -55.008  15.031  1.00  0.00     0.224 C 
HETATM   22  C   UNL     1     -39.335 -54.518  14.661  1.00  0.00     0.292 C 
HETATM   23  O   UNL     1     -43.036 -56.027  15.744  1.00  0.00    -0.273 OA
BRANCH  21  24
HETATM   24  C   UNL     1     -44.361 -54.379  14.507  1.00  0.00     0.078 C 
HETATM   25  C   UNL     1     -45.425 -54.049  15.590  1.00  0.00     0.014 C 
HETATM   26  C   UNL     1     -46.502 -54.446  14.566  1.00  0.00     0.002 C 
HETATM   27  C   UNL     1     -45.431 -55.317  13.881  1.00  0.00     0.014 C 
ENDBRANCH  21  24
ENDBRANCH  15  16
ENDBRANCH   1  15
TORSDOF 5
ENDMDL
MODEL 5
REMARK VINA RESULT:      -6.4      3.550      5.102
REMARK  5 active torsions:
REMARK  status: ('A' for Active; 'I' for Inactive)
REMARK       I    between atoms: C_2  and  N_3 
REMARK       I    between atoms: C_2  and  N_18 
REMARK    1  A    between atoms: N_3  and  C_4 
REMARK    2  A    between atoms: C_4  and  C_5 
REMARK    3  A    between atoms: C_5  and  N_6 
REMARK       I    between atoms: N_9  and  C_12 
REMARK    4  A    between atoms: C_12  and  C_14 
REMARK    5  A    between atoms: N_18  and  C_19 
ROOT
HETATM    1  C   UNL     1     -38.541 -52.188  14.129  1.00  0.00     0.154 C 
ENDROOT
BRANCH   1   2
HETATM    2  N   UNL     1     -38.628 -51.029  13.275  1.00  0.00    -0.341 N 
HETATM    3  C   UNL     1     -37.873 -50.877  12.158  1.00  0.00     0.321 C 
HETATM    4  O   UNL     1     -36.896 -51.576  11.897  1.00  0.00    -0.247 OA
HETATM    5  N   UNL     1     -38.286 -49.948  11.255  1.00  0.00    -0.295 N 
HETATM    6  H   UNL     1     -37.762 -49.979  10.394  1.00  0.00     0.172 HD
HETATM    7  H   UNL     1     -39.371 -50.345  13.411  1.00  0.00     0.164 HD
BRANCH   5   8
HETATM    8  C   UNL     1     -39.435 -49.151  11.307  1.00  0.00     0.108 A 
HETATM    9  C   UNL     1     -39.357 -47.959  12.015  1.00  0.00     0.049 A 
HETATM   10  C   UNL     1     -40.459 -47.106  12.012  1.00  0.00     0.005 A 
HETATM   11  C   UNL     1     -41.616 -47.488  11.343  1.00  0.00     0.017 A 
HETATM   12  C   UNL     1     -41.619 -48.707  10.693  1.00  0.00     0.089 A 
HETATM   13  N   UNL     1     -40.553 -49.534  10.648  1.00  0.00    -0.352 N 
ATOM     14  HN  UNL     1     -40.589 -50.415  10.136  1.00  0.00     0.166 HD
ENDBRANCH   5   8
ENDBRANCH   1   2
BRANCH   1  15
HETATM   15  C   UNL     1     -39.924 -52.713  14.530  1.00  0.00     0.292 C 
BRANCH  15  16
HETATM   16  N   UNL     1     -40.889 -52.840  13.421  1.00  0.00     0.093 N 
HETATM   17  C   UNL     1     -41.881 -51.745  13.497  1.00  0.00     0.292 C 
HETATM   18  C   UNL     1     -42.867 -51.859  14.678  1.00  0.00     0.156 C 
HETATM   19  N   UNL     1     -43.553 -53.154  14.685  1.00  0.00    -0.348 N 
HETATM   20  C   UNL     1     -42.672 -54.318  14.524  1.00  0.00     0.156 C 
HETATM   21  C   UNL     1     -44.830 -53.363  15.204  1.00  0.00     0.224 C 
HETATM   22  C   UNL     1     -41.622 -54.127  13.412  1.00  0.00     0.292 C 
HETATM   23  O   UNL     1     -45.305 -54.511  15.266  1.00  0.00    -0.273 OA
BRANCH  21  24
HETATM   24  C   UNL     1     -45.616 -52.124  15.724  1.00  0.00     0.078 C 
HETATM   25  C   UNL     1     -46.636 -52.404  16.862  1.00  0.00     0.014 C 
HETATM   26  C   UNL     1     -47.540 -51.330  16.233  1.00  0.00     0.002 C 
HETATM   27  C   UNL     1     -46.828 -51.614  14.895  1.00  0.00     0.014 C 
ENDBRANCH  21  24
ENDBRANCH  15  16
ENDBRANCH   1  15
TORSDOF 5
ENDMDL
MODEL 6
REMARK VINA RESULT:      -6.3      3.618      4.562
REMARK  5 active torsions:
REMARK  status: ('A' for Active; 'I' for Inactive)
REMARK       I    between atoms: C_2  and  N_3 
REMARK       I    between atoms: C_2  and  N_18 
REMARK    1  A    between atoms: N_3  and  C_4 
REMARK    2  A    between atoms: C_4  and  C_5 
REMARK    3  A    between atoms: C_5  and  N_6 
REMARK       I    between atoms: N_9  and  C_12 
REMARK    4  A    between atoms: C_12  and  C_14 
REMARK    5  A    between atoms: N_18  and  C_19 
ROOT
HETATM    1  C   UNL     1     -41.089 -51.164  11.878  1.00  0.00     0.154 C 
ENDROOT
BRANCH   1   2
HETATM    2  N   UNL     1     -41.611 -49.909  11.395  1.00  0.00    -0.341 N 
HETATM    3  C   UNL     1     -40.831 -48.822  11.173  1.00  0.00     0.321 C 
HETATM    4  O   UNL     1     -39.674 -48.721  11.576  1.00  0.00    -0.247 OA
HETATM    5  N   UNL     1     -41.351 -47.837  10.391  1.00  0.00    -0.295 N 
HETATM    6  H   UNL     1     -40.676 -47.125  10.158  1.00  0.00     0.172 HD
HETATM    7  H   UNL     1     -42.574 -49.845  11.067  1.00  0.00     0.164 HD
BRANCH   5   8
HETATM    8  C   UNL     1     -42.587 -47.824   9.736  1.00  0.00     0.108 A 
HETATM    9  C   UNL     1     -43.710 -47.515  10.493  1.00  0.00     0.049 A 
HETATM   10  C   UNL     1     -44.941 -47.411   9.849  1.00  0.00     0.005 A 
HETATM   11  C   UNL     1     -45.022 -47.661   8.484  1.00  0.00     0.017 A 
HETATM   12  C   UNL     1     -43.861 -47.997   7.815  1.00  0.00     0.089 A 
HETATM   13  N   UNL     1     -42.650 -48.066   8.407  1.00  0.00    -0.352 N 
ATOM     14  HN  UNL     1     -41.812 -48.294   7.871  1.00  0.00     0.166 HD
ENDBRANCH   5   8
ENDBRANCH   1   2
BRANCH   1  15
HETATM   15  C   UNL     1     -41.901 -51.710  13.058  1.00  0.00     0.292 C 
BRANCH  15  16
HETATM   16  N   UNL     1     -42.239 -53.143  12.973  1.00  0.00     0.093 N 
HETATM   17  C   UNL     1     -42.753 -53.611  14.279  1.00  0.00     0.292 C 
HETATM   18  C   UNL     1     -41.689 -53.688  15.394  1.00  0.00     0.156 C 
HETATM   19  N   UNL     1     -40.542 -54.506  14.988  1.00  0.00    -0.348 N 
HETATM   20  C   UNL     1     -39.999 -54.190  13.660  1.00  0.00     0.156 C 
HETATM   21  C   UNL     1     -39.738 -55.224  15.872  1.00  0.00     0.224 C 
HETATM   22  C   UNL     1     -41.095 -54.004  12.592  1.00  0.00     0.292 C 
HETATM   23  O   UNL     1     -38.722 -55.813  15.464  1.00  0.00    -0.273 OA
BRANCH  21  24
HETATM   24  C   UNL     1     -40.141 -55.235  17.376  1.00  0.00     0.078 C 
HETATM   25  C   UNL     1     -39.054 -55.749  18.360  1.00  0.00     0.014 C 
HETATM   26  C   UNL     1     -40.187 -56.373  19.191  1.00  0.00     0.002 C 
HETATM   27  C   UNL     1     -41.025 -56.402  17.898  1.00  0.00     0.014 C 
ENDBRANCH  21  24
ENDBRANCH  15  16
ENDBRANCH   1  15
TORSDOF 5
ENDMDL
MODEL 7
REMARK VINA RESULT:      -6.3      3.369      7.607
REMARK  5 active torsions:
REMARK  status: ('A' for Active; 'I' for Inactive)
REMARK       I    between atoms: C_2  and  N_3 
REMARK       I    between atoms: C_2  and  N_18 
REMARK    1  A    between atoms: N_3  and  C_4 
REMARK    2  A    between atoms: C_4  and  C_5 
REMARK    3  A    between atoms: C_5  and  N_6 
REMARK       I    between atoms: N_9  and  C_12 
REMARK    4  A    between atoms: C_12  and  C_14 
REMARK    5  A    between atoms: N_18  and  C_19 
ROOT
HETATM    1  C   UNL     1     -40.855 -50.388  11.644  1.00  0.00     0.154 C 
ENDROOT
BRANCH   1   2
HETATM    2  N   UNL     1     -41.971 -51.277  11.860  1.00  0.00    -0.341 N 
HETATM    3  C   UNL     1     -41.819 -52.592  12.157  1.00  0.00     0.321 C 
HETATM    4  O   UNL     1     -40.756 -53.198  12.039  1.00  0.00    -0.247 OA
HETATM    5  N   UNL     1     -42.895 -53.233  12.688  1.00  0.00    -0.295 N 
HETATM    6  H   UNL     1     -42.677 -54.165  13.007  1.00  0.00     0.172 HD
HETATM    7  H   UNL     1     -42.916 -50.906  11.936  1.00  0.00     0.164 HD
BRANCH   5   8
HETATM    8  C   UNL     1     -44.141 -52.690  13.018  1.00  0.00     0.108 A 
HETATM    9  C   UNL     1     -44.285 -52.139  14.285  1.00  0.00     0.049 A 
HETATM   10  C   UNL     1     -45.487 -51.514  14.609  1.00  0.00     0.005 A 
HETATM   11  C   UNL     1     -46.522 -51.499  13.681  1.00  0.00     0.017 A 
HETATM   12  C   UNL     1     -46.306 -52.102  12.457  1.00  0.00     0.089 A 
HETATM   13  N   UNL     1     -45.137 -52.679  12.103  1.00  0.00    -0.352 N 
ATOM     14  HN  UNL     1     -45.011 -53.092  11.179  1.00  0.00     0.166 HD
ENDBRANCH   5   8
ENDBRANCH   1   2
BRANCH   1  15
HETATM   15  C   UNL     1     -41.284 -48.917  11.640  1.00  0.00     0.292 C 
BRANCH  15  16
HETATM   16  N   UNL     1     -40.457 -48.024  12.474  1.00  0.00     0.093 N 
HETATM   17  C   UNL     1     -41.332 -47.170  13.307  1.00  0.00     0.292 C 
HETATM   18  C   UNL     1     -42.112 -46.096  12.519  1.00  0.00     0.156 C 
HETATM   19  N   UNL     1     -41.216 -45.259  11.716  1.00  0.00    -0.348 N 
HETATM   20  C   UNL     1     -40.236 -46.001  10.912  1.00  0.00     0.156 C 
HETATM   21  C   UNL     1     -41.477 -43.933  11.375  1.00  0.00     0.224 C 
HETATM   22  C   UNL     1     -39.558 -47.142  11.694  1.00  0.00     0.292 C 
HETATM   23  O   UNL     1     -40.717 -43.319  10.605  1.00  0.00    -0.273 OA
BRANCH  21  24
HETATM   24  C   UNL     1     -42.757 -43.269  11.962  1.00  0.00     0.078 C 
HETATM   25  C   UNL     1     -43.452 -42.222  11.048  1.00  0.00     0.014 C 
HETATM   26  C   UNL     1     -43.796 -41.429  12.320  1.00  0.00     0.002 C 
HETATM   27  C   UNL     1     -42.588 -42.115  12.989  1.00  0.00     0.014 C 
ENDBRANCH  21  24
ENDBRANCH  15  16
ENDBRANCH   1  15
TORSDOF 5
ENDMDL
MODEL 8
REMARK VINA RESULT:      -6.2      2.987      7.475
REMARK  5 active torsions:
REMARK  status: ('A' for Active; 'I' for Inactive)
REMARK       I    between atoms: C_2  and  N_3 
REMARK       I    between atoms: C_2  and  N_18 
REMARK    1  A    between atoms: N_3  and  C_4 
REMARK    2  A    between atoms: C_4  and  C_5 
REMARK    3  A    between atoms: C_5  and  N_6 
REMARK       I    between atoms: N_9  and  C_12 
REMARK    4  A    between atoms: C_12  and  C_14 
REMARK    5  A    between atoms: N_18  and  C_19 
ROOT
HETATM    1  C   UNL     1     -41.043 -50.928  13.917  1.00  0.00     0.154 C 
ENDROOT
BRANCH   1   2
HETATM    2  N   UNL     1     -42.202 -51.504  13.279  1.00  0.00    -0.341 N 
HETATM    3  C   UNL     1     -42.120 -52.305  12.187  1.00  0.00     0.321 C 
HETATM    4  O   UNL     1     -41.104 -52.425  11.505  1.00  0.00    -0.247 OA
HETATM    5  N   UNL     1     -43.208 -53.069  11.898  1.00  0.00    -0.295 N 
HETATM    6  H   UNL     1     -43.034 -53.734  11.160  1.00  0.00     0.172 HD
HETATM    7  H   UNL     1     -43.118 -51.440  13.720  1.00  0.00     0.164 HD
BRANCH   5   8
HETATM    8  C   UNL     1     -44.401 -53.172  12.621  1.00  0.00     0.108 A 
HETATM    9  C   UNL     1     -44.551 -54.273  13.456  1.00  0.00     0.049 A 
HETATM   10  C   UNL     1     -45.691 -54.357  14.253  1.00  0.00     0.005 A 
HETATM   11  C   UNL     1     -46.664 -53.368  14.160  1.00  0.00     0.017 A 
HETATM   12  C   UNL     1     -46.450 -52.326  13.279  1.00  0.00     0.089 A 
HETATM   13  N   UNL     1     -45.337 -52.201  12.524  1.00  0.00    -0.352 N 
ATOM     14  HN  UNL     1     -45.207 -51.402  11.903  1.00  0.00     0.166 HD
ENDBRANCH   5   8
ENDBRANCH   1   2
BRANCH   1  15
HETATM   15  C   UNL     1     -41.007 -49.403  13.775  1.00  0.00     0.292 C 
BRANCH  15  16
HETATM   16  N   UNL     1     -40.006 -48.889  12.821  1.00  0.00     0.093 N 
HETATM   17  C   UNL     1     -39.646 -47.499  13.178  1.00  0.00     0.292 C 
HETATM   18  C   UNL     1     -40.762 -46.465  12.923  1.00  0.00     0.156 C 
HETATM   19  N   UNL     1     -41.238 -46.517  11.537  1.00  0.00    -0.348 N 
HETATM   20  C   UNL     1     -41.543 -47.865  11.041  1.00  0.00     0.156 C 
HETATM   21  C   UNL     1     -41.770 -45.427  10.849  1.00  0.00     0.224 C 
HETATM   22  C   UNL     1     -40.463 -48.900  11.412  1.00  0.00     0.292 C 
HETATM   23  O   UNL     1     -42.247 -45.573   9.710  1.00  0.00    -0.273 OA
BRANCH  21  24
HETATM   24  C   UNL     1     -41.772 -44.045  11.566  1.00  0.00     0.078 C 
HETATM   25  C   UNL     1     -42.804 -43.013  11.033  1.00  0.00     0.014 C 
HETATM   26  C   UNL     1     -41.762 -41.917  11.315  1.00  0.00     0.002 C 
HETATM   27  C   UNL     1     -40.681 -43.008  11.179  1.00  0.00     0.014 C 
ENDBRANCH  21  24
ENDBRANCH  15  16
ENDBRANCH   1  15
TORSDOF 5
ENDMDL
MODEL 9
REMARK VINA RESULT:      -6.2      3.566      7.359
REMARK  5 active torsions:
REMARK  status: ('A' for Active; 'I' for Inactive)
REMARK       I    between atoms: C_2  and  N_3 
REMARK       I    between atoms: C_2  and  N_18 
REMARK    1  A    between atoms: N_3  and  C_4 
REMARK    2  A    between atoms: C_4  and  C_5 
REMARK    3  A    between atoms: C_5  and  N_6 
REMARK       I    between atoms: N_9  and  C_12 
REMARK    4  A    between atoms: C_12  and  C_14 
REMARK    5  A    between atoms: N_18  and  C_19 
ROOT
HETATM    1  C   UNL     1     -41.377 -53.598  15.037  1.00  0.00     0.154 C 
ENDROOT
BRANCH   1   2
HETATM    2  N   UNL     1     -42.726 -53.780  14.558  1.00  0.00    -0.341 N 
HETATM    3  C   UNL     1     -43.503 -54.830  14.924  1.00  0.00     0.321 C 
HETATM    4  O   UNL     1     -43.070 -55.830  15.493  1.00  0.00    -0.247 OA
HETATM    5  N   UNL     1     -44.842 -54.711  14.713  1.00  0.00    -0.295 N 
HETATM    6  H   UNL     1     -45.371 -55.464  15.127  1.00  0.00     0.172 HD
HETATM    7  H   UNL     1     -43.190 -53.039  14.035  1.00  0.00     0.164 HD
BRANCH   5   8
HETATM    8  C   UNL     1     -45.536 -53.609  14.205  1.00  0.00     0.108 A 
HETATM    9  C   UNL     1     -46.062 -52.705  15.120  1.00  0.00     0.049 A 
HETATM   10  C   UNL     1     -46.683 -51.554  14.640  1.00  0.00     0.005 A 
HETATM   11  C   UNL     1     -46.801 -51.361  13.268  1.00  0.00     0.017 A 
HETATM   12  C   UNL     1     -46.280 -52.327  12.429  1.00  0.00     0.089 A 
HETATM   13  N   UNL     1     -45.639 -53.432  12.868  1.00  0.00    -0.352 N 
ATOM     14  HN  UNL     1     -45.247 -54.110  12.214  1.00  0.00     0.166 HD
ENDBRANCH   5   8
ENDBRANCH   1   2
BRANCH   1  15
HETATM   15  C   UNL     1     -40.778 -52.264  14.576  1.00  0.00     0.292 C 
BRANCH  15  16
HETATM   16  N   UNL     1     -40.073 -52.311  13.281  1.00  0.00     0.093 N 
HETATM   17  C   UNL     1     -39.046 -51.248  13.235  1.00  0.00     0.292 C 
HETATM   18  C   UNL     1     -39.613 -49.816  13.139  1.00  0.00     0.156 C 
HETATM   19  N   UNL     1     -40.529 -49.674  12.004  1.00  0.00    -0.348 N 
HETATM   20  C   UNL     1     -41.544 -50.730  11.895  1.00  0.00     0.156 C 
HETATM   21  C   UNL     1     -40.746 -48.481  11.315  1.00  0.00     0.224 C 
HETATM   22  C   UNL     1     -40.965 -52.142  12.110  1.00  0.00     0.292 C 
HETATM   23  O   UNL     1     -41.615 -48.415  10.427  1.00  0.00    -0.273 OA
BRANCH  21  24
HETATM   24  C   UNL     1     -39.891 -47.244  11.716  1.00  0.00     0.078 C 
HETATM   25  C   UNL     1     -40.533 -46.294  12.766  1.00  0.00     0.014 C 
HETATM   26  C   UNL     1     -39.874 -45.122  12.018  1.00  0.00     0.002 C 
HETATM   27  C   UNL     1     -39.871 -46.017  10.763  1.00  0.00     0.014 C 
ENDBRANCH  21  24
ENDBRANCH  15  16
ENDBRANCH   1  15
TORSDOF 5
ENDMDL
