MODEL 1
REMARK VINA RESULT:      -5.2      0.000      0.000
REMARK  5 active torsions:
REMARK  status: ('A' for Active; 'I' for Inactive)
REMARK    1  A    between atoms: S_2  and  N_4 
REMARK    2  A    between atoms: S_2  and  N_14 
REMARK    3  A    between atoms: N_4  and  C_5 
REMARK    4  A    between atoms: C_5  and  C_6 
REMARK    5  A    between atoms: C_6  and  C_7 
ROOT
HETATM    1  N   UNL     1     -43.773 -55.400  14.794  1.00  0.00    -0.206 NA
HETATM    2  H   UNL     1     -43.373 -56.040  14.106  1.00  0.00     0.140 HD
ENDROOT
BRANCH   1   3
HETATM    3  S   UNL     1     -45.004 -54.547  14.019  1.00  0.00     0.281 S 
HETATM    4  O   UNL     1     -44.683 -54.449  12.616  1.00  0.00    -0.194 OA
HETATM    5  O   UNL     1     -46.241 -55.126  14.479  1.00  0.00    -0.194 OA
BRANCH   3   6
HETATM    6  N   UNL     1     -44.819 -53.021  14.706  1.00  0.00    -0.194 NA
HETATM    7  C   UNL     1     -45.696 -52.660  15.861  1.00  0.00     0.134 C 
HETATM    8  C   UNL     1     -47.101 -52.229  15.404  1.00  0.00     0.183 C 
HETATM    9  O   UNL     1     -47.049 -51.184  14.421  1.00  0.00    -0.389 OA
HETATM   10  C   UNL     1     -46.270 -51.583  13.282  1.00  0.00     0.183 C 
HETATM   11  C   UNL     1     -44.835 -51.900  13.709  1.00  0.00     0.134 C 
ENDBRANCH   3   6
ENDBRANCH   1   3
BRANCH   1  12
HETATM   12  C   UNL     1     -42.731 -54.493  15.354  1.00  0.00     0.111 C 
BRANCH  12  13
HETATM   13  C   UNL     1     -41.364 -54.762  14.742  1.00  0.00     0.072 C 
BRANCH  13  14
HETATM   14  C   UNL     1     -41.022 -53.635  13.799  1.00  0.00     0.010 A 
HETATM   15  C   UNL     1     -40.050 -52.696  14.139  1.00  0.00     0.025 A 
HETATM   16  C   UNL     1     -39.845 -51.606  13.297  1.00  0.00     0.003 A 
HETATM   17  C   UNL     1     -40.610 -51.482  12.144  1.00  0.00     0.017 A 
HETATM   18  C   UNL     1     -41.551 -52.460  11.878  1.00  0.00     0.088 A 
HETATM   19  N   UNL     1     -41.774 -53.530  12.677  1.00  0.00    -0.369 N 
ATOM     20  HN  UNL     1     -42.480 -54.228  12.444  1.00  0.00     0.165 HD
ENDBRANCH  13  14
ENDBRANCH  12  13
ENDBRANCH   1  12
TORSDOF 5
ENDMDL
MODEL 2
REMARK VINA RESULT:      -5.0      2.026      5.473
REMARK  5 active torsions:
REMARK  status: ('A' for Active; 'I' for Inactive)
REMARK    1  A    between atoms: S_2  and  N_4 
REMARK    2  A    between atoms: S_2  and  N_14 
REMARK    3  A    between atoms: N_4  and  C_5 
REMARK    4  A    between atoms: C_5  and  C_6 
REMARK    5  A    between atoms: C_6  and  C_7 
ROOT
HETATM    1  N   UNL     1     -45.649 -53.888  15.193  1.00  0.00    -0.206 NA
HETATM    2  H   UNL     1     -45.289 -53.150  15.799  1.00  0.00     0.140 HD
ENDROOT
BRANCH   1   3
HETATM    3  S   UNL     1     -44.355 -54.434  14.258  1.00  0.00     0.281 S 
HETATM    4  O   UNL     1     -43.809 -55.618  14.876  1.00  0.00    -0.194 OA
HETATM    5  O   UNL     1     -44.821 -54.433  12.894  1.00  0.00    -0.194 OA
BRANCH   3   6
HETATM    6  N   UNL     1     -43.253 -53.179  14.468  1.00  0.00    -0.194 NA
HETATM    7  C   UNL     1     -43.188 -52.120  13.416  1.00  0.00     0.134 C 
HETATM    8  C   UNL     1     -42.366 -52.570  12.196  1.00  0.00     0.183 C 
HETATM    9  O   UNL     1     -41.061 -53.038  12.569  1.00  0.00    -0.389 OA
HETATM   10  C   UNL     1     -41.150 -54.112  13.518  1.00  0.00     0.183 C 
HETATM   11  C   UNL     1     -41.862 -53.639  14.788  1.00  0.00     0.134 C 
ENDBRANCH   3   6
ENDBRANCH   1   3
BRANCH   1  12
HETATM   12  C   UNL     1     -46.775 -53.393  14.351  1.00  0.00     0.111 C 
BRANCH  12  13
HETATM   13  C   UNL     1     -46.795 -51.873  14.278  1.00  0.00     0.072 C 
BRANCH  13  14
HETATM   14  C   UNL     1     -46.574 -51.315  15.662  1.00  0.00     0.010 A 
HETATM   15  C   UNL     1     -47.640 -51.169  16.548  1.00  0.00     0.025 A 
HETATM   16  C   UNL     1     -47.416 -50.544  17.771  1.00  0.00     0.003 A 
HETATM   17  C   UNL     1     -46.142 -50.083  18.079  1.00  0.00     0.017 A 
HETATM   18  C   UNL     1     -45.138 -50.273  17.146  1.00  0.00     0.088 A 
HETATM   19  N   UNL     1     -45.324 -50.875  15.948  1.00  0.00    -0.369 N 
ATOM     20  HN  UNL     1     -44.556 -50.993  15.288  1.00  0.00     0.165 HD
ENDBRANCH  13  14
ENDBRANCH  12  13
ENDBRANCH   1  12
TORSDOF 5
ENDMDL
MODEL 3
REMARK VINA RESULT:      -4.9      3.809      5.719
REMARK  5 active torsions:
REMARK  status: ('A' for Active; 'I' for Inactive)
REMARK    1  A    between atoms: S_2  and  N_4 
REMARK    2  A    between atoms: S_2  and  N_14 
REMARK    3  A    between atoms: N_4  and  C_5 
REMARK    4  A    between atoms: C_5  and  C_6 
REMARK    5  A    between atoms: C_6  and  C_7 
ROOT
HETATM    1  N   UNL     1     -40.071 -51.939  12.318  1.00  0.00    -0.206 NA
HETATM    2  H   UNL     1     -39.145 -51.655  11.996  1.00  0.00     0.140 HD
ENDROOT
BRANCH   1   3
HETATM    3  S   UNL     1     -40.938 -50.529  12.638  1.00  0.00     0.281 S 
HETATM    4  O   UNL     1     -42.326 -50.759  12.317  1.00  0.00    -0.194 OA
HETATM    5  O   UNL     1     -40.522 -50.093  13.946  1.00  0.00    -0.194 OA
BRANCH   3   6
HETATM    6  N   UNL     1     -40.300 -49.488  11.479  1.00  0.00    -0.194 NA
HETATM    7  C   UNL     1     -39.107 -48.668  11.854  1.00  0.00     0.134 C 
HETATM    8  C   UNL     1     -39.497 -47.430  12.679  1.00  0.00     0.183 C 
HETATM    9  O   UNL     1     -40.505 -46.643  12.026  1.00  0.00    -0.389 OA
HETATM   10  C   UNL     1     -41.675 -47.430  11.751  1.00  0.00     0.183 C 
HETATM   11  C   UNL     1     -41.320 -48.601  10.830  1.00  0.00     0.134 C 
ENDBRANCH   3   6
ENDBRANCH   1   3
BRANCH   1  12
HETATM   12  C   UNL     1     -39.978 -52.821  13.516  1.00  0.00     0.111 C 
BRANCH  12  13
HETATM   13  C   UNL     1     -40.526 -54.212  13.233  1.00  0.00     0.072 C 
BRANCH  13  14
HETATM   14  C   UNL     1     -42.019 -54.201  13.451  1.00  0.00     0.010 A 
HETATM   15  C   UNL     1     -42.572 -54.749  14.606  1.00  0.00     0.025 A 
HETATM   16  C   UNL     1     -43.958 -54.824  14.718  1.00  0.00     0.003 A 
HETATM   17  C   UNL     1     -44.751 -54.355  13.679  1.00  0.00     0.017 A 
HETATM   18  C   UNL     1     -44.123 -53.821  12.569  1.00  0.00     0.088 A 
HETATM   19  N   UNL     1     -42.779 -53.735  12.431  1.00  0.00    -0.369 N 
ATOM     20  HN  UNL     1     -42.356 -53.335  11.593  1.00  0.00     0.165 HD
ENDBRANCH  13  14
ENDBRANCH  12  13
ENDBRANCH   1  12
TORSDOF 5
ENDMDL
MODEL 4
REMARK VINA RESULT:      -4.9      3.528      5.894
REMARK  5 active torsions:
REMARK  status: ('A' for Active; 'I' for Inactive)
REMARK    1  A    between atoms: S_2  and  N_4 
REMARK    2  A    between atoms: S_2  and  N_14 
REMARK    3  A    between atoms: N_4  and  C_5 
REMARK    4  A    between atoms: C_5  and  C_6 
REMARK    5  A    between atoms: C_6  and  C_7 
ROOT
HETATM    1  N   UNL     1     -42.231 -52.212  11.832  1.00  0.00    -0.206 NA
HETATM    2  H   UNL     1     -41.508 -52.376  11.130  1.00  0.00     0.140 HD
ENDROOT
BRANCH   1   3
HETATM    3  S   UNL     1     -41.907 -50.713  12.534  1.00  0.00     0.281 S 
HETATM    4  O   UNL     1     -43.143 -49.976  12.635  1.00  0.00    -0.194 OA
HETATM    5  O   UNL     1     -41.085 -50.982  13.686  1.00  0.00    -0.194 OA
BRANCH   3   6
HETATM    6  N   UNL     1     -40.965 -49.994  11.338  1.00  0.00    -0.194 NA
HETATM    7  C   UNL     1     -39.488 -49.931  11.552  1.00  0.00     0.134 C 
HETATM    8  C   UNL     1     -39.090 -48.777  12.489  1.00  0.00     0.183 C 
HETATM    9  O   UNL     1     -39.623 -47.519  12.048  1.00  0.00    -0.389 OA
HETATM   10  C   UNL     1     -41.053 -47.577  11.930  1.00  0.00     0.183 C 
HETATM   11  C   UNL     1     -41.456 -48.643  10.908  1.00  0.00     0.134 C 
ENDBRANCH   3   6
ENDBRANCH   1   3
BRANCH   1  12
HETATM   12  C   UNL     1     -42.258 -53.307  12.843  1.00  0.00     0.111 C 
BRANCH  12  13
HETATM   13  C   UNL     1     -43.606 -54.013  12.870  1.00  0.00     0.072 C 
BRANCH  13  14
HETATM   14  C   UNL     1     -44.662 -53.028  13.307  1.00  0.00     0.010 A 
HETATM   15  C   UNL     1     -44.980 -52.878  14.655  1.00  0.00     0.025 A 
HETATM   16  C   UNL     1     -46.039 -52.047  15.008  1.00  0.00     0.003 A 
HETATM   17  C   UNL     1     -46.750 -51.390  14.013  1.00  0.00     0.017 A 
HETATM   18  C   UNL     1     -46.368 -51.589  12.698  1.00  0.00     0.088 A 
HETATM   19  N   UNL     1     -45.344 -52.392  12.324  1.00  0.00    -0.369 N 
ATOM     20  HN  UNL     1     -45.096 -52.512  11.342  1.00  0.00     0.165 HD
ENDBRANCH  13  14
ENDBRANCH  12  13
ENDBRANCH   1  12
TORSDOF 5
ENDMDL
MODEL 5
REMARK VINA RESULT:      -4.9      4.465      6.262
REMARK  5 active torsions:
REMARK  status: ('A' for Active; 'I' for Inactive)
REMARK    1  A    between atoms: S_2  and  N_4 
REMARK    2  A    between atoms: S_2  and  N_14 
REMARK    3  A    between atoms: N_4  and  C_5 
REMARK    4  A    between atoms: C_5  and  C_6 
REMARK    5  A    between atoms: C_6  and  C_7 
ROOT
HETATM    1  N   UNL     1     -42.055 -49.913  11.353  1.00  0.00    -0.206 NA
HETATM    2  H   UNL     1     -42.949 -49.466  11.559  1.00  0.00     0.140 HD
ENDROOT
BRANCH   1   3
HETATM    3  S   UNL     1     -41.627 -50.815  12.713  1.00  0.00     0.281 S 
HETATM    4  O   UNL     1     -40.201 -50.710  12.905  1.00  0.00    -0.194 OA
HETATM    5  O   UNL     1     -42.563 -50.447  13.745  1.00  0.00    -0.194 OA
BRANCH   3   6
HETATM    6  N   UNL     1     -41.970 -52.376  12.185  1.00  0.00    -0.194 NA
HETATM    7  C   UNL     1     -43.304 -52.956  12.530  1.00  0.00     0.134 C 
HETATM    8  C   UNL     1     -43.344 -53.489  13.972  1.00  0.00     0.183 C 
HETATM    9  O   UNL     1     -42.274 -54.409  14.237  1.00  0.00    -0.389 OA
HETATM   10  C   UNL     1     -40.998 -53.803  13.979  1.00  0.00     0.183 C 
HETATM   11  C   UNL     1     -40.902 -53.377  12.511  1.00  0.00     0.134 C 
ENDBRANCH   3   6
ENDBRANCH   1   3
BRANCH   1  12
HETATM   12  C   UNL     1     -41.016 -48.903  11.004  1.00  0.00     0.111 C 
BRANCH  12  13
HETATM   13  C   UNL     1     -41.601 -47.501  10.923  1.00  0.00     0.072 C 
BRANCH  13  14
HETATM   14  C   UNL     1     -42.792 -47.522   9.996  1.00  0.00     0.010 A 
HETATM   15  C   UNL     1     -44.078 -47.309  10.487  1.00  0.00     0.025 A 
HETATM   16  C   UNL     1     -45.160 -47.452   9.622  1.00  0.00     0.003 A 
HETATM   17  C   UNL     1     -44.933 -47.803   8.298  1.00  0.00     0.017 A 
HETATM   18  C   UNL     1     -43.625 -47.992   7.889  1.00  0.00     0.088 A 
HETATM   19  N   UNL     1     -42.553 -47.861   8.706  1.00  0.00    -0.369 N 
ATOM     20  HN  UNL     1     -41.604 -48.012   8.363  1.00  0.00     0.165 HD
ENDBRANCH  13  14
ENDBRANCH  12  13
ENDBRANCH   1  12
TORSDOF 5
ENDMDL
MODEL 6
REMARK VINA RESULT:      -4.9      5.402      6.805
REMARK  5 active torsions:
REMARK  status: ('A' for Active; 'I' for Inactive)
REMARK    1  A    between atoms: S_2  and  N_4 
REMARK    2  A    between atoms: S_2  and  N_14 
REMARK    3  A    between atoms: N_4  and  C_5 
REMARK    4  A    between atoms: C_5  and  C_6 
REMARK    5  A    between atoms: C_6  and  C_7 
ROOT
HETATM    1  N   UNL     1     -43.391 -48.659  11.565  1.00  0.00    -0.206 NA
HETATM    2  H   UNL     1     -43.787 -49.398  10.984  1.00  0.00     0.140 HD
ENDROOT
BRANCH   1   3
HETATM    3  S   UNL     1     -42.058 -48.039  10.738  1.00  0.00     0.281 S 
HETATM    4  O   UNL     1     -41.031 -49.051  10.694  1.00  0.00    -0.194 OA
HETATM    5  O   UNL     1     -42.581 -47.432   9.539  1.00  0.00    -0.194 OA
BRANCH   3   6
HETATM    6  N   UNL     1     -41.556 -46.829  11.796  1.00  0.00    -0.194 NA
HETATM    7  C   UNL     1     -42.451 -45.648  11.986  1.00  0.00     0.134 C 
HETATM    8  C   UNL     1     -42.314 -44.631  10.839  1.00  0.00     0.183 C 
HETATM    9  O   UNL     1     -40.948 -44.243  10.625  1.00  0.00    -0.389 OA
HETATM   10  C   UNL     1     -40.121 -45.386  10.362  1.00  0.00     0.183 C 
HETATM   11  C   UNL     1     -40.157 -46.350  11.551  1.00  0.00     0.134 C 
ENDBRANCH   3   6
ENDBRANCH   1   3
BRANCH   1  12
HETATM   12  C   UNL     1     -43.019 -49.176  12.913  1.00  0.00     0.111 C 
BRANCH  12  13
HETATM   13  C   UNL     1     -43.798 -50.435  13.266  1.00  0.00     0.072 C 
BRANCH  13  14
HETATM   14  C   UNL     1     -42.915 -51.636  13.034  1.00  0.00     0.010 A 
HETATM   15  C   UNL     1     -42.934 -52.713  13.918  1.00  0.00     0.025 A 
HETATM   16  C   UNL     1     -42.023 -53.749  13.735  1.00  0.00     0.003 A 
HETATM   17  C   UNL     1     -41.120 -53.685  12.681  1.00  0.00     0.017 A 
HETATM   18  C   UNL     1     -41.170 -52.583  11.847  1.00  0.00     0.088 A 
HETATM   19  N   UNL     1     -42.044 -51.560  11.999  1.00  0.00    -0.369 N 
ATOM     20  HN  UNL     1     -42.046 -50.764  11.361  1.00  0.00     0.165 HD
ENDBRANCH  13  14
ENDBRANCH  12  13
ENDBRANCH   1  12
TORSDOF 5
ENDMDL
MODEL 7
REMARK VINA RESULT:      -4.9      2.559      5.650
REMARK  5 active torsions:
REMARK  status: ('A' for Active; 'I' for Inactive)
REMARK    1  A    between atoms: S_2  and  N_4 
REMARK    2  A    between atoms: S_2  and  N_14 
REMARK    3  A    between atoms: N_4  and  C_5 
REMARK    4  A    between atoms: C_5  and  C_6 
REMARK    5  A    between atoms: C_6  and  C_7 
ROOT
HETATM    1  N   UNL     1     -43.347 -54.029  14.977  1.00  0.00    -0.206 NA
HETATM    2  H   UNL     1     -44.072 -53.686  15.608  1.00  0.00     0.140 HD
ENDROOT
BRANCH   1   3
HETATM    3  S   UNL     1     -42.331 -52.727  14.634  1.00  0.00     0.281 S 
HETATM    4  O   UNL     1     -43.122 -51.667  14.058  1.00  0.00    -0.194 OA
HETATM    5  O   UNL     1     -41.531 -52.524  15.815  1.00  0.00    -0.194 OA
BRANCH   3   6
HETATM    6  N   UNL     1     -41.368 -53.381  13.418  1.00  0.00    -0.194 NA
HETATM    7  C   UNL     1     -40.159 -54.159  13.824  1.00  0.00     0.134 C 
HETATM    8  C   UNL     1     -38.981 -53.241  14.194  1.00  0.00     0.183 C 
HETATM    9  O   UNL     1     -38.688 -52.296  13.153  1.00  0.00    -0.389 OA
HETATM   10  C   UNL     1     -39.842 -51.502  12.837  1.00  0.00     0.183 C 
HETATM   11  C   UNL     1     -40.984 -52.398  12.352  1.00  0.00     0.134 C 
ENDBRANCH   3   6
ENDBRANCH   1   3
BRANCH   1  12
HETATM   12  C   UNL     1     -43.941 -54.614  13.742  1.00  0.00     0.111 C 
BRANCH  12  13
HETATM   13  C   UNL     1     -45.438 -54.840  13.892  1.00  0.00     0.072 C 
BRANCH  13  14
HETATM   14  C   UNL     1     -46.051 -53.626  14.545  1.00  0.00     0.010 A 
HETATM   15  C   UNL     1     -46.438 -52.527  13.779  1.00  0.00     0.025 A 
HETATM   16  C   UNL     1     -46.891 -51.382  14.428  1.00  0.00     0.003 A 
HETATM   17  C   UNL     1     -46.946 -51.361  15.816  1.00  0.00     0.017 A 
HETATM   18  C   UNL     1     -46.549 -52.495  16.501  1.00  0.00     0.088 A 
HETATM   19  N   UNL     1     -46.103 -53.623  15.899  1.00  0.00    -0.369 N 
ATOM     20  HN  UNL     1     -45.818 -54.438  16.442  1.00  0.00     0.165 HD
ENDBRANCH  13  14
ENDBRANCH  12  13
ENDBRANCH   1  12
TORSDOF 5
ENDMDL
MODEL 8
REMARK VINA RESULT:      -4.9      1.991      3.047
REMARK  5 active torsions:
REMARK  status: ('A' for Active; 'I' for Inactive)
REMARK    1  A    between atoms: S_2  and  N_4 
REMARK    2  A    between atoms: S_2  and  N_14 
REMARK    3  A    between atoms: N_4  and  C_5 
REMARK    4  A    between atoms: C_5  and  C_6 
REMARK    5  A    between atoms: C_6  and  C_7 
ROOT
HETATM    1  N   UNL     1     -43.454 -53.168  12.013  1.00  0.00    -0.206 NA
HETATM    2  H   UNL     1     -43.718 -53.165  11.027  1.00  0.00     0.140 HD
ENDROOT
BRANCH   1   3
HETATM    3  S   UNL     1     -44.866 -52.933  12.906  1.00  0.00     0.281 S 
HETATM    4  O   UNL     1     -44.608 -51.941  13.921  1.00  0.00    -0.194 OA
HETATM    5  O   UNL     1     -45.925 -52.779  11.942  1.00  0.00    -0.194 OA
BRANCH   3   6
HETATM    6  N   UNL     1     -45.020 -54.429  13.663  1.00  0.00    -0.194 NA
HETATM    7  C   UNL     1     -46.207 -54.650  14.543  1.00  0.00     0.134 C 
HETATM    8  C   UNL     1     -46.017 -54.022  15.935  1.00  0.00     0.183 C 
HETATM    9  O   UNL     1     -44.798 -54.454  16.558  1.00  0.00    -0.389 OA
HETATM   10  C   UNL     1     -43.662 -54.156  15.731  1.00  0.00     0.183 C 
HETATM   11  C   UNL     1     -43.784 -54.875  14.386  1.00  0.00     0.134 C 
ENDBRANCH   3   6
ENDBRANCH   1   3
BRANCH   1  12
HETATM   12  C   UNL     1     -42.432 -52.120  12.299  1.00  0.00     0.111 C 
BRANCH  12  13
HETATM   13  C   UNL     1     -41.187 -52.711  12.945  1.00  0.00     0.072 C 
BRANCH  13  14
HETATM   14  C   UNL     1     -40.028 -51.772  12.717  1.00  0.00     0.010 A 
HETATM   15  C   UNL     1     -38.942 -51.761  13.589  1.00  0.00     0.025 A 
HETATM   16  C   UNL     1     -37.948 -50.802  13.413  1.00  0.00     0.003 A 
HETATM   17  C   UNL     1     -38.063 -49.883  12.378  1.00  0.00     0.017 A 
HETATM   18  C   UNL     1     -39.171 -49.965  11.554  1.00  0.00     0.088 A 
HETATM   19  N   UNL     1     -40.154 -50.885  11.700  1.00  0.00    -0.369 N 
ATOM     20  HN  UNL     1     -40.956 -50.909  11.071  1.00  0.00     0.165 HD
ENDBRANCH  13  14
ENDBRANCH  12  13
ENDBRANCH   1  12
TORSDOF 5
ENDMDL
MODEL 9
REMARK VINA RESULT:      -4.8      3.238      6.118
REMARK  5 active torsions:
REMARK  status: ('A' for Active; 'I' for Inactive)
REMARK    1  A    between atoms: S_2  and  N_4 
REMARK    2  A    between atoms: S_2  and  N_14 
REMARK    3  A    between atoms: N_4  and  C_5 
REMARK    4  A    between atoms: C_5  and  C_6 
REMARK    5  A    between atoms: C_6  and  C_7 
ROOT
HETATM    1  N   UNL     1     -41.952 -52.531  13.937  1.00  0.00    -0.206 NA
HETATM    2  H   UNL     1     -42.625 -51.820  13.648  1.00  0.00     0.140 HD
ENDROOT
BRANCH   1   3
HETATM    3  S   UNL     1     -40.579 -52.332  12.978  1.00  0.00     0.281 S 
HETATM    4  O   UNL     1     -39.749 -53.504  13.113  1.00  0.00    -0.194 OA
HETATM    5  O   UNL     1     -41.052 -51.878  11.694  1.00  0.00    -0.194 OA
BRANCH   3   6
HETATM    6  N   UNL     1     -39.816 -51.056  13.768  1.00  0.00    -0.194 NA
HETATM    7  C   UNL     1     -40.077 -49.669  13.277  1.00  0.00     0.134 C 
HETATM    8  C   UNL     1     -39.238 -49.333  12.032  1.00  0.00     0.183 C 
HETATM    9  O   UNL     1     -37.839 -49.573  12.245  1.00  0.00    -0.389 OA
HETATM   10  C   UNL     1     -37.602 -50.935  12.636  1.00  0.00     0.183 C 
HETATM   11  C   UNL     1     -38.339 -51.245  13.942  1.00  0.00     0.134 C 
ENDBRANCH   3   6
ENDBRANCH   1   3
BRANCH   1  12
HETATM   12  C   UNL     1     -42.528 -53.900  13.808  1.00  0.00     0.111 C 
BRANCH  12  13
HETATM   13  C   UNL     1     -43.720 -53.921  12.863  1.00  0.00     0.072 C 
BRANCH  13  14
HETATM   14  C   UNL     1     -44.831 -53.094  13.461  1.00  0.00     0.010 A 
HETATM   15  C   UNL     1     -45.738 -52.424  12.642  1.00  0.00     0.025 A 
HETATM   16  C   UNL     1     -46.676 -51.579  13.228  1.00  0.00     0.003 A 
HETATM   17  C   UNL     1     -46.686 -51.425  14.608  1.00  0.00     0.017 A 
HETATM   18  C   UNL     1     -45.756 -52.130  15.350  1.00  0.00     0.088 A 
HETATM   19  N   UNL     1     -44.831 -52.958  14.809  1.00  0.00    -0.369 N 
ATOM     20  HN  UNL     1     -44.160 -53.458  15.394  1.00  0.00     0.165 HD
ENDBRANCH  13  14
ENDBRANCH  12  13
ENDBRANCH   1  12
TORSDOF 5
ENDMDL
