MODEL 1
REMARK VINA RESULT:      -6.0      0.000      0.000
REMARK  5 active torsions:
REMARK  status: ('A' for Active; 'I' for Inactive)
REMARK    1  A    between atoms: O_2  and  C_3 
REMARK    2  A    between atoms: C_3  and  C_4 
REMARK    3  A    between atoms: C_4  and  N_6 
REMARK       I    between atoms: N_6  and  C_7 
REMARK    4  A    between atoms: C_7  and  C_9 
REMARK    5  A    between atoms: C_12  and  N_16 
ROOT
HETATM    1  C   UNL     1     -42.768 -51.309  13.250  1.00  0.00     0.047 A 
HETATM    2  C   UNL     1     -43.391 -50.083  13.441  1.00  0.00     0.022 A 
HETATM    3  C   UNL     1     -43.064 -49.016  12.602  1.00  0.00     0.049 A 
HETATM    4  C   UNL     1     -42.123 -49.168  11.582  1.00  0.00     0.103 A 
HETATM    5  N   UNL     1     -41.482 -50.350  11.433  1.00  0.00    -0.351 N 
ATOM      6  HN  UNL     1     -40.769 -50.466  10.713  1.00  0.00     0.166 HD
HETATM    7  C   UNL     1     -41.805 -51.384  12.260  1.00  0.00     0.106 A 
ENDROOT
BRANCH   1   8
HETATM    8  C   UNL     1     -43.095 -52.507  14.057  1.00  0.00     0.253 C 
HETATM    9  N   UNL     1     -44.434 -52.843  14.106  1.00  0.00    -0.351 N 
HETATM   10  H   UNL     1     -45.105 -52.299  13.582  1.00  0.00     0.163 HD
HETATM   11  O   UNL     1     -42.206 -53.150  14.598  1.00  0.00    -0.268 OA
BRANCH   9  12
HETATM   12  C   UNL     1     -44.928 -54.016  14.825  1.00  0.00     0.104 C 
HETATM   13  C   UNL     1     -45.345 -55.091  13.818  1.00  0.00     0.034 C 
BRANCH  12  14
HETATM   14  C   UNL     1     -46.093 -53.650  15.763  1.00  0.00     0.191 C 
BRANCH  14  15
HETATM   15  O   UNL     1     -46.955 -52.707  15.121  1.00  0.00    -0.394 OA
HETATM   16  C   UNL     1     -47.309 -51.636  15.986  1.00  0.00     0.201 C 
ENDBRANCH  14  15
ENDBRANCH  12  14
ENDBRANCH   9  12
ENDBRANCH   1   8
BRANCH   4  17
HETATM   17  N   UNL     1     -41.805 -48.121  10.745  1.00  0.00    -0.362 N 
HETATM   18  C   UNL     1     -40.688 -47.205  10.999  1.00  0.00     0.156 C 
HETATM   19  C   UNL     1     -41.200 -45.759  11.193  1.00  0.00     0.136 C 
HETATM   20  C   UNL     1     -40.034 -44.782  11.279  1.00  0.00     0.041 C 
HETATM   21  O   UNL     1     -42.029 -45.347  10.092  1.00  0.00    -0.378 OA
HETATM   22  C   UNL     1     -43.184 -46.205   9.982  1.00  0.00     0.136 C 
HETATM   23  C   UNL     1     -44.024 -45.673   8.828  1.00  0.00     0.041 C 
HETATM   24  C   UNL     1     -42.762 -47.667   9.728  1.00  0.00     0.156 C 
ENDBRANCH   4  17
TORSDOF 5
ENDMDL
MODEL 2
REMARK VINA RESULT:      -5.8      2.048      8.092
REMARK  5 active torsions:
REMARK  status: ('A' for Active; 'I' for Inactive)
REMARK    1  A    between atoms: O_2  and  C_3 
REMARK    2  A    between atoms: C_3  and  C_4 
REMARK    3  A    between atoms: C_4  and  N_6 
REMARK       I    between atoms: N_6  and  C_7 
REMARK    4  A    between atoms: C_7  and  C_9 
REMARK    5  A    between atoms: C_12  and  N_16 
ROOT
HETATM    1  C   UNL     1     -41.421 -49.825  11.874  1.00  0.00     0.047 A 
HETATM    2  C   UNL     1     -40.499 -50.860  11.794  1.00  0.00     0.022 A 
HETATM    3  C   UNL     1     -40.876 -52.139  12.211  1.00  0.00     0.049 A 
HETATM    4  C   UNL     1     -42.158 -52.384  12.705  1.00  0.00     0.103 A 
HETATM    5  N   UNL     1     -43.035 -51.361  12.828  1.00  0.00    -0.351 N 
ATOM      6  HN  UNL     1     -43.964 -51.518  13.218  1.00  0.00     0.166 HD
HETATM    7  C   UNL     1     -42.656 -50.116  12.423  1.00  0.00     0.106 A 
ENDROOT
BRANCH   1   8
HETATM    8  C   UNL     1     -41.124 -48.453  11.403  1.00  0.00     0.253 C 
HETATM    9  N   UNL     1     -42.192 -47.767  10.858  1.00  0.00    -0.351 N 
HETATM   10  H   UNL     1     -43.104 -48.200  10.836  1.00  0.00     0.163 HD
HETATM   11  O   UNL     1     -40.003 -47.981  11.538  1.00  0.00    -0.268 OA
BRANCH   9  12
HETATM   12  C   UNL     1     -42.084 -46.391  10.378  1.00  0.00     0.104 C 
HETATM   13  C   UNL     1     -42.329 -45.426  11.542  1.00  0.00     0.034 C 
BRANCH  12  14
HETATM   14  C   UNL     1     -43.062 -46.122   9.218  1.00  0.00     0.191 C 
BRANCH  14  15
HETATM   15  O   UNL     1     -43.794 -47.313   8.915  1.00  0.00    -0.394 OA
HETATM   16  C   UNL     1     -43.454 -47.833   7.637  1.00  0.00     0.201 C 
ENDBRANCH  14  15
ENDBRANCH  12  14
ENDBRANCH   9  12
ENDBRANCH   1   8
BRANCH   4  17
HETATM   17  N   UNL     1     -42.537 -53.645  13.108  1.00  0.00    -0.362 N 
HETATM   18  C   UNL     1     -43.884 -54.185  12.889  1.00  0.00     0.156 C 
HETATM   19  C   UNL     1     -44.575 -54.489  14.238  1.00  0.00     0.136 C 
HETATM   20  C   UNL     1     -45.898 -55.212  14.013  1.00  0.00     0.041 C 
HETATM   21  O   UNL     1     -43.757 -55.333  15.066  1.00  0.00    -0.378 OA
HETATM   22  C   UNL     1     -42.501 -54.687  15.359  1.00  0.00     0.136 C 
HETATM   23  C   UNL     1     -41.721 -55.624  16.272  1.00  0.00     0.041 C 
HETATM   24  C   UNL     1     -41.714 -54.398  14.064  1.00  0.00     0.156 C 
ENDBRANCH   4  17
TORSDOF 5
ENDMDL
MODEL 3
REMARK VINA RESULT:      -5.7      2.346      2.920
REMARK  5 active torsions:
REMARK  status: ('A' for Active; 'I' for Inactive)
REMARK    1  A    between atoms: O_2  and  C_3 
REMARK    2  A    between atoms: C_3  and  C_4 
REMARK    3  A    between atoms: C_4  and  N_6 
REMARK       I    between atoms: N_6  and  C_7 
REMARK    4  A    between atoms: C_7  and  C_9 
REMARK    5  A    between atoms: C_12  and  N_16 
ROOT
HETATM    1  C   UNL     1     -41.188 -51.359  12.433  1.00  0.00     0.047 A 
HETATM    2  C   UNL     1     -42.199 -50.469  12.772  1.00  0.00     0.022 A 
HETATM    3  C   UNL     1     -42.302 -49.261  12.079  1.00  0.00     0.049 A 
HETATM    4  C   UNL     1     -41.404 -48.940  11.059  1.00  0.00     0.103 A 
HETATM    5  N   UNL     1     -40.391 -49.788  10.768  1.00  0.00    -0.351 N 
ATOM      6  HN  UNL     1     -39.708 -49.553  10.047  1.00  0.00     0.166 HD
HETATM    7  C   UNL     1     -40.297 -50.963  11.453  1.00  0.00     0.106 A 
ENDROOT
BRANCH   1   8
HETATM    8  C   UNL     1     -41.041 -52.684  13.077  1.00  0.00     0.253 C 
HETATM    9  N   UNL     1     -42.087 -53.069  13.892  1.00  0.00    -0.351 N 
HETATM   10  H   UNL     1     -42.895 -52.469  13.986  1.00  0.00     0.163 HD
HETATM   11  O   UNL     1     -40.060 -53.378  12.846  1.00  0.00    -0.268 OA
BRANCH   9  12
HETATM   12  C   UNL     1     -42.123 -54.361  14.575  1.00  0.00     0.104 C 
HETATM   13  C   UNL     1     -43.568 -54.862  14.640  1.00  0.00     0.034 C 
BRANCH  12  14
HETATM   14  C   UNL     1     -41.501 -54.270  15.981  1.00  0.00     0.191 C 
BRANCH  14  15
HETATM   15  O   UNL     1     -40.128 -54.668  15.932  1.00  0.00    -0.394 OA
HETATM   16  C   UNL     1     -39.274 -53.699  16.524  1.00  0.00     0.201 C 
ENDBRANCH  14  15
ENDBRANCH  12  14
ENDBRANCH   9  12
ENDBRANCH   1   8
BRANCH   4  17
HETATM   17  N   UNL     1     -41.508 -47.755  10.367  1.00  0.00    -0.362 N 
HETATM   18  C   UNL     1     -40.728 -46.559  10.706  1.00  0.00     0.156 C 
HETATM   19  C   UNL     1     -41.660 -45.397  11.119  1.00  0.00     0.136 C 
HETATM   20  C   UNL     1     -40.867 -44.108  11.299  1.00  0.00     0.041 C 
HETATM   21  O   UNL     1     -42.663 -45.151  10.118  1.00  0.00    -0.378 OA
HETATM   22  C   UNL     1     -43.486 -46.322   9.930  1.00  0.00     0.136 C 
HETATM   23  C   UNL     1     -44.542 -45.961   8.894  1.00  0.00     0.041 C 
HETATM   24  C   UNL     1     -42.638 -47.521   9.458  1.00  0.00     0.156 C 
ENDBRANCH   4  17
TORSDOF 5
ENDMDL
MODEL 4
REMARK VINA RESULT:      -5.6      2.302      8.349
REMARK  5 active torsions:
REMARK  status: ('A' for Active; 'I' for Inactive)
REMARK    1  A    between atoms: O_2  and  C_3 
REMARK    2  A    between atoms: C_3  and  C_4 
REMARK    3  A    between atoms: C_4  and  N_6 
REMARK       I    between atoms: N_6  and  C_7 
REMARK    4  A    between atoms: C_7  and  C_9 
REMARK    5  A    between atoms: C_12  and  N_16 
ROOT
HETATM    1  C   UNL     1     -41.822 -48.285  11.684  1.00  0.00     0.047 A 
HETATM    2  C   UNL     1     -42.756 -48.824  12.559  1.00  0.00     0.022 A 
HETATM    3  C   UNL     1     -42.758 -50.202  12.788  1.00  0.00     0.049 A 
HETATM    4  C   UNL     1     -41.839 -51.037  12.148  1.00  0.00     0.103 A 
HETATM    5  N   UNL     1     -40.965 -50.512  11.259  1.00  0.00    -0.351 N 
ATOM      6  HN  UNL     1     -40.310 -51.114  10.760  1.00  0.00     0.166 HD
HETATM    7  C   UNL     1     -40.975 -49.167  11.039  1.00  0.00     0.106 A 
ENDROOT
BRANCH   1   8
HETATM    8  C   UNL     1     -41.713 -46.831  11.428  1.00  0.00     0.253 C 
HETATM    9  N   UNL     1     -40.468 -46.389  11.029  1.00  0.00    -0.351 N 
HETATM   10  H   UNL     1     -39.718 -47.055  10.901  1.00  0.00     0.163 HD
HETATM   11  O   UNL     1     -42.695 -46.109  11.537  1.00  0.00    -0.268 OA
BRANCH   9  12
HETATM   12  C   UNL     1     -40.194 -44.992  10.699  1.00  0.00     0.104 C 
HETATM   13  C   UNL     1     -39.136 -44.929   9.593  1.00  0.00     0.034 C 
BRANCH  12  14
HETATM   14  C   UNL     1     -39.748 -44.198  11.941  1.00  0.00     0.191 C 
BRANCH  14  15
HETATM   15  O   UNL     1     -40.776 -43.283  12.328  1.00  0.00    -0.394 OA
HETATM   16  C   UNL     1     -40.382 -41.931  12.140  1.00  0.00     0.201 C 
ENDBRANCH  14  15
ENDBRANCH  12  14
ENDBRANCH   9  12
ENDBRANCH   1   8
BRANCH   4  17
HETATM   17  N   UNL     1     -41.832 -52.394  12.378  1.00  0.00    -0.362 N 
HETATM   18  C   UNL     1     -43.040 -53.157  12.711  1.00  0.00     0.156 C 
HETATM   19  C   UNL     1     -42.916 -53.794  14.114  1.00  0.00     0.136 C 
HETATM   20  C   UNL     1     -44.088 -54.728  14.387  1.00  0.00     0.041 C 
HETATM   21  O   UNL     1     -41.710 -54.569  14.230  1.00  0.00    -0.378 OA
HETATM   22  C   UNL     1     -40.551 -53.732  14.029  1.00  0.00     0.136 C 
HETATM   23  C   UNL     1     -39.326 -54.618  14.214  1.00  0.00     0.041 C 
HETATM   24  C   UNL     1     -40.566 -53.099  12.623  1.00  0.00     0.156 C 
ENDBRANCH   4  17
TORSDOF 5
ENDMDL
MODEL 5
REMARK VINA RESULT:      -5.2      4.173      8.316
REMARK  5 active torsions:
REMARK  status: ('A' for Active; 'I' for Inactive)
REMARK    1  A    between atoms: O_2  and  C_3 
REMARK    2  A    between atoms: C_3  and  C_4 
REMARK    3  A    between atoms: C_4  and  N_6 
REMARK       I    between atoms: N_6  and  C_7 
REMARK    4  A    between atoms: C_7  and  C_9 
REMARK    5  A    between atoms: C_12  and  N_16 
ROOT
HETATM    1  C   UNL     1     -45.225 -52.813  14.384  1.00  0.00     0.047 A 
HETATM    2  C   UNL     1     -46.063 -51.713  14.252  1.00  0.00     0.022 A 
HETATM    3  C   UNL     1     -46.857 -51.329  15.335  1.00  0.00     0.049 A 
HETATM    4  C   UNL     1     -46.819 -52.035  16.539  1.00  0.00     0.103 A 
HETATM    5  N   UNL     1     -46.038 -53.136  16.645  1.00  0.00    -0.351 N 
ATOM      6  HN  UNL     1     -46.024 -53.680  17.507  1.00  0.00     0.166 HD
HETATM    7  C   UNL     1     -45.271 -53.505  15.581  1.00  0.00     0.106 A 
ENDROOT
BRANCH   1   8
HETATM    8  C   UNL     1     -44.310 -53.254  13.307  1.00  0.00     0.253 C 
HETATM    9  N   UNL     1     -43.035 -52.726  13.357  1.00  0.00    -0.351 N 
HETATM   10  H   UNL     1     -42.778 -52.111  14.116  1.00  0.00     0.163 HD
HETATM   11  O   UNL     1     -44.685 -54.063  12.470  1.00  0.00    -0.268 OA
BRANCH   9  12
HETATM   12  C   UNL     1     -41.994 -53.084  12.395  1.00  0.00     0.104 C 
HETATM   13  C   UNL     1     -41.114 -54.189  12.985  1.00  0.00     0.034 C 
BRANCH  12  14
HETATM   14  C   UNL     1     -41.153 -51.856  11.995  1.00  0.00     0.191 C 
BRANCH  14  15
HETATM   15  O   UNL     1     -39.790 -52.056  12.379  1.00  0.00    -0.394 OA
HETATM   16  C   UNL     1     -39.172 -50.845  12.789  1.00  0.00     0.201 C 
ENDBRANCH  14  15
ENDBRANCH  12  14
ENDBRANCH   9  12
ENDBRANCH   1   8
BRANCH   4  17
HETATM   17  N   UNL     1     -47.592 -51.654  17.612  1.00  0.00    -0.362 N 
HETATM   18  C   UNL     1     -48.271 -50.356  17.689  1.00  0.00     0.156 C 
HETATM   19  C   UNL     1     -47.742 -49.532  18.885  1.00  0.00     0.136 C 
HETATM   20  C   UNL     1     -48.566 -48.264  19.072  1.00  0.00     0.041 C 
HETATM   21  O   UNL     1     -47.819 -50.282  20.110  1.00  0.00    -0.378 OA
HETATM   22  C   UNL     1     -47.018 -51.479  20.019  1.00  0.00     0.136 C 
HETATM   23  C   UNL     1     -47.120 -52.184  21.365  1.00  0.00     0.041 C 
HETATM   24  C   UNL     1     -47.518 -52.391  18.880  1.00  0.00     0.156 C 
ENDBRANCH   4  17
TORSDOF 5
ENDMDL
MODEL 6
REMARK VINA RESULT:      -5.1      2.801      8.293
REMARK  5 active torsions:
REMARK  status: ('A' for Active; 'I' for Inactive)
REMARK    1  A    between atoms: O_2  and  C_3 
REMARK    2  A    between atoms: C_3  and  C_4 
REMARK    3  A    between atoms: C_4  and  N_6 
REMARK       I    between atoms: N_6  and  C_7 
REMARK    4  A    between atoms: C_7  and  C_9 
REMARK    5  A    between atoms: C_12  and  N_16 
ROOT
HETATM    1  C   UNL     1     -42.695 -46.645  11.726  1.00  0.00     0.047 A 
HETATM    2  C   UNL     1     -42.607 -46.738  13.109  1.00  0.00     0.022 A 
HETATM    3  C   UNL     1     -42.817 -47.975  13.722  1.00  0.00     0.049 A 
HETATM    4  C   UNL     1     -43.115 -49.110  12.964  1.00  0.00     0.103 A 
HETATM    5  N   UNL     1     -43.249 -49.002  11.622  1.00  0.00    -0.351 N 
ATOM      6  HN  UNL     1     -43.498 -49.815  11.059  1.00  0.00     0.166 HD
HETATM    7  C   UNL     1     -43.047 -47.789  11.034  1.00  0.00     0.106 A 
ENDROOT
BRANCH   1   8
HETATM    8  C   UNL     1     -42.432 -45.386  10.992  1.00  0.00     0.253 C 
HETATM    9  N   UNL     1     -42.779 -44.226  11.656  1.00  0.00    -0.351 N 
HETATM   10  H   UNL     1     -43.152 -44.280  12.594  1.00  0.00     0.163 HD
HETATM   11  O   UNL     1     -41.906 -45.413   9.888  1.00  0.00    -0.268 OA
BRANCH   9  12
HETATM   12  C   UNL     1     -42.553 -42.896  11.093  1.00  0.00     0.104 C 
HETATM   13  C   UNL     1     -41.151 -42.414  11.475  1.00  0.00     0.034 C 
BRANCH  12  14
HETATM   14  C   UNL     1     -43.631 -41.899  11.560  1.00  0.00     0.191 C 
BRANCH  14  15
HETATM   15  O   UNL     1     -43.061 -40.963  12.478  1.00  0.00    -0.394 OA
HETATM   16  C   UNL     1     -43.856 -39.792  12.604  1.00  0.00     0.201 C 
ENDBRANCH  14  15
ENDBRANCH  12  14
ENDBRANCH   9  12
ENDBRANCH   1   8
BRANCH   4  17
HETATM   17  N   UNL     1     -43.313 -50.333  13.563  1.00  0.00    -0.362 N 
HETATM   18  C   UNL     1     -42.297 -51.391  13.578  1.00  0.00     0.156 C 
HETATM   19  C   UNL     1     -42.803 -52.646  12.831  1.00  0.00     0.136 C 
HETATM   20  C   UNL     1     -41.825 -53.803  12.998  1.00  0.00     0.041 C 
HETATM   21  O   UNL     1     -44.075 -53.080  13.341  1.00  0.00    -0.378 OA
HETATM   22  C   UNL     1     -45.066 -52.045  13.170  1.00  0.00     0.136 C 
HETATM   23  C   UNL     1     -46.385 -52.601  13.691  1.00  0.00     0.041 C 
HETATM   24  C   UNL     1     -44.666 -50.767  13.936  1.00  0.00     0.156 C 
ENDBRANCH   4  17
TORSDOF 5
ENDMDL
MODEL 7
REMARK VINA RESULT:      -5.0      2.526      8.278
REMARK  5 active torsions:
REMARK  status: ('A' for Active; 'I' for Inactive)
REMARK    1  A    between atoms: O_2  and  C_3 
REMARK    2  A    between atoms: C_3  and  C_4 
REMARK    3  A    between atoms: C_4  and  N_6 
REMARK       I    between atoms: N_6  and  C_7 
REMARK    4  A    between atoms: C_7  and  C_9 
REMARK    5  A    between atoms: C_12  and  N_16 
ROOT
HETATM    1  C   UNL     1     -40.094 -50.192  12.831  1.00  0.00     0.047 A 
HETATM    2  C   UNL     1     -40.758 -50.838  11.797  1.00  0.00     0.022 A 
HETATM    3  C   UNL     1     -41.381 -52.063  12.050  1.00  0.00     0.049 A 
HETATM    4  C   UNL     1     -41.340 -52.639  13.321  1.00  0.00     0.103 A 
HETATM    5  N   UNL     1     -40.648 -52.029  14.311  1.00  0.00    -0.351 N 
ATOM      6  HN  UNL     1     -40.582 -52.454  15.236  1.00  0.00     0.166 HD
HETATM    7  C   UNL     1     -40.040 -50.837  14.053  1.00  0.00     0.106 A 
ENDROOT
BRANCH   1   8
HETATM    8  C   UNL     1     -39.455 -48.866  12.664  1.00  0.00     0.253 C 
HETATM    9  N   UNL     1     -40.320 -47.790  12.628  1.00  0.00    -0.351 N 
HETATM   10  H   UNL     1     -41.312 -47.942  12.746  1.00  0.00     0.163 HD
HETATM   11  O   UNL     1     -38.237 -48.769  12.604  1.00  0.00    -0.268 OA
BRANCH   9  12
HETATM   12  C   UNL     1     -39.857 -46.408  12.507  1.00  0.00     0.104 C 
HETATM   13  C   UNL     1     -39.657 -45.815  13.904  1.00  0.00     0.034 C 
BRANCH  12  14
HETATM   14  C   UNL     1     -40.838 -45.558  11.676  1.00  0.00     0.191 C 
BRANCH  14  15
HETATM   15  O   UNL     1     -41.110 -46.209  10.432  1.00  0.00    -0.394 OA
HETATM   16  C   UNL     1     -42.473 -46.079  10.054  1.00  0.00     0.201 C 
ENDBRANCH  14  15
ENDBRANCH  12  14
ENDBRANCH   9  12
ENDBRANCH   1   8
BRANCH   4  17
HETATM   17  N   UNL     1     -41.961 -53.841  13.577  1.00  0.00    -0.362 N 
HETATM   18  C   UNL     1     -43.326 -54.147  13.135  1.00  0.00     0.156 C 
HETATM   19  C   UNL     1     -44.250 -54.400  14.349  1.00  0.00     0.136 C 
HETATM   20  C   UNL     1     -45.618 -54.890  13.891  1.00  0.00     0.041 C 
HETATM   21  O   UNL     1     -43.702 -55.402  15.222  1.00  0.00    -0.378 OA
HETATM   22  C   UNL     1     -42.420 -54.980  15.733  1.00  0.00     0.136 C 
HETATM   23  C   UNL     1     -41.936 -56.072  16.678  1.00  0.00     0.041 C 
HETATM   24  C   UNL     1     -41.414 -54.760  14.584  1.00  0.00     0.156 C 
ENDBRANCH   4  17
TORSDOF 5
ENDMDL
MODEL 8
REMARK VINA RESULT:      -5.0     15.546     17.863
REMARK  5 active torsions:
REMARK  status: ('A' for Active; 'I' for Inactive)
REMARK    1  A    between atoms: O_2  and  C_3 
REMARK    2  A    between atoms: C_3  and  C_4 
REMARK    3  A    between atoms: C_4  and  N_6 
REMARK       I    between atoms: N_6  and  C_7 
REMARK    4  A    between atoms: C_7  and  C_9 
REMARK    5  A    between atoms: C_12  and  N_16 
ROOT
HETATM    1  C   UNL     1     -49.046 -52.526  -1.307  1.00  0.00     0.047 A 
HETATM    2  C   UNL     1     -50.359 -52.972  -1.241  1.00  0.00     0.022 A 
HETATM    3  C   UNL     1     -50.686 -54.211  -1.798  1.00  0.00     0.049 A 
HETATM    4  C   UNL     1     -49.713 -54.997  -2.418  1.00  0.00     0.103 A 
HETATM    5  N   UNL     1     -48.446 -54.535  -2.524  1.00  0.00    -0.351 N 
ATOM      6  HN  UNL     1     -47.732 -55.083  -3.002  1.00  0.00     0.166 HD
HETATM    7  C   UNL     1     -48.139 -53.323  -1.981  1.00  0.00     0.106 A 
ENDROOT
BRANCH   1   8
HETATM    8  C   UNL     1     -48.603 -51.254  -0.693  1.00  0.00     0.253 C 
HETATM    9  N   UNL     1     -49.612 -50.429  -0.239  1.00  0.00    -0.351 N 
HETATM   10  H   UNL     1     -50.574 -50.730  -0.310  1.00  0.00     0.163 HD
HETATM   11  O   UNL     1     -47.410 -51.004  -0.581  1.00  0.00    -0.268 OA
BRANCH   9  12
HETATM   12  C   UNL     1     -49.351 -49.153   0.426  1.00  0.00     0.104 C 
HETATM   13  C   UNL     1     -50.059 -49.133   1.783  1.00  0.00     0.034 C 
BRANCH  12  14
HETATM   14  C   UNL     1     -49.791 -47.963  -0.449  1.00  0.00     0.191 C 
BRANCH  14  15
HETATM   15  O   UNL     1     -48.656 -47.406  -1.117  1.00  0.00    -0.394 OA
HETATM   16  C   UNL     1     -48.458 -46.041  -0.777  1.00  0.00     0.201 C 
ENDBRANCH  14  15
ENDBRANCH  12  14
ENDBRANCH   9  12
ENDBRANCH   1   8
BRANCH   4  17
HETATM   17  N   UNL     1     -50.028 -56.223  -2.960  1.00  0.00    -0.362 N 
HETATM   18  C   UNL     1     -49.019 -57.235  -3.293  1.00  0.00     0.156 C 
HETATM   19  C   UNL     1     -49.024 -57.533  -4.809  1.00  0.00     0.136 C 
HETATM   20  C   UNL     1     -48.105 -58.705  -5.130  1.00  0.00     0.041 C 
HETATM   21  O   UNL     1     -50.341 -57.878  -5.270  1.00  0.00    -0.378 OA
HETATM   22  C   UNL     1     -51.258 -56.787  -5.040  1.00  0.00     0.136 C 
HETATM   23  C   UNL     1     -52.609 -57.217  -5.595  1.00  0.00     0.041 C 
HETATM   24  C   UNL     1     -51.358 -56.461  -3.535  1.00  0.00     0.156 C 
ENDBRANCH   4  17
TORSDOF 5
ENDMDL
MODEL 9
REMARK VINA RESULT:      -4.9      6.114      9.990
REMARK  5 active torsions:
REMARK  status: ('A' for Active; 'I' for Inactive)
REMARK    1  A    between atoms: O_2  and  C_3 
REMARK    2  A    between atoms: C_3  and  C_4 
REMARK    3  A    between atoms: C_4  and  N_6 
REMARK       I    between atoms: N_6  and  C_7 
REMARK    4  A    between atoms: C_7  and  C_9 
REMARK    5  A    between atoms: C_12  and  N_16 
ROOT
HETATM    1  C   UNL     1     -40.453 -54.581  14.819  1.00  0.00     0.047 A 
HETATM    2  C   UNL     1     -41.281 -54.994  15.854  1.00  0.00     0.022 A 
HETATM    3  C   UNL     1     -40.718 -55.626  16.965  1.00  0.00     0.049 A 
HETATM    4  C   UNL     1     -39.341 -55.847  17.043  1.00  0.00     0.103 A 
HETATM    5  N   UNL     1     -38.546 -55.487  16.009  1.00  0.00    -0.351 N 
ATOM      6  HN  UNL     1     -37.543 -55.671  16.038  1.00  0.00     0.166 HD
HETATM    7  C   UNL     1     -39.106 -54.876  14.928  1.00  0.00     0.106 A 
ENDROOT
BRANCH   1   8
HETATM    8  C   UNL     1     -40.959 -53.855  13.632  1.00  0.00     0.253 C 
HETATM    9  N   UNL     1     -42.297 -53.515  13.669  1.00  0.00    -0.351 N 
HETATM   10  H   UNL     1     -42.847 -53.736  14.486  1.00  0.00     0.163 HD
HETATM   11  O   UNL     1     -40.201 -53.561  12.717  1.00  0.00    -0.268 OA
BRANCH   9  12
HETATM   12  C   UNL     1     -42.950 -52.763  12.598  1.00  0.00     0.104 C 
HETATM   13  C   UNL     1     -42.717 -51.266  12.813  1.00  0.00     0.034 C 
BRANCH  12  14
HETATM   14  C   UNL     1     -44.454 -53.087  12.522  1.00  0.00     0.191 C 
BRANCH  14  15
HETATM   15  O   UNL     1     -44.651 -54.501  12.601  1.00  0.00    -0.394 OA
HETATM   16  C   UNL     1     -45.468 -54.862  13.706  1.00  0.00     0.201 C 
ENDBRANCH  14  15
ENDBRANCH  12  14
ENDBRANCH   9  12
ENDBRANCH   1   8
BRANCH   4  17
HETATM   17  N   UNL     1     -38.781 -56.460  18.141  1.00  0.00    -0.362 N 
HETATM   18  C   UNL     1     -37.419 -56.176  18.608  1.00  0.00     0.156 C 
HETATM   19  C   UNL     1     -36.539 -57.445  18.532  1.00  0.00     0.136 C 
HETATM   20  C   UNL     1     -35.182 -57.198  19.181  1.00  0.00     0.041 C 
HETATM   21  O   UNL     1     -37.153 -58.548  19.221  1.00  0.00    -0.378 OA
HETATM   22  C   UNL     1     -38.428 -58.868  18.625  1.00  0.00     0.136 C 
HETATM   23  C   UNL     1     -38.983 -60.068  19.380  1.00  0.00     0.041 C 
HETATM   24  C   UNL     1     -39.393 -57.668  18.710  1.00  0.00     0.156 C 
ENDBRANCH   4  17
TORSDOF 5
ENDMDL
