MODEL 1
REMARK VINA RESULT:      -5.8      0.000      0.000
REMARK  6 active torsions:
REMARK  status: ('A' for Active; 'I' for Inactive)
REMARK       I    between atoms: N_2  and  C_3 
REMARK    1  A    between atoms: C_3  and  C_5 
REMARK    2  A    between atoms: C_5  and  C_6 
REMARK    3  A    between atoms: C_9  and  C_10 
REMARK    4  A    between atoms: C_10  and  S_11 
REMARK    5  A    between atoms: S_11  and  C_12 
REMARK    6  A    between atoms: C_12  and  C_13 
ROOT
HETATM    1  C   UNL     1     -41.083 -48.648  11.330  1.00  0.00     0.059 A 
HETATM    2  N   UNL     1     -41.775 -49.768  11.421  1.00  0.00    -0.356 N 
ATOM      3  HN  UNL     1     -42.745 -49.875  11.126  1.00  0.00     0.166 HD
HETATM    4  C   UNL     1     -40.998 -50.786  11.974  1.00  0.00     0.025 A 
HETATM    5  C   UNL     1     -39.708 -50.395  12.284  1.00  0.00     0.077 A 
HETATM    6  S   UNL     1     -39.476 -48.736  11.929  1.00  0.00    -0.086 SA
ENDROOT
BRANCH   4   7
HETATM    7  C   UNL     1     -41.608 -52.149  12.085  1.00  0.00     0.131 C 
BRANCH   7   8
HETATM    8  S   UNL     1     -42.248 -52.622  13.719  1.00  0.00    -0.163 SA
BRANCH   8   9
HETATM    9  C   UNL     1     -44.044 -52.755  13.378  1.00  0.00     0.078 C 
BRANCH   9  10
HETATM   10  C   UNL     1     -44.742 -51.369  13.379  1.00  0.00    -0.005 C 
HETATM   11  C   UNL     1     -44.274 -50.502  14.569  1.00  0.00     0.005 C 
HETATM   12  C   UNL     1     -44.862 -50.936  15.915  1.00  0.00     0.000 C 
HETATM   13  C   UNL     1     -46.378 -51.104  15.874  1.00  0.00     0.000 C 
HETATM   14  C   UNL     1     -46.833 -51.962  14.700  1.00  0.00     0.000 C 
HETATM   15  C   UNL     1     -46.282 -51.417  13.387  1.00  0.00     0.005 C 
ENDBRANCH   9  10
ENDBRANCH   8   9
ENDBRANCH   7   8
ENDBRANCH   4   7
BRANCH   1  16
HETATM   16  C   UNL     1     -41.616 -47.371  10.761  1.00  0.00     0.167 C 
BRANCH  16  17
HETATM   17  C   UNL     1     -42.881 -47.600   9.954  1.00  0.00     0.223 C 
HETATM   18  N   UNL     1     -42.724 -47.795   8.598  1.00  0.00    -0.365 N 
HETATM   19  C   UNL     1     -43.840 -48.055   7.734  1.00  0.00     0.149 C 
HETATM   20  H   UNL     1     -41.790 -47.696   8.201  1.00  0.00     0.161 HD
HETATM   21  O   UNL     1     -43.977 -47.697  10.506  1.00  0.00    -0.273 OA
ENDBRANCH  16  17
ENDBRANCH   1  16
TORSDOF 6
ENDMDL
MODEL 2
REMARK VINA RESULT:      -5.8      2.193      3.087
REMARK  6 active torsions:
REMARK  status: ('A' for Active; 'I' for Inactive)
REMARK       I    between atoms: N_2  and  C_3 
REMARK    1  A    between atoms: C_3  and  C_5 
REMARK    2  A    between atoms: C_5  and  C_6 
REMARK    3  A    between atoms: C_9  and  C_10 
REMARK    4  A    between atoms: C_10  and  S_11 
REMARK    5  A    between atoms: S_11  and  C_12 
REMARK    6  A    between atoms: C_12  and  C_13 
ROOT
HETATM    1  C   UNL     1     -42.276 -47.265  10.133  1.00  0.00     0.059 A 
HETATM    2  N   UNL     1     -42.242 -48.563  10.373  1.00  0.00    -0.356 N 
ATOM      3  HN  UNL     1     -42.925 -49.235  10.025  1.00  0.00     0.166 HD
HETATM    4  C   UNL     1     -41.142 -48.890  11.167  1.00  0.00     0.025 A 
HETATM    5  C   UNL     1     -40.356 -47.803  11.503  1.00  0.00     0.077 A 
HETATM    6  S   UNL     1     -41.017 -46.357  10.866  1.00  0.00    -0.086 SA
ENDROOT
BRANCH   4   7
HETATM    7  C   UNL     1     -40.910 -50.336  11.478  1.00  0.00     0.131 C 
BRANCH   7   8
HETATM    8  S   UNL     1     -40.957 -50.806  13.234  1.00  0.00    -0.163 SA
BRANCH   8   9
HETATM    9  C   UNL     1     -42.624 -51.560  13.360  1.00  0.00     0.078 C 
BRANCH   9  10
HETATM   10  C   UNL     1     -42.706 -52.919  12.617  1.00  0.00    -0.005 C 
HETATM   11  C   UNL     1     -44.171 -53.364  12.414  1.00  0.00     0.005 C 
HETATM   12  C   UNL     1     -44.840 -53.881  13.691  1.00  0.00     0.000 C 
HETATM   13  C   UNL     1     -44.004 -54.935  14.413  1.00  0.00     0.000 C 
HETATM   14  C   UNL     1     -42.561 -54.490  14.613  1.00  0.00     0.000 C 
HETATM   15  C   UNL     1     -41.935 -54.074  13.285  1.00  0.00     0.005 C 
ENDBRANCH   9  10
ENDBRANCH   8   9
ENDBRANCH   7   8
ENDBRANCH   4   7
BRANCH   1  16
HETATM   16  C   UNL     1     -43.315 -46.590   9.295  1.00  0.00     0.167 C 
BRANCH  16  17
HETATM   17  C   UNL     1     -44.123 -47.590   8.487  1.00  0.00     0.223 C 
HETATM   18  N   UNL     1     -45.422 -47.810   8.894  1.00  0.00    -0.365 N 
HETATM   19  C   UNL     1     -46.296 -48.706   8.191  1.00  0.00     0.149 C 
HETATM   20  H   UNL     1     -45.742 -47.361   9.751  1.00  0.00     0.161 HD
HETATM   21  O   UNL     1     -43.661 -48.101   7.466  1.00  0.00    -0.273 OA
ENDBRANCH  16  17
ENDBRANCH   1  16
TORSDOF 6
ENDMDL
MODEL 3
REMARK VINA RESULT:      -5.7      1.746      2.670
REMARK  6 active torsions:
REMARK  status: ('A' for Active; 'I' for Inactive)
REMARK       I    between atoms: N_2  and  C_3 
REMARK    1  A    between atoms: C_3  and  C_5 
REMARK    2  A    between atoms: C_5  and  C_6 
REMARK    3  A    between atoms: C_9  and  C_10 
REMARK    4  A    between atoms: C_10  and  S_11 
REMARK    5  A    between atoms: S_11  and  C_12 
REMARK    6  A    between atoms: C_12  and  C_13 
ROOT
HETATM    1  C   UNL     1     -42.573 -47.265   9.742  1.00  0.00     0.059 A 
HETATM    2  N   UNL     1     -42.421 -48.500  10.183  1.00  0.00    -0.356 N 
ATOM      3  HN  UNL     1     -42.941 -49.307   9.838  1.00  0.00     0.166 HD
HETATM    4  C   UNL     1     -41.452 -48.552  11.184  1.00  0.00     0.025 A 
HETATM    5  C   UNL     1     -40.881 -47.324  11.470  1.00  0.00     0.077 A 
HETATM    6  S   UNL     1     -41.591 -46.089  10.518  1.00  0.00    -0.086 SA
ENDROOT
BRANCH   4   7
HETATM    7  C   UNL     1     -41.101 -49.893  11.750  1.00  0.00     0.131 C 
BRANCH   7   8
HETATM    8  S   UNL     1     -41.540 -50.179  13.491  1.00  0.00    -0.163 SA
BRANCH   8   9
HETATM    9  C   UNL     1     -43.370 -50.116  13.416  1.00  0.00     0.078 C 
BRANCH   9  10
HETATM   10  C   UNL     1     -44.028 -51.211  14.295  1.00  0.00    -0.005 C 
HETATM   11  C   UNL     1     -43.588 -52.626  13.860  1.00  0.00     0.005 C 
HETATM   12  C   UNL     1     -44.245 -53.101  12.560  1.00  0.00     0.000 C 
HETATM   13  C   UNL     1     -45.763 -52.938  12.568  1.00  0.00     0.000 C 
HETATM   14  C   UNL     1     -46.191 -51.539  12.997  1.00  0.00     0.000 C 
HETATM   15  C   UNL     1     -45.568 -51.172  14.340  1.00  0.00     0.005 C 
ENDBRANCH   9  10
ENDBRANCH   8   9
ENDBRANCH   7   8
ENDBRANCH   4   7
BRANCH   1  16
HETATM   16  C   UNL     1     -43.520 -46.869   8.653  1.00  0.00     0.167 C 
BRANCH  16  17
HETATM   17  C   UNL     1     -44.867 -47.553   8.803  1.00  0.00     0.223 C 
HETATM   18  N   UNL     1     -45.294 -48.320   7.740  1.00  0.00    -0.365 N 
HETATM   19  C   UNL     1     -46.533 -49.043   7.774  1.00  0.00     0.149 C 
HETATM   20  H   UNL     1     -44.731 -48.323   6.889  1.00  0.00     0.161 HD
HETATM   21  O   UNL     1     -45.494 -47.494   9.861  1.00  0.00    -0.273 OA
ENDBRANCH  16  17
ENDBRANCH   1  16
TORSDOF 6
ENDMDL
MODEL 4
REMARK VINA RESULT:      -5.6      2.097      2.594
REMARK  6 active torsions:
REMARK  status: ('A' for Active; 'I' for Inactive)
REMARK       I    between atoms: N_2  and  C_3 
REMARK    1  A    between atoms: C_3  and  C_5 
REMARK    2  A    between atoms: C_5  and  C_6 
REMARK    3  A    between atoms: C_9  and  C_10 
REMARK    4  A    between atoms: C_10  and  S_11 
REMARK    5  A    between atoms: S_11  and  C_12 
REMARK    6  A    between atoms: C_12  and  C_13 
ROOT
HETATM    1  C   UNL     1     -42.778 -48.025  11.052  1.00  0.00     0.059 A 
HETATM    2  N   UNL     1     -42.802 -49.249  11.547  1.00  0.00    -0.356 N 
ATOM      3  HN  UNL     1     -42.867 -50.099  10.987  1.00  0.00     0.166 HD
HETATM    4  C   UNL     1     -42.727 -49.222  12.939  1.00  0.00     0.025 A 
HETATM    5  C   UNL     1     -42.636 -47.945  13.466  1.00  0.00     0.077 A 
HETATM    6  S   UNL     1     -42.695 -46.770  12.221  1.00  0.00    -0.086 SA
ENDROOT
BRANCH   4   7
HETATM    7  C   UNL     1     -42.671 -50.531  13.663  1.00  0.00     0.131 C 
BRANCH   7   8
HETATM    8  S   UNL     1     -42.450 -52.016  12.638  1.00  0.00    -0.163 SA
BRANCH   8   9
HETATM    9  C   UNL     1     -43.322 -53.279  13.640  1.00  0.00     0.078 C 
BRANCH   9  10
HETATM   10  C   UNL     1     -44.600 -53.804  12.934  1.00  0.00    -0.005 C 
HETATM   11  C   UNL     1     -45.566 -52.650  12.584  1.00  0.00     0.005 C 
HETATM   12  C   UNL     1     -46.316 -52.088  13.795  1.00  0.00     0.000 C 
HETATM   13  C   UNL     1     -46.983 -53.174  14.636  1.00  0.00     0.000 C 
HETATM   14  C   UNL     1     -46.024 -54.307  14.981  1.00  0.00     0.000 C 
HETATM   15  C   UNL     1     -45.383 -54.874  13.718  1.00  0.00     0.005 C 
ENDBRANCH   9  10
ENDBRANCH   8   9
ENDBRANCH   7   8
ENDBRANCH   4   7
BRANCH   1  16
HETATM   16  C   UNL     1     -42.822 -47.705   9.591  1.00  0.00     0.167 C 
BRANCH  16  17
HETATM   17  C   UNL     1     -44.169 -47.137   9.180  1.00  0.00     0.223 C 
HETATM   18  N   UNL     1     -45.268 -47.946   9.377  1.00  0.00    -0.365 N 
HETATM   19  C   UNL     1     -46.598 -47.510   9.060  1.00  0.00     0.149 C 
HETATM   20  H   UNL     1     -45.114 -48.899   9.705  1.00  0.00     0.161 HD
HETATM   21  O   UNL     1     -44.273 -45.977   8.781  1.00  0.00    -0.273 OA
ENDBRANCH  16  17
ENDBRANCH   1  16
TORSDOF 6
ENDMDL
MODEL 5
REMARK VINA RESULT:      -5.6      0.986      1.651
REMARK  6 active torsions:
REMARK  status: ('A' for Active; 'I' for Inactive)
REMARK       I    between atoms: N_2  and  C_3 
REMARK    1  A    between atoms: C_3  and  C_5 
REMARK    2  A    between atoms: C_5  and  C_6 
REMARK    3  A    between atoms: C_9  and  C_10 
REMARK    4  A    between atoms: C_10  and  S_11 
REMARK    5  A    between atoms: S_11  and  C_12 
REMARK    6  A    between atoms: C_12  and  C_13 
ROOT
HETATM    1  C   UNL     1     -40.976 -49.016  11.472  1.00  0.00     0.059 A 
HETATM    2  N   UNL     1     -41.720 -50.102  11.370  1.00  0.00    -0.356 N 
ATOM      3  HN  UNL     1     -42.581 -50.165  10.828  1.00  0.00     0.166 HD
HETATM    4  C   UNL     1     -41.167 -51.151  12.105  1.00  0.00     0.025 A 
HETATM    5  C   UNL     1     -39.989 -50.819  12.748  1.00  0.00     0.077 A 
HETATM    6  S   UNL     1     -39.591 -49.175  12.475  1.00  0.00    -0.086 SA
ENDROOT
BRANCH   4   7
HETATM    7  C   UNL     1     -41.848 -52.483  12.043  1.00  0.00     0.131 C 
BRANCH   7   8
HETATM    8  S   UNL     1     -41.938 -53.422  13.597  1.00  0.00    -0.163 SA
BRANCH   8   9
HETATM    9  C   UNL     1     -43.203 -52.470  14.520  1.00  0.00     0.078 C 
BRANCH   9  10
HETATM   10  C   UNL     1     -44.535 -53.253  14.661  1.00  0.00    -0.005 C 
HETATM   11  C   UNL     1     -45.080 -53.692  13.284  1.00  0.00     0.005 C 
HETATM   12  C   UNL     1     -45.696 -52.547  12.473  1.00  0.00     0.000 C 
HETATM   13  C   UNL     1     -46.711 -51.733  13.272  1.00  0.00     0.000 C 
HETATM   14  C   UNL     1     -46.166 -51.302  14.628  1.00  0.00     0.000 C 
HETATM   15  C   UNL     1     -45.653 -52.506  15.412  1.00  0.00     0.005 C 
ENDBRANCH   9  10
ENDBRANCH   8   9
ENDBRANCH   7   8
ENDBRANCH   4   7
BRANCH   1  16
HETATM   16  C   UNL     1     -41.277 -47.720  10.788  1.00  0.00     0.167 C 
BRANCH  16  17
HETATM   17  C   UNL     1     -42.640 -47.740  10.120  1.00  0.00     0.223 C 
HETATM   18  N   UNL     1     -42.654 -47.824   8.744  1.00  0.00    -0.365 N 
HETATM   19  C   UNL     1     -43.879 -47.885   7.999  1.00  0.00     0.149 C 
HETATM   20  H   UNL     1     -41.763 -47.785   8.249  1.00  0.00     0.161 HD
HETATM   21  O   UNL     1     -43.674 -47.775  10.788  1.00  0.00    -0.273 OA
ENDBRANCH  16  17
ENDBRANCH   1  16
TORSDOF 6
ENDMDL
MODEL 6
REMARK VINA RESULT:      -5.3      1.577      2.134
REMARK  6 active torsions:
REMARK  status: ('A' for Active; 'I' for Inactive)
REMARK       I    between atoms: N_2  and  C_3 
REMARK    1  A    between atoms: C_3  and  C_5 
REMARK    2  A    between atoms: C_5  and  C_6 
REMARK    3  A    between atoms: C_9  and  C_10 
REMARK    4  A    between atoms: C_10  and  S_11 
REMARK    5  A    between atoms: S_11  and  C_12 
REMARK    6  A    between atoms: C_12  and  C_13 
ROOT
HETATM    1  C   UNL     1     -40.015 -50.756  12.096  1.00  0.00     0.059 A 
HETATM    2  N   UNL     1     -40.841 -51.778  11.967  1.00  0.00    -0.356 N 
ATOM      3  HN  UNL     1     -41.559 -51.856  11.247  1.00  0.00     0.166 HD
HETATM    4  C   UNL     1     -40.598 -52.737  12.951  1.00  0.00     0.025 A 
HETATM    5  C   UNL     1     -39.564 -52.404  13.808  1.00  0.00     0.077 A 
HETATM    6  S   UNL     1     -38.922 -50.866  13.415  1.00  0.00    -0.086 SA
ENDROOT
BRANCH   4   7
HETATM    7  C   UNL     1     -41.402 -53.999  12.911  1.00  0.00     0.131 C 
BRANCH   7   8
HETATM    8  S   UNL     1     -42.292 -54.444  14.433  1.00  0.00    -0.163 SA
BRANCH   8   9
HETATM    9  C   UNL     1     -43.951 -53.740  14.099  1.00  0.00     0.078 C 
BRANCH   9  10
HETATM   10  C   UNL     1     -44.028 -52.232  14.455  1.00  0.00    -0.005 C 
HETATM   11  C   UNL     1     -44.879 -51.993  15.722  1.00  0.00     0.005 C 
HETATM   12  C   UNL     1     -46.386 -52.141  15.486  1.00  0.00     0.000 C 
HETATM   13  C   UNL     1     -46.881 -51.334  14.288  1.00  0.00     0.000 C 
HETATM   14  C   UNL     1     -46.038 -51.576  13.042  1.00  0.00     0.000 C 
HETATM   15  C   UNL     1     -44.561 -51.324  13.331  1.00  0.00     0.005 C 
ENDBRANCH   9  10
ENDBRANCH   8   9
ENDBRANCH   7   8
ENDBRANCH   4   7
BRANCH   1  16
HETATM   16  C   UNL     1     -39.997 -49.568  11.187  1.00  0.00     0.167 C 
BRANCH  16  17
HETATM   17  C   UNL     1     -41.364 -48.914  11.089  1.00  0.00     0.223 C 
HETATM   18  N   UNL     1     -41.686 -48.332   9.881  1.00  0.00    -0.365 N 
HETATM   19  C   UNL     1     -42.960 -47.712   9.653  1.00  0.00     0.149 C 
HETATM   20  H   UNL     1     -40.971 -48.298   9.155  1.00  0.00     0.161 HD
HETATM   21  O   UNL     1     -42.171 -48.989  12.015  1.00  0.00    -0.273 OA
ENDBRANCH  16  17
ENDBRANCH   1  16
TORSDOF 6
ENDMDL
MODEL 7
REMARK VINA RESULT:      -5.2      1.797      2.264
REMARK  6 active torsions:
REMARK  status: ('A' for Active; 'I' for Inactive)
REMARK       I    between atoms: N_2  and  C_3 
REMARK    1  A    between atoms: C_3  and  C_5 
REMARK    2  A    between atoms: C_5  and  C_6 
REMARK    3  A    between atoms: C_9  and  C_10 
REMARK    4  A    between atoms: C_10  and  S_11 
REMARK    5  A    between atoms: S_11  and  C_12 
REMARK    6  A    between atoms: C_12  and  C_13 
ROOT
HETATM    1  C   UNL     1     -39.723 -49.940  12.381  1.00  0.00     0.059 A 
HETATM    2  N   UNL     1     -40.423 -50.983  11.976  1.00  0.00    -0.356 N 
ATOM      3  HN  UNL     1     -41.031 -50.991  11.157  1.00  0.00     0.166 HD
HETATM    4  C   UNL     1     -40.219 -52.074  12.821  1.00  0.00     0.025 A 
HETATM    5  C   UNL     1     -39.341 -51.815  13.859  1.00  0.00     0.077 A 
HETATM    6  S   UNL     1     -38.805 -50.189  13.810  1.00  0.00    -0.086 SA
ENDROOT
BRANCH   4   7
HETATM    7  C   UNL     1     -40.885 -53.367  12.468  1.00  0.00     0.131 C 
BRANCH   7   8
HETATM    8  S   UNL     1     -42.312 -53.850  13.485  1.00  0.00    -0.163 SA
BRANCH   8   9
HETATM    9  C   UNL     1     -43.568 -52.627  12.946  1.00  0.00     0.078 C 
BRANCH   9  10
HETATM   10  C   UNL     1     -44.932 -53.294  12.630  1.00  0.00    -0.005 C 
HETATM   11  C   UNL     1     -46.042 -52.240  12.423  1.00  0.00     0.005 C 
HETATM   12  C   UNL     1     -46.522 -51.589  13.724  1.00  0.00     0.000 C 
HETATM   13  C   UNL     1     -46.879 -52.610  14.801  1.00  0.00     0.000 C 
HETATM   14  C   UNL     1     -45.779 -53.646  15.002  1.00  0.00     0.000 C 
HETATM   15  C   UNL     1     -45.417 -54.313  13.678  1.00  0.00     0.005 C 
ENDBRANCH   9  10
ENDBRANCH   8   9
ENDBRANCH   7   8
ENDBRANCH   4   7
BRANCH   1  16
HETATM   16  C   UNL     1     -39.702 -48.616  11.682  1.00  0.00     0.167 C 
BRANCH  16  17
HETATM   17  C   UNL     1     -41.098 -48.168  11.284  1.00  0.00     0.223 C 
HETATM   18  N   UNL     1     -41.181 -47.191  10.315  1.00  0.00    -0.365 N 
HETATM   19  C   UNL     1     -42.443 -46.709   9.830  1.00  0.00     0.149 C 
HETATM   20  H   UNL     1     -40.316 -46.768   9.980  1.00  0.00     0.161 HD
HETATM   21  O   UNL     1     -42.097 -48.722  11.743  1.00  0.00    -0.273 OA
ENDBRANCH  16  17
ENDBRANCH   1  16
TORSDOF 6
ENDMDL
MODEL 8
REMARK VINA RESULT:      -5.2      2.621      4.862
REMARK  6 active torsions:
REMARK  status: ('A' for Active; 'I' for Inactive)
REMARK       I    between atoms: N_2  and  C_3 
REMARK    1  A    between atoms: C_3  and  C_5 
REMARK    2  A    between atoms: C_5  and  C_6 
REMARK    3  A    between atoms: C_9  and  C_10 
REMARK    4  A    between atoms: C_10  and  S_11 
REMARK    5  A    between atoms: S_11  and  C_12 
REMARK    6  A    between atoms: C_12  and  C_13 
ROOT
HETATM    1  C   UNL     1     -42.700 -48.022  11.459  1.00  0.00     0.059 A 
HETATM    2  N   UNL     1     -42.680 -49.342  11.438  1.00  0.00    -0.356 N 
ATOM      3  HN  UNL     1     -42.617 -49.907  10.592  1.00  0.00     0.166 HD
HETATM    4  C   UNL     1     -42.759 -49.857  12.732  1.00  0.00     0.025 A 
HETATM    5  C   UNL     1     -42.828 -48.886  13.714  1.00  0.00     0.077 A 
HETATM    6  S   UNL     1     -42.844 -47.320  13.019  1.00  0.00    -0.086 SA
ENDROOT
BRANCH   4   7
HETATM    7  C   UNL     1     -42.677 -51.343  12.898  1.00  0.00     0.131 C 
BRANCH   7   8
HETATM    8  S   UNL     1     -41.239 -52.166  12.150  1.00  0.00    -0.163 SA
BRANCH   8   9
HETATM    9  C   UNL     1     -39.875 -51.532  13.199  1.00  0.00     0.078 C 
BRANCH   9  10
HETATM   10  C   UNL     1     -38.775 -50.828  12.362  1.00  0.00    -0.005 C 
HETATM   11  C   UNL     1     -37.422 -50.812  13.107  1.00  0.00     0.005 C 
HETATM   12  C   UNL     1     -37.366 -49.802  14.257  1.00  0.00     0.000 C 
HETATM   13  C   UNL     1     -37.822 -48.405  13.843  1.00  0.00     0.000 C 
HETATM   14  C   UNL     1     -39.158 -48.428  13.111  1.00  0.00     0.000 C 
HETATM   15  C   UNL     1     -39.109 -49.389  11.927  1.00  0.00     0.005 C 
ENDBRANCH   9  10
ENDBRANCH   8   9
ENDBRANCH   7   8
ENDBRANCH   4   7
BRANCH   1  16
HETATM   16  C   UNL     1     -42.611 -47.158  10.240  1.00  0.00     0.167 C 
BRANCH  16  17
HETATM   17  C   UNL     1     -43.809 -47.349   9.326  1.00  0.00     0.223 C 
HETATM   18  N   UNL     1     -45.051 -47.106   9.874  1.00  0.00    -0.365 N 
HETATM   19  C   UNL     1     -46.256 -47.219   9.104  1.00  0.00     0.149 C 
HETATM   20  H   UNL     1     -45.106 -46.894  10.870  1.00  0.00     0.161 HD
HETATM   21  O   UNL     1     -43.661 -47.616   8.134  1.00  0.00    -0.273 OA
ENDBRANCH  16  17
ENDBRANCH   1  16
TORSDOF 6
ENDMDL
MODEL 9
REMARK VINA RESULT:      -5.0      4.948      6.421
REMARK  6 active torsions:
REMARK  status: ('A' for Active; 'I' for Inactive)
REMARK       I    between atoms: N_2  and  C_3 
REMARK    1  A    between atoms: C_3  and  C_5 
REMARK    2  A    between atoms: C_5  and  C_6 
REMARK    3  A    between atoms: C_9  and  C_10 
REMARK    4  A    between atoms: C_10  and  S_11 
REMARK    5  A    between atoms: S_11  and  C_12 
REMARK    6  A    between atoms: C_12  and  C_13 
ROOT
HETATM    1  C   UNL     1     -40.452 -53.895  13.966  1.00  0.00     0.059 A 
HETATM    2  N   UNL     1     -41.403 -54.528  14.627  1.00  0.00    -0.356 N 
ATOM      3  HN  UNL     1     -41.253 -55.083  15.469  1.00  0.00     0.166 HD
HETATM    4  C   UNL     1     -42.642 -54.333  14.016  1.00  0.00     0.025 A 
HETATM    5  C   UNL     1     -42.587 -53.532  12.890  1.00  0.00     0.077 A 
HETATM    6  S   UNL     1     -40.974 -53.057  12.561  1.00  0.00    -0.086 SA
ENDROOT
BRANCH   4   7
HETATM    7  C   UNL     1     -43.849 -54.925  14.677  1.00  0.00     0.131 C 
BRANCH   7   8
HETATM    8  S   UNL     1     -45.447 -54.626  13.865  1.00  0.00    -0.163 SA
BRANCH   8   9
HETATM    9  C   UNL     1     -46.369 -53.760  15.192  1.00  0.00     0.078 C 
BRANCH   9  10
HETATM   10  C   UNL     1     -46.776 -52.322  14.777  1.00  0.00    -0.005 C 
HETATM   11  C   UNL     1     -45.603 -51.574  14.106  1.00  0.00     0.005 C 
HETATM   12  C   UNL     1     -44.522 -51.117  15.089  1.00  0.00     0.000 C 
HETATM   13  C   UNL     1     -45.091 -50.358  16.286  1.00  0.00     0.000 C 
HETATM   14  C   UNL     1     -46.246 -51.102  16.945  1.00  0.00     0.000 C 
HETATM   15  C   UNL     1     -47.322 -51.446  15.921  1.00  0.00     0.005 C 
ENDBRANCH   9  10
ENDBRANCH   8   9
ENDBRANCH   7   8
ENDBRANCH   4   7
BRANCH   1  16
HETATM   16  C   UNL     1     -39.011 -53.882  14.369  1.00  0.00     0.167 C 
BRANCH  16  17
HETATM   17  C   UNL     1     -38.767 -54.719  15.613  1.00  0.00     0.223 C 
HETATM   18  N   UNL     1     -38.582 -54.033  16.794  1.00  0.00    -0.365 N 
HETATM   19  C   UNL     1     -38.377 -54.711  18.042  1.00  0.00     0.149 C 
HETATM   20  H   UNL     1     -38.536 -53.015  16.759  1.00  0.00     0.161 HD
HETATM   21  O   UNL     1     -38.828 -55.948  15.572  1.00  0.00    -0.273 OA
ENDBRANCH  16  17
ENDBRANCH   1  16
TORSDOF 6
ENDMDL
