MODEL 1
REMARK VINA RESULT:      -6.9      0.000      0.000
REMARK  7 active torsions:
REMARK  status: ('A' for Active; 'I' for Inactive)
REMARK    1  A    between atoms: C_7  and  O_8 
REMARK    2  A    between atoms: O_8  and  C_9 
REMARK    3  A    between atoms: C_9  and  C_10 
REMARK    4  A    between atoms: C_10  and  O_11 
REMARK    5  A    between atoms: C_10  and  C_12 
REMARK    6  A    between atoms: C_12  and  N_13 
REMARK    7  A    between atoms: C_17  and  C_21 
ROOT
HETATM    1  C   UNL     1     -41.156 -53.691  12.952  1.00  0.00     0.161 C 
ENDROOT
BRANCH   1   2
HETATM    2  C   UNL     1     -42.648 -54.071  12.911  1.00  0.00     0.209 C 
BRANCH   2   3
HETATM    3  O   UNL     1     -43.278 -53.703  14.140  1.00  0.00    -0.347 OA
BRANCH   3   4
HETATM    4  C   UNL     1     -44.427 -52.952  14.050  1.00  0.00     0.091 A 
HETATM    5  C   UNL     1     -44.883 -52.350  15.231  1.00  0.00     0.067 A 
HETATM    6  C   UNL     1     -46.048 -51.578  15.234  1.00  0.00     0.027 A 
HETATM    7 CL   UNL     1     -44.029 -52.528  16.725  1.00  0.00    -0.081 Cl
HETATM    8  C   UNL     1     -46.766 -51.386  14.053  1.00  0.00     0.008 A 
HETATM    9  C   UNL     1     -46.321 -51.964  12.861  1.00  0.00    -0.059 A 
HETATM   10  C   UNL     1     -47.070 -51.754  11.577  1.00  0.00     0.048 C 
HETATM   11  C   UNL     1     -45.159 -52.755  12.870  1.00  0.00     0.045 A 
ENDBRANCH   3   4
ENDBRANCH   2   3
ENDBRANCH   1   2
BRANCH   1  12
HETATM   12  O   UNL     1     -40.624 -53.526  11.628  1.00  0.00    -0.392 OA
HETATM   13  H   UNL     1     -39.757 -53.088  11.698  1.00  0.00     0.210 HD
ENDBRANCH   1  12
BRANCH   1  14
HETATM   14  C   UNL     1     -40.892 -52.378  13.716  1.00  0.00     0.166 C 
BRANCH  14  15
HETATM   15  N   UNL     1     -41.038 -51.181  12.903  1.00  0.00    -0.308 N 
HETATM   16  C   UNL     1     -42.260 -50.574  12.778  1.00  0.00     0.186 A 
HETATM   17  N   UNL     1     -42.505 -49.560  12.016  1.00  0.00    -0.355 N 
HETATM   18  C   UNL     1     -41.462 -49.073  11.269  1.00  0.00     0.019 A 
ATOM     19  HN  UNL     1     -43.433 -49.139  11.971  1.00  0.00     0.166 HD
HETATM   20  C   UNL     1     -40.220 -49.568  11.312  1.00  0.00     0.100 A 
HETATM   21  C   UNL     1     -39.949 -50.696  12.213  1.00  0.00     0.250 A 
HETATM   22  O   UNL     1     -38.820 -51.178  12.261  1.00  0.00    -0.268 OA
BRANCH  18  23
HETATM   23  C   UNL     1     -41.794 -47.981  10.308  1.00  0.00     0.036 C 
HETATM   24  C   UNL     1     -41.371 -46.524  10.646  1.00  0.00     0.011 C 
HETATM   25  C   UNL     1     -42.707 -46.066  10.029  1.00  0.00     0.001 C 
HETATM   26  C   UNL     1     -43.259 -47.463  10.370  1.00  0.00     0.011 C 
ENDBRANCH  18  23
ENDBRANCH  14  15
ENDBRANCH   1  14
TORSDOF 7
ENDMDL
MODEL 2
REMARK VINA RESULT:      -6.7      2.539      5.038
REMARK  7 active torsions:
REMARK  status: ('A' for Active; 'I' for Inactive)
REMARK    1  A    between atoms: C_7  and  O_8 
REMARK    2  A    between atoms: O_8  and  C_9 
REMARK    3  A    between atoms: C_9  and  C_10 
REMARK    4  A    between atoms: C_10  and  O_11 
REMARK    5  A    between atoms: C_10  and  C_12 
REMARK    6  A    between atoms: C_12  and  N_13 
REMARK    7  A    between atoms: C_17  and  C_21 
ROOT
HETATM    1  C   UNL     1     -40.557 -50.724  11.860  1.00  0.00     0.161 C 
ENDROOT
BRANCH   1   2
HETATM    2  C   UNL     1     -41.283 -52.065  11.652  1.00  0.00     0.209 C 
BRANCH   2   3
HETATM    3  O   UNL     1     -40.636 -53.091  12.409  1.00  0.00    -0.347 OA
BRANCH   3   4
HETATM    4  C   UNL     1     -41.402 -53.760  13.335  1.00  0.00     0.091 A 
HETATM    5  C   UNL     1     -40.752 -54.201  14.496  1.00  0.00     0.067 A 
HETATM    6  C   UNL     1     -41.451 -54.897  15.485  1.00  0.00     0.027 A 
HETATM    7 CL   UNL     1     -39.069 -53.899  14.758  1.00  0.00    -0.081 Cl
HETATM    8  C   UNL     1     -42.815 -55.152  15.332  1.00  0.00     0.008 A 
HETATM    9  C   UNL     1     -43.487 -54.709  14.191  1.00  0.00    -0.059 A 
HETATM   10  C   UNL     1     -44.958 -54.958  14.018  1.00  0.00     0.048 C 
HETATM   11  C   UNL     1     -42.773 -54.025  13.192  1.00  0.00     0.045 A 
ENDBRANCH   3   4
ENDBRANCH   2   3
ENDBRANCH   1   2
BRANCH   1  12
HETATM   12  O   UNL     1     -40.248 -50.099  10.603  1.00  0.00    -0.392 OA
HETATM   13  H   UNL     1     -39.533 -50.604  10.177  1.00  0.00     0.210 HD
ENDBRANCH   1  12
BRANCH   1  14
HETATM   14  C   UNL     1     -41.384 -49.714  12.681  1.00  0.00     0.166 C 
BRANCH  14  15
HETATM   15  N   UNL     1     -42.396 -50.327  13.525  1.00  0.00    -0.308 N 
HETATM   16  C   UNL     1     -43.686 -50.451  13.080  1.00  0.00     0.186 A 
HETATM   17  N   UNL     1     -44.669 -50.905  13.786  1.00  0.00    -0.355 N 
HETATM   18  C   UNL     1     -44.393 -51.272  15.078  1.00  0.00     0.019 A 
ATOM     19  HN  UNL     1     -45.608 -50.987  13.398  1.00  0.00     0.166 HD
HETATM   20  C   UNL     1     -43.174 -51.212  15.626  1.00  0.00     0.100 A 
HETATM   21  C   UNL     1     -42.060 -50.731  14.799  1.00  0.00     0.250 A 
HETATM   22  O   UNL     1     -40.933 -50.653  15.282  1.00  0.00    -0.268 OA
BRANCH  18  23
HETATM   23  C   UNL     1     -45.563 -51.679  15.910  1.00  0.00     0.036 C 
HETATM   24  C   UNL     1     -46.972 -51.729  15.257  1.00  0.00     0.011 C 
HETATM   25  C   UNL     1     -47.532 -51.183  16.585  1.00  0.00     0.001 C 
HETATM   26  C   UNL     1     -46.141 -50.569  16.834  1.00  0.00     0.011 C 
ENDBRANCH  18  23
ENDBRANCH  14  15
ENDBRANCH   1  14
TORSDOF 7
ENDMDL
MODEL 3
REMARK VINA RESULT:      -6.7      2.830      6.388
REMARK  7 active torsions:
REMARK  status: ('A' for Active; 'I' for Inactive)
REMARK    1  A    between atoms: C_7  and  O_8 
REMARK    2  A    between atoms: O_8  and  C_9 
REMARK    3  A    between atoms: C_9  and  C_10 
REMARK    4  A    between atoms: C_10  and  O_11 
REMARK    5  A    between atoms: C_10  and  C_12 
REMARK    6  A    between atoms: C_12  and  N_13 
REMARK    7  A    between atoms: C_17  and  C_21 
ROOT
HETATM    1  C   UNL     1     -40.731 -49.448  11.154  1.00  0.00     0.161 C 
ENDROOT
BRANCH   1   2
HETATM    2  C   UNL     1     -40.742 -47.909  11.109  1.00  0.00     0.209 C 
BRANCH   2   3
HETATM    3  O   UNL     1     -41.970 -47.414  11.649  1.00  0.00    -0.347 OA
BRANCH   3   4
HETATM    4  C   UNL     1     -42.915 -46.980  10.749  1.00  0.00     0.091 A 
HETATM    5  C   UNL     1     -42.766 -45.677  10.253  1.00  0.00     0.067 A 
HETATM    6  C   UNL     1     -43.687 -45.150   9.343  1.00  0.00     0.027 A 
HETATM    7 CL   UNL     1     -41.443 -44.673  10.735  1.00  0.00    -0.081 Cl
HETATM    8  C   UNL     1     -44.763 -45.924   8.907  1.00  0.00     0.008 A 
HETATM    9  C   UNL     1     -44.923 -47.231   9.376  1.00  0.00    -0.059 A 
HETATM   10  C   UNL     1     -46.064 -48.084   8.904  1.00  0.00     0.048 C 
HETATM   11  C   UNL     1     -44.003 -47.747  10.305  1.00  0.00     0.045 A 
ENDBRANCH   3   4
ENDBRANCH   2   3
ENDBRANCH   1   2
BRANCH   1  12
HETATM   12  O   UNL     1     -39.454 -49.972  10.759  1.00  0.00    -0.392 OA
HETATM   13  H   UNL     1     -39.432 -50.026   9.786  1.00  0.00     0.210 HD
ENDBRANCH   1  12
BRANCH   1  14
HETATM   14  C   UNL     1     -41.040 -50.009  12.557  1.00  0.00     0.166 C 
BRANCH  14  15
HETATM   15  N   UNL     1     -42.139 -50.961  12.584  1.00  0.00    -0.308 N 
HETATM   16  C   UNL     1     -43.399 -50.554  12.936  1.00  0.00     0.186 A 
HETATM   17  N   UNL     1     -44.417 -51.338  13.068  1.00  0.00    -0.355 N 
HETATM   18  C   UNL     1     -44.208 -52.677  12.852  1.00  0.00     0.019 A 
ATOM     19  HN  UNL     1     -45.337 -50.978  13.321  1.00  0.00     0.166 HD
HETATM   20  C   UNL     1     -43.030 -53.197  12.490  1.00  0.00     0.100 A 
HETATM   21  C   UNL     1     -41.891 -52.288  12.306  1.00  0.00     0.250 A 
HETATM   22  O   UNL     1     -40.795 -52.742  11.987  1.00  0.00    -0.268 OA
BRANCH  18  23
HETATM   23  C   UNL     1     -45.366 -53.577  13.126  1.00  0.00     0.036 C 
HETATM   24  C   UNL     1     -46.344 -53.218  14.279  1.00  0.00     0.011 C 
HETATM   25  C   UNL     1     -46.427 -54.726  14.586  1.00  0.00     0.001 C 
HETATM   26  C   UNL     1     -45.034 -54.859  13.942  1.00  0.00     0.011 C 
ENDBRANCH  18  23
ENDBRANCH  14  15
ENDBRANCH   1  14
TORSDOF 7
ENDMDL
MODEL 4
REMARK VINA RESULT:      -6.5      2.897      6.960
REMARK  7 active torsions:
REMARK  status: ('A' for Active; 'I' for Inactive)
REMARK    1  A    between atoms: C_7  and  O_8 
REMARK    2  A    between atoms: O_8  and  C_9 
REMARK    3  A    between atoms: C_9  and  C_10 
REMARK    4  A    between atoms: C_10  and  O_11 
REMARK    5  A    between atoms: C_10  and  C_12 
REMARK    6  A    between atoms: C_12  and  N_13 
REMARK    7  A    between atoms: C_17  and  C_21 
ROOT
HETATM    1  C   UNL     1     -40.923 -53.017  12.687  1.00  0.00     0.161 C 
ENDROOT
BRANCH   1   2
HETATM    2  C   UNL     1     -39.743 -52.452  13.499  1.00  0.00     0.209 C 
BRANCH   2   3
HETATM    3  O   UNL     1     -38.921 -51.638  12.660  1.00  0.00    -0.347 OA
BRANCH   3   4
HETATM    4  C   UNL     1     -38.692 -50.347  13.076  1.00  0.00     0.091 A 
HETATM    5  C   UNL     1     -39.422 -49.336  12.436  1.00  0.00     0.067 A 
HETATM    6  C   UNL     1     -39.244 -47.995  12.788  1.00  0.00     0.027 A 
HETATM    7 CL   UNL     1     -40.570 -49.699  11.195  1.00  0.00    -0.081 Cl
HETATM    8  C   UNL     1     -38.343 -47.648  13.796  1.00  0.00     0.008 A 
HETATM    9  C   UNL     1     -37.616 -48.641  14.459  1.00  0.00    -0.059 A 
HETATM   10  C   UNL     1     -36.656 -48.288  15.557  1.00  0.00     0.048 C 
HETATM   11  C   UNL     1     -37.787 -49.985  14.086  1.00  0.00     0.045 A 
ENDBRANCH   3   4
ENDBRANCH   2   3
ENDBRANCH   1   2
BRANCH   1  12
HETATM   12  O   UNL     1     -40.500 -53.447  11.384  1.00  0.00    -0.392 OA
HETATM   13  H   UNL     1     -40.364 -52.658  10.830  1.00  0.00     0.210 HD
ENDBRANCH   1  12
BRANCH   1  14
HETATM   14  C   UNL     1     -41.598 -54.225  13.370  1.00  0.00     0.166 C 
BRANCH  14  15
HETATM   15  N   UNL     1     -42.949 -53.960  13.838  1.00  0.00    -0.308 N 
HETATM   16  C   UNL     1     -43.639 -52.869  13.378  1.00  0.00     0.186 A 
HETATM   17  N   UNL     1     -44.807 -52.506  13.795  1.00  0.00    -0.355 N 
HETATM   18  C   UNL     1     -45.382 -53.267  14.781  1.00  0.00     0.019 A 
ATOM     19  HN  UNL     1     -45.280 -51.690  13.408  1.00  0.00     0.166 HD
HETATM   20  C   UNL     1     -44.818 -54.361  15.303  1.00  0.00     0.100 A 
HETATM   21  C   UNL     1     -43.507 -54.783  14.791  1.00  0.00     0.250 A 
HETATM   22  O   UNL     1     -42.961 -55.777  15.263  1.00  0.00    -0.268 OA
BRANCH  18  23
HETATM   23  C   UNL     1     -46.674 -52.762  15.332  1.00  0.00     0.036 C 
HETATM   24  C   UNL     1     -47.065 -51.277  15.096  1.00  0.00     0.011 C 
HETATM   25  C   UNL     1     -47.647 -51.275  16.523  1.00  0.00     0.001 C 
HETATM   26  C   UNL     1     -46.662 -52.413  16.847  1.00  0.00     0.011 C 
ENDBRANCH  18  23
ENDBRANCH  14  15
ENDBRANCH   1  14
TORSDOF 7
ENDMDL
MODEL 5
REMARK VINA RESULT:      -6.5      2.454      6.818
REMARK  7 active torsions:
REMARK  status: ('A' for Active; 'I' for Inactive)
REMARK    1  A    between atoms: C_7  and  O_8 
REMARK    2  A    between atoms: O_8  and  C_9 
REMARK    3  A    between atoms: C_9  and  C_10 
REMARK    4  A    between atoms: C_10  and  O_11 
REMARK    5  A    between atoms: C_10  and  C_12 
REMARK    6  A    between atoms: C_12  and  N_13 
REMARK    7  A    between atoms: C_17  and  C_21 
ROOT
HETATM    1  C   UNL     1     -39.536 -49.972  11.750  1.00  0.00     0.161 C 
ENDROOT
BRANCH   1   2
HETATM    2  C   UNL     1     -39.385 -48.681  12.576  1.00  0.00     0.209 C 
BRANCH   2   3
HETATM    3  O   UNL     1     -40.637 -47.993  12.637  1.00  0.00    -0.347 OA
BRANCH   3   4
HETATM    4  C   UNL     1     -40.692 -46.750  12.052  1.00  0.00     0.091 A 
HETATM    5  C   UNL     1     -41.671 -45.867  12.530  1.00  0.00     0.067 A 
HETATM    6  C   UNL     1     -41.806 -44.587  11.986  1.00  0.00     0.027 A 
HETATM    7 CL   UNL     1     -42.744 -46.317  13.811  1.00  0.00    -0.081 Cl
HETATM    8  C   UNL     1     -40.955 -44.167  10.963  1.00  0.00     0.008 A 
HETATM    9  C   UNL     1     -39.962 -45.024  10.481  1.00  0.00    -0.059 A 
HETATM   10  C   UNL     1     -39.026 -44.583   9.393  1.00  0.00     0.048 C 
HETATM   11  C   UNL     1     -39.845 -46.316  11.021  1.00  0.00     0.045 A 
ENDBRANCH   3   4
ENDBRANCH   2   3
ENDBRANCH   1   2
BRANCH   1  12
HETATM   12  O   UNL     1     -38.538 -50.049  10.719  1.00  0.00    -0.392 OA
HETATM   13  H   UNL     1     -38.965 -50.366   9.903  1.00  0.00     0.210 HD
ENDBRANCH   1  12
BRANCH   1  14
HETATM   14  C   UNL     1     -39.410 -51.250  12.604  1.00  0.00     0.166 C 
BRANCH  14  15
HETATM   15  N   UNL     1     -40.611 -52.070  12.619  1.00  0.00    -0.308 N 
HETATM   16  C   UNL     1     -41.816 -51.540  12.240  1.00  0.00     0.186 A 
HETATM   17  N   UNL     1     -42.947 -52.163  12.298  1.00  0.00    -0.355 N 
HETATM   18  C   UNL     1     -42.930 -53.443  12.791  1.00  0.00     0.019 A 
ATOM     19  HN  UNL     1     -43.813 -51.722  11.991  1.00  0.00     0.166 HD
HETATM   20  C   UNL     1     -41.819 -54.077  13.181  1.00  0.00     0.100 A 
HETATM   21  C   UNL     1     -40.536 -53.369  13.072  1.00  0.00     0.250 A 
HETATM   22  O   UNL     1     -39.502 -53.924  13.435  1.00  0.00    -0.268 OA
BRANCH  18  23
HETATM   23  C   UNL     1     -44.259 -54.099  12.962  1.00  0.00     0.036 C 
HETATM   24  C   UNL     1     -45.466 -53.246  13.441  1.00  0.00     0.011 C 
HETATM   25  C   UNL     1     -45.913 -54.467  14.268  1.00  0.00     0.001 C 
HETATM   26  C   UNL     1     -44.438 -54.908  14.278  1.00  0.00     0.011 C 
ENDBRANCH  18  23
ENDBRANCH  14  15
ENDBRANCH   1  14
TORSDOF 7
ENDMDL
MODEL 6
REMARK VINA RESULT:      -6.4      2.906      5.707
REMARK  7 active torsions:
REMARK  status: ('A' for Active; 'I' for Inactive)
REMARK    1  A    between atoms: C_7  and  O_8 
REMARK    2  A    between atoms: O_8  and  C_9 
REMARK    3  A    between atoms: C_9  and  C_10 
REMARK    4  A    between atoms: C_10  and  O_11 
REMARK    5  A    between atoms: C_10  and  C_12 
REMARK    6  A    between atoms: C_12  and  N_13 
REMARK    7  A    between atoms: C_17  and  C_21 
ROOT
HETATM    1  C   UNL     1     -39.577 -54.575  14.636  1.00  0.00     0.161 C 
ENDROOT
BRANCH   1   2
HETATM    2  C   UNL     1     -39.035 -53.165  14.336  1.00  0.00     0.209 C 
BRANCH   2   3
HETATM    3  O   UNL     1     -39.359 -52.795  12.994  1.00  0.00    -0.347 OA
BRANCH   3   4
HETATM    4  C   UNL     1     -39.937 -51.561  12.810  1.00  0.00     0.091 A 
HETATM    5  C   UNL     1     -39.089 -50.517  12.414  1.00  0.00     0.067 A 
HETATM    6  C   UNL     1     -39.590 -49.227  12.215  1.00  0.00     0.027 A 
HETATM    7 CL   UNL     1     -37.400 -50.776  12.151  1.00  0.00    -0.081 Cl
HETATM    8  C   UNL     1     -40.948 -48.967  12.397  1.00  0.00     0.008 A 
HETATM    9  C   UNL     1     -41.815 -49.995  12.775  1.00  0.00    -0.059 A 
HETATM   10  C   UNL     1     -43.283 -49.738  12.957  1.00  0.00     0.048 C 
HETATM   11  C   UNL     1     -41.301 -51.286  12.992  1.00  0.00     0.045 A 
ENDBRANCH   3   4
ENDBRANCH   2   3
ENDBRANCH   1   2
BRANCH   1  12
HETATM   12  O   UNL     1     -38.509 -55.493  14.921  1.00  0.00    -0.392 OA
HETATM   13  H   UNL     1     -37.707 -54.978  15.122  1.00  0.00     0.210 HD
ENDBRANCH   1  12
BRANCH   1  14
HETATM   14  C   UNL     1     -40.538 -54.605  15.842  1.00  0.00     0.166 C 
BRANCH  14  15
HETATM   15  N   UNL     1     -41.894 -54.185  15.527  1.00  0.00    -0.308 N 
HETATM   16  C   UNL     1     -42.680 -54.945  14.701  1.00  0.00     0.186 A 
HETATM   17  N   UNL     1     -43.862 -54.615  14.298  1.00  0.00    -0.355 N 
HETATM   18  C   UNL     1     -44.351 -53.405  14.722  1.00  0.00     0.019 A 
ATOM     19  HN  UNL     1     -44.408 -55.227  13.692  1.00  0.00     0.166 HD
HETATM   20  C   UNL     1     -43.689 -52.579  15.539  1.00  0.00     0.100 A 
HETATM   21  C   UNL     1     -42.362 -52.986  16.019  1.00  0.00     0.250 A 
HETATM   22  O   UNL     1     -41.728 -52.239  16.760  1.00  0.00    -0.268 OA
BRANCH  18  23
HETATM   23  C   UNL     1     -45.666 -52.990  14.150  1.00  0.00     0.036 C 
HETATM   24  C   UNL     1     -45.742 -52.589  12.651  1.00  0.00     0.011 C 
HETATM   25  C   UNL     1     -46.749 -51.498  13.066  1.00  0.00     0.001 C 
HETATM   26  C   UNL     1     -46.095 -51.528  14.460  1.00  0.00     0.011 C 
ENDBRANCH  18  23
ENDBRANCH  14  15
ENDBRANCH   1  14
TORSDOF 7
ENDMDL
MODEL 7
REMARK VINA RESULT:      -6.3      2.369      3.416
REMARK  7 active torsions:
REMARK  status: ('A' for Active; 'I' for Inactive)
REMARK    1  A    between atoms: C_7  and  O_8 
REMARK    2  A    between atoms: O_8  and  C_9 
REMARK    3  A    between atoms: C_9  and  C_10 
REMARK    4  A    between atoms: C_10  and  O_11 
REMARK    5  A    between atoms: C_10  and  C_12 
REMARK    6  A    between atoms: C_12  and  N_13 
REMARK    7  A    between atoms: C_17  and  C_21 
ROOT
HETATM    1  C   UNL     1     -41.084 -53.590  12.958  1.00  0.00     0.161 C 
ENDROOT
BRANCH   1   2
HETATM    2  C   UNL     1     -42.477 -53.766  13.590  1.00  0.00     0.209 C 
BRANCH   2   3
HETATM    3  O   UNL     1     -42.842 -52.581  14.301  1.00  0.00    -0.347 OA
BRANCH   3   4
HETATM    4  C   UNL     1     -44.159 -52.190  14.225  1.00  0.00     0.091 A 
HETATM    5  C   UNL     1     -44.774 -51.799  15.422  1.00  0.00     0.067 A 
HETATM    6  C   UNL     1     -46.113 -51.397  15.439  1.00  0.00     0.027 A 
HETATM    7 CL   UNL     1     -43.909 -51.788  16.920  1.00  0.00    -0.081 Cl
HETATM    8  C   UNL     1     -46.851 -51.370  14.256  1.00  0.00     0.008 A 
HETATM    9  C   UNL     1     -46.255 -51.741  13.048  1.00  0.00    -0.059 A 
HETATM   10  C   UNL     1     -47.029 -51.700  11.762  1.00  0.00     0.048 C 
HETATM   11  C   UNL     1     -44.913 -52.161  13.042  1.00  0.00     0.045 A 
ENDBRANCH   3   4
ENDBRANCH   2   3
ENDBRANCH   1   2
BRANCH   1  12
HETATM   12  O   UNL     1     -40.741 -54.714  12.132  1.00  0.00    -0.392 OA
HETATM   13  H   UNL     1     -39.811 -54.622  11.859  1.00  0.00     0.210 HD
ENDBRANCH   1  12
BRANCH   1  14
HETATM   14  C   UNL     1     -40.979 -52.327  12.079  1.00  0.00     0.166 C 
BRANCH  14  15
HETATM   15  N   UNL     1     -40.030 -51.342  12.571  1.00  0.00    -0.308 N 
HETATM   16  C   UNL     1     -39.346 -51.563  13.737  1.00  0.00     0.186 A 
HETATM   17  N   UNL     1     -38.548 -50.713  14.296  1.00  0.00    -0.355 N 
HETATM   18  C   UNL     1     -38.393 -49.499  13.676  1.00  0.00     0.019 A 
ATOM     19  HN  UNL     1     -38.054 -50.936  15.160  1.00  0.00     0.166 HD
HETATM   20  C   UNL     1     -38.995 -49.168  12.529  1.00  0.00     0.100 A 
HETATM   21  C   UNL     1     -39.868 -50.158  11.885  1.00  0.00     0.250 A 
HETATM   22  O   UNL     1     -40.443 -49.873  10.837  1.00  0.00    -0.268 OA
BRANCH  18  23
HETATM   23  C   UNL     1     -37.563 -48.492  14.400  1.00  0.00     0.036 C 
HETATM   24  C   UNL     1     -36.635 -48.967  15.551  1.00  0.00     0.011 C 
HETATM   25  C   UNL     1     -37.006 -47.668  16.293  1.00  0.00     0.001 C 
HETATM   26  C   UNL     1     -38.314 -47.664  15.481  1.00  0.00     0.011 C 
ENDBRANCH  18  23
ENDBRANCH  14  15
ENDBRANCH   1  14
TORSDOF 7
ENDMDL
MODEL 8
REMARK VINA RESULT:      -6.2      3.398      7.237
REMARK  7 active torsions:
REMARK  status: ('A' for Active; 'I' for Inactive)
REMARK    1  A    between atoms: C_7  and  O_8 
REMARK    2  A    between atoms: O_8  and  C_9 
REMARK    3  A    between atoms: C_9  and  C_10 
REMARK    4  A    between atoms: C_10  and  O_11 
REMARK    5  A    between atoms: C_10  and  C_12 
REMARK    6  A    between atoms: C_12  and  N_13 
REMARK    7  A    between atoms: C_17  and  C_21 
ROOT
HETATM    1  C   UNL     1     -39.225 -49.842  11.666  1.00  0.00     0.161 C 
ENDROOT
BRANCH   1   2
HETATM    2  C   UNL     1     -38.965 -48.520  12.412  1.00  0.00     0.209 C 
BRANCH   2   3
HETATM    3  O   UNL     1     -39.748 -47.473  11.835  1.00  0.00    -0.347 OA
BRANCH   3   4
HETATM    4  C   UNL     1     -39.791 -46.279  12.517  1.00  0.00     0.091 A 
HETATM    5  C   UNL     1     -39.723 -45.108  11.749  1.00  0.00     0.067 A 
HETATM    6  C   UNL     1     -39.749 -43.851  12.360  1.00  0.00     0.027 A 
HETATM    7 CL   UNL     1     -39.611 -45.165  10.024  1.00  0.00    -0.081 Cl
HETATM    8  C   UNL     1     -39.856 -43.748  13.747  1.00  0.00     0.008 A 
HETATM    9  C   UNL     1     -39.940 -44.901  14.532  1.00  0.00    -0.059 A 
HETATM   10  C   UNL     1     -40.074 -44.809  16.024  1.00  0.00     0.048 C 
HETATM   11  C   UNL     1     -39.895 -46.162  13.911  1.00  0.00     0.045 A 
ENDBRANCH   3   4
ENDBRANCH   2   3
ENDBRANCH   1   2
BRANCH   1  12
HETATM   12  O   UNL     1     -38.255 -50.054  10.628  1.00  0.00    -0.392 OA
HETATM   13  H   UNL     1     -38.717 -50.401   9.844  1.00  0.00     0.210 HD
ENDBRANCH   1  12
BRANCH   1  14
HETATM   14  C   UNL     1     -39.178 -51.074  12.593  1.00  0.00     0.166 C 
BRANCH  14  15
HETATM   15  N   UNL     1     -40.384 -51.886  12.558  1.00  0.00    -0.308 N 
HETATM   16  C   UNL     1     -41.554 -51.366  12.071  1.00  0.00     0.186 A 
HETATM   17  N   UNL     1     -42.692 -51.979  12.076  1.00  0.00    -0.355 N 
HETATM   18  C   UNL     1     -42.721 -53.237  12.623  1.00  0.00     0.019 A 
ATOM     19  HN  UNL     1     -43.531 -51.547  11.689  1.00  0.00     0.166 HD
HETATM   20  C   UNL     1     -41.646 -53.859  13.118  1.00  0.00     0.100 A 
HETATM   21  C   UNL     1     -40.353 -53.164  13.070  1.00  0.00     0.250 A 
HETATM   22  O   UNL     1     -39.352 -53.709  13.530  1.00  0.00    -0.268 OA
BRANCH  18  23
HETATM   23  C   UNL     1     -44.065 -53.877  12.726  1.00  0.00     0.036 C 
HETATM   24  C   UNL     1     -45.280 -53.014  13.164  1.00  0.00     0.011 C 
HETATM   25  C   UNL     1     -45.779 -54.240  13.953  1.00  0.00     0.001 C 
HETATM   26  C   UNL     1     -44.312 -54.701  14.022  1.00  0.00     0.011 C 
ENDBRANCH  18  23
ENDBRANCH  14  15
ENDBRANCH   1  14
TORSDOF 7
ENDMDL
MODEL 9
REMARK VINA RESULT:      -6.1      2.831      6.480
REMARK  7 active torsions:
REMARK  status: ('A' for Active; 'I' for Inactive)
REMARK    1  A    between atoms: C_7  and  O_8 
REMARK    2  A    between atoms: O_8  and  C_9 
REMARK    3  A    between atoms: C_9  and  C_10 
REMARK    4  A    between atoms: C_10  and  O_11 
REMARK    5  A    between atoms: C_10  and  C_12 
REMARK    6  A    between atoms: C_12  and  N_13 
REMARK    7  A    between atoms: C_17  and  C_21 
ROOT
HETATM    1  C   UNL     1     -38.360 -50.671  12.433  1.00  0.00     0.161 C 
ENDROOT
BRANCH   1   2
HETATM    2  C   UNL     1     -37.996 -49.250  12.902  1.00  0.00     0.209 C 
BRANCH   2   3
HETATM    3  O   UNL     1     -39.150 -48.607  13.448  1.00  0.00    -0.347 OA
BRANCH   3   4
HETATM    4  C   UNL     1     -39.857 -47.779  12.608  1.00  0.00     0.091 A 
HETATM    5  C   UNL     1     -39.624 -46.402  12.731  1.00  0.00     0.067 A 
HETATM    6  C   UNL     1     -40.307 -45.488  11.925  1.00  0.00     0.027 A 
HETATM    7 CL   UNL     1     -38.484 -45.778  13.872  1.00  0.00    -0.081 Cl
HETATM    8  C   UNL     1     -41.224 -45.938  10.975  1.00  0.00     0.008 A 
HETATM    9  C   UNL     1     -41.462 -47.307  10.824  1.00  0.00    -0.059 A 
HETATM   10  C   UNL     1     -42.432 -47.811   9.795  1.00  0.00     0.048 C 
HETATM   11  C   UNL     1     -40.785 -48.220  11.651  1.00  0.00     0.045 A 
ENDBRANCH   3   4
ENDBRANCH   2   3
ENDBRANCH   1   2
BRANCH   1  12
HETATM   12  O   UNL     1     -37.331 -51.222  11.596  1.00  0.00    -0.392 OA
HETATM   13  H   UNL     1     -37.754 -51.778  10.917  1.00  0.00     0.210 HD
ENDBRANCH   1  12
BRANCH   1  14
HETATM   14  C   UNL     1     -38.572 -51.654  13.603  1.00  0.00     0.166 C 
BRANCH  14  15
HETATM   15  N   UNL     1     -39.903 -52.237  13.650  1.00  0.00    -0.308 N 
HETATM   16  C   UNL     1     -41.008 -51.432  13.744  1.00  0.00     0.186 A 
HETATM   17  N   UNL     1     -42.221 -51.858  13.875  1.00  0.00    -0.355 N 
HETATM   18  C   UNL     1     -42.404 -53.216  13.939  1.00  0.00     0.019 A 
ATOM     19  HN  UNL     1     -43.009 -51.212  13.928  1.00  0.00     0.166 HD
HETATM   20  C   UNL     1     -41.410 -54.106  13.845  1.00  0.00     0.100 A 
HETATM   21  C   UNL     1     -40.041 -53.608  13.657  1.00  0.00     0.250 A 
HETATM   22  O   UNL     1     -39.109 -54.404  13.582  1.00  0.00    -0.268 OA
BRANCH  18  23
HETATM   23  C   UNL     1     -43.796 -53.681  14.210  1.00  0.00     0.036 C 
HETATM   24  C   UNL     1     -44.029 -55.157  14.633  1.00  0.00     0.011 C 
HETATM   25  C   UNL     1     -45.310 -55.128  13.777  1.00  0.00     0.001 C 
HETATM   26  C   UNL     1     -44.643 -54.014  12.949  1.00  0.00     0.011 C 
ENDBRANCH  18  23
ENDBRANCH  14  15
ENDBRANCH   1  14
TORSDOF 7
ENDMDL
