MODEL 1
REMARK VINA RESULT:      -5.4      0.000      0.000
REMARK  4 active torsions:
REMARK  status: ('A' for Active; 'I' for Inactive)
REMARK    1  A    between atoms: C_2  and  N_4 
REMARK    2  A    between atoms: C_6  and  C_10 
REMARK    3  A    between atoms: C_14  and  C_15 
REMARK    4  A    between atoms: C_15  and  O_16 
ROOT
HETATM    1  N   UNL     1     -45.649 -53.245  13.846  1.00  0.00    -0.299 N 
HETATM    2  C   UNL     1     -44.327 -52.905  13.887  1.00  0.00     0.119 A 
HETATM    3  C   UNL     1     -43.615 -54.086  13.926  1.00  0.00    -0.018 A 
HETATM    4  C   UNL     1     -44.619 -55.083  13.930  1.00  0.00     0.116 A 
HETATM    5  N   UNL     1     -45.851 -54.576  13.887  1.00  0.00    -0.309 N 
ATOM      6  HN  UNL     1     -46.739 -55.078  13.886  1.00  0.00     0.186 HD
ENDROOT
BRANCH   3   7
HETATM    7  C   UNL     1     -42.137 -54.293  13.939  1.00  0.00     0.057 C 
HETATM    8  C   UNL     1     -41.573 -54.747  15.294  1.00  0.00     0.279 C 
HETATM    9  N   UNL     1     -40.283 -54.060  15.476  1.00  0.00     0.084 N 
HETATM   10  C   UNL     1     -39.963 -53.409  14.201  1.00  0.00     0.277 C 
HETATM   11  H   UNL     1     -39.555 -54.731  15.720  1.00  0.00     0.315 HD
HETATM   12  C   UNL     1     -41.323 -53.031  13.634  1.00  0.00     0.047 C 
BRANCH  12  13
HETATM   13  C   UNL     1     -41.288 -52.646  12.160  1.00  0.00     0.171 C 
BRANCH  13  14
HETATM   14  O   UNL     1     -40.521 -53.574  11.405  1.00  0.00    -0.400 OA
HETATM   15  H   UNL     1     -41.153 -54.161  10.950  1.00  0.00     0.209 HD
ENDBRANCH  13  14
ENDBRANCH  12  13
ENDBRANCH   3   7
BRANCH   1  16
HETATM   16  C   UNL     1     -46.774 -52.326  13.715  1.00  0.00     0.099 C 
HETATM   17  C   UNL     1     -46.866 -51.384  14.915  1.00  0.00     0.034 C 
HETATM   18  C   UNL     1     -46.720 -51.554  12.399  1.00  0.00     0.034 C 
ENDBRANCH   1  16
TORSDOF 4
ENDMDL
MODEL 2
REMARK VINA RESULT:      -5.4      5.147      6.371
REMARK  4 active torsions:
REMARK  status: ('A' for Active; 'I' for Inactive)
REMARK    1  A    between atoms: C_2  and  N_4 
REMARK    2  A    between atoms: C_6  and  C_10 
REMARK    3  A    between atoms: C_14  and  C_15 
REMARK    4  A    between atoms: C_15  and  O_16 
ROOT
HETATM    1  N   UNL     1     -43.380 -47.437   9.967  1.00  0.00    -0.299 N 
HETATM    2  C   UNL     1     -42.186 -48.096  10.042  1.00  0.00     0.119 A 
HETATM    3  C   UNL     1     -41.865 -48.182  11.382  1.00  0.00    -0.018 A 
HETATM    4  C   UNL     1     -42.933 -47.515  12.027  1.00  0.00     0.116 A 
HETATM    5  N   UNL     1     -43.849 -47.059  11.171  1.00  0.00    -0.309 N 
ATOM      6  HN  UNL     1     -44.704 -46.543  11.380  1.00  0.00     0.186 HD
ENDROOT
BRANCH   3   7
HETATM    7  C   UNL     1     -40.689 -48.836  12.027  1.00  0.00     0.057 C 
HETATM    8  C   UNL     1     -39.362 -48.087  11.834  1.00  0.00     0.279 C 
HETATM    9  N   UNL     1     -38.317 -49.105  11.634  1.00  0.00     0.084 N 
HETATM   10  C   UNL     1     -38.928 -50.407  11.926  1.00  0.00     0.277 C 
HETATM   11  H   UNL     1     -37.533 -48.936  12.264  1.00  0.00     0.315 HD
HETATM   12  C   UNL     1     -40.374 -50.236  11.486  1.00  0.00     0.047 C 
BRANCH  12  13
HETATM   13  C   UNL     1     -41.304 -51.331  11.996  1.00  0.00     0.171 C 
BRANCH  13  14
HETATM   14  O   UNL     1     -41.287 -52.460  11.133  1.00  0.00    -0.400 OA
HETATM   15  H   UNL     1     -40.801 -53.165  11.596  1.00  0.00     0.209 HD
ENDBRANCH  13  14
ENDBRANCH  12  13
ENDBRANCH   3   7
BRANCH   1  16
HETATM   16  C   UNL     1     -44.152 -47.184   8.755  1.00  0.00     0.099 C 
HETATM   17  C   UNL     1     -43.575 -47.941   7.559  1.00  0.00     0.034 C 
HETATM   18  C   UNL     1     -45.633 -47.496   8.956  1.00  0.00     0.034 C 
ENDBRANCH   1  16
TORSDOF 4
ENDMDL
MODEL 3
REMARK VINA RESULT:      -4.9      1.324      1.908
REMARK  4 active torsions:
REMARK  status: ('A' for Active; 'I' for Inactive)
REMARK    1  A    between atoms: C_2  and  N_4 
REMARK    2  A    between atoms: C_6  and  C_10 
REMARK    3  A    between atoms: C_14  and  C_15 
REMARK    4  A    between atoms: C_15  and  O_16 
ROOT
HETATM    1  N   UNL     1     -44.840 -51.873  14.822  1.00  0.00    -0.299 N 
HETATM    2  C   UNL     1     -44.099 -52.676  14.002  1.00  0.00     0.119 A 
HETATM    3  C   UNL     1     -42.954 -53.005  14.699  1.00  0.00    -0.018 A 
HETATM    4  C   UNL     1     -43.101 -52.319  15.929  1.00  0.00     0.116 A 
HETATM    5  N   UNL     1     -44.240 -51.629  16.002  1.00  0.00    -0.309 N 
ATOM      6  HN  UNL     1     -44.577 -51.051  16.773  1.00  0.00     0.186 HD
ENDROOT
BRANCH   3   7
HETATM    7  C   UNL     1     -41.824 -53.888  14.288  1.00  0.00     0.057 C 
HETATM    8  C   UNL     1     -41.302 -54.808  15.401  1.00  0.00     0.279 C 
HETATM    9  N   UNL     1     -39.837 -54.869  15.260  1.00  0.00     0.084 N 
HETATM   10  C   UNL     1     -39.504 -54.216  13.988  1.00  0.00     0.277 C 
HETATM   11  H   UNL     1     -39.521 -55.838  15.249  1.00  0.00     0.315 HD
HETATM   12  C   UNL     1     -40.565 -53.134  13.847  1.00  0.00     0.047 C 
BRANCH  12  13
HETATM   13  C   UNL     1     -40.647 -52.535  12.448  1.00  0.00     0.171 C 
BRANCH  13  14
HETATM   14  O   UNL     1     -40.578 -53.547  11.452  1.00  0.00    -0.400 OA
HETATM   15  H   UNL     1     -41.482 -53.672  11.110  1.00  0.00     0.209 HD
ENDBRANCH  13  14
ENDBRANCH  12  13
ENDBRANCH   3   7
BRANCH   1  16
HETATM   16  C   UNL     1     -46.171 -51.346  14.542  1.00  0.00     0.099 C 
HETATM   17  C   UNL     1     -46.593 -51.638  13.102  1.00  0.00     0.034 C 
HETATM   18  C   UNL     1     -47.202 -51.858  15.544  1.00  0.00     0.034 C 
ENDBRANCH   1  16
TORSDOF 4
ENDMDL
MODEL 4
REMARK VINA RESULT:      -4.9      2.803      3.381
REMARK  4 active torsions:
REMARK  status: ('A' for Active; 'I' for Inactive)
REMARK    1  A    between atoms: C_2  and  N_4 
REMARK    2  A    between atoms: C_6  and  C_10 
REMARK    3  A    between atoms: C_14  and  C_15 
REMARK    4  A    between atoms: C_15  and  O_16 
ROOT
HETATM    1  N   UNL     1     -44.518 -52.168  12.879  1.00  0.00    -0.299 N 
HETATM    2  C   UNL     1     -43.703 -51.167  13.325  1.00  0.00     0.119 A 
HETATM    3  C   UNL     1     -42.444 -51.427  12.822  1.00  0.00    -0.018 A 
HETATM    4  C   UNL     1     -42.613 -52.633  12.101  1.00  0.00     0.116 A 
HETATM    5  N   UNL     1     -43.867 -53.086  12.139  1.00  0.00    -0.309 N 
ATOM      6  HN  UNL     1     -44.245 -53.931  11.709  1.00  0.00     0.186 HD
ENDROOT
BRANCH   3   7
HETATM    7  C   UNL     1     -41.191 -50.631  12.968  1.00  0.00     0.057 C 
HETATM    8  C   UNL     1     -40.715 -50.458  14.418  1.00  0.00     0.279 C 
HETATM    9  N   UNL     1     -40.191 -49.088  14.540  1.00  0.00     0.084 N 
HETATM   10  C   UNL     1     -40.128 -48.533  13.183  1.00  0.00     0.277 C 
HETATM   11  H   UNL     1     -39.261 -49.100  14.958  1.00  0.00     0.315 HD
HETATM   12  C   UNL     1     -41.302 -49.187  12.469  1.00  0.00     0.047 C 
BRANCH  12  13
HETATM   13  C   UNL     1     -41.256 -49.039  10.952  1.00  0.00     0.171 C 
BRANCH  13  14
HETATM   14  O   UNL     1     -40.395 -50.008  10.369  1.00  0.00    -0.400 OA
HETATM   15  H   UNL     1     -40.414 -50.791  10.949  1.00  0.00     0.209 HD
ENDBRANCH  13  14
ENDBRANCH  12  13
ENDBRANCH   3   7
BRANCH   1  16
HETATM   16  C   UNL     1     -45.957 -52.270  13.092  1.00  0.00     0.099 C 
HETATM   17  C   UNL     1     -46.401 -51.445  14.300  1.00  0.00     0.034 C 
HETATM   18  C   UNL     1     -46.740 -51.893  11.837  1.00  0.00     0.034 C 
ENDBRANCH   1  16
TORSDOF 4
ENDMDL
MODEL 5
REMARK VINA RESULT:      -4.8      2.966      5.312
REMARK  4 active torsions:
REMARK  status: ('A' for Active; 'I' for Inactive)
REMARK    1  A    between atoms: C_2  and  N_4 
REMARK    2  A    between atoms: C_6  and  C_10 
REMARK    3  A    between atoms: C_14  and  C_15 
REMARK    4  A    between atoms: C_15  and  O_16 
ROOT
HETATM    1  N   UNL     1     -39.825 -50.946  12.139  1.00  0.00    -0.299 N 
HETATM    2  C   UNL     1     -39.728 -51.923  13.089  1.00  0.00     0.119 A 
HETATM    3  C   UNL     1     -40.773 -52.797  12.867  1.00  0.00    -0.018 A 
HETATM    4  C   UNL     1     -41.455 -52.231  11.763  1.00  0.00     0.116 A 
HETATM    5  N   UNL     1     -40.886 -51.107  11.325  1.00  0.00    -0.309 N 
ATOM      6  HN  UNL     1     -41.185 -50.510  10.554  1.00  0.00     0.186 HD
ENDROOT
BRANCH   3   7
HETATM    7  C   UNL     1     -41.112 -54.058  13.587  1.00  0.00     0.057 C 
HETATM    8  C   UNL     1     -42.600 -54.206  13.939  1.00  0.00     0.279 C 
HETATM    9  N   UNL     1     -42.669 -54.825  15.274  1.00  0.00     0.084 N 
HETATM   10  C   UNL     1     -41.307 -55.251  15.617  1.00  0.00     0.277 C 
HETATM   11  H   UNL     1     -43.295 -55.630  15.259  1.00  0.00     0.315 HD
HETATM   12  C   UNL     1     -40.422 -54.211  14.947  1.00  0.00     0.047 C 
BRANCH  12  13
HETATM   13  C   UNL     1     -38.954 -54.615  14.866  1.00  0.00     0.171 C 
BRANCH  13  14
HETATM   14  O   UNL     1     -38.687 -55.339  13.672  1.00  0.00    -0.400 OA
HETATM   15  H   UNL     1     -38.753 -54.706  12.935  1.00  0.00     0.209 HD
ENDBRANCH  13  14
ENDBRANCH  12  13
ENDBRANCH   3   7
BRANCH   1  16
HETATM   16  C   UNL     1     -38.889 -49.848  11.930  1.00  0.00     0.099 C 
HETATM   17  C   UNL     1     -38.995 -48.806  13.044  1.00  0.00     0.034 C 
HETATM   18  C   UNL     1     -37.457 -50.352  11.769  1.00  0.00     0.034 C 
ENDBRANCH   1  16
TORSDOF 4
ENDMDL
MODEL 6
REMARK VINA RESULT:      -4.7      3.412      5.028
REMARK  4 active torsions:
REMARK  status: ('A' for Active; 'I' for Inactive)
REMARK    1  A    between atoms: C_2  and  N_4 
REMARK    2  A    between atoms: C_6  and  C_10 
REMARK    3  A    between atoms: C_14  and  C_15 
REMARK    4  A    between atoms: C_15  and  O_16 
ROOT
HETATM    1  N   UNL     1     -42.197 -49.919  12.164  1.00  0.00    -0.299 N 
HETATM    2  C   UNL     1     -43.222 -50.297  12.985  1.00  0.00     0.119 A 
HETATM    3  C   UNL     1     -43.203 -51.676  13.034  1.00  0.00    -0.018 A 
HETATM    4  C   UNL     1     -42.131 -52.027  12.180  1.00  0.00     0.116 A 
HETATM    5  N   UNL     1     -41.524 -50.965  11.647  1.00  0.00    -0.309 N 
ATOM      6  HN  UNL     1     -40.736 -50.950  11.000  1.00  0.00     0.186 HD
ENDROOT
BRANCH   3   7
HETATM    7  C   UNL     1     -44.077 -52.600  13.813  1.00  0.00     0.057 C 
HETATM    8  C   UNL     1     -43.344 -53.805  14.420  1.00  0.00     0.279 C 
HETATM    9  N   UNL     1     -44.244 -54.964  14.300  1.00  0.00     0.084 N 
HETATM   10  C   UNL     1     -45.547 -54.449  13.863  1.00  0.00     0.277 C 
HETATM   11  H   UNL     1     -44.337 -55.436  15.199  1.00  0.00     0.315 HD
HETATM   12  C   UNL     1     -45.190 -53.256  12.988  1.00  0.00     0.047 C 
BRANCH  12  13
HETATM   13  C   UNL     1     -46.372 -52.342  12.686  1.00  0.00     0.171 C 
BRANCH  13  14
HETATM   14  O   UNL     1     -46.814 -52.502  11.345  1.00  0.00    -0.400 OA
HETATM   15  H   UNL     1     -46.018 -52.618  10.795  1.00  0.00     0.209 HD
ENDBRANCH  13  14
ENDBRANCH  12  13
ENDBRANCH   3   7
BRANCH   1  16
HETATM   16  C   UNL     1     -41.779 -48.552  11.876  1.00  0.00     0.099 C 
HETATM   17  C   UNL     1     -40.278 -48.475  11.596  1.00  0.00     0.034 C 
HETATM   18  C   UNL     1     -42.595 -47.942  10.739  1.00  0.00     0.034 C 
ENDBRANCH   1  16
TORSDOF 4
ENDMDL
MODEL 7
REMARK VINA RESULT:      -4.7      2.620      3.522
REMARK  4 active torsions:
REMARK  status: ('A' for Active; 'I' for Inactive)
REMARK    1  A    between atoms: C_2  and  N_4 
REMARK    2  A    between atoms: C_6  and  C_10 
REMARK    3  A    between atoms: C_14  and  C_15 
REMARK    4  A    between atoms: C_15  and  O_16 
ROOT
HETATM    1  N   UNL     1     -44.242 -52.495  12.892  1.00  0.00    -0.299 N 
HETATM    2  C   UNL     1     -43.503 -51.376  13.151  1.00  0.00     0.119 A 
HETATM    3  C   UNL     1     -42.247 -51.599  12.624  1.00  0.00    -0.018 A 
HETATM    4  C   UNL     1     -42.335 -52.906  12.089  1.00  0.00     0.116 A 
HETATM    5  N   UNL     1     -43.541 -53.452  12.255  1.00  0.00    -0.309 N 
ATOM      6  HN  UNL     1     -43.857 -54.379  11.967  1.00  0.00     0.186 HD
ENDROOT
BRANCH   3   7
HETATM    7  C   UNL     1     -41.066 -50.688  12.593  1.00  0.00     0.057 C 
HETATM    8  C   UNL     1     -41.001 -49.778  11.358  1.00  0.00     0.279 C 
HETATM    9  N   UNL     1     -39.585 -49.689  10.961  1.00  0.00     0.084 N 
HETATM   10  C   UNL     1     -38.802 -50.314  12.034  1.00  0.00     0.277 C 
HETATM   11  H   UNL     1     -39.309 -48.714  10.848  1.00  0.00     0.315 HD
HETATM   12  C   UNL     1     -39.715 -51.412  12.558  1.00  0.00     0.047 C 
BRANCH  12  13
HETATM   13  C   UNL     1     -39.275 -51.988  13.898  1.00  0.00     0.171 C 
BRANCH  13  14
HETATM   14  O   UNL     1     -38.788 -53.315  13.750  1.00  0.00    -0.400 OA
HETATM   15  H   UNL     1     -39.015 -53.603  12.847  1.00  0.00     0.209 HD
ENDBRANCH  13  14
ENDBRANCH  12  13
ENDBRANCH   3   7
BRANCH   1  16
HETATM   16  C   UNL     1     -45.656 -52.685  13.192  1.00  0.00     0.099 C 
HETATM   17  C   UNL     1     -45.883 -53.939  14.036  1.00  0.00     0.034 C 
HETATM   18  C   UNL     1     -46.264 -51.448  13.849  1.00  0.00     0.034 C 
ENDBRANCH   1  16
TORSDOF 4
ENDMDL
MODEL 8
REMARK VINA RESULT:      -4.5      2.995      4.987
REMARK  4 active torsions:
REMARK  status: ('A' for Active; 'I' for Inactive)
REMARK    1  A    between atoms: C_2  and  N_4 
REMARK    2  A    between atoms: C_6  and  C_10 
REMARK    3  A    between atoms: C_14  and  C_15 
REMARK    4  A    between atoms: C_15  and  O_16 
ROOT
HETATM    1  N   UNL     1     -41.577 -50.637  12.297  1.00  0.00    -0.299 N 
HETATM    2  C   UNL     1     -42.732 -51.162  12.803  1.00  0.00     0.119 A 
HETATM    3  C   UNL     1     -42.745 -52.498  12.457  1.00  0.00    -0.018 A 
HETATM    4  C   UNL     1     -41.551 -52.664  11.716  1.00  0.00     0.116 A 
HETATM    5  N   UNL     1     -40.845 -51.536  11.613  1.00  0.00    -0.309 N 
ATOM      6  HN  UNL     1     -39.959 -51.390  11.129  1.00  0.00     0.186 HD
ENDROOT
BRANCH   3   7
HETATM    7  C   UNL     1     -43.753 -53.546  12.790  1.00  0.00     0.057 C 
HETATM    8  C   UNL     1     -45.202 -53.159  12.461  1.00  0.00     0.279 C 
HETATM    9  N   UNL     1     -46.047 -53.686  13.546  1.00  0.00     0.084 N 
HETATM   10  C   UNL     1     -45.194 -54.552  14.368  1.00  0.00     0.277 C 
HETATM   11  H   UNL     1     -46.824 -54.222  13.161  1.00  0.00     0.315 HD
HETATM   12  C   UNL     1     -43.822 -53.901  14.279  1.00  0.00     0.047 C 
BRANCH  12  13
HETATM   13  C   UNL     1     -42.687 -54.793  14.768  1.00  0.00     0.171 C 
BRANCH  13  14
HETATM   14  O   UNL     1     -43.189 -55.960  15.403  1.00  0.00    -0.400 OA
HETATM   15  H   UNL     1     -42.648 -56.105  16.201  1.00  0.00     0.209 HD
ENDBRANCH  13  14
ENDBRANCH  12  13
ENDBRANCH   3   7
BRANCH   1  16
HETATM   16  C   UNL     1     -41.095 -49.273  12.483  1.00  0.00     0.099 C 
HETATM   17  C   UNL     1     -42.133 -48.407  13.195  1.00  0.00     0.034 C 
HETATM   18  C   UNL     1     -39.750 -49.245  13.205  1.00  0.00     0.034 C 
ENDBRANCH   1  16
TORSDOF 4
ENDMDL
MODEL 9
REMARK VINA RESULT:      -4.4      5.921      8.185
REMARK  4 active torsions:
REMARK  status: ('A' for Active; 'I' for Inactive)
REMARK    1  A    between atoms: C_2  and  N_4 
REMARK    2  A    between atoms: C_6  and  C_10 
REMARK    3  A    between atoms: C_14  and  C_15 
REMARK    4  A    between atoms: C_15  and  O_16 
ROOT
HETATM    1  N   UNL     1     -39.705 -49.561  12.166  1.00  0.00    -0.299 N 
HETATM    2  C   UNL     1     -40.167 -48.438  11.541  1.00  0.00     0.119 A 
HETATM    3  C   UNL     1     -41.536 -48.576  11.437  1.00  0.00    -0.018 A 
HETATM    4  C   UNL     1     -41.790 -49.843  12.015  1.00  0.00     0.116 A 
HETATM    5  N   UNL     1     -40.682 -50.443  12.452  1.00  0.00    -0.309 N 
ATOM      6  HN  UNL     1     -40.595 -51.357  12.897  1.00  0.00     0.186 HD
ENDROOT
BRANCH   3   7
HETATM    7  C   UNL     1     -42.538 -47.624  10.874  1.00  0.00     0.057 C 
HETATM    8  C   UNL     1     -42.786 -47.782   9.367  1.00  0.00     0.279 C 
HETATM    9  N   UNL     1     -42.950 -46.428   8.812  1.00  0.00     0.084 N 
HETATM   10  C   UNL     1     -43.036 -45.508   9.952  1.00  0.00     0.277 C 
HETATM   11  H   UNL     1     -43.801 -46.375   8.253  1.00  0.00     0.315 HD
HETATM   12  C   UNL     1     -42.144 -46.149  11.004  1.00  0.00     0.047 C 
BRANCH  12  13
HETATM   13  C   UNL     1     -42.329 -45.568  12.401  1.00  0.00     0.171 C 
BRANCH  13  14
HETATM   14  O   UNL     1     -43.517 -46.060  13.007  1.00  0.00    -0.400 OA
HETATM   15  H   UNL     1     -44.236 -45.942  12.359  1.00  0.00     0.209 HD
ENDBRANCH  13  14
ENDBRANCH  12  13
ENDBRANCH   3   7
BRANCH   1  16
HETATM   16  C   UNL     1     -38.327 -49.823  12.564  1.00  0.00     0.099 C 
HETATM   17  C   UNL     1     -37.416 -49.979  11.347  1.00  0.00     0.034 C 
HETATM   18  C   UNL     1     -37.805 -48.755  13.523  1.00  0.00     0.034 C 
ENDBRANCH   1  16
TORSDOF 4
ENDMDL
