MODEL 1
REMARK VINA RESULT:      -7.3      0.000      0.000
REMARK  6 active torsions:
REMARK  status: ('A' for Active; 'I' for Inactive)
REMARK    1  A    between atoms: O_2  and  C_3 
REMARK    2  A    between atoms: C_7  and  C_9 
REMARK    3  A    between atoms: C_9  and  O_10 
REMARK    4  A    between atoms: C_9  and  C_11 
REMARK    5  A    between atoms: C_11  and  N_12 
REMARK    6  A    between atoms: C_15  and  C_20 
ROOT
HETATM    1  N   UNL     1     -39.505 -51.218  12.845  1.00  0.00    -0.254 N 
HETATM    2  N   UNL     1     -40.246 -50.138  12.385  1.00  0.00    -0.294 N 
ATOM      3  HN  UNL     1     -41.249 -50.078  12.562  1.00  0.00     0.187 HD
HETATM    4  C   UNL     1     -39.627 -49.203  11.720  1.00  0.00     0.065 C 
HETATM    5  C   UNL     1     -38.184 -49.279  11.364  1.00  0.00     0.038 C 
HETATM    6  C   UNL     1     -37.483 -50.294  11.868  1.00  0.00     0.078 C 
HETATM    7  C   UNL     1     -38.124 -51.314  12.718  1.00  0.00     0.262 C 
HETATM    8  O   UNL     1     -37.423 -52.182  13.229  1.00  0.00    -0.267 OA
ENDROOT
BRANCH   1   9
HETATM    9  C   UNL     1     -40.219 -52.196  13.675  1.00  0.00     0.189 C 
BRANCH   9  10
HETATM   10  C   UNL     1     -40.723 -53.405  12.861  1.00  0.00     0.171 C 
BRANCH  10  11
HETATM   11  C   UNL     1     -42.151 -53.758  13.220  1.00  0.00    -0.025 A 
HETATM   12  C   UNL     1     -42.446 -54.593  14.305  1.00  0.00     0.010 A 
HETATM   13  C   UNL     1     -43.773 -54.897  14.615  1.00  0.00     0.003 A 
HETATM   14  C   UNL     1     -44.811 -54.362  13.851  1.00  0.00     0.037 A 
HETATM   15  C   UNL     1     -44.537 -53.530  12.766  1.00  0.00     0.068 A 
HETATM   16  C   UNL     1     -43.210 -53.239  12.453  1.00  0.00     0.046 A 
BRANCH  15  17
HETATM   17  O   UNL     1     -45.633 -53.062  12.093  1.00  0.00    -0.356 OA
HETATM   18  C   UNL     1     -46.300 -51.945  12.669  1.00  0.00     0.210 C 
ENDBRANCH  15  17
ENDBRANCH  10  11
BRANCH  10  19
HETATM   19  O   UNL     1     -40.713 -53.111  11.456  1.00  0.00    -0.389 OA
HETATM   20  H   UNL     1     -41.623 -52.824  11.246  1.00  0.00     0.210 HD
ENDBRANCH  10  19
ENDBRANCH   9  10
ENDBRANCH   1   9
BRANCH   4  21
HETATM   21  C   UNL     1     -40.399 -48.036  11.308  1.00  0.00     0.033 A 
HETATM   22  C   UNL     1     -40.027 -46.704  11.357  1.00  0.00     0.022 A 
HETATM   23  C   UNL     1     -41.011 -45.835  10.795  1.00  0.00     0.015 A 
HETATM   24  C   UNL     1     -42.102 -46.527  10.314  1.00  0.00    -0.021 A 
HETATM   25  C   UNL     1     -43.310 -46.003   9.617  1.00  0.00     0.056 C 
HETATM   26  S   UNL     1     -41.947 -48.205  10.584  1.00  0.00    -0.093 SA
ENDBRANCH   4  21
TORSDOF 6
ENDMDL
MODEL 2
REMARK VINA RESULT:      -7.0      1.284      2.098
REMARK  6 active torsions:
REMARK  status: ('A' for Active; 'I' for Inactive)
REMARK    1  A    between atoms: O_2  and  C_3 
REMARK    2  A    between atoms: C_7  and  C_9 
REMARK    3  A    between atoms: C_9  and  O_10 
REMARK    4  A    between atoms: C_9  and  C_11 
REMARK    5  A    between atoms: C_11  and  N_12 
REMARK    6  A    between atoms: C_15  and  C_20 
ROOT
HETATM    1  N   UNL     1     -39.514 -51.146  12.671  1.00  0.00    -0.254 N 
HETATM    2  N   UNL     1     -40.259 -50.062  12.226  1.00  0.00    -0.294 N 
ATOM      3  HN  UNL     1     -41.271 -50.035  12.351  1.00  0.00     0.187 HD
HETATM    4  C   UNL     1     -39.631 -49.079  11.643  1.00  0.00     0.065 C 
HETATM    5  C   UNL     1     -38.169 -49.102  11.363  1.00  0.00     0.038 C 
HETATM    6  C   UNL     1     -37.469 -50.124  11.854  1.00  0.00     0.078 C 
HETATM    7  C   UNL     1     -38.126 -51.201  12.615  1.00  0.00     0.262 C 
HETATM    8  O   UNL     1     -37.430 -52.078  13.120  1.00  0.00    -0.267 OA
ENDROOT
BRANCH   1   9
HETATM    9  C   UNL     1     -40.245 -52.182  13.411  1.00  0.00     0.189 C 
BRANCH   9  10
HETATM   10  C   UNL     1     -40.929 -53.202  12.478  1.00  0.00     0.171 C 
BRANCH  10  11
HETATM   11  C   UNL     1     -42.187 -53.768  13.102  1.00  0.00    -0.025 A 
HETATM   12  C   UNL     1     -43.443 -53.584  12.509  1.00  0.00     0.010 A 
HETATM   13  C   UNL     1     -44.585 -54.123  13.105  1.00  0.00     0.003 A 
HETATM   14  C   UNL     1     -44.478 -54.854  14.289  1.00  0.00     0.037 A 
HETATM   15  C   UNL     1     -43.237 -55.047  14.894  1.00  0.00     0.068 A 
HETATM   16  C   UNL     1     -42.101 -54.498  14.301  1.00  0.00     0.046 A 
BRANCH  15  17
HETATM   17  O   UNL     1     -43.253 -55.783  16.048  1.00  0.00    -0.356 OA
HETATM   18  C   UNL     1     -41.987 -56.114  16.606  1.00  0.00     0.210 C 
ENDBRANCH  15  17
ENDBRANCH  10  11
BRANCH  10  19
HETATM   19  O   UNL     1     -41.324 -52.579  11.247  1.00  0.00    -0.389 OA
HETATM   20  H   UNL     1     -41.605 -51.676  11.494  1.00  0.00     0.210 HD
ENDBRANCH  10  19
ENDBRANCH   9  10
ENDBRANCH   1   9
BRANCH   4  21
HETATM   21  C   UNL     1     -40.411 -47.912  11.248  1.00  0.00     0.033 A 
HETATM   22  C   UNL     1     -40.045 -46.579  11.308  1.00  0.00     0.022 A 
HETATM   23  C   UNL     1     -41.037 -45.709  10.762  1.00  0.00     0.015 A 
HETATM   24  C   UNL     1     -42.127 -46.401  10.281  1.00  0.00    -0.021 A 
HETATM   25  C   UNL     1     -43.343 -45.875   9.597  1.00  0.00     0.056 C 
HETATM   26  S   UNL     1     -41.963 -48.080  10.533  1.00  0.00    -0.093 SA
ENDBRANCH   4  21
TORSDOF 6
ENDMDL
MODEL 3
REMARK VINA RESULT:      -6.8      3.246      5.669
REMARK  6 active torsions:
REMARK  status: ('A' for Active; 'I' for Inactive)
REMARK    1  A    between atoms: O_2  and  C_3 
REMARK    2  A    between atoms: C_7  and  C_9 
REMARK    3  A    between atoms: C_9  and  O_10 
REMARK    4  A    between atoms: C_9  and  C_11 
REMARK    5  A    between atoms: C_11  and  N_12 
REMARK    6  A    between atoms: C_15  and  C_20 
ROOT
HETATM    1  N   UNL     1     -43.948 -53.457  13.374  1.00  0.00    -0.254 N 
HETATM    2  N   UNL     1     -42.780 -52.765  13.081  1.00  0.00    -0.294 N 
ATOM      3  HN  UNL     1     -42.772 -52.024  12.380  1.00  0.00     0.187 HD
HETATM    4  C   UNL     1     -41.693 -53.086  13.727  1.00  0.00     0.065 C 
HETATM    5  C   UNL     1     -41.630 -54.210  14.701  1.00  0.00     0.038 C 
HETATM    6  C   UNL     1     -42.775 -54.818  15.007  1.00  0.00     0.078 C 
HETATM    7  C   UNL     1     -44.045 -54.410  14.381  1.00  0.00     0.262 C 
HETATM    8  O   UNL     1     -45.087 -54.941  14.756  1.00  0.00    -0.267 OA
ENDROOT
BRANCH   1   9
HETATM    9  C   UNL     1     -45.168 -52.996  12.700  1.00  0.00     0.189 C 
BRANCH   9  10
HETATM   10  C   UNL     1     -45.477 -51.513  12.990  1.00  0.00     0.171 C 
BRANCH  10  11
HETATM   11  C   UNL     1     -45.689 -51.269  14.468  1.00  0.00    -0.025 A 
HETATM   12  C   UNL     1     -44.666 -50.762  15.279  1.00  0.00     0.010 A 
HETATM   13  C   UNL     1     -44.893 -50.543  16.640  1.00  0.00     0.003 A 
HETATM   14  C   UNL     1     -46.144 -50.819  17.194  1.00  0.00     0.037 A 
HETATM   15  C   UNL     1     -47.175 -51.326  16.403  1.00  0.00     0.068 A 
HETATM   16  C   UNL     1     -46.939 -51.553  15.048  1.00  0.00     0.046 A 
BRANCH  15  17
HETATM   17  O   UNL     1     -48.357 -51.554  17.053  1.00  0.00    -0.356 OA
HETATM   18  C   UNL     1     -48.395 -51.214  18.435  1.00  0.00     0.210 C 
ENDBRANCH  15  17
ENDBRANCH  10  11
BRANCH  10  19
HETATM   19  O   UNL     1     -44.382 -50.677  12.587  1.00  0.00    -0.389 OA
HETATM   20  H   UNL     1     -43.955 -51.151  11.846  1.00  0.00     0.210 HD
ENDBRANCH  10  19
ENDBRANCH   9  10
ENDBRANCH   1   9
BRANCH   4  21
HETATM   21  C   UNL     1     -40.491 -52.302  13.468  1.00  0.00     0.033 A 
HETATM   22  C   UNL     1     -39.246 -52.426  14.060  1.00  0.00     0.022 A 
HETATM   23  C   UNL     1     -38.279 -51.535  13.503  1.00  0.00     0.015 A 
HETATM   24  C   UNL     1     -38.805 -50.767  12.486  1.00  0.00    -0.021 A 
HETATM   25  C   UNL     1     -38.122 -49.762  11.623  1.00  0.00     0.056 C 
HETATM   26  S   UNL     1     -40.462 -51.096  12.247  1.00  0.00    -0.093 SA
ENDBRANCH   4  21
TORSDOF 6
ENDMDL
MODEL 4
REMARK VINA RESULT:      -6.7      2.867      6.754
REMARK  6 active torsions:
REMARK  status: ('A' for Active; 'I' for Inactive)
REMARK    1  A    between atoms: O_2  and  C_3 
REMARK    2  A    between atoms: C_7  and  C_9 
REMARK    3  A    between atoms: C_9  and  O_10 
REMARK    4  A    between atoms: C_9  and  C_11 
REMARK    5  A    between atoms: C_11  and  N_12 
REMARK    6  A    between atoms: C_15  and  C_20 
ROOT
HETATM    1  N   UNL     1     -40.943 -51.010  13.348  1.00  0.00    -0.254 N 
HETATM    2  N   UNL     1     -42.281 -50.808  13.662  1.00  0.00    -0.294 N 
ATOM      3  HN  UNL     1     -42.735 -49.916  13.467  1.00  0.00     0.187 HD
HETATM    4  C   UNL     1     -42.941 -51.789  14.212  1.00  0.00     0.065 C 
HETATM    5  C   UNL     1     -42.308 -53.082  14.590  1.00  0.00     0.038 C 
HETATM    6  C   UNL     1     -41.042 -53.272  14.225  1.00  0.00     0.078 C 
HETATM    7  C   UNL     1     -40.293 -52.229  13.502  1.00  0.00     0.262 C 
HETATM    8  O   UNL     1     -39.156 -52.480  13.111  1.00  0.00    -0.267 OA
ENDROOT
BRANCH   1   9
HETATM    9  C   UNL     1     -40.265 -49.918  12.639  1.00  0.00     0.189 C 
BRANCH   9  10
HETATM   10  C   UNL     1     -41.021 -49.483  11.366  1.00  0.00     0.171 C 
BRANCH  10  11
HETATM   11  C   UNL     1     -40.979 -47.981  11.182  1.00  0.00    -0.025 A 
HETATM   12  C   UNL     1     -40.009 -47.195  11.817  1.00  0.00     0.010 A 
HETATM   13  C   UNL     1     -39.992 -45.811  11.624  1.00  0.00     0.003 A 
HETATM   14  C   UNL     1     -40.936 -45.210  10.791  1.00  0.00     0.037 A 
HETATM   15  C   UNL     1     -41.910 -45.976  10.152  1.00  0.00     0.068 A 
HETATM   16  C   UNL     1     -41.929 -47.354  10.356  1.00  0.00     0.046 A 
BRANCH  15  17
HETATM   17  O   UNL     1     -42.778 -45.278   9.357  1.00  0.00    -0.356 OA
HETATM   18  C   UNL     1     -43.952 -45.969   8.943  1.00  0.00     0.210 C 
ENDBRANCH  15  17
ENDBRANCH  10  11
BRANCH  10  19
HETATM   19  O   UNL     1     -40.420 -50.058  10.196  1.00  0.00    -0.389 OA
HETATM   20  H   UNL     1     -39.604 -49.540  10.045  1.00  0.00     0.210 HD
ENDBRANCH  10  19
ENDBRANCH   9  10
ENDBRANCH   1   9
BRANCH   4  21
HETATM   21  C   UNL     1     -44.364 -51.593  14.466  1.00  0.00     0.033 A 
HETATM   22  C   UNL     1     -45.396 -51.525  13.547  1.00  0.00     0.022 A 
HETATM   23  C   UNL     1     -46.678 -51.402  14.163  1.00  0.00     0.015 A 
HETATM   24  C   UNL     1     -46.594 -51.399  15.539  1.00  0.00    -0.021 A 
HETATM   25  C   UNL     1     -47.694 -51.337  16.543  1.00  0.00     0.056 C 
HETATM   26  S   UNL     1     -44.975 -51.498  16.068  1.00  0.00    -0.093 SA
ENDBRANCH   4  21
TORSDOF 6
ENDMDL
MODEL 5
REMARK VINA RESULT:      -6.5      1.764      2.342
REMARK  6 active torsions:
REMARK  status: ('A' for Active; 'I' for Inactive)
REMARK    1  A    between atoms: O_2  and  C_3 
REMARK    2  A    between atoms: C_7  and  C_9 
REMARK    3  A    between atoms: C_9  and  O_10 
REMARK    4  A    between atoms: C_9  and  C_11 
REMARK    5  A    between atoms: C_11  and  N_12 
REMARK    6  A    between atoms: C_15  and  C_20 
ROOT
HETATM    1  N   UNL     1     -40.755 -51.115  12.983  1.00  0.00    -0.254 N 
HETATM    2  N   UNL     1     -41.300 -49.978  12.402  1.00  0.00    -0.294 N 
ATOM      3  HN  UNL     1     -42.291 -49.760  12.506  1.00  0.00     0.187 HD
HETATM    4  C   UNL     1     -40.510 -49.194  11.721  1.00  0.00     0.065 C 
HETATM    5  C   UNL     1     -39.076 -49.505  11.471  1.00  0.00     0.038 C 
HETATM    6  C   UNL     1     -38.565 -50.569  12.089  1.00  0.00     0.078 C 
HETATM    7  C   UNL     1     -39.399 -51.418  12.958  1.00  0.00     0.262 C 
HETATM    8  O   UNL     1     -38.866 -52.337  13.573  1.00  0.00    -0.267 OA
ENDROOT
BRANCH   1   9
HETATM    9  C   UNL     1     -41.654 -51.914  13.826  1.00  0.00     0.189 C 
BRANCH   9  10
HETATM   10  C   UNL     1     -42.686 -52.709  12.999  1.00  0.00     0.171 C 
BRANCH  10  11
HETATM   11  C   UNL     1     -44.102 -52.288  13.328  1.00  0.00    -0.025 A 
HETATM   12  C   UNL     1     -45.137 -52.414  12.393  1.00  0.00     0.010 A 
HETATM   13  C   UNL     1     -46.436 -52.023  12.728  1.00  0.00     0.003 A 
HETATM   14  C   UNL     1     -46.708 -51.514  13.999  1.00  0.00     0.037 A 
HETATM   15  C   UNL     1     -45.690 -51.381  14.943  1.00  0.00     0.068 A 
HETATM   16  C   UNL     1     -44.394 -51.762  14.600  1.00  0.00     0.046 A 
BRANCH  15  17
HETATM   17  O   UNL     1     -46.075 -50.876  16.155  1.00  0.00    -0.356 OA
HETATM   18  C   UNL     1     -47.379 -51.229  16.603  1.00  0.00     0.210 C 
ENDBRANCH  15  17
ENDBRANCH  10  11
BRANCH  10  19
HETATM   19  O   UNL     1     -42.502 -52.474  11.595  1.00  0.00    -0.389 OA
HETATM   20  H   UNL     1     -43.198 -51.832  11.349  1.00  0.00     0.210 HD
ENDBRANCH  10  19
ENDBRANCH   9  10
ENDBRANCH   1   9
BRANCH   4  21
HETATM   21  C   UNL     1     -41.075 -47.963  11.179  1.00  0.00     0.033 A 
HETATM   22  C   UNL     1     -40.494 -46.708  11.125  1.00  0.00     0.022 A 
HETATM   23  C   UNL     1     -41.313 -45.750  10.453  1.00  0.00     0.015 A 
HETATM   24  C   UNL     1     -42.489 -46.302   9.995  1.00  0.00    -0.021 A 
HETATM   25  C   UNL     1     -43.582 -45.659   9.211  1.00  0.00     0.056 C 
HETATM   26  S   UNL     1     -42.613 -47.950  10.417  1.00  0.00    -0.093 SA
ENDBRANCH   4  21
TORSDOF 6
ENDMDL
MODEL 6
REMARK VINA RESULT:      -6.3      2.873      6.779
REMARK  6 active torsions:
REMARK  status: ('A' for Active; 'I' for Inactive)
REMARK    1  A    between atoms: O_2  and  C_3 
REMARK    2  A    between atoms: C_7  and  C_9 
REMARK    3  A    between atoms: C_9  and  O_10 
REMARK    4  A    between atoms: C_9  and  C_11 
REMARK    5  A    between atoms: C_11  and  N_12 
REMARK    6  A    between atoms: C_15  and  C_20 
ROOT
HETATM    1  N   UNL     1     -40.699 -51.734  13.367  1.00  0.00    -0.254 N 
HETATM    2  N   UNL     1     -42.020 -51.379  13.606  1.00  0.00    -0.294 N 
ATOM      3  HN  UNL     1     -42.374 -50.463  13.330  1.00  0.00     0.187 HD
HETATM    4  C   UNL     1     -42.797 -52.248  14.191  1.00  0.00     0.065 C 
HETATM    5  C   UNL     1     -42.313 -53.566  14.686  1.00  0.00     0.038 C 
HETATM    6  C   UNL     1     -41.059 -53.906  14.391  1.00  0.00     0.078 C 
HETATM    7  C   UNL     1     -40.181 -52.996  13.633  1.00  0.00     0.262 C 
HETATM    8  O   UNL     1     -39.062 -53.386  13.312  1.00  0.00    -0.267 OA
ENDROOT
BRANCH   1   9
HETATM    9  C   UNL     1     -39.888 -50.768  12.616  1.00  0.00     0.189 C 
BRANCH   9  10
HETATM   10  C   UNL     1     -40.745 -49.844  11.726  1.00  0.00     0.171 C 
BRANCH  10  11
HETATM   11  C   UNL     1     -40.420 -48.385  11.967  1.00  0.00    -0.025 A 
HETATM   12  C   UNL     1     -39.668 -47.978  13.076  1.00  0.00     0.010 A 
HETATM   13  C   UNL     1     -39.378 -46.625  13.269  1.00  0.00     0.003 A 
HETATM   14  C   UNL     1     -39.831 -45.676  12.352  1.00  0.00     0.037 A 
HETATM   15  C   UNL     1     -40.581 -46.062  11.242  1.00  0.00     0.068 A 
HETATM   16  C   UNL     1     -40.876 -47.411  11.060  1.00  0.00     0.046 A 
BRANCH  15  17
HETATM   17  O   UNL     1     -40.965 -45.045  10.410  1.00  0.00    -0.356 OA
HETATM   18  C   UNL     1     -41.209 -43.784  11.022  1.00  0.00     0.210 C 
ENDBRANCH  15  17
ENDBRANCH  10  11
BRANCH  10  19
HETATM   19  O   UNL     1     -40.492 -50.098  10.337  1.00  0.00    -0.389 OA
HETATM   20  H   UNL     1     -40.562 -51.068  10.235  1.00  0.00     0.210 HD
ENDBRANCH  10  19
ENDBRANCH   9  10
ENDBRANCH   1   9
BRANCH   4  21
HETATM   21  C   UNL     1     -44.201 -51.896  14.368  1.00  0.00     0.033 A 
HETATM   22  C   UNL     1     -45.169 -51.727  13.394  1.00  0.00     0.022 A 
HETATM   23  C   UNL     1     -46.461 -51.458  13.940  1.00  0.00     0.015 A 
HETATM   24  C   UNL     1     -46.450 -51.447  15.318  1.00  0.00    -0.021 A 
HETATM   25  C   UNL     1     -47.588 -51.254  16.261  1.00  0.00     0.056 C 
HETATM   26  S   UNL     1     -44.882 -51.715  15.934  1.00  0.00    -0.093 SA
ENDBRANCH   4  21
TORSDOF 6
ENDMDL
MODEL 7
REMARK VINA RESULT:      -6.2      2.850      4.788
REMARK  6 active torsions:
REMARK  status: ('A' for Active; 'I' for Inactive)
REMARK    1  A    between atoms: O_2  and  C_3 
REMARK    2  A    between atoms: C_7  and  C_9 
REMARK    3  A    between atoms: C_9  and  O_10 
REMARK    4  A    between atoms: C_9  and  C_11 
REMARK    5  A    between atoms: C_11  and  N_12 
REMARK    6  A    between atoms: C_15  and  C_20 
ROOT
HETATM    1  N   UNL     1     -40.267 -50.871  12.558  1.00  0.00    -0.254 N 
HETATM    2  N   UNL     1     -39.667 -51.150  13.779  1.00  0.00    -0.294 N 
ATOM      3  HN  UNL     1     -39.897 -51.999  14.294  1.00  0.00     0.187 HD
HETATM    4  C   UNL     1     -38.801 -50.296  14.250  1.00  0.00     0.065 C 
HETATM    5  C   UNL     1     -38.488 -49.003  13.580  1.00  0.00     0.038 C 
HETATM    6  C   UNL     1     -39.031 -48.789  12.383  1.00  0.00     0.078 C 
HETATM    7  C   UNL     1     -39.929 -49.781  11.765  1.00  0.00     0.262 C 
HETATM    8  O   UNL     1     -40.338 -49.579  10.625  1.00  0.00    -0.267 OA
ENDROOT
BRANCH   1   9
HETATM    9  C   UNL     1     -41.157 -51.905  12.016  1.00  0.00     0.189 C 
BRANCH   9  10
HETATM   10  C   UNL     1     -41.149 -53.194  12.864  1.00  0.00     0.171 C 
BRANCH  10  11
HETATM   11  C   UNL     1     -42.554 -53.647  13.196  1.00  0.00    -0.025 A 
HETATM   12  C   UNL     1     -42.799 -54.589  14.205  1.00  0.00     0.010 A 
HETATM   13  C   UNL     1     -44.107 -54.983  14.493  1.00  0.00     0.003 A 
HETATM   14  C   UNL     1     -45.176 -54.434  13.783  1.00  0.00     0.037 A 
HETATM   15  C   UNL     1     -44.953 -53.497  12.776  1.00  0.00     0.068 A 
HETATM   16  C   UNL     1     -43.644 -53.115  12.484  1.00  0.00     0.046 A 
BRANCH  15  17
HETATM   17  O   UNL     1     -46.076 -53.025  12.152  1.00  0.00    -0.356 OA
HETATM   18  C   UNL     1     -46.535 -51.741  12.561  1.00  0.00     0.210 C 
ENDBRANCH  15  17
ENDBRANCH  10  11
BRANCH  10  19
HETATM   19  O   UNL     1     -40.528 -54.271  12.147  1.00  0.00    -0.389 OA
HETATM   20  H   UNL     1     -40.891 -54.220  11.240  1.00  0.00     0.210 HD
ENDBRANCH  10  19
ENDBRANCH   9  10
ENDBRANCH   1   9
BRANCH   4  21
HETATM   21  C   UNL     1     -38.119 -50.634  15.494  1.00  0.00     0.033 A 
HETATM   22  C   UNL     1     -38.474 -51.587  16.432  1.00  0.00     0.022 A 
HETATM   23  C   UNL     1     -37.526 -51.697  17.494  1.00  0.00     0.015 A 
HETATM   24  C   UNL     1     -36.461 -50.837  17.331  1.00  0.00    -0.021 A 
HETATM   25  C   UNL     1     -35.248 -50.676  18.183  1.00  0.00     0.056 C 
HETATM   26  S   UNL     1     -36.638 -49.880  15.929  1.00  0.00    -0.093 SA
ENDBRANCH   4  21
TORSDOF 6
ENDMDL
MODEL 8
REMARK VINA RESULT:      -6.1      2.400      4.410
REMARK  6 active torsions:
REMARK  status: ('A' for Active; 'I' for Inactive)
REMARK    1  A    between atoms: O_2  and  C_3 
REMARK    2  A    between atoms: C_7  and  C_9 
REMARK    3  A    between atoms: C_9  and  O_10 
REMARK    4  A    between atoms: C_9  and  C_11 
REMARK    5  A    between atoms: C_11  and  N_12 
REMARK    6  A    between atoms: C_15  and  C_20 
ROOT
HETATM    1  N   UNL     1     -44.008 -50.995  13.664  1.00  0.00    -0.254 N 
HETATM    2  N   UNL     1     -43.488 -50.145  12.696  1.00  0.00    -0.294 N 
ATOM      3  HN  UNL     1     -43.498 -50.405  11.710  1.00  0.00     0.187 HD
HETATM    4  C   UNL     1     -42.987 -49.004  13.082  1.00  0.00     0.065 C 
HETATM    5  C   UNL     1     -42.875 -48.609  14.513  1.00  0.00     0.038 C 
HETATM    6  C   UNL     1     -43.434 -49.414  15.415  1.00  0.00     0.078 C 
HETATM    7  C   UNL     1     -44.108 -50.660  15.009  1.00  0.00     0.262 C 
HETATM    8  O   UNL     1     -44.682 -51.327  15.865  1.00  0.00    -0.267 OA
ENDROOT
BRANCH   1   9
HETATM    9  C   UNL     1     -44.653 -52.221  13.178  1.00  0.00     0.189 C 
BRANCH   9  10
HETATM   10  C   UNL     1     -43.664 -53.164  12.462  1.00  0.00     0.171 C 
BRANCH  10  11
HETATM   11  C   UNL     1     -42.534 -53.583  13.378  1.00  0.00    -0.025 A 
HETATM   12  C   UNL     1     -42.763 -54.397  14.494  1.00  0.00     0.010 A 
HETATM   13  C   UNL     1     -41.699 -54.772  15.318  1.00  0.00     0.003 A 
HETATM   14  C   UNL     1     -40.404 -54.344  15.026  1.00  0.00     0.037 A 
HETATM   15  C   UNL     1     -40.156 -53.532  13.919  1.00  0.00     0.068 A 
HETATM   16  C   UNL     1     -41.223 -53.152  13.107  1.00  0.00     0.046 A 
BRANCH  15  17
HETATM   17  O   UNL     1     -38.848 -53.179  13.730  1.00  0.00    -0.356 OA
HETATM   18  C   UNL     1     -38.578 -51.786  13.618  1.00  0.00     0.210 C 
ENDBRANCH  15  17
ENDBRANCH  10  11
BRANCH  10  19
HETATM   19  O   UNL     1     -44.323 -54.368  12.043  1.00  0.00    -0.389 OA
HETATM   20  H   UNL     1     -45.061 -54.073  11.472  1.00  0.00     0.210 HD
ENDBRANCH  10  19
ENDBRANCH   9  10
ENDBRANCH   1   9
BRANCH   4  21
HETATM   21  C   UNL     1     -42.514 -48.085  12.052  1.00  0.00     0.033 A 
HETATM   22  C   UNL     1     -43.160 -47.696  10.892  1.00  0.00     0.022 A 
HETATM   23  C   UNL     1     -42.427 -46.718  10.154  1.00  0.00     0.015 A 
HETATM   24  C   UNL     1     -41.248 -46.372  10.779  1.00  0.00    -0.021 A 
HETATM   25  C   UNL     1     -40.231 -45.363  10.366  1.00  0.00     0.056 C 
HETATM   26  S   UNL     1     -41.019 -47.258  12.219  1.00  0.00    -0.093 SA
ENDBRANCH   4  21
TORSDOF 6
ENDMDL
MODEL 9
REMARK VINA RESULT:      -6.1      2.619      6.566
REMARK  6 active torsions:
REMARK  status: ('A' for Active; 'I' for Inactive)
REMARK    1  A    between atoms: O_2  and  C_3 
REMARK    2  A    between atoms: C_7  and  C_9 
REMARK    3  A    between atoms: C_9  and  O_10 
REMARK    4  A    between atoms: C_9  and  C_11 
REMARK    5  A    between atoms: C_11  and  N_12 
REMARK    6  A    between atoms: C_15  and  C_20 
ROOT
HETATM    1  N   UNL     1     -40.119 -54.309  14.708  1.00  0.00    -0.254 N 
HETATM    2  N   UNL     1     -41.366 -53.915  14.241  1.00  0.00    -0.294 N 
ATOM      3  HN  UNL     1     -41.454 -53.206  13.514  1.00  0.00     0.187 HD
HETATM    4  C   UNL     1     -42.424 -54.477  14.758  1.00  0.00     0.065 C 
HETATM    5  C   UNL     1     -42.358 -55.458  15.876  1.00  0.00     0.038 C 
HETATM    6  C   UNL     1     -41.149 -55.862  16.263  1.00  0.00     0.078 C 
HETATM    7  C   UNL     1     -39.930 -55.333  15.628  1.00  0.00     0.262 C 
HETATM    8  O   UNL     1     -38.842 -55.797  15.959  1.00  0.00    -0.267 OA
ENDROOT
BRANCH   1   9
HETATM    9  C   UNL     1     -38.954 -53.727  14.030  1.00  0.00     0.189 C 
BRANCH   9  10
HETATM   10  C   UNL     1     -38.641 -52.297  14.516  1.00  0.00     0.171 C 
BRANCH  10  11
HETATM   11  C   UNL     1     -38.631 -51.311  13.368  1.00  0.00    -0.025 A 
HETATM   12  C   UNL     1     -37.431 -50.859  12.804  1.00  0.00     0.010 A 
HETATM   13  C   UNL     1     -37.454 -49.953  11.741  1.00  0.00     0.003 A 
HETATM   14  C   UNL     1     -38.673 -49.501  11.232  1.00  0.00     0.037 A 
HETATM   15  C   UNL     1     -39.877 -49.939  11.782  1.00  0.00     0.068 A 
HETATM   16  C   UNL     1     -39.849 -50.835  12.849  1.00  0.00     0.046 A 
BRANCH  15  17
HETATM   17  O   UNL     1     -41.007 -49.434  11.198  1.00  0.00    -0.356 OA
HETATM   18  C   UNL     1     -41.047 -48.023  11.013  1.00  0.00     0.210 C 
ENDBRANCH  15  17
ENDBRANCH  10  11
BRANCH  10  19
HETATM   19  O   UNL     1     -39.642 -51.844  15.440  1.00  0.00    -0.389 OA
HETATM   20  H   UNL     1     -39.327 -52.129  16.321  1.00  0.00     0.210 HD
ENDBRANCH  10  19
ENDBRANCH   9  10
ENDBRANCH   1   9
BRANCH   4  21
HETATM   21  C   UNL     1     -43.725 -54.114  14.208  1.00  0.00     0.033 A 
HETATM   22  C   UNL     1     -44.920 -54.803  14.313  1.00  0.00     0.022 A 
HETATM   23  C   UNL     1     -46.013 -54.108  13.712  1.00  0.00     0.015 A 
HETATM   24  C   UNL     1     -45.628 -52.897  13.179  1.00  0.00    -0.021 A 
HETATM   25  C   UNL     1     -46.466 -51.859  12.514  1.00  0.00     0.056 C 
HETATM   26  S   UNL     1     -43.954 -52.633  13.369  1.00  0.00    -0.093 SA
ENDBRANCH   4  21
TORSDOF 6
ENDMDL
