MODEL 1
REMARK VINA RESULT:      -5.2      0.000      0.000
REMARK  3 active torsions:
REMARK  status: ('A' for Active; 'I' for Inactive)
REMARK    1  A    between atoms: C_2  and  C_3 
REMARK    2  A    between atoms: C_2  and  N_10 
REMARK    3  A    between atoms: C_3  and  N_4 
REMARK       I    between atoms: N_10  and  C_11 
REMARK       I    between atoms: C_11  and  N_13 
ROOT
HETATM    1  C   UNL     1     -42.965 -47.247  12.263  1.00  0.00     0.034 C 
HETATM    2  C   UNL     1     -42.747 -48.259  11.138  1.00  0.00     0.100 C 
ENDROOT
BRANCH   2   3
HETATM    3  C   UNL     1     -42.858 -47.623   9.738  1.00  0.00     0.153 C 
BRANCH   3   4
HETATM    4  N   UNL     1     -44.185 -47.153   9.391  1.00  0.00    -0.350 N 
HETATM    5  C   UNL     1     -45.351 -47.857   9.508  1.00  0.00     0.108 A 
HETATM    6  C   UNL     1     -46.336 -46.984   9.102  1.00  0.00     0.106 A 
HETATM    7  N   UNL     1     -45.794 -45.779   8.742  1.00  0.00    -0.361 N 
HETATM    8  C   UNL     1     -44.502 -45.905   8.937  1.00  0.00     0.182 A 
ATOM      9  HN  UNL     1     -46.290 -44.958   8.394  1.00  0.00     0.166 HD
ENDBRANCH   3   4
ENDBRANCH   2   3
BRANCH   2  10
HETATM   10  N   UNL     1     -41.438 -48.885  11.334  1.00  0.00    -0.337 N 
HETATM   11  C   UNL     1     -41.276 -50.071  12.001  1.00  0.00     0.318 C 
HETATM   12  O   UNL     1     -42.227 -50.694  12.455  1.00  0.00    -0.247 OA
HETATM   13  N   UNL     1     -39.968 -50.467  12.158  1.00  0.00    -0.334 N 
HETATM   14  C   UNL     1     -38.770 -49.830  11.637  1.00  0.00     0.127 C 
HETATM   15  C   UNL     1     -39.625 -51.631  12.953  1.00  0.00     0.127 C 
HETATM   16  C   UNL     1     -37.599 -50.519  12.330  1.00  0.00     0.022 C 
HETATM   17  C   UNL     1     -38.231 -51.312  13.468  1.00  0.00     0.022 C 
HETATM   18  H   UNL     1     -40.659 -48.538  10.802  1.00  0.00     0.164 HD
ENDBRANCH   2  10
TORSDOF 3
ENDMDL
MODEL 2
REMARK VINA RESULT:      -5.1      2.403      6.571
REMARK  3 active torsions:
REMARK  status: ('A' for Active; 'I' for Inactive)
REMARK    1  A    between atoms: C_2  and  C_3 
REMARK    2  A    between atoms: C_2  and  N_10 
REMARK    3  A    between atoms: C_3  and  N_4 
REMARK       I    between atoms: N_10  and  C_11 
REMARK       I    between atoms: C_11  and  N_13 
ROOT
HETATM    1  C   UNL     1     -42.760 -48.769  14.210  1.00  0.00     0.034 C 
HETATM    2  C   UNL     1     -42.645 -49.637  12.957  1.00  0.00     0.100 C 
ENDROOT
BRANCH   2   3
HETATM    3  C   UNL     1     -43.205 -51.057  13.167  1.00  0.00     0.153 C 
BRANCH   3   4
HETATM    4  N   UNL     1     -42.279 -52.126  12.849  1.00  0.00    -0.350 N 
HETATM    5  C   UNL     1     -42.106 -53.286  13.552  1.00  0.00     0.108 A 
HETATM    6  C   UNL     1     -41.162 -53.995  12.843  1.00  0.00     0.106 A 
HETATM    7  N   UNL     1     -40.762 -53.294  11.737  1.00  0.00    -0.361 N 
HETATM    8  C   UNL     1     -41.458 -52.181  11.759  1.00  0.00     0.182 A 
ATOM      9  HN  UNL     1     -40.069 -53.576  11.043  1.00  0.00     0.166 HD
ENDBRANCH   3   4
ENDBRANCH   2   3
BRANCH   2  10
HETATM   10  N   UNL     1     -43.333 -48.951  11.862  1.00  0.00    -0.337 N 
HETATM   11  C   UNL     1     -42.691 -48.104  10.998  1.00  0.00     0.318 C 
HETATM   12  O   UNL     1     -41.488 -47.888  11.076  1.00  0.00    -0.247 OA
HETATM   13  N   UNL     1     -43.512 -47.488  10.081  1.00  0.00    -0.334 N 
HETATM   14  C   UNL     1     -44.936 -47.691   9.875  1.00  0.00     0.127 C 
HETATM   15  C   UNL     1     -43.004 -46.467   9.184  1.00  0.00     0.127 C 
HETATM   16  C   UNL     1     -45.383 -46.574   8.938  1.00  0.00     0.022 C 
HETATM   17  C   UNL     1     -44.218 -45.591   8.920  1.00  0.00     0.022 C 
HETATM   18  H   UNL     1     -44.260 -49.255  11.616  1.00  0.00     0.164 HD
ENDBRANCH   2  10
TORSDOF 3
ENDMDL
MODEL 3
REMARK VINA RESULT:      -5.0      2.015      2.232
REMARK  3 active torsions:
REMARK  status: ('A' for Active; 'I' for Inactive)
REMARK    1  A    between atoms: C_2  and  C_3 
REMARK    2  A    between atoms: C_2  and  N_10 
REMARK    3  A    between atoms: C_3  and  N_4 
REMARK       I    between atoms: N_10  and  C_11 
REMARK       I    between atoms: C_11  and  N_13 
ROOT
HETATM    1  C   UNL     1     -41.829 -47.384  12.413  1.00  0.00     0.034 C 
HETATM    2  C   UNL     1     -42.754 -48.260  11.568  1.00  0.00     0.100 C 
ENDROOT
BRANCH   2   3
HETATM    3  C   UNL     1     -42.746 -47.866  10.078  1.00  0.00     0.153 C 
BRANCH   3   4
HETATM    4  N   UNL     1     -43.973 -47.255   9.607  1.00  0.00    -0.350 N 
HETATM    5  C   UNL     1     -45.227 -47.798   9.671  1.00  0.00     0.108 A 
HETATM    6  C   UNL     1     -46.059 -46.834   9.146  1.00  0.00     0.106 A 
HETATM    7  N   UNL     1     -45.341 -45.731   8.767  1.00  0.00    -0.361 N 
HETATM    8  C   UNL     1     -44.093 -46.007   9.067  1.00  0.00     0.182 A 
ATOM      9  HN  UNL     1     -45.701 -44.876   8.341  1.00  0.00     0.166 HD
ENDBRANCH   3   4
ENDBRANCH   2   3
BRANCH   2  10
HETATM   10  N   UNL     1     -42.355 -49.657  11.751  1.00  0.00    -0.337 N 
HETATM   11  C   UNL     1     -42.918 -50.471  12.697  1.00  0.00     0.318 C 
HETATM   12  O   UNL     1     -43.815 -50.083  13.436  1.00  0.00    -0.247 OA
HETATM   13  N   UNL     1     -42.363 -51.727  12.778  1.00  0.00    -0.334 N 
HETATM   14  C   UNL     1     -41.326 -52.304  11.939  1.00  0.00     0.127 C 
HETATM   15  C   UNL     1     -42.761 -52.660  13.815  1.00  0.00     0.127 C 
HETATM   16  C   UNL     1     -40.904 -53.597  12.629  1.00  0.00     0.022 C 
HETATM   17  C   UNL     1     -41.520 -53.514  14.021  1.00  0.00     0.022 C 
HETATM   18  H   UNL     1     -41.789 -50.088  11.040  1.00  0.00     0.164 HD
ENDBRANCH   2  10
TORSDOF 3
ENDMDL
MODEL 4
REMARK VINA RESULT:      -4.8     13.547     16.346
REMARK  3 active torsions:
REMARK  status: ('A' for Active; 'I' for Inactive)
REMARK    1  A    between atoms: C_2  and  C_3 
REMARK    2  A    between atoms: C_2  and  N_10 
REMARK    3  A    between atoms: C_3  and  N_4 
REMARK       I    between atoms: N_10  and  C_11 
REMARK       I    between atoms: C_11  and  N_13 
ROOT
HETATM    1  C   UNL     1     -53.103 -54.257  -0.552  1.00  0.00     0.034 C 
HETATM    2  C   UNL     1     -51.748 -53.695  -0.982  1.00  0.00     0.100 C 
ENDROOT
BRANCH   2   3
HETATM    3  C   UNL     1     -51.445 -53.951  -2.471  1.00  0.00     0.153 C 
BRANCH   3   4
HETATM    4  N   UNL     1     -50.487 -55.011  -2.720  1.00  0.00    -0.350 N 
HETATM    5  C   UNL     1     -50.717 -56.163  -3.420  1.00  0.00     0.108 A 
HETATM    6  C   UNL     1     -49.508 -56.823  -3.424  1.00  0.00     0.106 A 
HETATM    7  N   UNL     1     -48.562 -56.102  -2.745  1.00  0.00    -0.361 N 
HETATM    8  C   UNL     1     -49.175 -55.013  -2.344  1.00  0.00     0.182 A 
ATOM      9  HN  UNL     1     -47.587 -56.358  -2.584  1.00  0.00     0.166 HD
ENDBRANCH   3   4
ENDBRANCH   2   3
BRANCH   2  10
HETATM   10  N   UNL     1     -51.729 -52.263  -0.674  1.00  0.00    -0.337 N 
HETATM   11  C   UNL     1     -50.629 -51.631  -0.157  1.00  0.00     0.318 C 
HETATM   12  O   UNL     1     -49.581 -52.226   0.058  1.00  0.00    -0.247 OA
HETATM   13  N   UNL     1     -50.820 -50.302   0.143  1.00  0.00    -0.334 N 
HETATM   14  C   UNL     1     -52.000 -49.489  -0.097  1.00  0.00     0.127 C 
HETATM   15  C   UNL     1     -49.793 -49.529   0.817  1.00  0.00     0.127 C 
HETATM   16  C   UNL     1     -51.772 -48.189   0.667  1.00  0.00     0.022 C 
HETATM   17  C   UNL     1     -50.584 -48.476   1.577  1.00  0.00     0.022 C 
HETATM   18  H   UNL     1     -52.474 -51.689  -1.029  1.00  0.00     0.164 HD
ENDBRANCH   2  10
TORSDOF 3
ENDMDL
MODEL 5
REMARK VINA RESULT:      -4.8      1.680      2.029
REMARK  3 active torsions:
REMARK  status: ('A' for Active; 'I' for Inactive)
REMARK    1  A    between atoms: C_2  and  C_3 
REMARK    2  A    between atoms: C_2  and  N_10 
REMARK    3  A    between atoms: C_3  and  N_4 
REMARK       I    between atoms: N_10  and  C_11 
REMARK       I    between atoms: C_11  and  N_13 
ROOT
HETATM    1  C   UNL     1     -40.177 -45.225  12.354  1.00  0.00     0.034 C 
HETATM    2  C   UNL     1     -40.934 -46.379  11.695  1.00  0.00     0.100 C 
ENDROOT
BRANCH   2   3
HETATM    3  C   UNL     1     -41.432 -46.030  10.279  1.00  0.00     0.153 C 
BRANCH   3   4
HETATM    4  N   UNL     1     -42.710 -46.616   9.926  1.00  0.00    -0.350 N 
HETATM    5  C   UNL     1     -43.380 -46.450   8.745  1.00  0.00     0.108 A 
HETATM    6  C   UNL     1     -44.508 -47.231   8.864  1.00  0.00     0.106 A 
HETATM    7  N   UNL     1     -44.536 -47.857  10.081  1.00  0.00    -0.361 N 
HETATM    8  C   UNL     1     -43.438 -47.480  10.693  1.00  0.00     0.182 A 
ATOM      9  HN  UNL     1     -45.258 -48.484  10.437  1.00  0.00     0.166 HD
ENDBRANCH   3   4
ENDBRANCH   2   3
BRANCH   2  10
HETATM   10  N   UNL     1     -40.054 -47.550  11.675  1.00  0.00    -0.337 N 
HETATM   11  C   UNL     1     -40.288 -48.666  12.435  1.00  0.00     0.318 C 
HETATM   12  O   UNL     1     -41.268 -48.760  13.163  1.00  0.00    -0.247 OA
HETATM   13  N   UNL     1     -39.315 -49.633  12.347  1.00  0.00    -0.334 N 
HETATM   14  C   UNL     1     -38.135 -49.644  11.499  1.00  0.00     0.127 C 
HETATM   15  C   UNL     1     -39.352 -50.815  13.188  1.00  0.00     0.127 C 
HETATM   16  C   UNL     1     -37.275 -50.801  11.997  1.00  0.00     0.022 C 
HETATM   17  C   UNL     1     -37.886 -51.191  13.338  1.00  0.00     0.022 C 
HETATM   18  H   UNL     1     -39.367 -47.617  10.944  1.00  0.00     0.164 HD
ENDBRANCH   2  10
TORSDOF 3
ENDMDL
MODEL 6
REMARK VINA RESULT:      -4.8      4.355      6.164
REMARK  3 active torsions:
REMARK  status: ('A' for Active; 'I' for Inactive)
REMARK    1  A    between atoms: C_2  and  C_3 
REMARK    2  A    between atoms: C_2  and  N_10 
REMARK    3  A    between atoms: C_3  and  N_4 
REMARK       I    between atoms: N_10  and  C_11 
REMARK       I    between atoms: C_11  and  N_13 
ROOT
HETATM    1  C   UNL     1     -43.999 -50.462  15.011  1.00  0.00     0.034 C 
HETATM    2  C   UNL     1     -44.110 -51.016  13.591  1.00  0.00     0.100 C 
ENDROOT
BRANCH   2   3
HETATM    3  C   UNL     1     -45.521 -51.547  13.270  1.00  0.00     0.153 C 
BRANCH   3   4
HETATM    4  N   UNL     1     -45.732 -52.943  13.596  1.00  0.00    -0.350 N 
HETATM    5  C   UNL     1     -44.921 -53.988  13.249  1.00  0.00     0.108 A 
HETATM    6  C   UNL     1     -45.507 -55.097  13.819  1.00  0.00     0.106 A 
HETATM    7  N   UNL     1     -46.646 -54.748  14.495  1.00  0.00    -0.361 N 
HETATM    8  C   UNL     1     -46.750 -53.447  14.354  1.00  0.00     0.182 A 
ATOM      9  HN  UNL     1     -47.279 -55.368  14.999  1.00  0.00     0.166 HD
ENDBRANCH   3   4
ENDBRANCH   2   3
BRANCH   2  10
HETATM   10  N   UNL     1     -43.714 -49.961  12.655  1.00  0.00    -0.337 N 
HETATM   11  C   UNL     1     -42.413 -49.753  12.281  1.00  0.00     0.318 C 
HETATM   12  O   UNL     1     -41.500 -50.459  12.690  1.00  0.00    -0.247 OA
HETATM   13  N   UNL     1     -42.220 -48.667  11.458  1.00  0.00    -0.334 N 
HETATM   14  C   UNL     1     -43.223 -47.785  10.887  1.00  0.00     0.127 C 
HETATM   15  C   UNL     1     -40.886 -48.238  11.080  1.00  0.00     0.127 C 
HETATM   16  C   UNL     1     -42.455 -46.610  10.292  1.00  0.00     0.022 C 
HETATM   17  C   UNL     1     -41.044 -46.744  10.854  1.00  0.00     0.022 C 
HETATM   18  H   UNL     1     -44.433 -49.499  12.125  1.00  0.00     0.164 HD
ENDBRANCH   2  10
TORSDOF 3
ENDMDL
MODEL 7
REMARK VINA RESULT:      -4.7      3.250      5.814
REMARK  3 active torsions:
REMARK  status: ('A' for Active; 'I' for Inactive)
REMARK    1  A    between atoms: C_2  and  C_3 
REMARK    2  A    between atoms: C_2  and  N_10 
REMARK    3  A    between atoms: C_3  and  N_4 
REMARK       I    between atoms: N_10  and  C_11 
REMARK       I    between atoms: C_11  and  N_13 
ROOT
HETATM    1  C   UNL     1     -37.461 -50.550  12.155  1.00  0.00     0.034 C 
HETATM    2  C   UNL     1     -38.979 -50.369  12.161  1.00  0.00     0.100 C 
ENDROOT
BRANCH   2   3
HETATM    3  C   UNL     1     -39.665 -51.141  13.305  1.00  0.00     0.153 C 
BRANCH   3   4
HETATM    4  N   UNL     1     -40.956 -51.706  12.965  1.00  0.00    -0.350 N 
HETATM    5  C   UNL     1     -42.071 -51.715  13.757  1.00  0.00     0.108 A 
HETATM    6  C   UNL     1     -43.045 -52.315  12.990  1.00  0.00     0.106 A 
HETATM    7  N   UNL     1     -42.547 -52.668  11.765  1.00  0.00    -0.361 N 
HETATM    8  C   UNL     1     -41.293 -52.279  11.773  1.00  0.00     0.182 A 
ATOM      9  HN  UNL     1     -43.045 -53.135  11.006  1.00  0.00     0.166 HD
ENDBRANCH   3   4
ENDBRANCH   2   3
BRANCH   2  10
HETATM   10  N   UNL     1     -39.268 -48.935  12.239  1.00  0.00    -0.337 N 
HETATM   11  C   UNL     1     -40.225 -48.329  11.468  1.00  0.00     0.318 C 
HETATM   12  O   UNL     1     -40.917 -48.959  10.679  1.00  0.00    -0.247 OA
HETATM   13  N   UNL     1     -40.302 -46.963  11.619  1.00  0.00    -0.334 N 
HETATM   14  C   UNL     1     -39.561 -46.120  12.541  1.00  0.00     0.127 C 
HETATM   15  C   UNL     1     -41.173 -46.163  10.780  1.00  0.00     0.127 C 
HETATM   16  C   UNL     1     -39.831 -44.685  12.101  1.00  0.00     0.022 C 
HETATM   17  C   UNL     1     -40.473 -44.815  10.725  1.00  0.00     0.022 C 
HETATM   18  H   UNL     1     -38.891 -48.415  13.012  1.00  0.00     0.164 HD
ENDBRANCH   2  10
TORSDOF 3
ENDMDL
MODEL 8
REMARK VINA RESULT:      -4.6      4.316      5.812
REMARK  3 active torsions:
REMARK  status: ('A' for Active; 'I' for Inactive)
REMARK    1  A    between atoms: C_2  and  C_3 
REMARK    2  A    between atoms: C_2  and  N_10 
REMARK    3  A    between atoms: C_3  and  N_4 
REMARK       I    between atoms: N_10  and  C_11 
REMARK       I    between atoms: C_11  and  N_13 
ROOT
HETATM    1  C   UNL     1     -42.781 -52.758  14.890  1.00  0.00     0.034 C 
HETATM    2  C   UNL     1     -42.539 -52.994  13.400  1.00  0.00     0.100 C 
ENDROOT
BRANCH   2   3
HETATM    3  C   UNL     1     -43.850 -53.122  12.600  1.00  0.00     0.153 C 
BRANCH   3   4
HETATM    4  N   UNL     1     -45.002 -53.524  13.384  1.00  0.00    -0.350 N 
HETATM    5  C   UNL     1     -45.946 -52.694  13.922  1.00  0.00     0.108 A 
HETATM    6  C   UNL     1     -46.852 -53.534  14.530  1.00  0.00     0.106 A 
HETATM    7  N   UNL     1     -46.478 -54.842  14.376  1.00  0.00    -0.361 N 
HETATM    8  C   UNL     1     -45.370 -54.807  13.673  1.00  0.00     0.182 A 
ATOM      9  HN  UNL     1     -46.957 -55.668  14.732  1.00  0.00     0.166 HD
ENDBRANCH   3   4
ENDBRANCH   2   3
BRANCH   2  10
HETATM   10  N   UNL     1     -41.711 -51.899  12.891  1.00  0.00    -0.337 N 
HETATM   11  C   UNL     1     -40.350 -51.993  12.771  1.00  0.00     0.318 C 
HETATM   12  O   UNL     1     -39.742 -53.017  13.062  1.00  0.00    -0.247 OA
HETATM   13  N   UNL     1     -39.729 -50.840  12.351  1.00  0.00    -0.334 N 
HETATM   14  C   UNL     1     -40.345 -49.586  11.949  1.00  0.00     0.127 C 
HETATM   15  C   UNL     1     -38.283 -50.739  12.300  1.00  0.00     0.127 C 
HETATM   16  C   UNL     1     -39.206 -48.577  11.847  1.00  0.00     0.022 C 
HETATM   17  C   UNL     1     -38.021 -49.258  12.522  1.00  0.00     0.022 C 
HETATM   18  H   UNL     1     -42.168 -51.127  12.437  1.00  0.00     0.164 HD
ENDBRANCH   2  10
TORSDOF 3
ENDMDL
MODEL 9
REMARK VINA RESULT:      -4.5      2.603      3.930
REMARK  3 active torsions:
REMARK  status: ('A' for Active; 'I' for Inactive)
REMARK    1  A    between atoms: C_2  and  C_3 
REMARK    2  A    between atoms: C_2  and  N_10 
REMARK    3  A    between atoms: C_3  and  N_4 
REMARK       I    between atoms: N_10  and  C_11 
REMARK       I    between atoms: C_11  and  N_13 
ROOT
HETATM    1  C   UNL     1     -43.895 -47.701  10.168  1.00  0.00     0.034 C 
HETATM    2  C   UNL     1     -42.538 -47.854  10.855  1.00  0.00     0.100 C 
ENDROOT
BRANCH   2   3
HETATM    3  C   UNL     1     -42.248 -46.719  11.856  1.00  0.00     0.153 C 
BRANCH   3   4
HETATM    4  N   UNL     1     -41.332 -45.704  11.372  1.00  0.00    -0.350 N 
HETATM    5  C   UNL     1     -41.431 -44.356  11.581  1.00  0.00     0.108 A 
HETATM    6  C   UNL     1     -40.318 -43.820  10.973  1.00  0.00     0.106 A 
HETATM    7  N   UNL     1     -39.556 -44.805  10.404  1.00  0.00    -0.361 N 
HETATM    8  C   UNL     1     -40.183 -45.928  10.669  1.00  0.00     0.182 A 
ATOM      9  HN  UNL     1     -38.687 -44.691   9.883  1.00  0.00     0.166 HD
ENDBRANCH   3   4
ENDBRANCH   2   3
BRANCH   2  10
HETATM   10  N   UNL     1     -42.503 -49.163  11.511  1.00  0.00    -0.337 N 
HETATM   11  C   UNL     1     -41.336 -49.837  11.758  1.00  0.00     0.318 C 
HETATM   12  O   UNL     1     -40.243 -49.370  11.464  1.00  0.00    -0.247 OA
HETATM   13  N   UNL     1     -41.502 -51.086  12.310  1.00  0.00    -0.334 N 
HETATM   14  C   UNL     1     -42.738 -51.726  12.727  1.00  0.00     0.127 C 
HETATM   15  C   UNL     1     -40.373 -51.975  12.509  1.00  0.00     0.127 C 
HETATM   16  C   UNL     1     -42.380 -53.182  13.005  1.00  0.00     0.022 C 
HETATM   17  C   UNL     1     -40.989 -53.361  12.409  1.00  0.00     0.022 C 
HETATM   18  H   UNL     1     -43.338 -49.491  11.966  1.00  0.00     0.164 HD
ENDBRANCH   2  10
TORSDOF 3
ENDMDL
