MODEL 1
REMARK VINA RESULT:      -4.5      0.000      0.000
REMARK  4 active torsions:
REMARK  status: ('A' for Active; 'I' for Inactive)
REMARK    1  A    between atoms: N_1  and  C_2 
REMARK    2  A    between atoms: C_2  and  C_3 
REMARK    3  A    between atoms: C_3  and  C_4 
REMARK    4  A    between atoms: C_9  and  O_10 
ROOT
HETATM    1  C   UNL     1     -43.083 -54.062  13.584  1.00  0.00    -0.038 A 
HETATM    2  C   UNL     1     -43.438 -53.139  12.603  1.00  0.00     0.095 A 
HETATM    3  N   UNL     1     -42.553 -52.501  11.802  1.00  0.00    -0.372 N 
ATOM      4  HN  UNL     1     -42.855 -51.833  11.093  1.00  0.00     0.164 HD
HETATM    5  C   UNL     1     -41.246 -52.796  11.991  1.00  0.00     0.124 A 
HETATM    6  C   UNL     1     -40.794 -53.695  12.944  1.00  0.00     0.081 A 
HETATM    7  C   UNL     1     -41.722 -54.335  13.752  1.00  0.00     0.046 A 
ENDROOT
BRANCH   1   8
HETATM    8  C   UNL     1     -44.124 -54.709  14.455  1.00  0.00     0.069 C 
BRANCH   8   9
HETATM    9  C   UNL     1     -45.391 -55.047  13.662  1.00  0.00     0.271 C 
BRANCH   9  10
HETATM   10  N   UNL     1     -46.590 -54.789  14.456  1.00  0.00     0.078 N 
HETATM   11  H   UNL     1     -46.466 -55.182  15.389  1.00  0.00     0.312 HD
HETATM   12  H   UNL     1     -47.385 -55.281  14.048  1.00  0.00     0.312 HD
ENDBRANCH   9  10
ENDBRANCH   8   9
ENDBRANCH   1   8
BRANCH   6  13
HETATM   13  O   UNL     1     -39.474 -53.979  13.130  1.00  0.00    -0.359 OA
HETATM   14  H   UNL     1     -38.984 -53.145  13.236  1.00  0.00     0.217 HD
ENDBRANCH   6  13
TORSDOF 4
ENDMDL
MODEL 2
REMARK VINA RESULT:      -4.3      6.742      8.302
REMARK  4 active torsions:
REMARK  status: ('A' for Active; 'I' for Inactive)
REMARK    1  A    between atoms: N_1  and  C_2 
REMARK    2  A    between atoms: C_2  and  C_3 
REMARK    3  A    between atoms: C_3  and  C_4 
REMARK    4  A    between atoms: C_9  and  O_10 
ROOT
HETATM    1  C   UNL     1     -42.246 -47.013  10.207  1.00  0.00    -0.038 A 
HETATM    2  C   UNL     1     -42.649 -45.693  10.397  1.00  0.00     0.095 A 
HETATM    3  N   UNL     1     -43.696 -45.117   9.761  1.00  0.00    -0.372 N 
ATOM      4  HN  UNL     1     -43.959 -44.146   9.931  1.00  0.00     0.164 HD
HETATM    5  C   UNL     1     -44.374 -45.896   8.888  1.00  0.00     0.124 A 
HETATM    6  C   UNL     1     -44.048 -47.218   8.627  1.00  0.00     0.081 A 
HETATM    7  C   UNL     1     -42.970 -47.784   9.292  1.00  0.00     0.046 A 
ENDROOT
BRANCH   1   8
HETATM    8  C   UNL     1     -41.053 -47.574  10.931  1.00  0.00     0.069 C 
BRANCH   8   9
HETATM    9  C   UNL     1     -41.226 -49.068  11.228  1.00  0.00     0.271 C 
BRANCH   9  10
HETATM   10  N   UNL     1     -40.358 -49.876  10.375  1.00  0.00     0.078 N 
HETATM   11  H   UNL     1     -40.934 -50.446   9.755  1.00  0.00     0.312 HD
HETATM   12  H   UNL     1     -39.829 -50.533  10.948  1.00  0.00     0.312 HD
ENDBRANCH   9  10
ENDBRANCH   8   9
ENDBRANCH   1   8
BRANCH   6  13
HETATM   13  O   UNL     1     -44.735 -47.991   7.740  1.00  0.00    -0.359 OA
HETATM   14  H   UNL     1     -45.544 -47.522   7.474  1.00  0.00     0.217 HD
ENDBRANCH   6  13
TORSDOF 4
ENDMDL
MODEL 3
REMARK VINA RESULT:      -4.2      2.513      4.599
REMARK  4 active torsions:
REMARK  status: ('A' for Active; 'I' for Inactive)
REMARK    1  A    between atoms: N_1  and  C_2 
REMARK    2  A    between atoms: C_2  and  C_3 
REMARK    3  A    between atoms: C_3  and  C_4 
REMARK    4  A    between atoms: C_9  and  O_10 
ROOT
HETATM    1  C   UNL     1     -43.211 -53.988  13.427  1.00  0.00    -0.038 A 
HETATM    2  C   UNL     1     -43.662 -54.416  14.674  1.00  0.00     0.095 A 
HETATM    3  N   UNL     1     -44.953 -54.368  15.074  1.00  0.00    -0.372 N 
ATOM      4  HN  UNL     1     -45.242 -54.694  15.997  1.00  0.00     0.164 HD
HETATM    5  C   UNL     1     -45.842 -53.865  14.187  1.00  0.00     0.124 A 
HETATM    6  C   UNL     1     -45.491 -53.409  12.926  1.00  0.00     0.081 A 
HETATM    7  C   UNL     1     -44.160 -53.470  12.540  1.00  0.00     0.046 A 
ENDROOT
BRANCH   1   8
HETATM    8  C   UNL     1     -41.753 -54.047  13.064  1.00  0.00     0.069 C 
BRANCH   8   9
HETATM    9  C   UNL     1     -41.230 -52.680  12.609  1.00  0.00     0.271 C 
BRANCH   9  10
HETATM   10  N   UNL     1     -41.088 -52.630  11.156  1.00  0.00     0.078 N 
HETATM   11  H   UNL     1     -40.915 -53.572  10.804  1.00  0.00     0.312 HD
HETATM   12  H   UNL     1     -40.263 -52.084  10.909  1.00  0.00     0.312 HD
ENDBRANCH   9  10
ENDBRANCH   8   9
ENDBRANCH   1   8
BRANCH   6  13
HETATM   13  O   UNL     1     -46.395 -52.898  12.043  1.00  0.00    -0.359 OA
HETATM   14  H   UNL     1     -46.245 -53.300  11.170  1.00  0.00     0.217 HD
ENDBRANCH   6  13
TORSDOF 4
ENDMDL
MODEL 4
REMARK VINA RESULT:      -4.2      1.767      2.169
REMARK  4 active torsions:
REMARK  status: ('A' for Active; 'I' for Inactive)
REMARK    1  A    between atoms: N_1  and  C_2 
REMARK    2  A    between atoms: C_2  and  C_3 
REMARK    3  A    between atoms: C_3  and  C_4 
REMARK    4  A    between atoms: C_9  and  O_10 
ROOT
HETATM    1  C   UNL     1     -42.469 -54.488  14.438  1.00  0.00    -0.038 A 
HETATM    2  C   UNL     1     -41.414 -54.620  15.338  1.00  0.00     0.095 A 
HETATM    3  N   UNL     1     -40.120 -54.362  15.036  1.00  0.00    -0.372 N 
ATOM      4  HN  UNL     1     -39.376 -54.470  15.726  1.00  0.00     0.164 HD
HETATM    5  C   UNL     1     -39.865 -53.953  13.772  1.00  0.00     0.124 A 
HETATM    6  C   UNL     1     -40.845 -53.796  12.805  1.00  0.00     0.081 A 
HETATM    7  C   UNL     1     -42.163 -54.068  13.140  1.00  0.00     0.046 A 
ENDROOT
BRANCH   1   8
HETATM    8  C   UNL     1     -43.880 -54.821  14.839  1.00  0.00     0.069 C 
BRANCH   8   9
HETATM    9  C   UNL     1     -44.852 -54.665  13.665  1.00  0.00     0.271 C 
BRANCH   9  10
HETATM   10  N   UNL     1     -46.222 -54.961  14.074  1.00  0.00     0.078 N 
HETATM   11  H   UNL     1     -46.867 -54.395  13.522  1.00  0.00     0.312 HD
HETATM   12  H   UNL     1     -46.360 -54.677  15.044  1.00  0.00     0.312 HD
ENDBRANCH   9  10
ENDBRANCH   8   9
ENDBRANCH   1   8
BRANCH   6  13
HETATM   13  O   UNL     1     -40.574 -53.390  11.533  1.00  0.00    -0.359 OA
HETATM   14  H   UNL     1     -41.389 -53.043  11.132  1.00  0.00     0.217 HD
ENDBRANCH   6  13
TORSDOF 4
ENDMDL
MODEL 5
REMARK VINA RESULT:      -4.2     21.284     22.522
REMARK  4 active torsions:
REMARK  status: ('A' for Active; 'I' for Inactive)
REMARK    1  A    between atoms: N_1  and  C_2 
REMARK    2  A    between atoms: C_2  and  C_3 
REMARK    3  A    between atoms: C_3  and  C_4 
REMARK    4  A    between atoms: C_9  and  O_10 
ROOT
HETATM    1  C   UNL     1     -29.807 -54.300  -5.235  1.00  0.00    -0.038 A 
HETATM    2  C   UNL     1     -29.909 -53.014  -5.761  1.00  0.00     0.095 A 
HETATM    3  N   UNL     1     -31.052 -52.290  -5.785  1.00  0.00    -0.372 N 
ATOM      4  HN  UNL     1     -31.084 -51.349  -6.178  1.00  0.00     0.164 HD
HETATM    5  C   UNL     1     -32.151 -52.880  -5.260  1.00  0.00     0.124 A 
HETATM    6  C   UNL     1     -32.151 -54.156  -4.719  1.00  0.00     0.081 A 
HETATM    7  C   UNL     1     -30.966 -54.876  -4.707  1.00  0.00     0.046 A 
ENDROOT
BRANCH   1   8
HETATM    8  C   UNL     1     -28.505 -55.053  -5.269  1.00  0.00     0.069 C 
BRANCH   8   9
HETATM    9  C   UNL     1     -27.325 -54.157  -4.877  1.00  0.00     0.271 C 
BRANCH   9  10
HETATM   10  N   UNL     1     -26.863 -54.462  -3.525  1.00  0.00     0.078 N 
HETATM   11  H   UNL     1     -26.938 -55.467  -3.364  1.00  0.00     0.312 HD
HETATM   12  H   UNL     1     -27.480 -54.022  -2.843  1.00  0.00     0.312 HD
ENDBRANCH   9  10
ENDBRANCH   8   9
ENDBRANCH   1   8
BRANCH   6  13
HETATM   13  O   UNL     1     -33.266 -54.742  -4.199  1.00  0.00    -0.359 OA
HETATM   14  H   UNL     1     -33.920 -54.051  -3.997  1.00  0.00     0.217 HD
ENDBRANCH   6  13
TORSDOF 4
ENDMDL
MODEL 6
REMARK VINA RESULT:      -4.0      7.578      8.388
REMARK  4 active torsions:
REMARK  status: ('A' for Active; 'I' for Inactive)
REMARK    1  A    between atoms: N_1  and  C_2 
REMARK    2  A    between atoms: C_2  and  C_3 
REMARK    3  A    between atoms: C_3  and  C_4 
REMARK    4  A    between atoms: C_9  and  O_10 
ROOT
HETATM    1  C   UNL     1     -42.401 -47.129  10.227  1.00  0.00    -0.038 A 
HETATM    2  C   UNL     1     -41.424 -47.998  10.708  1.00  0.00     0.095 A 
HETATM    3  N   UNL     1     -40.182 -47.614  11.085  1.00  0.00    -0.372 N 
ATOM      4  HN  UNL     1     -39.496 -48.283  11.434  1.00  0.00     0.164 HD
HETATM    5  C   UNL     1     -39.899 -46.296  10.976  1.00  0.00     0.124 A 
HETATM    6  C   UNL     1     -40.802 -45.355  10.504  1.00  0.00     0.081 A 
HETATM    7  C   UNL     1     -42.067 -45.776  10.124  1.00  0.00     0.046 A 
ENDROOT
BRANCH   1   8
HETATM    8  C   UNL     1     -43.751 -47.637   9.800  1.00  0.00     0.069 C 
BRANCH   8   9
HETATM    9  C   UNL     1     -43.988 -47.416   8.303  1.00  0.00     0.271 C 
BRANCH   9  10
HETATM   10  N   UNL     1     -43.053 -48.203   7.502  1.00  0.00     0.078 N 
HETATM   11  H   UNL     1     -43.328 -48.154   6.521  1.00  0.00     0.312 HD
HETATM   12  H   UNL     1     -43.120 -49.187   7.763  1.00  0.00     0.312 HD
ENDBRANCH   9  10
ENDBRANCH   8   9
ENDBRANCH   1   8
BRANCH   6  13
HETATM   13  O   UNL     1     -40.502 -44.031  10.392  1.00  0.00    -0.359 OA
HETATM   14  H   UNL     1     -39.539 -43.931  10.297  1.00  0.00     0.217 HD
ENDBRANCH   6  13
TORSDOF 4
ENDMDL
MODEL 7
REMARK VINA RESULT:      -4.0      2.794      4.275
REMARK  4 active torsions:
REMARK  status: ('A' for Active; 'I' for Inactive)
REMARK    1  A    between atoms: N_1  and  C_2 
REMARK    2  A    between atoms: C_2  and  C_3 
REMARK    3  A    between atoms: C_3  and  C_4 
REMARK    4  A    between atoms: C_9  and  O_10 
ROOT
HETATM    1  C   UNL     1     -42.523 -54.146  13.912  1.00  0.00    -0.038 A 
HETATM    2  C   UNL     1     -42.631 -53.285  12.822  1.00  0.00     0.095 A 
HETATM    3  N   UNL     1     -43.778 -53.063  12.138  1.00  0.00    -0.372 N 
ATOM      4  HN  UNL     1     -43.815 -52.422  11.346  1.00  0.00     0.164 HD
HETATM    5  C   UNL     1     -44.872 -53.737  12.560  1.00  0.00     0.124 A 
HETATM    6  C   UNL     1     -44.864 -54.619  13.630  1.00  0.00     0.081 A 
HETATM    7  C   UNL     1     -43.676 -54.828  14.314  1.00  0.00     0.046 A 
ENDROOT
BRANCH   1   8
HETATM    8  C   UNL     1     -41.206 -54.362  14.605  1.00  0.00     0.069 C 
BRANCH   8   9
HETATM    9  C   UNL     1     -40.027 -54.171  13.646  1.00  0.00     0.271 C 
BRANCH   9  10
HETATM   10  N   UNL     1     -38.850 -54.903  14.108  1.00  0.00     0.078 N 
HETATM   11  H   UNL     1     -38.948 -55.100  15.104  1.00  0.00     0.312 HD
HETATM   12  H   UNL     1     -38.022 -54.315  14.019  1.00  0.00     0.312 HD
ENDBRANCH   9  10
ENDBRANCH   8   9
ENDBRANCH   1   8
BRANCH   6  13
HETATM   13  O   UNL     1     -45.972 -55.297  14.041  1.00  0.00    -0.359 OA
HETATM   14  H   UNL     1     -46.559 -55.435  13.278  1.00  0.00     0.217 HD
ENDBRANCH   6  13
TORSDOF 4
ENDMDL
MODEL 8
REMARK VINA RESULT:      -3.9      4.221      4.821
REMARK  4 active torsions:
REMARK  status: ('A' for Active; 'I' for Inactive)
REMARK    1  A    between atoms: N_1  and  C_2 
REMARK    2  A    between atoms: C_2  and  C_3 
REMARK    3  A    between atoms: C_3  and  C_4 
REMARK    4  A    between atoms: C_9  and  O_10 
ROOT
HETATM    1  C   UNL     1     -45.754 -51.733  14.786  1.00  0.00    -0.038 A 
HETATM    2  C   UNL     1     -44.547 -52.430  14.779  1.00  0.00     0.095 A 
HETATM    3  N   UNL     1     -44.065 -53.105  13.710  1.00  0.00    -0.372 N 
ATOM      4  HN  UNL     1     -43.174 -53.601  13.746  1.00  0.00     0.164 HD
HETATM    5  C   UNL     1     -44.825 -53.087  12.591  1.00  0.00     0.124 A 
HETATM    6  C   UNL     1     -46.041 -52.427  12.502  1.00  0.00     0.081 A 
HETATM    7  C   UNL     1     -46.512 -51.743  13.612  1.00  0.00     0.046 A 
ENDROOT
BRANCH   1   8
HETATM    8  C   UNL     1     -46.238 -51.029  16.024  1.00  0.00     0.069 C 
BRANCH   8   9
HETATM    9  C   UNL     1     -47.608 -51.552  16.470  1.00  0.00     0.271 C 
BRANCH   9  10
HETATM   10  N   UNL     1     -48.213 -50.662  17.458  1.00  0.00     0.078 N 
HETATM   11  H   UNL     1     -48.707 -51.221  18.154  1.00  0.00     0.312 HD
HETATM   12  H   UNL     1     -48.922 -50.082  17.010  1.00  0.00     0.312 HD
ENDBRANCH   9  10
ENDBRANCH   8   9
ENDBRANCH   1   8
BRANCH   6  13
HETATM   13  O   UNL     1     -46.801 -52.422  11.371  1.00  0.00    -0.359 OA
HETATM   14  H   UNL     1     -47.020 -53.339  11.134  1.00  0.00     0.217 HD
ENDBRANCH   6  13
TORSDOF 4
ENDMDL
MODEL 9
REMARK VINA RESULT:      -3.8      7.025      8.598
REMARK  4 active torsions:
REMARK  status: ('A' for Active; 'I' for Inactive)
REMARK    1  A    between atoms: N_1  and  C_2 
REMARK    2  A    between atoms: C_2  and  C_3 
REMARK    3  A    between atoms: C_3  and  C_4 
REMARK    4  A    between atoms: C_9  and  O_10 
ROOT
HETATM    1  C   UNL     1     -40.619 -46.732  11.379  1.00  0.00    -0.038 A 
HETATM    2  C   UNL     1     -41.994 -46.782  11.604  1.00  0.00     0.095 A 
HETATM    3  N   UNL     1     -42.829 -45.728  11.453  1.00  0.00    -0.372 N 
ATOM      4  HN  UNL     1     -43.831 -45.808  11.626  1.00  0.00     0.164 HD
HETATM    5  C   UNL     1     -42.265 -44.563  11.061  1.00  0.00     0.124 A 
HETATM    6  C   UNL     1     -40.908 -44.411  10.818  1.00  0.00     0.081 A 
HETATM    7  C   UNL     1     -40.075 -45.508  10.980  1.00  0.00     0.046 A 
ENDROOT
BRANCH   1   8
HETATM    8  C   UNL     1     -39.751 -47.941  11.595  1.00  0.00     0.069 C 
BRANCH   8   9
HETATM    9  C   UNL     1     -40.576 -49.233  11.599  1.00  0.00     0.271 C 
BRANCH   9  10
HETATM   10  N   UNL     1     -40.432 -49.951  10.335  1.00  0.00     0.078 N 
HETATM   11  H   UNL     1     -41.029 -49.515   9.632  1.00  0.00     0.312 HD
HETATM   12  H   UNL     1     -40.774 -50.905  10.440  1.00  0.00     0.312 HD
ENDBRANCH   9  10
ENDBRANCH   8   9
ENDBRANCH   1   8
BRANCH   6  13
HETATM   13  O   UNL     1     -40.351 -43.230  10.430  1.00  0.00    -0.359 OA
HETATM   14  H   UNL     1     -39.390 -43.349  10.341  1.00  0.00     0.217 HD
ENDBRANCH   6  13
TORSDOF 4
ENDMDL
