MODEL 1
REMARK VINA RESULT:      -5.5      0.000      0.000
REMARK  5 active torsions:
REMARK  status: ('A' for Active; 'I' for Inactive)
REMARK    1  A    between atoms: C_2  and  C_3 
REMARK    2  A    between atoms: C_2  and  N_10 
REMARK    3  A    between atoms: C_3  and  N_4 
REMARK       I    between atoms: N_10  and  C_11 
REMARK       I    between atoms: C_11  and  N_13 
REMARK    4  A    between atoms: N_13  and  C_14 
REMARK    5  A    between atoms: C_14  and  C_15 
ROOT
HETATM    1  N   UNL     1     -41.633 -48.207  10.638  1.00  0.00    -0.337 N 
HETATM    2  C   UNL     1     -41.915 -49.095  11.644  1.00  0.00     0.316 C 
HETATM    3  O   UNL     1     -42.469 -48.792  12.690  1.00  0.00    -0.247 OA
HETATM    4  N   UNL     1     -41.542 -50.371  11.318  1.00  0.00    -0.343 N 
HETATM    5  H   UNL     1     -40.804 -48.434  10.106  1.00  0.00     0.164 HD
HETATM    6  H   UNL     1     -41.192 -50.548  10.388  1.00  0.00     0.164 HD
ENDROOT
BRANCH   1   7
HETATM    7  C   UNL     1     -41.961 -46.776  10.770  1.00  0.00     0.100 C 
HETATM    8  C   UNL     1     -40.673 -46.007  11.064  1.00  0.00     0.034 C 
BRANCH   7   9
HETATM    9  C   UNL     1     -42.676 -46.247   9.505  1.00  0.00     0.153 C 
BRANCH   9  10
HETATM   10  N   UNL     1     -43.756 -47.071   9.006  1.00  0.00    -0.350 N 
HETATM   11  C   UNL     1     -44.992 -47.202   9.574  1.00  0.00     0.108 A 
HETATM   12  C   UNL     1     -45.697 -48.004   8.708  1.00  0.00     0.106 A 
HETATM   13  N   UNL     1     -44.921 -48.360   7.637  1.00  0.00    -0.361 N 
HETATM   14  C   UNL     1     -43.764 -47.763   7.827  1.00  0.00     0.182 A 
ATOM     15  HN  UNL     1     -45.185 -48.961   6.856  1.00  0.00     0.166 HD
ENDBRANCH   9  10
ENDBRANCH   7   9
ENDBRANCH   1   7
BRANCH   4  16
HETATM   16  C   UNL     1     -41.823 -51.493  12.193  1.00  0.00     0.131 C 
BRANCH  16  17
HETATM   17  C   UNL     1     -40.655 -52.468  12.330  1.00  0.00     0.029 C 
HETATM   18  C   UNL     1     -41.074 -53.792  12.951  1.00  0.00     0.034 C 
HETATM   19  C   UNL     1     -39.887 -54.221  13.793  1.00  0.00     0.168 C 
HETATM   20  O   UNL     1     -38.911 -53.178  13.735  1.00  0.00    -0.391 OA
HETATM   21  C   UNL     1     -39.566 -51.995  13.271  1.00  0.00     0.173 C 
ENDBRANCH  16  17
ENDBRANCH   4  16
TORSDOF 5
ENDMDL
MODEL 2
REMARK VINA RESULT:      -5.5      2.127      2.531
REMARK  5 active torsions:
REMARK  status: ('A' for Active; 'I' for Inactive)
REMARK    1  A    between atoms: C_2  and  C_3 
REMARK    2  A    between atoms: C_2  and  N_10 
REMARK    3  A    between atoms: C_3  and  N_4 
REMARK       I    between atoms: N_10  and  C_11 
REMARK       I    between atoms: C_11  and  N_13 
REMARK    4  A    between atoms: N_13  and  C_14 
REMARK    5  A    between atoms: C_14  and  C_15 
ROOT
HETATM    1  N   UNL     1     -41.990 -49.170  11.034  1.00  0.00    -0.337 N 
HETATM    2  C   UNL     1     -41.893 -49.968  12.145  1.00  0.00     0.316 C 
HETATM    3  O   UNL     1     -41.791 -49.544  13.286  1.00  0.00    -0.247 OA
HETATM    4  N   UNL     1     -41.970 -51.297  11.827  1.00  0.00    -0.343 N 
HETATM    5  H   UNL     1     -41.590 -49.574  10.198  1.00  0.00     0.164 HD
HETATM    6  H   UNL     1     -42.166 -51.553  10.871  1.00  0.00     0.164 HD
ENDROOT
BRANCH   1   7
HETATM    7  C   UNL     1     -41.943 -47.701  11.143  1.00  0.00     0.100 C 
HETATM    8  C   UNL     1     -40.531 -47.290  11.563  1.00  0.00     0.034 C 
BRANCH   7   9
HETATM    9  C   UNL     1     -42.373 -47.027   9.820  1.00  0.00     0.153 C 
BRANCH   9  10
HETATM   10  N   UNL     1     -43.627 -47.488   9.263  1.00  0.00    -0.350 N 
HETATM   11  C   UNL     1     -44.846 -47.428   9.875  1.00  0.00     0.108 A 
HETATM   12  C   UNL     1     -45.738 -47.891   8.936  1.00  0.00     0.106 A 
HETATM   13  N   UNL     1     -45.090 -48.229   7.777  1.00  0.00    -0.361 N 
HETATM   14  C   UNL     1     -43.821 -47.951   7.991  1.00  0.00     0.182 A 
ATOM     15  HN  UNL     1     -45.503 -48.614   6.928  1.00  0.00     0.166 HD
ENDBRANCH   9  10
ENDBRANCH   7   9
ENDBRANCH   1   7
BRANCH   4  16
HETATM   16  C   UNL     1     -41.980 -52.324  12.850  1.00  0.00     0.131 C 
BRANCH  16  17
HETATM   17  C   UNL     1     -43.383 -52.715  13.311  1.00  0.00     0.029 C 
HETATM   18  C   UNL     1     -43.372 -53.892  14.274  1.00  0.00     0.034 C 
HETATM   19  C   UNL     1     -44.629 -54.676  13.948  1.00  0.00     0.168 C 
HETATM   20  O   UNL     1     -45.254 -54.049  12.824  1.00  0.00    -0.391 OA
HETATM   21  C   UNL     1     -44.280 -53.211  12.196  1.00  0.00     0.173 C 
ENDBRANCH  16  17
ENDBRANCH   4  16
TORSDOF 5
ENDMDL
MODEL 3
REMARK VINA RESULT:      -5.4      1.903      2.339
REMARK  5 active torsions:
REMARK  status: ('A' for Active; 'I' for Inactive)
REMARK    1  A    between atoms: C_2  and  C_3 
REMARK    2  A    between atoms: C_2  and  N_10 
REMARK    3  A    between atoms: C_3  and  N_4 
REMARK       I    between atoms: N_10  and  C_11 
REMARK       I    between atoms: C_11  and  N_13 
REMARK    4  A    between atoms: N_13  and  C_14 
REMARK    5  A    between atoms: C_14  and  C_15 
ROOT
HETATM    1  N   UNL     1     -41.665 -48.167   9.893  1.00  0.00    -0.337 N 
HETATM    2  C   UNL     1     -41.470 -48.968  10.989  1.00  0.00     0.316 C 
HETATM    3  O   UNL     1     -42.056 -48.828  12.052  1.00  0.00    -0.247 OA
HETATM    4  N   UNL     1     -40.572 -49.969  10.736  1.00  0.00    -0.343 N 
HETATM    5  H   UNL     1     -40.847 -48.058   9.309  1.00  0.00     0.164 HD
HETATM    6  H   UNL     1     -40.221 -50.075   9.797  1.00  0.00     0.164 HD
ENDROOT
BRANCH   1   7
HETATM    7  C   UNL     1     -42.602 -47.029   9.936  1.00  0.00     0.100 C 
HETATM    8  C   UNL     1     -41.817 -45.767  10.289  1.00  0.00     0.034 C 
BRANCH   7   9
HETATM    9  C   UNL     1     -43.364 -46.882   8.599  1.00  0.00     0.153 C 
BRANCH   9  10
HETATM   10  N   UNL     1     -44.632 -47.577   8.522  1.00  0.00    -0.350 N 
HETATM   11  C   UNL     1     -45.673 -47.445   9.396  1.00  0.00     0.108 A 
HETATM   12  C   UNL     1     -46.679 -48.220   8.871  1.00  0.00     0.106 A 
HETATM   13  N   UNL     1     -46.274 -48.815   7.705  1.00  0.00    -0.361 N 
HETATM   14  C   UNL     1     -45.045 -48.390   7.503  1.00  0.00     0.182 A 
ATOM     15  HN  UNL     1     -46.811 -49.452   7.118  1.00  0.00     0.166 HD
ENDBRANCH   9  10
ENDBRANCH   7   9
ENDBRANCH   1   7
BRANCH   4  16
HETATM   16  C   UNL     1     -40.276 -50.991  11.722  1.00  0.00     0.131 C 
BRANCH  16  17
HETATM   17  C   UNL     1     -39.046 -50.680  12.572  1.00  0.00     0.029 C 
HETATM   18  C   UNL     1     -39.411 -50.142  13.947  1.00  0.00     0.034 C 
HETATM   19  C   UNL     1     -38.329 -49.128  14.270  1.00  0.00     0.168 C 
HETATM   20  O   UNL     1     -37.473 -49.026  13.129  1.00  0.00    -0.391 OA
HETATM   21  C   UNL     1     -38.172 -49.578  12.010  1.00  0.00     0.173 C 
ENDBRANCH  16  17
ENDBRANCH   4  16
TORSDOF 5
ENDMDL
MODEL 4
REMARK VINA RESULT:      -5.4      2.665      4.508
REMARK  5 active torsions:
REMARK  status: ('A' for Active; 'I' for Inactive)
REMARK    1  A    between atoms: C_2  and  C_3 
REMARK    2  A    between atoms: C_2  and  N_10 
REMARK    3  A    between atoms: C_3  and  N_4 
REMARK       I    between atoms: N_10  and  C_11 
REMARK       I    between atoms: C_11  and  N_13 
REMARK    4  A    between atoms: N_13  and  C_14 
REMARK    5  A    between atoms: C_14  and  C_15 
ROOT
HETATM    1  N   UNL     1     -39.776 -51.290  12.151  1.00  0.00    -0.337 N 
HETATM    2  C   UNL     1     -40.212 -52.211  13.069  1.00  0.00     0.316 C 
HETATM    3  O   UNL     1     -39.927 -52.181  14.257  1.00  0.00    -0.247 OA
HETATM    4  N   UNL     1     -41.040 -53.143  12.503  1.00  0.00    -0.343 N 
HETATM    5  H   UNL     1     -39.655 -51.660  11.218  1.00  0.00     0.164 HD
HETATM    6  H   UNL     1     -41.308 -53.026  11.538  1.00  0.00     0.164 HD
ENDROOT
BRANCH   1   7
HETATM    7  C   UNL     1     -38.881 -50.186  12.543  1.00  0.00     0.100 C 
HETATM    8  C   UNL     1     -37.885 -49.942  11.410  1.00  0.00     0.034 C 
BRANCH   7   9
HETATM    9  C   UNL     1     -39.685 -48.912  12.892  1.00  0.00     0.153 C 
BRANCH   9  10
HETATM   10  N   UNL     1     -40.388 -48.293  11.789  1.00  0.00    -0.350 N 
HETATM   11  C   UNL     1     -41.509 -48.779  11.179  1.00  0.00     0.108 A 
HETATM   12  C   UNL     1     -41.859 -47.818  10.261  1.00  0.00     0.106 A 
HETATM   13  N   UNL     1     -40.981 -46.767  10.301  1.00  0.00    -0.361 N 
HETATM   14  C   UNL     1     -40.119 -47.066  11.249  1.00  0.00     0.182 A 
ATOM     15  HN  UNL     1     -40.994 -45.930   9.719  1.00  0.00     0.166 HD
ENDBRANCH   9  10
ENDBRANCH   7   9
ENDBRANCH   1   7
BRANCH   4  16
HETATM   16  C   UNL     1     -41.692 -54.163  13.300  1.00  0.00     0.131 C 
BRANCH  16  17
HETATM   17  C   UNL     1     -43.149 -53.845  13.628  1.00  0.00     0.029 C 
HETATM   18  C   UNL     1     -43.830 -54.965  14.399  1.00  0.00     0.034 C 
HETATM   19  C   UNL     1     -45.262 -54.971  13.897  1.00  0.00     0.168 C 
HETATM   20  O   UNL     1     -45.362 -53.998  12.853  1.00  0.00    -0.391 OA
HETATM   21  C   UNL     1     -44.036 -53.700  12.408  1.00  0.00     0.173 C 
ENDBRANCH  16  17
ENDBRANCH   4  16
TORSDOF 5
ENDMDL
MODEL 5
REMARK VINA RESULT:      -5.3      2.341      6.724
REMARK  5 active torsions:
REMARK  status: ('A' for Active; 'I' for Inactive)
REMARK    1  A    between atoms: C_2  and  C_3 
REMARK    2  A    between atoms: C_2  and  N_10 
REMARK    3  A    between atoms: C_3  and  N_4 
REMARK       I    between atoms: N_10  and  C_11 
REMARK       I    between atoms: C_11  and  N_13 
REMARK    4  A    between atoms: N_13  and  C_14 
REMARK    5  A    between atoms: C_14  and  C_15 
ROOT
HETATM    1  N   UNL     1     -43.029 -48.433  12.642  1.00  0.00    -0.337 N 
HETATM    2  C   UNL     1     -42.620 -47.893  11.449  1.00  0.00     0.316 C 
HETATM    3  O   UNL     1     -41.675 -48.311  10.797  1.00  0.00    -0.247 OA
HETATM    4  N   UNL     1     -43.423 -46.858  11.055  1.00  0.00    -0.343 N 
HETATM    5  H   UNL     1     -43.442 -47.765  13.278  1.00  0.00     0.164 HD
HETATM    6  H   UNL     1     -44.246 -46.652  11.600  1.00  0.00     0.164 HD
ENDROOT
BRANCH   1   7
HETATM    7  C   UNL     1     -42.314 -49.569  13.250  1.00  0.00     0.100 C 
HETATM    8  C   UNL     1     -42.145 -49.293  14.744  1.00  0.00     0.034 C 
BRANCH   7   9
HETATM    9  C   UNL     1     -43.054 -50.901  12.988  1.00  0.00     0.153 C 
BRANCH   9  10
HETATM   10  N   UNL     1     -42.208 -52.057  12.782  1.00  0.00    -0.350 N 
HETATM   11  C   UNL     1     -42.216 -53.199  13.530  1.00  0.00     0.108 A 
HETATM   12  C   UNL     1     -41.320 -54.037  12.909  1.00  0.00     0.106 A 
HETATM   13  N   UNL     1     -40.772 -53.431  11.810  1.00  0.00    -0.361 N 
HETATM   14  C   UNL     1     -41.344 -52.248  11.739  1.00  0.00     0.182 A 
ATOM     15  HN  UNL     1     -40.070 -53.816  11.178  1.00  0.00     0.166 HD
ENDBRANCH   9  10
ENDBRANCH   7   9
ENDBRANCH   1   7
BRANCH   4  16
HETATM   16  C   UNL     1     -43.235 -46.192   9.781  1.00  0.00     0.131 C 
BRANCH  16  17
HETATM   17  C   UNL     1     -44.212 -46.650   8.701  1.00  0.00     0.029 C 
HETATM   18  C   UNL     1     -45.512 -47.183   9.282  1.00  0.00     0.034 C 
HETATM   19  C   UNL     1     -45.922 -48.312   8.354  1.00  0.00     0.168 C 
HETATM   20  O   UNL     1     -44.887 -48.472   7.379  1.00  0.00    -0.391 OA
HETATM   21  C   UNL     1     -43.716 -47.822   7.879  1.00  0.00     0.173 C 
ENDBRANCH  16  17
ENDBRANCH   4  16
TORSDOF 5
ENDMDL
MODEL 6
REMARK VINA RESULT:      -5.1      3.067      4.522
REMARK  5 active torsions:
REMARK  status: ('A' for Active; 'I' for Inactive)
REMARK    1  A    between atoms: C_2  and  C_3 
REMARK    2  A    between atoms: C_2  and  N_10 
REMARK    3  A    between atoms: C_3  and  N_4 
REMARK       I    between atoms: N_10  and  C_11 
REMARK       I    between atoms: C_11  and  N_13 
REMARK    4  A    between atoms: N_13  and  C_14 
REMARK    5  A    between atoms: C_14  and  C_15 
ROOT
HETATM    1  N   UNL     1     -42.057 -50.926  11.884  1.00  0.00    -0.337 N 
HETATM    2  C   UNL     1     -42.475 -51.990  12.642  1.00  0.00     0.316 C 
HETATM    3  O   UNL     1     -42.060 -52.237  13.764  1.00  0.00    -0.247 OA
HETATM    4  N   UNL     1     -43.446 -52.717  12.008  1.00  0.00    -0.343 N 
HETATM    5  H   UNL     1     -42.076 -51.095  10.888  1.00  0.00     0.164 HD
HETATM    6  H   UNL     1     -43.807 -52.377  11.130  1.00  0.00     0.164 HD
ENDROOT
BRANCH   1   7
HETATM    7  C   UNL     1     -41.022 -49.999  12.377  1.00  0.00     0.100 C 
HETATM    8  C   UNL     1     -39.870 -49.978  11.372  1.00  0.00     0.034 C 
BRANCH   7   9
HETATM    9  C   UNL     1     -41.605 -48.588  12.619  1.00  0.00     0.153 C 
BRANCH   9  10
HETATM   10  N   UNL     1     -41.842 -47.796  11.430  1.00  0.00    -0.350 N 
HETATM   11  C   UNL     1     -42.955 -47.849  10.641  1.00  0.00     0.108 A 
HETATM   12  C   UNL     1     -42.769 -46.865   9.699  1.00  0.00     0.106 A 
HETATM   13  N   UNL     1     -41.576 -46.222   9.898  1.00  0.00    -0.361 N 
HETATM   14  C   UNL     1     -41.049 -46.785  10.964  1.00  0.00     0.182 A 
ATOM     15  HN  UNL     1     -41.180 -45.467   9.339  1.00  0.00     0.166 HD
ENDBRANCH   9  10
ENDBRANCH   7   9
ENDBRANCH   1   7
BRANCH   4  16
HETATM   16  C   UNL     1     -44.102 -53.837  12.656  1.00  0.00     0.131 C 
BRANCH  16  17
HETATM   17  C   UNL     1     -45.450 -53.480  13.278  1.00  0.00     0.029 C 
HETATM   18  C   UNL     1     -45.980 -52.142  12.786  1.00  0.00     0.034 C 
HETATM   19  C   UNL     1     -46.693 -51.540  13.983  1.00  0.00     0.168 C 
HETATM   20  O   UNL     1     -46.498 -52.421  15.094  1.00  0.00    -0.391 OA
HETATM   21  C   UNL     1     -45.401 -53.282  14.779  1.00  0.00     0.173 C 
ENDBRANCH  16  17
ENDBRANCH   4  16
TORSDOF 5
ENDMDL
MODEL 7
REMARK VINA RESULT:      -5.1      2.567      7.816
REMARK  5 active torsions:
REMARK  status: ('A' for Active; 'I' for Inactive)
REMARK    1  A    between atoms: C_2  and  C_3 
REMARK    2  A    between atoms: C_2  and  N_10 
REMARK    3  A    between atoms: C_3  and  N_4 
REMARK       I    between atoms: N_10  and  C_11 
REMARK       I    between atoms: C_11  and  N_13 
REMARK    4  A    between atoms: N_13  and  C_14 
REMARK    5  A    between atoms: C_14  and  C_15 
ROOT
HETATM    1  N   UNL     1     -41.906 -51.564  11.740  1.00  0.00    -0.337 N 
HETATM    2  C   UNL     1     -41.836 -50.238  12.084  1.00  0.00     0.316 C 
HETATM    3  O   UNL     1     -41.927 -49.822  13.230  1.00  0.00    -0.247 OA
HETATM    4  N   UNL     1     -41.608 -49.439  10.996  1.00  0.00    -0.343 N 
HETATM    5  H   UNL     1     -42.298 -51.733  10.823  1.00  0.00     0.164 HD
HETATM    6  H   UNL     1     -41.437 -49.878  10.104  1.00  0.00     0.164 HD
ENDROOT
BRANCH   1   7
HETATM    7  C   UNL     1     -42.134 -52.606  12.757  1.00  0.00     0.100 C 
HETATM    8  C   UNL     1     -43.562 -53.129  12.605  1.00  0.00     0.034 C 
BRANCH   7   9
HETATM    9  C   UNL     1     -41.087 -53.737  12.644  1.00  0.00     0.153 C 
BRANCH   9  10
HETATM   10  N   UNL     1     -40.496 -54.170  13.891  1.00  0.00    -0.350 N 
HETATM   11  C   UNL     1     -41.175 -54.487  15.033  1.00  0.00     0.108 A 
HETATM   12  C   UNL     1     -40.211 -54.924  15.910  1.00  0.00     0.106 A 
HETATM   13  N   UNL     1     -38.971 -54.879  15.329  1.00  0.00    -0.361 N 
HETATM   14  C   UNL     1     -39.173 -54.446  14.104  1.00  0.00     0.182 A 
ATOM     15  HN  UNL     1     -38.079 -55.128  15.757  1.00  0.00     0.166 HD
ENDBRANCH   9  10
ENDBRANCH   7   9
ENDBRANCH   1   7
BRANCH   4  16
HETATM   16  C   UNL     1     -41.409 -48.009  11.132  1.00  0.00     0.131 C 
BRANCH  16  17
HETATM   17  C   UNL     1     -42.590 -47.178  10.634  1.00  0.00     0.029 C 
HETATM   18  C   UNL     1     -43.083 -47.628   9.268  1.00  0.00     0.034 C 
HETATM   19  C   UNL     1     -43.517 -46.353   8.569  1.00  0.00     0.168 C 
HETATM   20  O   UNL     1     -43.204 -45.255   9.433  1.00  0.00    -0.391 OA
HETATM   21  C   UNL     1     -42.259 -45.718  10.400  1.00  0.00     0.173 C 
ENDBRANCH  16  17
ENDBRANCH   4  16
TORSDOF 5
ENDMDL
MODEL 8
REMARK VINA RESULT:      -5.0     13.182     15.962
REMARK  5 active torsions:
REMARK  status: ('A' for Active; 'I' for Inactive)
REMARK    1  A    between atoms: C_2  and  C_3 
REMARK    2  A    between atoms: C_2  and  N_10 
REMARK    3  A    between atoms: C_3  and  N_4 
REMARK       I    between atoms: N_10  and  C_11 
REMARK       I    between atoms: C_11  and  N_13 
REMARK    4  A    between atoms: N_13  and  C_14 
REMARK    5  A    between atoms: C_14  and  C_15 
ROOT
HETATM    1  N   UNL     1     -51.692 -52.323  -0.862  1.00  0.00    -0.337 N 
HETATM    2  C   UNL     1     -50.616 -51.741  -0.243  1.00  0.00     0.316 C 
HETATM    3  O   UNL     1     -49.653 -52.361   0.183  1.00  0.00    -0.247 OA
HETATM    4  N   UNL     1     -50.728 -50.378  -0.199  1.00  0.00    -0.343 N 
HETATM    5  H   UNL     1     -52.565 -51.833  -0.721  1.00  0.00     0.164 HD
HETATM    6  H   UNL     1     -51.504 -49.943  -0.673  1.00  0.00     0.164 HD
ENDROOT
BRANCH   1   7
HETATM    7  C   UNL     1     -51.777 -53.785  -1.032  1.00  0.00     0.100 C 
HETATM    8  C   UNL     1     -53.127 -54.259  -0.495  1.00  0.00     0.034 C 
BRANCH   7   9
HETATM    9  C   UNL     1     -51.565 -54.190  -2.508  1.00  0.00     0.153 C 
BRANCH   9  10
HETATM   10  N   UNL     1     -50.545 -55.189  -2.744  1.00  0.00    -0.350 N 
HETATM   11  C   UNL     1     -50.684 -56.313  -3.507  1.00  0.00     0.108 A 
HETATM   12  C   UNL     1     -49.440 -56.897  -3.509  1.00  0.00     0.106 A 
HETATM   13  N   UNL     1     -48.556 -56.158  -2.769  1.00  0.00    -0.361 N 
HETATM   14  C   UNL     1     -49.240 -55.119  -2.340  1.00  0.00     0.182 A 
ATOM     15  HN  UNL     1     -47.574 -56.368  -2.589  1.00  0.00     0.166 HD
ENDBRANCH   9  10
ENDBRANCH   7   9
ENDBRANCH   1   7
BRANCH   4  16
HETATM   16  C   UNL     1     -49.666 -49.544   0.331  1.00  0.00     0.131 C 
BRANCH  16  17
HETATM   17  C   UNL     1     -50.108 -48.655   1.490  1.00  0.00     0.029 C 
HETATM   18  C   UNL     1     -51.565 -48.235   1.379  1.00  0.00     0.034 C 
HETATM   19  C   UNL     1     -51.610 -46.824   1.935  1.00  0.00     0.168 C 
HETATM   20  O   UNL     1     -50.268 -46.436   2.247  1.00  0.00    -0.391 OA
HETATM   21  C   UNL     1     -49.387 -47.324   1.554  1.00  0.00     0.173 C 
ENDBRANCH  16  17
ENDBRANCH   4  16
TORSDOF 5
ENDMDL
MODEL 9
REMARK VINA RESULT:      -4.9      2.562      7.394
REMARK  5 active torsions:
REMARK  status: ('A' for Active; 'I' for Inactive)
REMARK    1  A    between atoms: C_2  and  C_3 
REMARK    2  A    between atoms: C_2  and  N_10 
REMARK    3  A    between atoms: C_3  and  N_4 
REMARK       I    between atoms: N_10  and  C_11 
REMARK       I    between atoms: C_11  and  N_13 
REMARK    4  A    between atoms: N_13  and  C_14 
REMARK    5  A    between atoms: C_14  and  C_15 
ROOT
HETATM    1  N   UNL     1     -43.505 -51.079  12.579  1.00  0.00    -0.337 N 
HETATM    2  C   UNL     1     -43.055 -49.792  12.726  1.00  0.00     0.316 C 
HETATM    3  O   UNL     1     -42.960 -49.219  13.801  1.00  0.00    -0.247 OA
HETATM    4  N   UNL     1     -42.684 -49.241  11.530  1.00  0.00    -0.343 N 
HETATM    5  H   UNL     1     -43.982 -51.254  11.705  1.00  0.00     0.164 HD
HETATM    6  H   UNL     1     -42.692 -49.824  10.707  1.00  0.00     0.164 HD
ENDROOT
BRANCH   1   7
HETATM    7  C   UNL     1     -43.946 -51.871  13.741  1.00  0.00     0.100 C 
HETATM    8  C   UNL     1     -45.451 -51.672  13.921  1.00  0.00     0.034 C 
BRANCH   7   9
HETATM    9  C   UNL     1     -43.575 -53.362  13.575  1.00  0.00     0.153 C 
BRANCH   9  10
HETATM   10  N   UNL     1     -42.177 -53.685  13.771  1.00  0.00    -0.350 N 
HETATM   11  C   UNL     1     -41.553 -53.850  14.974  1.00  0.00     0.108 A 
HETATM   12  C   UNL     1     -40.270 -54.231  14.660  1.00  0.00     0.106 A 
HETATM   13  N   UNL     1     -40.104 -54.300  13.302  1.00  0.00    -0.361 N 
HETATM   14  C   UNL     1     -41.276 -53.992  12.789  1.00  0.00     0.182 A 
ATOM     15  HN  UNL     1     -39.252 -54.540  12.796  1.00  0.00     0.166 HD
ENDBRANCH   9  10
ENDBRANCH   7   9
ENDBRANCH   1   7
BRANCH   4  16
HETATM   16  C   UNL     1     -42.095 -47.918  11.452  1.00  0.00     0.131 C 
BRANCH  16  17
HETATM   17  C   UNL     1     -43.042 -46.859  10.890  1.00  0.00     0.029 C 
HETATM   18  C   UNL     1     -44.152 -47.463  10.044  1.00  0.00     0.034 C 
HETATM   19  C   UNL     1     -44.394 -46.453   8.938  1.00  0.00     0.168 C 
HETATM   20  O   UNL     1     -43.431 -45.405   9.087  1.00  0.00    -0.391 OA
HETATM   21  C   UNL     1     -42.383 -45.894   9.926  1.00  0.00     0.173 C 
ENDBRANCH  16  17
ENDBRANCH   4  16
TORSDOF 5
ENDMDL
