MODEL 1
REMARK VINA RESULT:      -6.7      0.000      0.000
REMARK  4 active torsions:
REMARK  status: ('A' for Active; 'I' for Inactive)
REMARK       I    between atoms: C_2  and  N_4 
REMARK    1  A    between atoms: N_7  and  C_8 
REMARK    2  A    between atoms: C_8  and  C_9 
REMARK    3  A    between atoms: C_9  and  N_10 
REMARK       I    between atoms: N_10  and  C_11 
REMARK       I    between atoms: C_11  and  N_13 
REMARK    4  A    between atoms: N_13  and  C_14 
ROOT
HETATM    1  N   UNL     1     -40.870 -51.162  11.263  1.00  0.00    -0.346 N 
HETATM    2  C   UNL     1     -40.819 -49.815  11.549  1.00  0.00     0.299 C 
HETATM    3  O   UNL     1     -40.512 -49.392  12.658  1.00  0.00    -0.254 OA
HETATM    4  N   UNL     1     -41.186 -49.047  10.471  1.00  0.00    -0.196 NA
HETATM    5  H   UNL     1     -40.632 -51.389  10.308  1.00  0.00     0.163 HD
HETATM    6  H   UNL     1     -42.006 -49.407  10.003  1.00  0.00     0.139 HD
ENDROOT
BRANCH   1   7
HETATM    7  C   UNL     1     -40.432 -52.102  12.288  1.00  0.00     0.154 C 
BRANCH   7   8
HETATM    8  C   UNL     1     -41.509 -53.156  12.644  1.00  0.00     0.292 C 
BRANCH   8   9
HETATM    9  N   UNL     1     -41.951 -53.160  14.054  1.00  0.00     0.093 N 
HETATM   10  C   UNL     1     -42.886 -54.296  14.283  1.00  0.00     0.292 C 
HETATM   11  C   UNL     1     -44.298 -54.128  13.670  1.00  0.00     0.156 C 
HETATM   12  N   UNL     1     -44.890 -52.837  14.024  1.00  0.00    -0.349 N 
HETATM   13  C   UNL     1     -46.212 -52.777  14.423  1.00  0.00     0.215 C 
HETATM   14  C   UNL     1     -44.016 -51.683  13.796  1.00  0.00     0.156 C 
HETATM   15  C   UNL     1     -46.791 -51.414  14.706  1.00  0.00     0.117 C 
HETATM   16  O   UNL     1     -46.912 -53.782  14.562  1.00  0.00    -0.274 OA
HETATM   17  C   UNL     1     -42.639 -51.910  14.451  1.00  0.00     0.292 C 
ENDBRANCH   8   9
ENDBRANCH   7   8
ENDBRANCH   1   7
BRANCH   4  18
HETATM   18  C   UNL     1     -41.269 -47.649  10.608  1.00  0.00     0.094 A 
HETATM   19  N   UNL     1     -40.063 -47.054  10.734  1.00  0.00    -0.356 N 
HETATM   20  C   UNL     1     -40.042 -45.705  10.714  1.00  0.00     0.089 A 
ATOM     21  HN  UNL     1     -39.207 -47.599  10.837  1.00  0.00     0.166 HD
HETATM   22  C   UNL     1     -41.174 -44.919  10.611  1.00  0.00     0.018 A 
HETATM   23  C   UNL     1     -42.410 -45.554  10.570  1.00  0.00     0.011 A 
HETATM   24  C   UNL     1     -42.482 -46.951  10.596  1.00  0.00    -0.023 A 
HETATM   25  C   UNL     1     -43.829 -47.612  10.675  1.00  0.00     0.052 C 
ENDBRANCH   4  18
TORSDOF 4
ENDMDL
MODEL 2
REMARK VINA RESULT:      -6.7      2.262      7.629
REMARK  4 active torsions:
REMARK  status: ('A' for Active; 'I' for Inactive)
REMARK       I    between atoms: C_2  and  N_4 
REMARK    1  A    between atoms: N_7  and  C_8 
REMARK    2  A    between atoms: C_8  and  C_9 
REMARK    3  A    between atoms: C_9  and  N_10 
REMARK       I    between atoms: N_10  and  C_11 
REMARK       I    between atoms: C_11  and  N_13 
REMARK    4  A    between atoms: N_13  and  C_14 
ROOT
HETATM    1  N   UNL     1     -40.960 -50.861  11.259  1.00  0.00    -0.346 N 
HETATM    2  C   UNL     1     -41.925 -51.305  12.137  1.00  0.00     0.299 C 
HETATM    3  O   UNL     1     -42.292 -50.637  13.097  1.00  0.00    -0.254 OA
HETATM    4  N   UNL     1     -42.368 -52.565  11.820  1.00  0.00    -0.196 NA
HETATM    5  H   UNL     1     -41.084 -51.189  10.312  1.00  0.00     0.163 HD
HETATM    6  H   UNL     1     -41.611 -53.192  11.584  1.00  0.00     0.139 HD
ENDROOT
BRANCH   1   7
HETATM    7  C   UNL     1     -40.449 -49.506  11.420  1.00  0.00     0.154 C 
BRANCH   7   8
HETATM    8  C   UNL     1     -41.237 -48.458  10.597  1.00  0.00     0.292 C 
BRANCH   8   9
HETATM    9  N   UNL     1     -42.488 -47.974  11.216  1.00  0.00     0.093 N 
HETATM   10  C   UNL     1     -43.280 -47.209  10.214  1.00  0.00     0.292 C 
HETATM   11  C   UNL     1     -42.723 -45.810   9.854  1.00  0.00     0.156 C 
HETATM   12  N   UNL     1     -42.429 -45.022  11.052  1.00  0.00    -0.349 N 
HETATM   13  C   UNL     1     -42.804 -43.692  11.105  1.00  0.00     0.215 C 
HETATM   14  C   UNL     1     -41.630 -45.723  12.061  1.00  0.00     0.156 C 
HETATM   15  C   UNL     1     -42.412 -42.909  12.332  1.00  0.00     0.117 C 
HETATM   16  O   UNL     1     -43.444 -43.144  10.206  1.00  0.00    -0.274 OA
HETATM   17  C   UNL     1     -42.254 -47.095  12.386  1.00  0.00     0.292 C 
ENDBRANCH   8   9
ENDBRANCH   7   8
ENDBRANCH   1   7
BRANCH   4  18
HETATM   18  C   UNL     1     -43.298 -53.208  12.659  1.00  0.00     0.094 A 
HETATM   19  N   UNL     1     -44.577 -52.854  12.406  1.00  0.00    -0.356 N 
HETATM   20  C   UNL     1     -45.541 -53.536  13.057  1.00  0.00     0.089 A 
ATOM     21  HN  UNL     1     -44.803 -52.104  11.751  1.00  0.00     0.166 HD
HETATM   22  C   UNL     1     -45.288 -54.535  13.978  1.00  0.00     0.018 A 
HETATM   23  C   UNL     1     -43.963 -54.822  14.285  1.00  0.00     0.011 A 
HETATM   24  C   UNL     1     -42.928 -54.134  13.641  1.00  0.00    -0.023 A 
HETATM   25  C   UNL     1     -41.510 -54.372  14.075  1.00  0.00     0.052 C 
ENDBRANCH   4  18
TORSDOF 4
ENDMDL
MODEL 3
REMARK VINA RESULT:      -6.2      1.968      2.692
REMARK  4 active torsions:
REMARK  status: ('A' for Active; 'I' for Inactive)
REMARK       I    between atoms: C_2  and  N_4 
REMARK    1  A    between atoms: N_7  and  C_8 
REMARK    2  A    between atoms: C_8  and  C_9 
REMARK    3  A    between atoms: C_9  and  N_10 
REMARK       I    between atoms: N_10  and  C_11 
REMARK       I    between atoms: C_11  and  N_13 
REMARK    4  A    between atoms: N_13  and  C_14 
ROOT
HETATM    1  N   UNL     1     -39.950 -49.424  11.059  1.00  0.00    -0.346 N 
HETATM    2  C   UNL     1     -40.226 -48.175  11.573  1.00  0.00     0.299 C 
HETATM    3  O   UNL     1     -40.292 -47.964  12.779  1.00  0.00    -0.254 OA
HETATM    4  N   UNL     1     -40.447 -47.249  10.583  1.00  0.00    -0.196 NA
HETATM    5  H   UNL     1     -39.443 -49.406  10.186  1.00  0.00     0.163 HD
HETATM    6  H   UNL     1     -41.041 -47.606   9.848  1.00  0.00     0.139 HD
ENDROOT
BRANCH   1   7
HETATM    7  C   UNL     1     -39.616 -50.496  11.989  1.00  0.00     0.154 C 
BRANCH   7   8
HETATM    8  C   UNL     1     -40.751 -51.536  12.149  1.00  0.00     0.292 C 
BRANCH   8   9
HETATM    9  N   UNL     1     -41.643 -51.328  13.309  1.00  0.00     0.093 N 
HETATM   10  C   UNL     1     -41.293 -52.293  14.389  1.00  0.00     0.292 C 
HETATM   11  C   UNL     1     -41.705 -53.762  14.127  1.00  0.00     0.156 C 
HETATM   12  N   UNL     1     -43.107 -53.865  13.720  1.00  0.00    -0.349 N 
HETATM   13  C   UNL     1     -43.908 -54.849  14.268  1.00  0.00     0.215 C 
HETATM   14  C   UNL     1     -43.496 -52.952  12.642  1.00  0.00     0.156 C 
HETATM   15  C   UNL     1     -45.323 -54.956  13.759  1.00  0.00     0.117 C 
HETATM   16  O   UNL     1     -43.513 -55.616  15.147  1.00  0.00    -0.274 OA
HETATM   17  C   UNL     1     -43.076 -51.507  12.980  1.00  0.00     0.292 C 
ENDBRANCH   8   9
ENDBRANCH   7   8
ENDBRANCH   1   7
BRANCH   4  18
HETATM   18  C   UNL     1     -40.822 -45.938  10.928  1.00  0.00     0.094 A 
HETATM   19  N   UNL     1     -41.930 -45.886  11.699  1.00  0.00    -0.356 N 
HETATM   20  C   UNL     1     -42.270 -44.681  12.202  1.00  0.00     0.089 A 
ATOM     21  HN  UNL     1     -42.485 -46.720  11.892  1.00  0.00     0.166 HD
HETATM   22  C   UNL     1     -41.574 -43.516  11.943  1.00  0.00     0.018 A 
HETATM   23  C   UNL     1     -40.488 -43.580  11.078  1.00  0.00     0.011 A 
HETATM   24  C   UNL     1     -40.103 -44.807  10.525  1.00  0.00    -0.023 A 
HETATM   25  C   UNL     1     -39.006 -44.834   9.499  1.00  0.00     0.052 C 
ENDBRANCH   4  18
TORSDOF 4
ENDMDL
MODEL 4
REMARK VINA RESULT:      -6.2      1.823      3.072
REMARK  4 active torsions:
REMARK  status: ('A' for Active; 'I' for Inactive)
REMARK       I    between atoms: C_2  and  N_4 
REMARK    1  A    between atoms: N_7  and  C_8 
REMARK    2  A    between atoms: C_8  and  C_9 
REMARK    3  A    between atoms: C_9  and  N_10 
REMARK       I    between atoms: N_10  and  C_11 
REMARK       I    between atoms: C_11  and  N_13 
REMARK    4  A    between atoms: N_13  and  C_14 
ROOT
HETATM    1  N   UNL     1     -41.641 -53.329  12.239  1.00  0.00    -0.346 N 
HETATM    2  C   UNL     1     -41.443 -51.975  12.409  1.00  0.00     0.299 C 
HETATM    3  O   UNL     1     -41.825 -51.379  13.410  1.00  0.00    -0.254 OA
HETATM    4  N   UNL     1     -40.818 -51.407  11.326  1.00  0.00    -0.196 NA
HETATM    5  H   UNL     1     -40.915 -53.787  11.708  1.00  0.00     0.163 HD
HETATM    6  H   UNL     1     -41.202 -51.728  10.448  1.00  0.00     0.139 HD
ENDROOT
BRANCH   1   7
HETATM    7  C   UNL     1     -42.224 -54.086  13.340  1.00  0.00     0.154 C 
BRANCH   7   8
HETATM    8  C   UNL     1     -43.771 -54.132  13.293  1.00  0.00     0.292 C 
BRANCH   8   9
HETATM    9  N   UNL     1     -44.427 -54.678  14.499  1.00  0.00     0.093 N 
HETATM   10  C   UNL     1     -45.904 -54.560  14.363  1.00  0.00     0.292 C 
HETATM   11  C   UNL     1     -46.473 -53.127  14.502  1.00  0.00     0.156 C 
HETATM   12  N   UNL     1     -45.968 -52.461  15.705  1.00  0.00    -0.349 N 
HETATM   13  C   UNL     1     -46.838 -51.745  16.506  1.00  0.00     0.215 C 
HETATM   14  C   UNL     1     -44.514 -52.529  15.873  1.00  0.00     0.156 C 
HETATM   15  C   UNL     1     -46.252 -51.020  17.691  1.00  0.00     0.117 C 
HETATM   16  O   UNL     1     -48.050 -51.693  16.293  1.00  0.00    -0.274 OA
HETATM   17  C   UNL     1     -44.023 -53.985  15.744  1.00  0.00     0.292 C 
ENDBRANCH   8   9
ENDBRANCH   7   8
ENDBRANCH   1   7
BRANCH   4  18
HETATM   18  C   UNL     1     -40.608 -50.016  11.294  1.00  0.00     0.094 A 
HETATM   19  N   UNL     1     -41.698 -49.322  10.898  1.00  0.00    -0.356 N 
HETATM   20  C   UNL     1     -41.632 -47.978  10.987  1.00  0.00     0.089 A 
ATOM     21  HN  UNL     1     -42.532 -49.794  10.548  1.00  0.00     0.166 HD
HETATM   22  C   UNL     1     -40.515 -47.289  11.421  1.00  0.00     0.018 A 
HETATM   23  C   UNL     1     -39.379 -48.021  11.742  1.00  0.00     0.011 A 
HETATM   24  C   UNL     1     -39.396 -49.418  11.657  1.00  0.00    -0.023 A 
HETATM   25  C   UNL     1     -38.123 -50.181  11.888  1.00  0.00     0.052 C 
ENDBRANCH   4  18
TORSDOF 4
ENDMDL
MODEL 5
REMARK VINA RESULT:      -6.0      2.151      7.864
REMARK  4 active torsions:
REMARK  status: ('A' for Active; 'I' for Inactive)
REMARK       I    between atoms: C_2  and  N_4 
REMARK    1  A    between atoms: N_7  and  C_8 
REMARK    2  A    between atoms: C_8  and  C_9 
REMARK    3  A    between atoms: C_9  and  N_10 
REMARK       I    between atoms: N_10  and  C_11 
REMARK       I    between atoms: C_11  and  N_13 
REMARK    4  A    between atoms: N_13  and  C_14 
ROOT
HETATM    1  N   UNL     1     -40.920 -50.586  11.176  1.00  0.00    -0.346 N 
HETATM    2  C   UNL     1     -41.799 -51.125  12.091  1.00  0.00     0.299 C 
HETATM    3  O   UNL     1     -42.125 -50.532  13.112  1.00  0.00    -0.254 OA
HETATM    4  N   UNL     1     -42.208 -52.385  11.729  1.00  0.00    -0.196 NA
HETATM    5  H   UNL     1     -41.098 -50.864  10.222  1.00  0.00     0.163 HD
HETATM    6  H   UNL     1     -41.443 -52.960  11.403  1.00  0.00     0.139 HD
ENDROOT
BRANCH   1   7
HETATM    7  C   UNL     1     -40.458 -49.219  11.385  1.00  0.00     0.154 C 
BRANCH   7   8
HETATM    8  C   UNL     1     -41.574 -48.165  11.182  1.00  0.00     0.292 C 
BRANCH   8   9
HETATM    9  N   UNL     1     -41.149 -46.905  10.538  1.00  0.00     0.093 N 
HETATM   10  C   UNL     1     -39.847 -46.464  11.111  1.00  0.00     0.292 C 
HETATM   11  C   UNL     1     -39.912 -45.897  12.550  1.00  0.00     0.156 C 
HETATM   12  N   UNL     1     -40.954 -44.877  12.682  1.00  0.00    -0.349 N 
HETATM   13  C   UNL     1     -40.684 -43.708  13.367  1.00  0.00     0.215 C 
HETATM   14  C   UNL     1     -42.263 -45.272  12.153  1.00  0.00     0.156 C 
HETATM   15  C   UNL     1     -41.814 -42.724  13.535  1.00  0.00     0.117 C 
HETATM   16  O   UNL     1     -39.570 -43.446  13.824  1.00  0.00    -0.274 OA
HETATM   17  C   UNL     1     -42.125 -45.804  10.713  1.00  0.00     0.292 C 
ENDBRANCH   8   9
ENDBRANCH   7   8
ENDBRANCH   1   7
BRANCH   4  18
HETATM   18  C   UNL     1     -43.046 -53.119  12.589  1.00  0.00     0.094 A 
HETATM   19  N   UNL     1     -44.359 -52.860  12.402  1.00  0.00    -0.356 N 
HETATM   20  C   UNL     1     -45.236 -53.632  13.076  1.00  0.00     0.089 A 
ATOM     21  HN  UNL     1     -44.672 -52.115  11.779  1.00  0.00     0.166 HD
HETATM   22  C   UNL     1     -44.865 -54.630  13.957  1.00  0.00     0.018 A 
HETATM   23  C   UNL     1     -43.509 -54.819  14.197  1.00  0.00     0.011 A 
HETATM   24  C   UNL     1     -42.561 -54.037  13.528  1.00  0.00    -0.023 A 
HETATM   25  C   UNL     1     -41.111 -54.173  13.893  1.00  0.00     0.052 C 
ENDBRANCH   4  18
TORSDOF 4
ENDMDL
MODEL 6
REMARK VINA RESULT:      -5.9      2.179      2.872
REMARK  4 active torsions:
REMARK  status: ('A' for Active; 'I' for Inactive)
REMARK       I    between atoms: C_2  and  N_4 
REMARK    1  A    between atoms: N_7  and  C_8 
REMARK    2  A    between atoms: C_8  and  C_9 
REMARK    3  A    between atoms: C_9  and  N_10 
REMARK       I    between atoms: N_10  and  C_11 
REMARK       I    between atoms: C_11  and  N_13 
REMARK    4  A    between atoms: N_13  and  C_14 
ROOT
HETATM    1  N   UNL     1     -39.922 -49.850  13.452  1.00  0.00    -0.346 N 
HETATM    2  C   UNL     1     -39.546 -48.776  12.675  1.00  0.00     0.299 C 
HETATM    3  O   UNL     1     -38.579 -48.819  11.923  1.00  0.00    -0.254 OA
HETATM    4  N   UNL     1     -40.351 -47.683  12.884  1.00  0.00    -0.196 NA
HETATM    5  H   UNL     1     -40.917 -49.911  13.615  1.00  0.00     0.163 HD
HETATM    6  H   UNL     1     -40.536 -47.523  13.865  1.00  0.00     0.139 HD
ENDROOT
BRANCH   1   7
HETATM    7  C   UNL     1     -39.209 -51.110  13.281  1.00  0.00     0.154 C 
BRANCH   7   8
HETATM    8  C   UNL     1     -40.004 -52.332  13.802  1.00  0.00     0.292 C 
BRANCH   8   9
HETATM    9  N   UNL     1     -40.501 -53.257  12.762  1.00  0.00     0.093 N 
HETATM   10  C   UNL     1     -41.510 -52.563  11.915  1.00  0.00     0.292 C 
HETATM   11  C   UNL     1     -42.883 -52.316  12.584  1.00  0.00     0.156 C 
HETATM   12  N   UNL     1     -43.413 -53.536  13.195  1.00  0.00    -0.349 N 
HETATM   13  C   UNL     1     -44.744 -53.866  13.023  1.00  0.00     0.215 C 
HETATM   14  C   UNL     1     -42.465 -54.246  14.059  1.00  0.00     0.156 C 
HETATM   15  C   UNL     1     -45.253 -55.094  13.734  1.00  0.00     0.117 C 
HETATM   16  O   UNL     1     -45.506 -53.208  12.313  1.00  0.00    -0.274 OA
HETATM   17  C   UNL     1     -41.130 -54.476  13.322  1.00  0.00     0.292 C 
ENDBRANCH   8   9
ENDBRANCH   7   8
ENDBRANCH   1   7
BRANCH   4  18
HETATM   18  C   UNL     1     -40.061 -46.470  12.233  1.00  0.00     0.094 A 
HETATM   19  N   UNL     1     -40.205 -46.539  10.891  1.00  0.00    -0.356 N 
HETATM   20  C   UNL     1     -40.098 -45.383  10.204  1.00  0.00     0.089 A 
ATOM     21  HN  UNL     1     -40.387 -47.425  10.419  1.00  0.00     0.166 HD
HETATM   22  C   UNL     1     -39.819 -44.163  10.791  1.00  0.00     0.018 A 
HETATM   23  C   UNL     1     -39.591 -44.132  12.161  1.00  0.00     0.011 A 
HETATM   24  C   UNL     1     -39.682 -45.308  12.915  1.00  0.00    -0.023 A 
HETATM   25  C   UNL     1     -39.311 -45.275  14.370  1.00  0.00     0.052 C 
ENDBRANCH   4  18
TORSDOF 4
ENDMDL
MODEL 7
REMARK VINA RESULT:      -5.7      2.412      7.894
REMARK  4 active torsions:
REMARK  status: ('A' for Active; 'I' for Inactive)
REMARK       I    between atoms: C_2  and  N_4 
REMARK    1  A    between atoms: N_7  and  C_8 
REMARK    2  A    between atoms: C_8  and  C_9 
REMARK    3  A    between atoms: C_9  and  N_10 
REMARK       I    between atoms: N_10  and  C_11 
REMARK       I    between atoms: C_11  and  N_13 
REMARK    4  A    between atoms: N_13  and  C_14 
ROOT
HETATM    1  N   UNL     1     -42.284 -50.924  12.072  1.00  0.00    -0.346 N 
HETATM    2  C   UNL     1     -42.931 -51.842  12.872  1.00  0.00     0.299 C 
HETATM    3  O   UNL     1     -42.349 -52.472  13.747  1.00  0.00    -0.254 OA
HETATM    4  N   UNL     1     -44.256 -51.972  12.535  1.00  0.00    -0.196 NA
HETATM    5  H   UNL     1     -42.865 -50.152  11.779  1.00  0.00     0.163 HD
HETATM    6  H   UNL     1     -44.396 -52.025  11.535  1.00  0.00     0.139 HD
ENDROOT
BRANCH   1   7
HETATM    7  C   UNL     1     -40.888 -50.619  12.362  1.00  0.00     0.154 C 
BRANCH   7   8
HETATM    8  C   UNL     1     -40.688 -49.203  12.956  1.00  0.00     0.292 C 
BRANCH   8   9
HETATM    9  N   UNL     1     -39.494 -48.477  12.477  1.00  0.00     0.093 N 
HETATM   10  C   UNL     1     -38.894 -47.704  13.599  1.00  0.00     0.292 C 
HETATM   11  C   UNL     1     -39.684 -46.447  14.039  1.00  0.00     0.156 C 
HETATM   12  N   UNL     1     -40.025 -45.598  12.896  1.00  0.00    -0.349 N 
HETATM   13  C   UNL     1     -39.862 -44.228  12.989  1.00  0.00     0.215 C 
HETATM   14  C   UNL     1     -40.642 -46.309  11.772  1.00  0.00     0.156 C 
HETATM   15  C   UNL     1     -40.297 -43.396  11.810  1.00  0.00     0.117 C 
HETATM   16  O   UNL     1     -39.371 -43.682  13.978  1.00  0.00    -0.274 OA
HETATM   17  C   UNL     1     -39.791 -47.532  11.375  1.00  0.00     0.292 C 
ENDBRANCH   8   9
ENDBRANCH   7   8
ENDBRANCH   1   7
BRANCH   4  18
HETATM   18  C   UNL     1     -45.052 -52.927  13.195  1.00  0.00     0.094 A 
HETATM   19  N   UNL     1     -44.637 -54.197  12.993  1.00  0.00    -0.356 N 
HETATM   20  C   UNL     1     -45.248 -55.161  13.712  1.00  0.00     0.089 A 
ATOM     21  HN  UNL     1     -43.896 -54.416  12.328  1.00  0.00     0.166 HD
HETATM   22  C   UNL     1     -46.279 -54.921  14.601  1.00  0.00     0.018 A 
HETATM   23  C   UNL     1     -46.745 -53.618  14.727  1.00  0.00     0.011 A 
HETATM   24  C   UNL     1     -46.149 -52.585  13.995  1.00  0.00    -0.023 A 
HETATM   25  C   UNL     1     -46.746 -51.209  14.052  1.00  0.00     0.052 C 
ENDBRANCH   4  18
TORSDOF 4
ENDMDL
MODEL 8
REMARK VINA RESULT:      -5.7      2.088      7.182
REMARK  4 active torsions:
REMARK  status: ('A' for Active; 'I' for Inactive)
REMARK       I    between atoms: C_2  and  N_4 
REMARK    1  A    between atoms: N_7  and  C_8 
REMARK    2  A    between atoms: C_8  and  C_9 
REMARK    3  A    between atoms: C_9  and  N_10 
REMARK       I    between atoms: N_10  and  C_11 
REMARK       I    between atoms: C_11  and  N_13 
REMARK    4  A    between atoms: N_13  and  C_14 
ROOT
HETATM    1  N   UNL     1     -41.942 -51.375  11.822  1.00  0.00    -0.346 N 
HETATM    2  C   UNL     1     -42.845 -51.423  12.863  1.00  0.00     0.299 C 
HETATM    3  O   UNL     1     -42.599 -50.945  13.965  1.00  0.00    -0.254 OA
HETATM    4  N   UNL     1     -43.994 -52.089  12.516  1.00  0.00    -0.196 NA
HETATM    5  H   UNL     1     -42.370 -51.314  10.910  1.00  0.00     0.163 HD
HETATM    6  H   UNL     1     -43.807 -52.941  12.005  1.00  0.00     0.139 HD
ENDROOT
BRANCH   1   7
HETATM    7  C   UNL     1     -40.704 -50.630  12.015  1.00  0.00     0.154 C 
BRANCH   7   8
HETATM    8  C   UNL     1     -40.724 -49.235  11.343  1.00  0.00     0.292 C 
BRANCH   8   9
HETATM    9  N   UNL     1     -40.051 -48.157  12.097  1.00  0.00     0.093 N 
HETATM   10  C   UNL     1     -40.795 -47.887  13.357  1.00  0.00     0.292 C 
HETATM   11  C   UNL     1     -42.145 -47.149  13.188  1.00  0.00     0.156 C 
HETATM   12  N   UNL     1     -42.006 -45.953  12.355  1.00  0.00    -0.349 N 
HETATM   13  C   UNL     1     -42.620 -44.776  12.740  1.00  0.00     0.215 C 
HETATM   14  C   UNL     1     -41.300 -46.171  11.090  1.00  0.00     0.156 C 
HETATM   15  C   UNL     1     -42.503 -43.596  11.810  1.00  0.00     0.117 C 
HETATM   16  O   UNL     1     -43.234 -44.662  13.802  1.00  0.00    -0.274 OA
HETATM   17  C   UNL     1     -39.957 -46.889  11.337  1.00  0.00     0.292 C 
ENDBRANCH   8   9
ENDBRANCH   7   8
ENDBRANCH   1   7
BRANCH   4  18
HETATM   18  C   UNL     1     -44.994 -52.303  13.482  1.00  0.00     0.094 A 
HETATM   19  N   UNL     1     -45.661 -51.177  13.817  1.00  0.00    -0.356 N 
HETATM   20  C   UNL     1     -46.736 -51.319  14.620  1.00  0.00     0.089 A 
ATOM     21  HN  UNL     1     -45.366 -50.262  13.477  1.00  0.00     0.166 HD
HETATM   22  C   UNL     1     -47.157 -52.530  15.135  1.00  0.00     0.018 A 
HETATM   23  C   UNL     1     -46.404 -53.662  14.846  1.00  0.00     0.011 A 
HETATM   24  C   UNL     1     -45.276 -53.563  14.024  1.00  0.00    -0.023 A 
HETATM   25  C   UNL     1     -44.407 -54.772  13.825  1.00  0.00     0.052 C 
ENDBRANCH   4  18
TORSDOF 4
ENDMDL
MODEL 9
REMARK VINA RESULT:      -5.6      3.513      5.002
REMARK  4 active torsions:
REMARK  status: ('A' for Active; 'I' for Inactive)
REMARK       I    between atoms: C_2  and  N_4 
REMARK    1  A    between atoms: N_7  and  C_8 
REMARK    2  A    between atoms: C_8  and  C_9 
REMARK    3  A    between atoms: C_9  and  N_10 
REMARK       I    between atoms: N_10  and  C_11 
REMARK       I    between atoms: C_11  and  N_13 
REMARK    4  A    between atoms: N_13  and  C_14 
ROOT
HETATM    1  N   UNL     1     -41.086 -52.811  11.812  1.00  0.00    -0.346 N 
HETATM    2  C   UNL     1     -41.200 -51.447  11.979  1.00  0.00     0.299 C 
HETATM    3  O   UNL     1     -41.948 -50.951  12.813  1.00  0.00    -0.254 OA
HETATM    4  N   UNL     1     -40.417 -50.753  11.090  1.00  0.00    -0.196 NA
HETATM    5  H   UNL     1     -40.168 -53.114  11.519  1.00  0.00     0.163 HD
HETATM    6  H   UNL     1     -40.475 -51.126  10.152  1.00  0.00     0.139 HD
ENDROOT
BRANCH   1   7
HETATM    7  C   UNL     1     -41.799 -53.683  12.737  1.00  0.00     0.154 C 
BRANCH   7   8
HETATM    8  C   UNL     1     -41.036 -53.909  14.066  1.00  0.00     0.292 C 
BRANCH   8   9
HETATM    9  N   UNL     1     -39.567 -53.772  13.986  1.00  0.00     0.093 N 
HETATM   10  C   UNL     1     -38.919 -54.999  14.526  1.00  0.00     0.292 C 
HETATM   11  C   UNL     1     -38.985 -55.165  16.063  1.00  0.00     0.156 C 
HETATM   12  N   UNL     1     -38.545 -53.952  16.755  1.00  0.00    -0.349 N 
HETATM   13  C   UNL     1     -37.697 -54.054  17.842  1.00  0.00     0.215 C 
HETATM   14  C   UNL     1     -39.172 -52.717  16.276  1.00  0.00     0.156 C 
HETATM   15  C   UNL     1     -37.334 -52.780  18.561  1.00  0.00     0.117 C 
HETATM   16  O   UNL     1     -37.230 -55.128  18.223  1.00  0.00    -0.274 OA
HETATM   17  C   UNL     1     -39.050 -52.609  14.743  1.00  0.00     0.292 C 
ENDBRANCH   8   9
ENDBRANCH   7   8
ENDBRANCH   1   7
BRANCH   4  18
HETATM   18  C   UNL     1     -40.470 -49.347  11.065  1.00  0.00     0.094 A 
HETATM   19  N   UNL     1     -41.486 -48.866  10.315  1.00  0.00    -0.356 N 
HETATM   20  C   UNL     1     -41.704 -47.536  10.362  1.00  0.00     0.089 A 
ATOM     21  HN  UNL     1     -42.063 -49.482   9.741  1.00  0.00     0.166 HD
HETATM   22  C   UNL     1     -40.932 -46.655  11.096  1.00  0.00     0.018 A 
HETATM   23  C   UNL     1     -39.841 -47.163  11.790  1.00  0.00     0.011 A 
HETATM   24  C   UNL     1     -39.570 -48.536  11.765  1.00  0.00    -0.023 A 
HETATM   25  C   UNL     1     -38.318 -49.047  12.419  1.00  0.00     0.052 C 
ENDBRANCH   4  18
TORSDOF 4
ENDMDL
