MODEL 1
REMARK VINA RESULT:      -6.9      0.000      0.000
REMARK  5 active torsions:
REMARK  status: ('A' for Active; 'I' for Inactive)
REMARK    1  A    between atoms: N_2  and  C_19 
REMARK    2  A    between atoms: N_3  and  C_7 
REMARK    3  A    between atoms: C_9  and  C_15 
REMARK    4  A    between atoms: C_19  and  C_22 
REMARK    5  A    between atoms: C_22  and  O_27 
ROOT
HETATM    1  C   UNL     1     -40.600 -47.058  11.394  1.00  0.00     0.117 A 
HETATM    2  N   UNL     1     -40.657 -44.892  11.088  1.00  0.00    -0.324 N 
HETATM    3  C   UNL     1     -41.219 -46.063  10.657  1.00  0.00     0.140 A 
HETATM    4  N   UNL     1     -39.671 -46.503  12.259  1.00  0.00    -0.346 N 
ATOM      5  HN  UNL     1     -39.053 -46.996  12.904  1.00  0.00     0.167 HD
HETATM    6  C   UNL     1     -41.016 -48.394  11.159  1.00  0.00     0.114 A 
HETATM    7  C   UNL     1     -39.756 -45.203  12.070  1.00  0.00     0.185 A 
HETATM    8  N   UNL     1     -42.180 -46.202   9.726  1.00  0.00    -0.336 N 
ATOM      9  HN  UNL     1     -42.593 -45.433   9.197  1.00  0.00     0.168 HD
HETATM   10  N   UNL     1     -42.015 -48.566  10.240  1.00  0.00    -0.341 N 
ATOM     11  HN  UNL     1     -42.377 -49.500  10.047  1.00  0.00     0.167 HD
HETATM   12  C   UNL     1     -42.520 -47.495   9.591  1.00  0.00     0.183 A 
ENDROOT
BRANCH   6  13
HETATM   13  N   UNL     1     -40.532 -49.488  11.874  1.00  0.00    -0.262 NA
HETATM   14  C   UNL     1     -41.340 -50.714  11.802  1.00  0.00     0.129 C 
HETATM   15  C   UNL     1     -40.836 -51.718  12.870  1.00  0.00     0.139 C 
HETATM   16  O   UNL     1     -39.427 -51.993  12.693  1.00  0.00    -0.378 OA
HETATM   17  C   UNL     1     -38.658 -50.775  12.790  1.00  0.00     0.131 C 
HETATM   18  C   UNL     1     -39.094 -49.754  11.718  1.00  0.00     0.128 C 
HETATM   19  C   UNL     1     -37.183 -51.121  12.617  1.00  0.00     0.040 C 
BRANCH  15  20
HETATM   20  C   UNL     1     -41.577 -53.025  12.776  1.00  0.00     0.016 A 
HETATM   21  C   UNL     1     -42.054 -53.734  14.023  1.00  0.00     0.007 A 
HETATM   22  C   UNL     1     -40.925 -54.313  13.220  1.00  0.00     0.007 A 
ENDBRANCH  15  20
ENDBRANCH   6  13
BRANCH   2  23
HETATM   23  C   UNL     1     -41.060 -43.566  10.687  1.00  0.00     0.169 C 
BRANCH  23  24
HETATM   24  C   UNL     1     -42.419 -43.089  11.249  1.00  0.00     0.078 C 
HETATM   25  C   UNL     1     -42.448 -41.549  11.222  1.00  0.00     0.066 C 
HETATM   26  C   UNL     1     -41.665 -40.952  12.379  1.00  0.00     0.170 C 
HETATM   27  O   UNL     1     -42.219 -41.400  13.610  1.00  0.00    -0.391 OA
HETATM   28  C   UNL     1     -42.082 -42.808  13.783  1.00  0.00     0.170 C 
HETATM   29  C   UNL     1     -42.774 -43.583  12.665  1.00  0.00     0.066 C 
BRANCH  24  30
HETATM   30  O   UNL     1     -43.441 -43.528  10.334  1.00  0.00    -0.388 OA
HETATM   31  H   UNL     1     -43.840 -44.346  10.678  1.00  0.00     0.210 HD
ENDBRANCH  24  30
ENDBRANCH  23  24
ENDBRANCH   2  23
TORSDOF 5
ENDMDL
MODEL 2
REMARK VINA RESULT:      -6.9      2.320      8.581
REMARK  5 active torsions:
REMARK  status: ('A' for Active; 'I' for Inactive)
REMARK    1  A    between atoms: N_2  and  C_19 
REMARK    2  A    between atoms: N_3  and  C_7 
REMARK    3  A    between atoms: C_9  and  C_15 
REMARK    4  A    between atoms: C_19  and  C_22 
REMARK    5  A    between atoms: C_22  and  O_27 
ROOT
HETATM    1  C   UNL     1     -39.885 -50.002  12.892  1.00  0.00     0.117 A 
HETATM    2  N   UNL     1     -39.602 -51.621  14.338  1.00  0.00    -0.324 N 
HETATM    3  C   UNL     1     -38.991 -50.980  13.295  1.00  0.00     0.140 A 
HETATM    4  N   UNL     1     -41.027 -50.048  13.676  1.00  0.00    -0.346 N 
ATOM      5  HN  UNL     1     -41.858 -49.463  13.593  1.00  0.00     0.167 HD
HETATM    6  C   UNL     1     -39.487 -49.161  11.821  1.00  0.00     0.114 A 
HETATM    7  C   UNL     1     -40.808 -51.008  14.550  1.00  0.00     0.185 A 
HETATM    8  N   UNL     1     -37.773 -51.244  12.789  1.00  0.00    -0.336 N 
ATOM      9  HN  UNL     1     -37.158 -51.991  13.112  1.00  0.00     0.168 HD
HETATM   10  N   UNL     1     -38.240 -49.383  11.305  1.00  0.00    -0.341 N 
ATOM     11  HN  UNL     1     -37.886 -48.795  10.551  1.00  0.00     0.167 HD
HETATM   12  C   UNL     1     -37.480 -50.385  11.798  1.00  0.00     0.183 A 
ENDROOT
BRANCH   6  13
HETATM   13  N   UNL     1     -40.252 -48.092  11.357  1.00  0.00    -0.262 NA
HETATM   14  C   UNL     1     -41.592 -48.427  10.857  1.00  0.00     0.129 C 
HETATM   15  C   UNL     1     -42.180 -47.199  10.116  1.00  0.00     0.139 C 
HETATM   16  O   UNL     1     -42.204 -46.040  10.981  1.00  0.00    -0.378 OA
HETATM   17  C   UNL     1     -40.872 -45.722  11.439  1.00  0.00     0.131 C 
HETATM   18  C   UNL     1     -40.256 -46.902  12.221  1.00  0.00     0.128 C 
HETATM   19  C   UNL     1     -40.951 -44.486  12.328  1.00  0.00     0.040 C 
BRANCH  15  20
HETATM   20  C   UNL     1     -43.590 -47.465   9.661  1.00  0.00     0.016 A 
HETATM   21  C   UNL     1     -43.911 -47.623   8.192  1.00  0.00     0.007 A 
HETATM   22  C   UNL     1     -44.377 -46.402   8.932  1.00  0.00     0.007 A 
ENDBRANCH  15  20
ENDBRANCH   6  13
BRANCH   2  23
HETATM   23  C   UNL     1     -39.011 -52.650  15.158  1.00  0.00     0.169 C 
BRANCH  23  24
HETATM   24  C   UNL     1     -39.192 -54.095  14.640  1.00  0.00     0.078 C 
HETATM   25  C   UNL     1     -40.674 -54.306  14.278  1.00  0.00     0.066 C 
HETATM   26  C   UNL     1     -41.525 -54.553  15.513  1.00  0.00     0.170 C 
HETATM   27  O   UNL     1     -41.050 -55.708  16.194  1.00  0.00    -0.391 OA
HETATM   28  C   UNL     1     -39.731 -55.530  16.705  1.00  0.00     0.170 C 
HETATM   29  C   UNL     1     -38.734 -55.216  15.594  1.00  0.00     0.066 C 
BRANCH  24  30
HETATM   30  O   UNL     1     -38.456 -54.206  13.407  1.00  0.00    -0.388 OA
HETATM   31  H   UNL     1     -38.725 -55.023  12.953  1.00  0.00     0.210 HD
ENDBRANCH  24  30
ENDBRANCH  23  24
ENDBRANCH   2  23
TORSDOF 5
ENDMDL
MODEL 3
REMARK VINA RESULT:      -6.9      1.888      8.531
REMARK  5 active torsions:
REMARK  status: ('A' for Active; 'I' for Inactive)
REMARK    1  A    between atoms: N_2  and  C_19 
REMARK    2  A    between atoms: N_3  and  C_7 
REMARK    3  A    between atoms: C_9  and  C_15 
REMARK    4  A    between atoms: C_19  and  C_22 
REMARK    5  A    between atoms: C_22  and  O_27 
ROOT
HETATM    1  C   UNL     1     -41.151 -49.907  11.791  1.00  0.00     0.117 A 
HETATM    2  N   UNL     1     -41.194 -51.981  12.488  1.00  0.00    -0.324 N 
HETATM    3  C   UNL     1     -40.341 -50.992  12.077  1.00  0.00     0.140 A 
HETATM    4  N   UNL     1     -42.479 -50.228  12.020  1.00  0.00    -0.346 N 
ATOM      5  HN  UNL     1     -43.295 -49.634  11.873  1.00  0.00     0.167 HD
HETATM    6  C   UNL     1     -40.512 -48.717  11.355  1.00  0.00     0.114 A 
HETATM    7  C   UNL     1     -42.463 -51.467  12.467  1.00  0.00     0.185 A 
HETATM    8  N   UNL     1     -39.001 -51.068  11.990  1.00  0.00    -0.336 N 
ATOM      9  HN  UNL     1     -38.451 -51.902  12.198  1.00  0.00     0.168 HD
HETATM   10  N   UNL     1     -39.146 -48.752  11.286  1.00  0.00    -0.341 N 
ATOM     11  HN  UNL     1     -38.627 -47.920  11.006  1.00  0.00     0.167 HD
HETATM   12  C   UNL     1     -38.489 -49.891  11.592  1.00  0.00     0.183 A 
ENDROOT
BRANCH   6  13
HETATM   13  N   UNL     1     -41.192 -47.528  11.098  1.00  0.00    -0.262 NA
HETATM   14  C   UNL     1     -40.375 -46.307  11.092  1.00  0.00     0.129 C 
HETATM   15  C   UNL     1     -41.309 -45.070  11.092  1.00  0.00     0.139 C 
HETATM   16  O   UNL     1     -42.218 -45.112   9.968  1.00  0.00    -0.378 OA
HETATM   17  C   UNL     1     -43.022 -46.311  10.012  1.00  0.00     0.131 C 
HETATM   18  C   UNL     1     -42.138 -47.576   9.973  1.00  0.00     0.128 C 
HETATM   19  C   UNL     1     -43.973 -46.298   8.821  1.00  0.00     0.040 C 
BRANCH  15  20
HETATM   20  C   UNL     1     -40.517 -43.793  10.997  1.00  0.00     0.016 A 
HETATM   21  C   UNL     1     -40.178 -43.000  12.239  1.00  0.00     0.007 A 
HETATM   22  C   UNL     1     -41.175 -42.458  11.255  1.00  0.00     0.007 A 
ENDBRANCH  15  20
ENDBRANCH   6  13
BRANCH   2  23
HETATM   23  C   UNL     1     -40.804 -53.272  12.999  1.00  0.00     0.169 C 
BRANCH  23  24
HETATM   24  C   UNL     1     -40.185 -53.264  14.416  1.00  0.00     0.078 C 
HETATM   25  C   UNL     1     -40.340 -54.669  15.028  1.00  0.00     0.066 C 
HETATM   26  C   UNL     1     -41.747 -54.901  15.553  1.00  0.00     0.170 C 
HETATM   27  O   UNL     1     -42.051 -53.931  16.548  1.00  0.00    -0.391 OA
HETATM   28  C   UNL     1     -42.087 -52.608  16.019  1.00  0.00     0.170 C 
HETATM   29  C   UNL     1     -40.752 -52.215  15.393  1.00  0.00     0.066 C 
BRANCH  24  30
HETATM   30  O   UNL     1     -38.770 -53.042  14.267  1.00  0.00    -0.388 OA
HETATM   31  H   UNL     1     -38.338 -53.183  15.128  1.00  0.00     0.210 HD
ENDBRANCH  24  30
ENDBRANCH  23  24
ENDBRANCH   2  23
TORSDOF 5
ENDMDL
MODEL 4
REMARK VINA RESULT:      -6.7      2.113      3.556
REMARK  5 active torsions:
REMARK  status: ('A' for Active; 'I' for Inactive)
REMARK    1  A    between atoms: N_2  and  C_19 
REMARK    2  A    between atoms: N_3  and  C_7 
REMARK    3  A    between atoms: C_9  and  C_15 
REMARK    4  A    between atoms: C_19  and  C_22 
REMARK    5  A    between atoms: C_22  and  O_27 
ROOT
HETATM    1  C   UNL     1     -40.377 -49.197  13.046  1.00  0.00     0.117 A 
HETATM    2  N   UNL     1     -40.115 -47.041  12.772  1.00  0.00    -0.324 N 
HETATM    3  C   UNL     1     -39.612 -48.253  12.383  1.00  0.00     0.140 A 
HETATM    4  N   UNL     1     -41.332 -48.571  13.832  1.00  0.00    -0.346 N 
ATOM      5  HN  UNL     1     -42.016 -49.013  14.445  1.00  0.00     0.167 HD
HETATM    6  C   UNL     1     -40.078 -50.562  12.803  1.00  0.00     0.114 A 
HETATM    7  C   UNL     1     -41.164 -47.282  13.618  1.00  0.00     0.185 A 
HETATM    8  N   UNL     1     -38.599 -48.467  11.525  1.00  0.00    -0.336 N 
ATOM      9  HN  UNL     1     -38.053 -47.732  11.074  1.00  0.00     0.168 HD
HETATM   10  N   UNL     1     -39.073 -50.814  11.910  1.00  0.00    -0.341 N 
ATOM     11  HN  UNL     1     -38.829 -51.775  11.672  1.00  0.00     0.167 HD
HETATM   12  C   UNL     1     -38.407 -49.785  11.344  1.00  0.00     0.183 A 
ENDROOT
BRANCH   6  13
HETATM   13  N   UNL     1     -40.808 -51.619  13.344  1.00  0.00    -0.262 NA
HETATM   14  C   UNL     1     -41.959 -52.079  12.555  1.00  0.00     0.129 C 
HETATM   15  C   UNL     1     -42.820 -53.033  13.421  1.00  0.00     0.139 C 
HETATM   16  O   UNL     1     -42.028 -54.140  13.910  1.00  0.00    -0.378 OA
HETATM   17  C   UNL     1     -40.919 -53.659  14.699  1.00  0.00     0.131 C 
HETATM   18  C   UNL     1     -40.004 -52.734  13.868  1.00  0.00     0.128 C 
HETATM   19  C   UNL     1     -40.130 -54.861  15.204  1.00  0.00     0.040 C 
BRANCH  15  20
HETATM   20  C   UNL     1     -43.966 -53.600  12.625  1.00  0.00     0.016 A 
HETATM   21  C   UNL     1     -45.385 -53.148  12.883  1.00  0.00     0.007 A 
HETATM   22  C   UNL     1     -44.962 -54.535  13.270  1.00  0.00     0.007 A 
ENDBRANCH  15  20
ENDBRANCH   6  13
BRANCH   2  23
HETATM   23  C   UNL     1     -39.709 -45.756  12.259  1.00  0.00     0.169 C 
BRANCH  23  24
HETATM   24  C   UNL     1     -40.185 -45.437  10.823  1.00  0.00     0.078 C 
HETATM   25  C   UNL     1     -40.179 -43.908  10.631  1.00  0.00     0.066 C 
HETATM   26  C   UNL     1     -41.396 -43.258  11.268  1.00  0.00     0.170 C 
HETATM   27  O   UNL     1     -42.580 -43.789  10.686  1.00  0.00    -0.391 OA
HETATM   28  C   UNL     1     -42.740 -45.179  10.960  1.00  0.00     0.170 C 
HETATM   29  C   UNL     1     -41.567 -45.997  10.430  1.00  0.00     0.066 C 
BRANCH  24  30
HETATM   30  O   UNL     1     -39.197 -45.961   9.916  1.00  0.00    -0.388 OA
HETATM   31  H   UNL     1     -38.571 -45.251   9.689  1.00  0.00     0.210 HD
ENDBRANCH  24  30
ENDBRANCH  23  24
ENDBRANCH   2  23
TORSDOF 5
ENDMDL
MODEL 5
REMARK VINA RESULT:      -6.4      2.549      3.228
REMARK  5 active torsions:
REMARK  status: ('A' for Active; 'I' for Inactive)
REMARK    1  A    between atoms: N_2  and  C_19 
REMARK    2  A    between atoms: N_3  and  C_7 
REMARK    3  A    between atoms: C_9  and  C_15 
REMARK    4  A    between atoms: C_19  and  C_22 
REMARK    5  A    between atoms: C_22  and  O_27 
ROOT
HETATM    1  C   UNL     1     -41.395 -48.139  12.925  1.00  0.00     0.117 A 
HETATM    2  N   UNL     1     -40.383 -46.200  12.850  1.00  0.00    -0.324 N 
HETATM    3  C   UNL     1     -40.905 -47.182  12.053  1.00  0.00     0.140 A 
HETATM    4  N   UNL     1     -41.171 -47.750  14.236  1.00  0.00    -0.346 N 
ATOM      5  HN  UNL     1     -41.404 -48.267  15.084  1.00  0.00     0.167 HD
HETATM    6  C   UNL     1     -42.020 -49.277  12.354  1.00  0.00     0.114 A 
HETATM    7  C   UNL     1     -40.592 -46.570  14.152  1.00  0.00     0.185 A 
HETATM    8  N   UNL     1     -40.943 -47.193  10.709  1.00  0.00    -0.336 N 
ATOM      9  HN  UNL     1     -40.551 -46.466  10.109  1.00  0.00     0.168 HD
HETATM   10  N   UNL     1     -42.103 -49.304  10.989  1.00  0.00    -0.341 N 
ATOM     11  HN  UNL     1     -42.566 -50.083  10.520  1.00  0.00     0.167 HD
HETATM   12  C   UNL     1     -41.571 -48.296  10.266  1.00  0.00     0.183 A 
ENDROOT
BRANCH   6  13
HETATM   13  N   UNL     1     -42.619 -50.286  13.108  1.00  0.00    -0.262 NA
HETATM   14  C   UNL     1     -44.088 -50.312  13.098  1.00  0.00     0.129 C 
HETATM   15  C   UNL     1     -44.586 -51.281  14.199  1.00  0.00     0.139 C 
HETATM   16  O   UNL     1     -44.026 -52.602  14.015  1.00  0.00    -0.378 OA
HETATM   17  C   UNL     1     -42.583 -52.548  14.050  1.00  0.00     0.131 C 
HETATM   18  C   UNL     1     -42.033 -51.625  12.943  1.00  0.00     0.128 C 
HETATM   19  C   UNL     1     -42.044 -53.963  13.871  1.00  0.00     0.040 C 
BRANCH  15  20
HETATM   20  C   UNL     1     -46.087 -51.408  14.171  1.00  0.00     0.016 A 
HETATM   21  C   UNL     1     -46.893 -51.337  15.448  1.00  0.00     0.007 A 
HETATM   22  C   UNL     1     -46.765 -52.643  14.716  1.00  0.00     0.007 A 
ENDBRANCH  15  20
ENDBRANCH   6  13
BRANCH   2  23
HETATM   23  C   UNL     1     -39.853 -44.938  12.396  1.00  0.00     0.169 C 
BRANCH  23  24
HETATM   24  C   UNL     1     -40.888 -43.968  11.780  1.00  0.00     0.078 C 
HETATM   25  C   UNL     1     -40.387 -42.525  11.975  1.00  0.00     0.066 C 
HETATM   26  C   UNL     1     -40.639 -42.028  13.389  1.00  0.00     0.170 C 
HETATM   27  O   UNL     1     -42.034 -42.071  13.666  1.00  0.00    -0.391 OA
HETATM   28  C   UNL     1     -42.544 -43.402  13.665  1.00  0.00     0.170 C 
HETATM   29  C   UNL     1     -42.327 -44.087  12.319  1.00  0.00     0.066 C 
BRANCH  24  30
HETATM   30  O   UNL     1     -40.904 -44.202  10.359  1.00  0.00    -0.388 OA
HETATM   31  H   UNL     1     -41.783 -44.534  10.105  1.00  0.00     0.210 HD
ENDBRANCH  24  30
ENDBRANCH  23  24
ENDBRANCH   2  23
TORSDOF 5
ENDMDL
MODEL 6
REMARK VINA RESULT:      -6.2      4.047      8.065
REMARK  5 active torsions:
REMARK  status: ('A' for Active; 'I' for Inactive)
REMARK    1  A    between atoms: N_2  and  C_19 
REMARK    2  A    between atoms: N_3  and  C_7 
REMARK    3  A    between atoms: C_9  and  C_15 
REMARK    4  A    between atoms: C_19  and  C_22 
REMARK    5  A    between atoms: C_22  and  O_27 
ROOT
HETATM    1  C   UNL     1     -41.937 -50.163  13.643  1.00  0.00     0.117 A 
HETATM    2  N   UNL     1     -43.831 -51.249  13.493  1.00  0.00    -0.324 N 
HETATM    3  C   UNL     1     -42.594 -51.141  12.918  1.00  0.00     0.140 A 
HETATM    4  N   UNL     1     -42.762 -49.676  14.644  1.00  0.00    -0.346 N 
ATOM      5  HN  UNL     1     -42.552 -48.936  15.315  1.00  0.00     0.167 HD
HETATM    6  C   UNL     1     -40.603 -49.861  13.265  1.00  0.00     0.114 A 
HETATM    7  C   UNL     1     -43.875 -50.371  14.544  1.00  0.00     0.185 A 
HETATM    8  N   UNL     1     -42.124 -51.855  11.879  1.00  0.00    -0.336 N 
ATOM      9  HN  UNL     1     -42.658 -52.557  11.366  1.00  0.00     0.168 HD
HETATM   10  N   UNL     1     -40.084 -50.591  12.232  1.00  0.00    -0.341 N 
ATOM     11  HN  UNL     1     -39.121 -50.440  11.931  1.00  0.00     0.167 HD
HETATM   12  C   UNL     1     -40.852 -51.513  11.612  1.00  0.00     0.183 A 
ENDROOT
BRANCH   6  13
HETATM   13  N   UNL     1     -39.797 -48.950  13.947  1.00  0.00    -0.262 NA
HETATM   14  C   UNL     1     -38.494 -49.455  14.400  1.00  0.00     0.129 C 
HETATM   15  C   UNL     1     -37.865 -48.432  15.380  1.00  0.00     0.139 C 
HETATM   16  O   UNL     1     -37.749 -47.130  14.760  1.00  0.00    -0.378 OA
HETATM   17  C   UNL     1     -39.046 -46.651  14.345  1.00  0.00     0.131 C 
HETATM   18  C   UNL     1     -39.700 -47.617  13.334  1.00  0.00     0.128 C 
HETATM   19  C   UNL     1     -38.872 -45.272  13.717  1.00  0.00     0.040 C 
BRANCH  15  20
HETATM   20  C   UNL     1     -36.487 -48.866  15.804  1.00  0.00     0.016 A 
HETATM   21  C   UNL     1     -36.181 -49.157  17.256  1.00  0.00     0.007 A 
HETATM   22  C   UNL     1     -35.600 -47.938  16.600  1.00  0.00     0.007 A 
ENDBRANCH  15  20
ENDBRANCH   6  13
BRANCH   2  23
HETATM   23  C   UNL     1     -44.840 -52.220  13.149  1.00  0.00     0.169 C 
BRANCH  23  24
HETATM   24  C   UNL     1     -44.459 -53.694  13.421  1.00  0.00     0.078 C 
HETATM   25  C   UNL     1     -45.739 -54.476  13.771  1.00  0.00     0.066 C 
HETATM   26  C   UNL     1     -46.169 -54.235  15.209  1.00  0.00     0.170 C 
HETATM   27  O   UNL     1     -45.128 -54.639  16.091  1.00  0.00    -0.391 OA
HETATM   28  C   UNL     1     -43.952 -53.847  15.937  1.00  0.00     0.170 C 
HETATM   29  C   UNL     1     -43.401 -53.926  14.517  1.00  0.00     0.066 C 
BRANCH  24  30
HETATM   30  O   UNL     1     -43.975 -54.248  12.183  1.00  0.00    -0.388 OA
HETATM   31  H   UNL     1     -44.504 -55.034  11.962  1.00  0.00     0.210 HD
ENDBRANCH  24  30
ENDBRANCH  23  24
ENDBRANCH   2  23
TORSDOF 5
ENDMDL
MODEL 7
REMARK VINA RESULT:      -6.2      2.640      3.549
REMARK  5 active torsions:
REMARK  status: ('A' for Active; 'I' for Inactive)
REMARK    1  A    between atoms: N_2  and  C_19 
REMARK    2  A    between atoms: N_3  and  C_7 
REMARK    3  A    between atoms: C_9  and  C_15 
REMARK    4  A    between atoms: C_19  and  C_22 
REMARK    5  A    between atoms: C_22  and  O_27 
ROOT
HETATM    1  C   UNL     1     -42.306 -48.219  13.446  1.00  0.00     0.117 A 
HETATM    2  N   UNL     1     -41.736 -46.143  13.838  1.00  0.00    -0.324 N 
HETATM    3  C   UNL     1     -42.403 -46.933  12.942  1.00  0.00     0.140 A 
HETATM    4  N   UNL     1     -41.587 -48.215  14.630  1.00  0.00    -0.346 N 
ATOM      5  HN  UNL     1     -41.340 -49.019  15.207  1.00  0.00     0.167 HD
HETATM    6  C   UNL     1     -42.941 -49.253  12.710  1.00  0.00     0.114 A 
HETATM    7  C   UNL     1     -41.289 -46.951  14.849  1.00  0.00     0.185 A 
HETATM    8  N   UNL     1     -43.029 -46.530  11.823  1.00  0.00    -0.336 N 
ATOM      9  HN  UNL     1     -43.057 -45.567  11.486  1.00  0.00     0.168 HD
HETATM   10  N   UNL     1     -43.614 -48.871  11.583  1.00  0.00    -0.341 N 
ATOM     11  HN  UNL     1     -44.114 -49.564  11.026  1.00  0.00     0.167 HD
HETATM   12  C   UNL     1     -43.615 -47.573  11.210  1.00  0.00     0.183 A 
ENDROOT
BRANCH   6  13
HETATM   13  N   UNL     1     -42.986 -50.581  13.131  1.00  0.00    -0.262 NA
HETATM   14  C   UNL     1     -44.309 -51.220  13.109  1.00  0.00     0.129 C 
HETATM   15  C   UNL     1     -44.236 -52.565  13.874  1.00  0.00     0.139 C 
HETATM   16  O   UNL     1     -43.217 -53.424  13.312  1.00  0.00    -0.378 OA
HETATM   17  C   UNL     1     -41.926 -52.779  13.366  1.00  0.00     0.131 C 
HETATM   18  C   UNL     1     -41.934 -51.450  12.582  1.00  0.00     0.128 C 
HETATM   19  C   UNL     1     -40.888 -53.729  12.781  1.00  0.00     0.040 C 
BRANCH  15  20
HETATM   20  C   UNL     1     -45.549 -53.300  13.804  1.00  0.00     0.016 A 
HETATM   21  C   UNL     1     -46.168 -53.897  15.047  1.00  0.00     0.007 A 
HETATM   22  C   UNL     1     -45.603 -54.798  13.987  1.00  0.00     0.007 A 
ENDBRANCH  15  20
ENDBRANCH   6  13
BRANCH   2  23
HETATM   23  C   UNL     1     -41.657 -44.703  13.799  1.00  0.00     0.169 C 
BRANCH  23  24
HETATM   24  C   UNL     1     -40.314 -44.127  13.293  1.00  0.00     0.078 C 
HETATM   25  C   UNL     1     -40.572 -42.732  12.693  1.00  0.00     0.066 C 
HETATM   26  C   UNL     1     -41.156 -42.823  11.293  1.00  0.00     0.170 C 
HETATM   27  O   UNL     1     -40.255 -43.527  10.447  1.00  0.00    -0.391 OA
HETATM   28  C   UNL     1     -40.090 -44.886  10.846  1.00  0.00     0.170 C 
HETATM   29  C   UNL     1     -39.552 -44.992  12.270  1.00  0.00     0.066 C 
BRANCH  24  30
HETATM   30  O   UNL     1     -39.474 -43.922  14.445  1.00  0.00    -0.388 OA
HETATM   31  H   UNL     1     -39.828 -44.440  15.189  1.00  0.00     0.210 HD
ENDBRANCH  24  30
ENDBRANCH  23  24
ENDBRANCH   2  23
TORSDOF 5
ENDMDL
MODEL 8
REMARK VINA RESULT:      -6.1      2.141      3.752
REMARK  5 active torsions:
REMARK  status: ('A' for Active; 'I' for Inactive)
REMARK    1  A    between atoms: N_2  and  C_19 
REMARK    2  A    between atoms: N_3  and  C_7 
REMARK    3  A    between atoms: C_9  and  C_15 
REMARK    4  A    between atoms: C_19  and  C_22 
REMARK    5  A    between atoms: C_22  and  O_27 
ROOT
HETATM    1  C   UNL     1     -40.613 -49.577  12.953  1.00  0.00     0.117 A 
HETATM    2  N   UNL     1     -40.515 -47.392  12.871  1.00  0.00    -0.324 N 
HETATM    3  C   UNL     1     -39.874 -48.523  12.444  1.00  0.00     0.140 A 
HETATM    4  N   UNL     1     -41.688 -49.097  13.684  1.00  0.00    -0.346 N 
ATOM      5  HN  UNL     1     -42.386 -49.642  14.190  1.00  0.00     0.167 HD
HETATM    6  C   UNL     1     -40.174 -50.889  12.639  1.00  0.00     0.114 A 
HETATM    7  C   UNL     1     -41.615 -47.786  13.586  1.00  0.00     0.185 A 
HETATM    8  N   UNL     1     -38.770 -48.583  11.679  1.00  0.00    -0.336 N 
ATOM      9  HN  UNL     1     -38.250 -47.773  11.342  1.00  0.00     0.168 HD
HETATM   10  N   UNL     1     -39.072 -50.985  11.835  1.00  0.00    -0.341 N 
ATOM     11  HN  UNL     1     -38.723 -51.900  11.552  1.00  0.00     0.167 HD
HETATM   12  C   UNL     1     -38.447 -49.863  11.419  1.00  0.00     0.183 A 
ENDROOT
BRANCH   6  13
HETATM   13  N   UNL     1     -40.857 -52.043  13.023  1.00  0.00    -0.262 NA
HETATM   14  C   UNL     1     -40.640 -52.491  14.405  1.00  0.00     0.129 C 
HETATM   15  C   UNL     1     -41.219 -53.918  14.573  1.00  0.00     0.139 C 
HETATM   16  O   UNL     1     -42.620 -53.952  14.212  1.00  0.00    -0.378 OA
HETATM   17  C   UNL     1     -42.800 -53.528  12.844  1.00  0.00     0.131 C 
HETATM   18  C   UNL     1     -42.275 -52.092  12.632  1.00  0.00     0.128 C 
HETATM   19  C   UNL     1     -44.285 -53.599  12.509  1.00  0.00     0.040 C 
BRANCH  15  20
HETATM   20  C   UNL     1     -41.098 -54.387  15.999  1.00  0.00     0.016 A 
HETATM   21  C   UNL     1     -40.297 -55.622  16.341  1.00  0.00     0.007 A 
HETATM   22  C   UNL     1     -41.794 -55.648  16.456  1.00  0.00     0.007 A 
ENDBRANCH  15  20
ENDBRANCH   6  13
BRANCH   2  23
HETATM   23  C   UNL     1     -40.177 -46.041  12.500  1.00  0.00     0.169 C 
BRANCH  23  24
HETATM   24  C   UNL     1     -40.801 -45.542  11.176  1.00  0.00     0.078 C 
HETATM   25  C   UNL     1     -39.990 -44.332  10.675  1.00  0.00     0.066 C 
HETATM   26  C   UNL     1     -40.357 -43.061  11.424  1.00  0.00     0.170 C 
HETATM   27  O   UNL     1     -41.743 -42.790  11.249  1.00  0.00    -0.391 OA
HETATM   28  C   UNL     1     -42.568 -43.793  11.835  1.00  0.00     0.170 C 
HETATM   29  C   UNL     1     -42.295 -45.169  11.233  1.00  0.00     0.066 C 
BRANCH  24  30
HETATM   30  O   UNL     1     -40.620 -46.582  10.196  1.00  0.00    -0.388 OA
HETATM   31  H   UNL     1     -40.231 -46.193   9.393  1.00  0.00     0.210 HD
ENDBRANCH  24  30
ENDBRANCH  23  24
ENDBRANCH   2  23
TORSDOF 5
ENDMDL
MODEL 9
REMARK VINA RESULT:      -6.1      2.779      3.895
REMARK  5 active torsions:
REMARK  status: ('A' for Active; 'I' for Inactive)
REMARK    1  A    between atoms: N_2  and  C_19 
REMARK    2  A    between atoms: N_3  and  C_7 
REMARK    3  A    between atoms: C_9  and  C_15 
REMARK    4  A    between atoms: C_19  and  C_22 
REMARK    5  A    between atoms: C_22  and  O_27 
ROOT
HETATM    1  C   UNL     1     -42.817 -48.691  12.759  1.00  0.00     0.117 A 
HETATM    2  N   UNL     1     -42.581 -46.805  11.675  1.00  0.00    -0.324 N 
HETATM    3  C   UNL     1     -42.763 -47.319  12.930  1.00  0.00     0.140 A 
HETATM    4  N   UNL     1     -42.676 -49.011  11.418  1.00  0.00    -0.346 N 
ATOM      5  HN  UNL     1     -42.700 -49.940  10.997  1.00  0.00     0.167 HD
HETATM    6  C   UNL     1     -42.982 -49.485  13.924  1.00  0.00     0.114 A 
HETATM    7  C   UNL     1     -42.505 -47.859  10.804  1.00  0.00     0.185 A 
HETATM    8  N   UNL     1     -42.850 -46.626  14.079  1.00  0.00    -0.336 N 
ATOM      9  HN  UNL     1     -42.820 -45.609  14.150  1.00  0.00     0.168 HD
HETATM   10  N   UNL     1     -43.042 -48.812  15.113  1.00  0.00    -0.341 N 
ATOM     11  HN  UNL     1     -43.133 -49.327  15.988  1.00  0.00     0.167 HD
HETATM   12  C   UNL     1     -42.982 -47.463  15.123  1.00  0.00     0.183 A 
ENDROOT
BRANCH   6  13
HETATM   13  N   UNL     1     -42.984 -50.879  13.912  1.00  0.00    -0.262 NA
HETATM   14  C   UNL     1     -44.278 -51.519  13.641  1.00  0.00     0.129 C 
HETATM   15  C   UNL     1     -44.172 -53.033  13.956  1.00  0.00     0.139 C 
HETATM   16  O   UNL     1     -43.103 -53.643  13.197  1.00  0.00    -0.378 OA
HETATM   17  C   UNL     1     -41.842 -53.008  13.499  1.00  0.00     0.131 C 
HETATM   18  C   UNL     1     -41.882 -51.502  13.164  1.00  0.00     0.128 C 
HETATM   19  C   UNL     1     -40.749 -53.697  12.691  1.00  0.00     0.040 C 
BRANCH  15  20
HETATM   20  C   UNL     1     -45.451 -53.749  13.610  1.00  0.00     0.016 A 
HETATM   21  C   UNL     1     -46.304 -54.372  14.691  1.00  0.00     0.007 A 
HETATM   22  C   UNL     1     -45.550 -55.251  13.735  1.00  0.00     0.007 A 
ENDBRANCH  15  20
ENDBRANCH   6  13
BRANCH   2  23
HETATM   23  C   UNL     1     -42.355 -45.416  11.357  1.00  0.00     0.169 C 
BRANCH  23  24
HETATM   24  C   UNL     1     -40.919 -45.067  10.902  1.00  0.00     0.078 C 
HETATM   25  C   UNL     1     -39.925 -45.908  11.724  1.00  0.00     0.066 C 
HETATM   26  C   UNL     1     -39.715 -45.330  13.114  1.00  0.00     0.170 C 
HETATM   27  O   UNL     1     -39.215 -44.002  13.006  1.00  0.00    -0.391 OA
HETATM   28  C   UNL     1     -40.153 -43.119  12.397  1.00  0.00     0.170 C 
HETATM   29  C   UNL     1     -40.527 -43.579  10.990  1.00  0.00     0.066 C 
BRANCH  24  30
HETATM   30  O   UNL     1     -40.783 -45.502   9.536  1.00  0.00    -0.388 OA
HETATM   31  H   UNL     1     -40.366 -44.790   9.019  1.00  0.00     0.210 HD
ENDBRANCH  24  30
ENDBRANCH  23  24
ENDBRANCH   2  23
TORSDOF 5
ENDMDL
