MODEL 1
REMARK VINA RESULT:      -6.2      0.000      0.000
REMARK  5 active torsions:
REMARK  status: ('A' for Active; 'I' for Inactive)
REMARK    1  A    between atoms: C_2  and  C_3 
REMARK    2  A    between atoms: C_2  and  N_14 
REMARK       I    between atoms: C_3  and  N_5 
REMARK    3  A    between atoms: N_5  and  C_6 
REMARK    4  A    between atoms: C_6  and  C_7 
REMARK    5  A    between atoms: C_7  and  C_8 
ROOT
HETATM    1  C   UNL     1     -42.510 -48.527  11.447  1.00  0.00     0.242 C 
HETATM    2  O   UNL     1     -43.093 -48.167  12.468  1.00  0.00    -0.271 OA
HETATM    3  N   UNL     1     -41.920 -49.776  11.346  1.00  0.00    -0.359 N 
HETATM    4  H   UNL     1     -41.433 -50.048  10.498  1.00  0.00     0.162 HD
ENDROOT
BRANCH   1   5
HETATM    5  C   UNL     1     -42.358 -47.621  10.234  1.00  0.00     0.196 C 
HETATM    6  C   UNL     1     -41.459 -46.422  10.534  1.00  0.00     0.044 C 
BRANCH   5   7
HETATM    7  N   UNL     1     -43.658 -47.185   9.755  1.00  0.00    -0.273 N 
HETATM    8  C   UNL     1     -43.975 -46.033   9.103  1.00  0.00     0.202 A 
HETATM    9  N   UNL     1     -45.252 -46.042   8.797  1.00  0.00    -0.346 N 
HETATM   10  C   UNL     1     -45.681 -47.239   9.297  1.00  0.00     0.198 A 
ATOM     11  HN  UNL     1     -45.792 -45.330   8.307  1.00  0.00     0.167 HD
HETATM   12  N   UNL     1     -44.746 -47.965   9.914  1.00  0.00    -0.292 N 
ATOM     13  HN  UNL     1     -44.831 -48.869  10.381  1.00  0.00     0.188 HD
ENDBRANCH   5   7
ENDBRANCH   1   5
BRANCH   3  14
HETATM   14  C   UNL     1     -41.964 -50.683  12.480  1.00  0.00     0.127 C 
BRANCH  14  15
HETATM   15  C   UNL     1     -41.737 -52.150  12.111  1.00  0.00     0.053 C 
BRANCH  15  16
HETATM   16  C   UNL     1     -42.675 -53.096  12.843  1.00  0.00    -0.082 A 
HETATM   17  C   UNL     1     -43.964 -53.210  12.493  1.00  0.00    -0.024 A 
HETATM   18  C   UNL     1     -44.950 -54.123  13.139  1.00  0.00     0.027 A 
HETATM   19  C   UNL     1     -44.452 -54.988  14.291  1.00  0.00     0.004 A 
HETATM   20  C   UNL     1     -42.988 -54.886  14.700  1.00  0.00     0.005 A 
HETATM   21  C   UNL     1     -42.079 -53.907  13.957  1.00  0.00     0.034 A 
ENDBRANCH  15  16
ENDBRANCH  14  15
ENDBRANCH   3  14
TORSDOF 5
ENDMDL
MODEL 2
REMARK VINA RESULT:      -6.1      1.881      2.314
REMARK  5 active torsions:
REMARK  status: ('A' for Active; 'I' for Inactive)
REMARK    1  A    between atoms: C_2  and  C_3 
REMARK    2  A    between atoms: C_2  and  N_14 
REMARK       I    between atoms: C_3  and  N_5 
REMARK    3  A    between atoms: N_5  and  C_6 
REMARK    4  A    between atoms: C_6  and  C_7 
REMARK    5  A    between atoms: C_7  and  C_8 
ROOT
HETATM    1  C   UNL     1     -42.652 -48.479  11.468  1.00  0.00     0.242 C 
HETATM    2  O   UNL     1     -43.302 -48.060  12.424  1.00  0.00    -0.271 OA
HETATM    3  N   UNL     1     -41.973 -49.685  11.521  1.00  0.00    -0.359 N 
HETATM    4  H   UNL     1     -41.432 -50.008  10.725  1.00  0.00     0.162 HD
ENDROOT
BRANCH   1   5
HETATM    5  C   UNL     1     -42.511 -47.695  10.171  1.00  0.00     0.196 C 
HETATM    6  C   UNL     1     -41.535 -46.528  10.321  1.00  0.00     0.044 C 
BRANCH   5   7
HETATM    7  N   UNL     1     -43.807 -47.230   9.712  1.00  0.00    -0.273 N 
HETATM    8  C   UNL     1     -44.115 -46.050   9.106  1.00  0.00     0.202 A 
HETATM    9  N   UNL     1     -45.392 -46.037   8.801  1.00  0.00    -0.346 N 
HETATM   10  C   UNL     1     -45.831 -47.249   9.253  1.00  0.00     0.198 A 
ATOM     11  HN  UNL     1     -45.927 -45.301   8.340  1.00  0.00     0.167 HD
HETATM   12  N   UNL     1     -44.901 -48.007   9.840  1.00  0.00    -0.292 N 
ATOM     13  HN  UNL     1     -44.993 -48.928  10.270  1.00  0.00     0.188 HD
ENDBRANCH   5   7
ENDBRANCH   1   5
BRANCH   3  14
HETATM   14  C   UNL     1     -42.002 -50.471  12.743  1.00  0.00     0.127 C 
BRANCH  14  15
HETATM   15  C   UNL     1     -42.944 -51.676  12.685  1.00  0.00     0.053 C 
BRANCH  15  16
HETATM   16  C   UNL     1     -44.152 -51.527  13.596  1.00  0.00    -0.082 A 
HETATM   17  C   UNL     1     -44.025 -51.082  14.854  1.00  0.00    -0.024 A 
HETATM   18  C   UNL     1     -45.153 -50.885  15.811  1.00  0.00     0.027 A 
HETATM   19  C   UNL     1     -46.555 -51.223  15.318  1.00  0.00     0.004 A 
HETATM   20  C   UNL     1     -46.725 -51.719  13.887  1.00  0.00     0.005 A 
HETATM   21  C   UNL     1     -45.486 -51.880  13.007  1.00  0.00     0.034 A 
ENDBRANCH  15  16
ENDBRANCH  14  15
ENDBRANCH   3  14
TORSDOF 5
ENDMDL
MODEL 3
REMARK VINA RESULT:      -5.9      1.858      2.624
REMARK  5 active torsions:
REMARK  status: ('A' for Active; 'I' for Inactive)
REMARK    1  A    between atoms: C_2  and  C_3 
REMARK    2  A    between atoms: C_2  and  N_14 
REMARK       I    between atoms: C_3  and  N_5 
REMARK    3  A    between atoms: N_5  and  C_6 
REMARK    4  A    between atoms: C_6  and  C_7 
REMARK    5  A    between atoms: C_7  and  C_8 
ROOT
HETATM    1  C   UNL     1     -41.549 -49.938  12.243  1.00  0.00     0.242 C 
HETATM    2  O   UNL     1     -41.421 -49.707  13.444  1.00  0.00    -0.271 OA
HETATM    3  N   UNL     1     -42.056 -51.142  11.783  1.00  0.00    -0.359 N 
HETATM    4  H   UNL     1     -42.141 -51.317  10.787  1.00  0.00     0.162 HD
ENDROOT
BRANCH   1   5
HETATM    5  C   UNL     1     -41.128 -48.942  11.172  1.00  0.00     0.196 C 
HETATM    6  C   UNL     1     -40.112 -47.934  11.708  1.00  0.00     0.044 C 
BRANCH   5   7
HETATM    7  N   UNL     1     -42.288 -48.264  10.620  1.00  0.00    -0.273 N 
HETATM    8  C   UNL     1     -43.288 -47.624  11.286  1.00  0.00     0.202 A 
HETATM    9  N   UNL     1     -44.122 -47.098  10.419  1.00  0.00    -0.346 N 
HETATM   10  C   UNL     1     -43.583 -47.455   9.215  1.00  0.00     0.198 A 
ATOM     11  HN  UNL     1     -44.967 -46.557  10.599  1.00  0.00     0.167 HD
HETATM   12  N   UNL     1     -42.470 -48.190   9.287  1.00  0.00    -0.292 N 
ATOM     13  HN  UNL     1     -41.908 -48.588   8.534  1.00  0.00     0.188 HD
ENDBRANCH   5   7
ENDBRANCH   1   5
BRANCH   3  14
HETATM   14  C   UNL     1     -42.426 -52.175  12.735  1.00  0.00     0.127 C 
BRANCH  14  15
HETATM   15  C   UNL     1     -43.605 -53.040  12.286  1.00  0.00     0.053 C 
BRANCH  15  16
HETATM   16  C   UNL     1     -44.806 -52.928  13.211  1.00  0.00    -0.082 A 
HETATM   17  C   UNL     1     -45.309 -54.002  13.835  1.00  0.00    -0.024 A 
HETATM   18  C   UNL     1     -46.469 -53.984  14.772  1.00  0.00     0.027 A 
HETATM   19  C   UNL     1     -47.135 -52.638  15.035  1.00  0.00     0.004 A 
HETATM   20  C   UNL     1     -46.573 -51.400  14.347  1.00  0.00     0.005 A 
HETATM   21  C   UNL     1     -45.380 -51.554  13.405  1.00  0.00     0.034 A 
ENDBRANCH  15  16
ENDBRANCH  14  15
ENDBRANCH   3  14
TORSDOF 5
ENDMDL
MODEL 4
REMARK VINA RESULT:      -5.8      2.522      2.768
REMARK  5 active torsions:
REMARK  status: ('A' for Active; 'I' for Inactive)
REMARK    1  A    between atoms: C_2  and  C_3 
REMARK    2  A    between atoms: C_2  and  N_14 
REMARK       I    between atoms: C_3  and  N_5 
REMARK    3  A    between atoms: N_5  and  C_6 
REMARK    4  A    between atoms: C_6  and  C_7 
REMARK    5  A    between atoms: C_7  and  C_8 
ROOT
HETATM    1  C   UNL     1     -41.486 -48.736  11.302  1.00  0.00     0.242 C 
HETATM    2  O   UNL     1     -40.648 -49.562  10.946  1.00  0.00    -0.271 OA
HETATM    3  N   UNL     1     -42.475 -49.050  12.219  1.00  0.00    -0.359 N 
HETATM    4  H   UNL     1     -43.165 -48.356  12.490  1.00  0.00     0.162 HD
ENDROOT
BRANCH   1   5
HETATM    5  C   UNL     1     -41.527 -47.322  10.740  1.00  0.00     0.196 C 
HETATM    6  C   UNL     1     -41.747 -46.284  11.840  1.00  0.00     0.044 C 
BRANCH   5   7
HETATM    7  N   UNL     1     -42.546 -47.210   9.712  1.00  0.00    -0.273 N 
HETATM    8  C   UNL     1     -43.431 -46.196   9.507  1.00  0.00     0.202 A 
HETATM    9  N   UNL     1     -44.152 -46.455   8.440  1.00  0.00    -0.346 N 
HETATM   10  C   UNL     1     -43.664 -47.662   8.023  1.00  0.00     0.198 A 
ATOM     11  HN  UNL     1     -44.893 -45.893   8.024  1.00  0.00     0.167 HD
HETATM   12  N   UNL     1     -42.695 -48.176   8.784  1.00  0.00    -0.292 N 
ATOM     13  HN  UNL     1     -42.199 -49.063   8.689  1.00  0.00     0.188 HD
ENDBRANCH   5   7
ENDBRANCH   1   5
BRANCH   3  14
HETATM   14  C   UNL     1     -42.549 -50.395  12.762  1.00  0.00     0.127 C 
BRANCH  14  15
HETATM   15  C   UNL     1     -42.827 -50.445  14.265  1.00  0.00     0.053 C 
BRANCH  15  16
HETATM   16  C   UNL     1     -44.276 -50.772  14.588  1.00  0.00    -0.082 A 
HETATM   17  C   UNL     1     -45.119 -51.210  13.644  1.00  0.00    -0.024 A 
HETATM   18  C   UNL     1     -46.548 -51.574  13.872  1.00  0.00     0.027 A 
HETATM   19  C   UNL     1     -47.088 -51.428  15.289  1.00  0.00     0.004 A 
HETATM   20  C   UNL     1     -46.145 -50.944  16.384  1.00  0.00     0.005 A 
HETATM   21  C   UNL     1     -44.701 -50.601  16.018  1.00  0.00     0.034 A 
ENDBRANCH  15  16
ENDBRANCH  14  15
ENDBRANCH   3  14
TORSDOF 5
ENDMDL
MODEL 5
REMARK VINA RESULT:      -5.7      4.005      5.740
REMARK  5 active torsions:
REMARK  status: ('A' for Active; 'I' for Inactive)
REMARK    1  A    between atoms: C_2  and  C_3 
REMARK    2  A    between atoms: C_2  and  N_14 
REMARK       I    between atoms: C_3  and  N_5 
REMARK    3  A    between atoms: N_5  and  C_6 
REMARK    4  A    between atoms: C_6  and  C_7 
REMARK    5  A    between atoms: C_7  and  C_8 
ROOT
HETATM    1  C   UNL     1     -42.512 -53.629  13.283  1.00  0.00     0.242 C 
HETATM    2  O   UNL     1     -42.764 -53.912  14.453  1.00  0.00    -0.271 OA
HETATM    3  N   UNL     1     -43.516 -53.428  12.350  1.00  0.00    -0.359 N 
HETATM    4  H   UNL     1     -43.287 -53.207  11.386  1.00  0.00     0.162 HD
ENDROOT
BRANCH   1   5
HETATM    5  C   UNL     1     -41.088 -53.514  12.760  1.00  0.00     0.196 C 
HETATM    6  C   UNL     1     -40.093 -54.235  13.670  1.00  0.00     0.044 C 
BRANCH   5   7
HETATM    7  N   UNL     1     -40.716 -52.121  12.589  1.00  0.00    -0.273 N 
HETATM    8  C   UNL     1     -40.212 -51.261  13.517  1.00  0.00     0.202 A 
HETATM    9  N   UNL     1     -39.961 -50.104  12.948  1.00  0.00    -0.346 N 
HETATM   10  C   UNL     1     -40.341 -50.308  11.652  1.00  0.00     0.198 A 
ATOM     11  HN  UNL     1     -39.577 -49.260  13.371  1.00  0.00     0.167 HD
HETATM   12  N   UNL     1     -40.832 -51.521  11.388  1.00  0.00    -0.292 N 
ATOM     13  HN  UNL     1     -41.197 -51.895  10.511  1.00  0.00     0.188 HD
ENDBRANCH   5   7
ENDBRANCH   1   5
BRANCH   3  14
HETATM   14  C   UNL     1     -44.905 -53.578  12.748  1.00  0.00     0.127 C 
BRANCH  14  15
HETATM   15  C   UNL     1     -45.686 -52.263  12.788  1.00  0.00     0.053 C 
BRANCH  15  16
HETATM   16  C   UNL     1     -45.909 -51.749  14.201  1.00  0.00    -0.082 A 
HETATM   17  C   UNL     1     -47.049 -51.996  14.861  1.00  0.00    -0.024 A 
HETATM   18  C   UNL     1     -47.346 -51.551  16.253  1.00  0.00     0.027 A 
HETATM   19  C   UNL     1     -46.271 -50.748  16.976  1.00  0.00     0.004 A 
HETATM   20  C   UNL     1     -44.961 -50.465  16.250  1.00  0.00     0.005 A 
HETATM   21  C   UNL     1     -44.781 -50.975  14.821  1.00  0.00     0.034 A 
ENDBRANCH  15  16
ENDBRANCH  14  15
ENDBRANCH   3  14
TORSDOF 5
ENDMDL
MODEL 6
REMARK VINA RESULT:      -5.6      1.633      2.423
REMARK  5 active torsions:
REMARK  status: ('A' for Active; 'I' for Inactive)
REMARK    1  A    between atoms: C_2  and  C_3 
REMARK    2  A    between atoms: C_2  and  N_14 
REMARK       I    between atoms: C_3  and  N_5 
REMARK    3  A    between atoms: N_5  and  C_6 
REMARK    4  A    between atoms: C_6  and  C_7 
REMARK    5  A    between atoms: C_7  and  C_8 
ROOT
HETATM    1  C   UNL     1     -41.295 -50.082  11.825  1.00  0.00     0.242 C 
HETATM    2  O   UNL     1     -42.410 -50.218  12.326  1.00  0.00    -0.271 OA
HETATM    3  N   UNL     1     -40.559 -51.168  11.381  1.00  0.00    -0.359 N 
HETATM    4  H   UNL     1     -39.635 -51.035  10.982  1.00  0.00     0.162 HD
ENDROOT
BRANCH   1   5
HETATM    5  C   UNL     1     -40.624 -48.724  11.686  1.00  0.00     0.196 C 
HETATM    6  C   UNL     1     -40.389 -48.069  13.047  1.00  0.00     0.044 C 
BRANCH   5   7
HETATM    7  N   UNL     1     -41.403 -47.854  10.822  1.00  0.00    -0.273 N 
HETATM    8  C   UNL     1     -41.247 -46.519  10.605  1.00  0.00     0.202 A 
HETATM    9  N   UNL     1     -42.123 -46.117   9.713  1.00  0.00    -0.346 N 
HETATM   10  C   UNL     1     -42.807 -47.261   9.414  1.00  0.00     0.198 A 
ATOM     11  HN  UNL     1     -42.259 -45.180   9.336  1.00  0.00     0.167 HD
HETATM   12  N   UNL     1     -42.418 -48.348  10.086  1.00  0.00    -0.292 N 
ATOM     13  HN  UNL     1     -42.789 -49.298  10.050  1.00  0.00     0.188 HD
ENDBRANCH   5   7
ENDBRANCH   1   5
BRANCH   3  14
HETATM   14  C   UNL     1     -41.097 -52.509  11.531  1.00  0.00     0.127 C 
BRANCH  14  15
HETATM   15  C   UNL     1     -40.874 -53.118  12.917  1.00  0.00     0.053 C 
BRANCH  15  16
HETATM   16  C   UNL     1     -42.115 -53.800  13.470  1.00  0.00    -0.082 A 
HETATM   17  C   UNL     1     -42.072 -54.510  14.606  1.00  0.00    -0.024 A 
HETATM   18  C   UNL     1     -43.240 -55.196  15.232  1.00  0.00     0.027 A 
HETATM   19  C   UNL     1     -44.582 -55.082  14.519  1.00  0.00     0.004 A 
HETATM   20  C   UNL     1     -44.658 -54.269  13.232  1.00  0.00     0.005 A 
HETATM   21  C   UNL     1     -43.386 -53.617  12.692  1.00  0.00     0.034 A 
ENDBRANCH  15  16
ENDBRANCH  14  15
ENDBRANCH   3  14
TORSDOF 5
ENDMDL
MODEL 7
REMARK VINA RESULT:      -5.6      1.475      2.209
REMARK  5 active torsions:
REMARK  status: ('A' for Active; 'I' for Inactive)
REMARK    1  A    between atoms: C_2  and  C_3 
REMARK    2  A    between atoms: C_2  and  N_14 
REMARK       I    between atoms: C_3  and  N_5 
REMARK    3  A    between atoms: N_5  and  C_6 
REMARK    4  A    between atoms: C_6  and  C_7 
REMARK    5  A    between atoms: C_7  and  C_8 
ROOT
HETATM    1  C   UNL     1     -41.596 -49.134  11.270  1.00  0.00     0.242 C 
HETATM    2  O   UNL     1     -40.481 -49.349  10.797  1.00  0.00    -0.271 OA
HETATM    3  N   UNL     1     -42.310 -50.120  11.930  1.00  0.00    -0.359 N 
HETATM    4  H   UNL     1     -43.234 -49.926  12.303  1.00  0.00     0.162 HD
ENDROOT
BRANCH   1   5
HETATM    5  C   UNL     1     -42.292 -47.788  11.136  1.00  0.00     0.196 C 
HETATM    6  C   UNL     1     -43.148 -47.471  12.362  1.00  0.00     0.044 C 
BRANCH   5   7
HETATM    7  N   UNL     1     -43.090 -47.743   9.923  1.00  0.00    -0.273 N 
HETATM    8  C   UNL     1     -44.402 -47.406   9.787  1.00  0.00     0.202 A 
HETATM    9  N   UNL     1     -44.731 -47.442   8.516  1.00  0.00    -0.346 N 
HETATM   10  C   UNL     1     -43.568 -47.816   7.905  1.00  0.00     0.198 A 
ATOM     11  HN  UNL     1     -45.635 -47.239   8.090  1.00  0.00     0.167 HD
HETATM   12  N   UNL     1     -42.539 -48.035   8.728  1.00  0.00    -0.292 N 
ATOM     13  HN  UNL     1     -41.590 -48.342   8.511  1.00  0.00     0.188 HD
ENDBRANCH   5   7
ENDBRANCH   1   5
BRANCH   3  14
HETATM   14  C   UNL     1     -41.747 -51.454  12.050  1.00  0.00     0.127 C 
BRANCH  14  15
HETATM   15  C   UNL     1     -42.782 -52.541  12.348  1.00  0.00     0.053 C 
BRANCH  15  16
HETATM   16  C   UNL     1     -42.369 -53.453  13.493  1.00  0.00    -0.082 A 
HETATM   17  C   UNL     1     -41.119 -53.444  13.975  1.00  0.00    -0.024 A 
HETATM   18  C   UNL     1     -40.631 -54.286  15.105  1.00  0.00     0.027 A 
HETATM   19  C   UNL     1     -41.633 -55.233  15.756  1.00  0.00     0.004 A 
HETATM   20  C   UNL     1     -43.064 -55.252  15.233  1.00  0.00     0.005 A 
HETATM   21  C   UNL     1     -43.437 -54.340  14.064  1.00  0.00     0.034 A 
ENDBRANCH  15  16
ENDBRANCH  14  15
ENDBRANCH   3  14
TORSDOF 5
ENDMDL
MODEL 8
REMARK VINA RESULT:      -5.5      2.224      3.739
REMARK  5 active torsions:
REMARK  status: ('A' for Active; 'I' for Inactive)
REMARK    1  A    between atoms: C_2  and  C_3 
REMARK    2  A    between atoms: C_2  and  N_14 
REMARK       I    between atoms: C_3  and  N_5 
REMARK    3  A    between atoms: N_5  and  C_6 
REMARK    4  A    between atoms: C_6  and  C_7 
REMARK    5  A    between atoms: C_7  and  C_8 
ROOT
HETATM    1  C   UNL     1     -41.605 -51.205  12.768  1.00  0.00     0.242 C 
HETATM    2  O   UNL     1     -41.197 -51.561  11.664  1.00  0.00    -0.271 OA
HETATM    3  N   UNL     1     -42.042 -52.119  13.713  1.00  0.00    -0.359 N 
HETATM    4  H   UNL     1     -42.386 -51.803  14.614  1.00  0.00     0.162 HD
ENDROOT
BRANCH   1   5
HETATM    5  C   UNL     1     -41.696 -49.740  13.169  1.00  0.00     0.196 C 
HETATM    6  C   UNL     1     -42.982 -49.446  13.941  1.00  0.00     0.044 C 
BRANCH   5   7
HETATM    7  N   UNL     1     -41.585 -48.883  12.002  1.00  0.00    -0.273 N 
HETATM    8  C   UNL     1     -40.570 -48.041  11.666  1.00  0.00     0.202 A 
HETATM    9  N   UNL     1     -40.831 -47.483  10.506  1.00  0.00    -0.346 N 
HETATM   10  C   UNL     1     -42.041 -48.022  10.170  1.00  0.00     0.198 A 
ATOM     11  HN  UNL     1     -40.269 -46.812   9.984  1.00  0.00     0.167 HD
HETATM   12  N   UNL     1     -42.555 -48.868  11.066  1.00  0.00    -0.292 N 
ATOM     13  HN  UNL     1     -43.444 -49.369  11.048  1.00  0.00     0.188 HD
ENDBRANCH   5   7
ENDBRANCH   1   5
BRANCH   3  14
HETATM   14  C   UNL     1     -42.047 -53.535  13.391  1.00  0.00     0.127 C 
BRANCH  14  15
HETATM   15  C   UNL     1     -43.362 -54.244  13.725  1.00  0.00     0.053 C 
BRANCH  15  16
HETATM   16  C   UNL     1     -44.526 -53.281  13.896  1.00  0.00    -0.082 A 
HETATM   17  C   UNL     1     -44.897 -52.844  15.108  1.00  0.00    -0.024 A 
HETATM   18  C   UNL     1     -46.010 -51.887  15.369  1.00  0.00     0.027 A 
HETATM   19  C   UNL     1     -46.787 -51.371  14.163  1.00  0.00     0.004 A 
HETATM   20  C   UNL     1     -46.375 -51.844  12.774  1.00  0.00     0.005 A 
HETATM   21  C   UNL     1     -45.216 -52.831  12.641  1.00  0.00     0.034 A 
ENDBRANCH  15  16
ENDBRANCH  14  15
ENDBRANCH   3  14
TORSDOF 5
ENDMDL
MODEL 9
REMARK VINA RESULT:      -5.4      3.424      5.409
REMARK  5 active torsions:
REMARK  status: ('A' for Active; 'I' for Inactive)
REMARK    1  A    between atoms: C_2  and  C_3 
REMARK    2  A    between atoms: C_2  and  N_14 
REMARK       I    between atoms: C_3  and  N_5 
REMARK    3  A    between atoms: N_5  and  C_6 
REMARK    4  A    between atoms: C_6  and  C_7 
REMARK    5  A    between atoms: C_7  and  C_8 
ROOT
HETATM    1  C   UNL     1     -41.504 -53.331  14.249  1.00  0.00     0.242 C 
HETATM    2  O   UNL     1     -41.902 -52.587  15.144  1.00  0.00    -0.271 OA
HETATM    3  N   UNL     1     -42.088 -54.564  14.013  1.00  0.00    -0.359 N 
HETATM    4  H   UNL     1     -41.736 -55.169  13.277  1.00  0.00     0.162 HD
ENDROOT
BRANCH   1   5
HETATM    5  C   UNL     1     -40.321 -52.976  13.361  1.00  0.00     0.196 C 
HETATM    6  C   UNL     1     -39.051 -52.744  14.178  1.00  0.00     0.044 C 
BRANCH   5   7
HETATM    7  N   UNL     1     -40.627 -51.817  12.541  1.00  0.00    -0.273 N 
HETATM    8  C   UNL     1     -41.848 -51.312  12.215  1.00  0.00     0.202 A 
HETATM    9  N   UNL     1     -41.692 -50.223  11.497  1.00  0.00    -0.346 N 
HETATM   10  C   UNL     1     -40.335 -50.106  11.404  1.00  0.00     0.198 A 
ATOM     11  HN  UNL     1     -42.410 -49.615  11.104  1.00  0.00     0.167 HD
HETATM   12  N   UNL     1     -39.638 -51.072  12.009  1.00  0.00    -0.292 N 
ATOM     13  HN  UNL     1     -38.628 -51.209  12.055  1.00  0.00     0.188 HD
ENDBRANCH   5   7
ENDBRANCH   1   5
BRANCH   3  14
HETATM   14  C   UNL     1     -43.185 -55.011  14.854  1.00  0.00     0.127 C 
BRANCH  14  15
HETATM   15  C   UNL     1     -44.524 -55.122  14.123  1.00  0.00     0.053 C 
BRANCH  15  16
HETATM   16  C   UNL     1     -45.339 -53.839  14.184  1.00  0.00    -0.082 A 
HETATM   17  C   UNL     1     -45.992 -53.480  15.298  1.00  0.00    -0.024 A 
HETATM   18  C   UNL     1     -46.796 -52.234  15.455  1.00  0.00     0.027 A 
HETATM   19  C   UNL     1     -46.886 -51.302  14.251  1.00  0.00     0.004 A 
HETATM   20  C   UNL     1     -46.141 -51.684  12.977  1.00  0.00     0.005 A 
HETATM   21  C   UNL     1     -45.352 -52.992  12.944  1.00  0.00     0.034 A 
ENDBRANCH  15  16
ENDBRANCH  14  15
ENDBRANCH   3  14
TORSDOF 5
ENDMDL
