MODEL 1
REMARK VINA RESULT:      -6.7      0.000      0.000
REMARK  4 active torsions:
REMARK  status: ('A' for Active; 'I' for Inactive)
REMARK    1  A    between atoms: C_5  and  N_6 
REMARK       I    between atoms: N_6  and  C_7 
REMARK       I    between atoms: C_7  and  N_9 
REMARK    2  A    between atoms: N_9  and  C_10 
REMARK    3  A    between atoms: C_10  and  C_11 
REMARK    4  A    between atoms: C_16  and  O_17 
ROOT
HETATM    1  N   UNL     1     -40.840 -50.946  11.383  1.00  0.00    -0.295 N 
HETATM    2  C   UNL     1     -41.718 -51.727  12.074  1.00  0.00     0.321 C 
HETATM    3  O   UNL     1     -41.558 -52.946  12.097  1.00  0.00    -0.247 OA
HETATM    4  N   UNL     1     -42.695 -51.080  12.761  1.00  0.00    -0.342 N 
HETATM    5  H   UNL     1     -40.080 -51.467  10.975  1.00  0.00     0.172 HD
HETATM    6  H   UNL     1     -42.794 -50.091  12.540  1.00  0.00     0.164 HD
ENDROOT
BRANCH   1   7
HETATM    7  C   UNL     1     -40.863 -49.556  11.214  1.00  0.00     0.108 A 
HETATM    8  C   UNL     1     -39.866 -48.807  11.828  1.00  0.00     0.049 A 
HETATM    9  C   UNL     1     -39.873 -47.419  11.675  1.00  0.00     0.012 A 
HETATM   10  C   UNL     1     -40.852 -46.817  10.884  1.00  0.00    -0.046 A 
HETATM   11  C   UNL     1     -40.899 -45.341  10.653  1.00  0.00     0.049 C 
HETATM   12  C   UNL     1     -41.804 -47.645  10.310  1.00  0.00     0.096 A 
HETATM   13  N   UNL     1     -41.834 -48.987  10.466  1.00  0.00    -0.352 N 
ATOM     14  HN  UNL     1     -42.565 -49.551  10.034  1.00  0.00     0.166 HD
ENDBRANCH   1   7
BRANCH   4  15
HETATM   15  C   UNL     1     -43.690 -51.717  13.587  1.00  0.00     0.131 C 
BRANCH  15  16
HETATM   16  C   UNL     1     -44.984 -52.022  12.811  1.00  0.00     0.032 C 
HETATM   17  C   UNL     1     -46.216 -51.294  13.382  1.00  0.00     0.009 C 
HETATM   18  C   UNL     1     -46.615 -51.820  14.758  1.00  0.00     0.001 C 
HETATM   19  C   UNL     1     -46.840 -53.331  14.755  1.00  0.00     0.002 C 
HETATM   20  C   UNL     1     -45.692 -54.107  14.113  1.00  0.00     0.032 C 
HETATM   21  C   UNL     1     -45.289 -53.532  12.753  1.00  0.00     0.123 C 
BRANCH  21  22
HETATM   22  O   UNL     1     -44.186 -54.256  12.218  1.00  0.00    -0.395 OA
HETATM   23  H   UNL     1     -43.376 -53.736  12.353  1.00  0.00     0.210 HD
ENDBRANCH  21  22
ENDBRANCH  15  16
ENDBRANCH   4  15
TORSDOF 4
ENDMDL
MODEL 2
REMARK VINA RESULT:      -6.4      2.368      3.577
REMARK  4 active torsions:
REMARK  status: ('A' for Active; 'I' for Inactive)
REMARK    1  A    between atoms: C_5  and  N_6 
REMARK       I    between atoms: N_6  and  C_7 
REMARK       I    between atoms: C_7  and  N_9 
REMARK    2  A    between atoms: N_9  and  C_10 
REMARK    3  A    between atoms: C_10  and  C_11 
REMARK    4  A    between atoms: C_16  and  O_17 
ROOT
HETATM    1  N   UNL     1     -40.952 -48.435  10.549  1.00  0.00    -0.295 N 
HETATM    2  C   UNL     1     -40.564 -49.604  11.134  1.00  0.00     0.321 C 
HETATM    3  O   UNL     1     -39.379 -49.780  11.410  1.00  0.00    -0.247 OA
HETATM    4  N   UNL     1     -41.550 -50.487  11.439  1.00  0.00    -0.342 N 
HETATM    5  H   UNL     1     -40.198 -47.778  10.435  1.00  0.00     0.172 HD
HETATM    6  H   UNL     1     -42.459 -50.277  11.029  1.00  0.00     0.164 HD
ENDROOT
BRANCH   1   7
HETATM    7  C   UNL     1     -42.237 -48.057  10.136  1.00  0.00     0.108 A 
HETATM    8  C   UNL     1     -43.166 -47.725  11.114  1.00  0.00     0.049 A 
HETATM    9  C   UNL     1     -44.452 -47.349  10.724  1.00  0.00     0.012 A 
HETATM   10  C   UNL     1     -44.769 -47.277   9.368  1.00  0.00    -0.046 A 
HETATM   11  C   UNL     1     -46.116 -46.852   8.881  1.00  0.00     0.049 C 
HETATM   12  C   UNL     1     -43.776 -47.625   8.464  1.00  0.00     0.096 A 
HETATM   13  N   UNL     1     -42.534 -48.019   8.819  1.00  0.00    -0.352 N 
ATOM     14  HN  UNL     1     -41.843 -48.279   8.115  1.00  0.00     0.166 HD
ENDBRANCH   1   7
BRANCH   4  15
HETATM   15  C   UNL     1     -41.355 -51.754  12.100  1.00  0.00     0.131 C 
BRANCH  15  16
HETATM   16  C   UNL     1     -41.997 -51.786  13.499  1.00  0.00     0.032 C 
HETATM   17  C   UNL     1     -41.494 -52.957  14.366  1.00  0.00     0.009 C 
HETATM   18  C   UNL     1     -41.961 -54.311  13.840  1.00  0.00     0.001 C 
HETATM   19  C   UNL     1     -43.480 -54.376  13.681  1.00  0.00     0.002 C 
HETATM   20  C   UNL     1     -44.053 -53.189  12.910  1.00  0.00     0.032 C 
HETATM   21  C   UNL     1     -43.535 -51.848  13.435  1.00  0.00     0.123 C 
BRANCH  21  22
HETATM   22  O   UNL     1     -44.058 -50.778  12.654  1.00  0.00    -0.395 OA
HETATM   23  H   UNL     1     -44.091 -51.058  11.724  1.00  0.00     0.210 HD
ENDBRANCH  21  22
ENDBRANCH  15  16
ENDBRANCH   4  15
TORSDOF 4
ENDMDL
MODEL 3
REMARK VINA RESULT:      -6.3      2.023      2.954
REMARK  4 active torsions:
REMARK  status: ('A' for Active; 'I' for Inactive)
REMARK    1  A    between atoms: C_5  and  N_6 
REMARK       I    between atoms: N_6  and  C_7 
REMARK       I    between atoms: C_7  and  N_9 
REMARK    2  A    between atoms: N_9  and  C_10 
REMARK    3  A    between atoms: C_10  and  C_11 
REMARK    4  A    between atoms: C_16  and  O_17 
ROOT
HETATM    1  N   UNL     1     -40.375 -48.905  11.010  1.00  0.00    -0.295 N 
HETATM    2  C   UNL     1     -40.498 -50.008  11.803  1.00  0.00     0.321 C 
HETATM    3  O   UNL     1     -39.494 -50.644  12.116  1.00  0.00    -0.247 OA
HETATM    4  N   UNL     1     -41.747 -50.295  12.254  1.00  0.00    -0.342 N 
HETATM    5  H   UNL     1     -39.419 -48.681  10.785  1.00  0.00     0.172 HD
HETATM    6  H   UNL     1     -42.498 -49.774  11.806  1.00  0.00     0.164 HD
ENDROOT
BRANCH   1   7
HETATM    7  C   UNL     1     -41.389 -48.069  10.524  1.00  0.00     0.108 A 
HETATM    8  C   UNL     1     -41.610 -46.863  11.177  1.00  0.00     0.049 A 
HETATM    9  C   UNL     1     -42.618 -46.017  10.710  1.00  0.00     0.012 A 
HETATM   10  C   UNL     1     -43.356 -46.378   9.583  1.00  0.00    -0.046 A 
HETATM   11  C   UNL     1     -44.427 -45.507   9.013  1.00  0.00     0.049 C 
HETATM   12  C   UNL     1     -43.063 -47.601   8.997  1.00  0.00     0.096 A 
HETATM   13  N   UNL     1     -42.112 -48.448   9.447  1.00  0.00    -0.352 N 
ATOM     14  HN  UNL     1     -41.944 -49.343   8.988  1.00  0.00     0.166 HD
ENDBRANCH   1   7
BRANCH   4  15
HETATM   15  C   UNL     1     -42.079 -51.385  13.137  1.00  0.00     0.131 C 
BRANCH  15  16
HETATM   16  C   UNL     1     -42.341 -52.695  12.372  1.00  0.00     0.032 C 
HETATM   17  C   UNL     1     -43.791 -53.196  12.511  1.00  0.00     0.009 C 
HETATM   18  C   UNL     1     -44.111 -53.661  13.929  1.00  0.00     0.001 C 
HETATM   19  C   UNL     1     -43.128 -54.722  14.424  1.00  0.00     0.002 C 
HETATM   20  C   UNL     1     -41.667 -54.325  14.225  1.00  0.00     0.032 C 
HETATM   21  C   UNL     1     -41.387 -53.826  12.805  1.00  0.00     0.123 C 
BRANCH  21  22
HETATM   22  O   UNL     1     -40.027 -53.422  12.684  1.00  0.00    -0.395 OA
HETATM   23  H   UNL     1     -39.992 -52.590  12.182  1.00  0.00     0.210 HD
ENDBRANCH  21  22
ENDBRANCH  15  16
ENDBRANCH   4  15
TORSDOF 4
ENDMDL
MODEL 4
REMARK VINA RESULT:      -6.0      1.392      1.881
REMARK  4 active torsions:
REMARK  status: ('A' for Active; 'I' for Inactive)
REMARK    1  A    between atoms: C_5  and  N_6 
REMARK       I    between atoms: N_6  and  C_7 
REMARK       I    between atoms: C_7  and  N_9 
REMARK    2  A    between atoms: N_9  and  C_10 
REMARK    3  A    between atoms: C_10  and  C_11 
REMARK    4  A    between atoms: C_16  and  O_17 
ROOT
HETATM    1  N   UNL     1     -40.279 -50.843  11.747  1.00  0.00    -0.295 N 
HETATM    2  C   UNL     1     -41.044 -51.961  11.900  1.00  0.00     0.321 C 
HETATM    3  O   UNL     1     -40.500 -53.061  11.991  1.00  0.00    -0.247 OA
HETATM    4  N   UNL     1     -42.384 -51.770  12.009  1.00  0.00    -0.342 N 
HETATM    5  H   UNL     1     -39.289 -51.032  11.770  1.00  0.00     0.172 HD
HETATM    6  H   UNL     1     -42.706 -50.832  11.775  1.00  0.00     0.164 HD
ENDROOT
BRANCH   1   7
HETATM    7  C   UNL     1     -40.703 -49.516  11.599  1.00  0.00     0.108 A 
HETATM    8  C   UNL     1     -40.524 -48.650  12.670  1.00  0.00     0.049 A 
HETATM    9  C   UNL     1     -40.943 -47.325  12.544  1.00  0.00     0.012 A 
HETATM   10  C   UNL     1     -41.496 -46.886  11.341  1.00  0.00    -0.046 A 
HETATM   11  C   UNL     1     -41.936 -45.475  11.128  1.00  0.00     0.049 C 
HETATM   12  C   UNL     1     -41.633 -47.822  10.327  1.00  0.00     0.096 A 
HETATM   13  N   UNL     1     -41.260 -49.116  10.435  1.00  0.00    -0.352 N 
ATOM     14  HN  UNL     1     -41.396 -49.769   9.663  1.00  0.00     0.166 HD
ENDBRANCH   1   7
BRANCH   4  15
HETATM   15  C   UNL     1     -43.357 -52.813  12.222  1.00  0.00     0.131 C 
BRANCH  15  16
HETATM   16  C   UNL     1     -44.107 -52.647  13.556  1.00  0.00     0.032 C 
HETATM   17  C   UNL     1     -43.232 -52.966  14.783  1.00  0.00     0.009 C 
HETATM   18  C   UNL     1     -42.877 -54.448  14.874  1.00  0.00     0.001 C 
HETATM   19  C   UNL     1     -44.118 -55.340  14.852  1.00  0.00     0.002 C 
HETATM   20  C   UNL     1     -45.076 -55.009  13.710  1.00  0.00     0.032 C 
HETATM   21  C   UNL     1     -45.381 -53.512  13.622  1.00  0.00     0.123 C 
BRANCH  21  22
HETATM   22  O   UNL     1     -46.236 -53.248  12.514  1.00  0.00    -0.395 OA
HETATM   23  H   UNL     1     -45.834 -52.551  11.969  1.00  0.00     0.210 HD
ENDBRANCH  21  22
ENDBRANCH  15  16
ENDBRANCH   4  15
TORSDOF 4
ENDMDL
MODEL 5
REMARK VINA RESULT:      -6.0      1.427      1.944
REMARK  4 active torsions:
REMARK  status: ('A' for Active; 'I' for Inactive)
REMARK    1  A    between atoms: C_5  and  N_6 
REMARK       I    between atoms: N_6  and  C_7 
REMARK       I    between atoms: C_7  and  N_9 
REMARK    2  A    between atoms: N_9  and  C_10 
REMARK    3  A    between atoms: C_10  and  C_11 
REMARK    4  A    between atoms: C_16  and  O_17 
ROOT
HETATM    1  N   UNL     1     -40.337 -50.988  11.692  1.00  0.00    -0.295 N 
HETATM    2  C   UNL     1     -41.119 -52.082  11.918  1.00  0.00     0.321 C 
HETATM    3  O   UNL     1     -40.603 -53.197  11.963  1.00  0.00    -0.247 OA
HETATM    4  N   UNL     1     -42.437 -51.849  12.148  1.00  0.00    -0.342 N 
HETATM    5  H   UNL     1     -39.356 -51.207  11.626  1.00  0.00     0.172 HD
HETATM    6  H   UNL     1     -42.750 -50.902  11.941  1.00  0.00     0.164 HD
ENDROOT
BRANCH   1   7
HETATM    7  C   UNL     1     -40.732 -49.648  11.578  1.00  0.00     0.108 A 
HETATM    8  C   UNL     1     -40.557 -48.820  12.679  1.00  0.00     0.049 A 
HETATM    9  C   UNL     1     -40.947 -47.483  12.588  1.00  0.00     0.012 A 
HETATM   10  C   UNL     1     -41.467 -46.996  11.388  1.00  0.00    -0.046 A 
HETATM   11  C   UNL     1     -41.875 -45.570  11.212  1.00  0.00     0.049 C 
HETATM   12  C   UNL     1     -41.603 -47.897  10.343  1.00  0.00     0.096 A 
HETATM   13  N   UNL     1     -41.258 -49.201  10.417  1.00  0.00    -0.352 N 
ATOM     14  HN  UNL     1     -41.391 -49.827   9.622  1.00  0.00     0.166 HD
ENDBRANCH   1   7
BRANCH   4  15
HETATM   15  C   UNL     1     -43.418 -52.861  12.452  1.00  0.00     0.131 C 
BRANCH  15  16
HETATM   16  C   UNL     1     -43.532 -53.126  13.964  1.00  0.00     0.032 C 
HETATM   17  C   UNL     1     -43.809 -54.604  14.298  1.00  0.00     0.009 C 
HETATM   18  C   UNL     1     -45.201 -55.049  13.855  1.00  0.00     0.001 C 
HETATM   19  C   UNL     1     -46.301 -54.155  14.427  1.00  0.00     0.002 C 
HETATM   20  C   UNL     1     -46.036 -52.666  14.212  1.00  0.00     0.032 C 
HETATM   21  C   UNL     1     -44.621 -52.260  14.628  1.00  0.00     0.123 C 
BRANCH  21  22
HETATM   22  O   UNL     1     -44.407 -50.877  14.363  1.00  0.00    -0.395 OA
HETATM   23  H   UNL     1     -43.474 -50.667  14.539  1.00  0.00     0.210 HD
ENDBRANCH  21  22
ENDBRANCH  15  16
ENDBRANCH   4  15
TORSDOF 4
ENDMDL
MODEL 6
REMARK VINA RESULT:      -5.8      3.947      7.076
REMARK  4 active torsions:
REMARK  status: ('A' for Active; 'I' for Inactive)
REMARK    1  A    between atoms: C_5  and  N_6 
REMARK       I    between atoms: N_6  and  C_7 
REMARK       I    between atoms: C_7  and  N_9 
REMARK    2  A    between atoms: N_9  and  C_10 
REMARK    3  A    between atoms: C_10  and  C_11 
REMARK    4  A    between atoms: C_16  and  O_17 
ROOT
HETATM    1  N   UNL     1     -46.626 -52.853  13.900  1.00  0.00    -0.295 N 
HETATM    2  C   UNL     1     -45.513 -52.940  13.117  1.00  0.00     0.321 C 
HETATM    3  O   UNL     1     -45.633 -53.179  11.917  1.00  0.00    -0.247 OA
HETATM    4  N   UNL     1     -44.324 -52.686  13.722  1.00  0.00    -0.342 N 
HETATM    5  H   UNL     1     -47.485 -52.953  13.383  1.00  0.00     0.172 HD
HETATM    6  H   UNL     1     -44.358 -52.644  14.739  1.00  0.00     0.164 HD
ENDROOT
BRANCH   1   7
HETATM    7  C   UNL     1     -46.700 -52.619  15.279  1.00  0.00     0.108 A 
HETATM    8  C   UNL     1     -47.325 -51.456  15.712  1.00  0.00     0.049 A 
HETATM    9  C   UNL     1     -47.406 -51.202  17.082  1.00  0.00     0.012 A 
HETATM   10  C   UNL     1     -46.895 -52.132  17.988  1.00  0.00    -0.046 A 
HETATM   11  C   UNL     1     -46.976 -51.938  19.467  1.00  0.00     0.049 C 
HETATM   12  C   UNL     1     -46.292 -53.265  17.463  1.00  0.00     0.096 A 
HETATM   13  N   UNL     1     -46.177 -53.519  16.141  1.00  0.00    -0.352 N 
ATOM     14  HN  UNL     1     -45.710 -54.361  15.805  1.00  0.00     0.166 HD
ENDBRANCH   1   7
BRANCH   4  15
HETATM   15  C   UNL     1     -43.042 -52.681  13.063  1.00  0.00     0.131 C 
BRANCH  15  16
HETATM   16  C   UNL     1     -42.305 -54.025  13.212  1.00  0.00     0.032 C 
HETATM   17  C   UNL     1     -42.388 -54.603  14.637  1.00  0.00     0.009 C 
HETATM   18  C   UNL     1     -41.605 -53.770  15.649  1.00  0.00     0.001 C 
HETATM   19  C   UNL     1     -40.147 -53.578  15.232  1.00  0.00     0.002 C 
HETATM   20  C   UNL     1     -39.994 -53.095  13.792  1.00  0.00     0.032 C 
HETATM   21  C   UNL     1     -40.821 -53.925  12.808  1.00  0.00     0.123 C 
BRANCH  21  22
HETATM   22  O   UNL     1     -40.684 -53.407  11.489  1.00  0.00    -0.395 OA
HETATM   23  H   UNL     1     -39.783 -53.058  11.383  1.00  0.00     0.210 HD
ENDBRANCH  21  22
ENDBRANCH  15  16
ENDBRANCH   4  15
TORSDOF 4
ENDMDL
MODEL 7
REMARK VINA RESULT:      -5.8      2.273      6.484
REMARK  4 active torsions:
REMARK  status: ('A' for Active; 'I' for Inactive)
REMARK    1  A    between atoms: C_5  and  N_6 
REMARK       I    between atoms: N_6  and  C_7 
REMARK       I    between atoms: C_7  and  N_9 
REMARK    2  A    between atoms: N_9  and  C_10 
REMARK    3  A    between atoms: C_10  and  C_11 
REMARK    4  A    between atoms: C_16  and  O_17 
ROOT
HETATM    1  N   UNL     1     -40.717 -52.834  12.405  1.00  0.00    -0.295 N 
HETATM    2  C   UNL     1     -40.261 -51.552  12.495  1.00  0.00     0.321 C 
HETATM    3  O   UNL     1     -39.120 -51.286  12.124  1.00  0.00    -0.247 OA
HETATM    4  N   UNL     1     -41.147 -50.624  12.941  1.00  0.00    -0.342 N 
HETATM    5  H   UNL     1     -40.055 -53.462  11.978  1.00  0.00     0.172 HD
HETATM    6  H   UNL     1     -42.002 -51.002  13.345  1.00  0.00     0.164 HD
ENDROOT
BRANCH   1   7
HETATM    7  C   UNL     1     -41.962 -53.341  12.796  1.00  0.00     0.108 A 
HETATM    8  C   UNL     1     -42.023 -54.099  13.959  1.00  0.00     0.049 A 
HETATM    9  C   UNL     1     -43.254 -54.617  14.364  1.00  0.00     0.012 A 
HETATM   10  C   UNL     1     -44.400 -54.335  13.621  1.00  0.00    -0.046 A 
HETATM   11  C   UNL     1     -45.753 -54.831  14.015  1.00  0.00     0.049 C 
HETATM   12  C   UNL     1     -44.242 -53.569  12.476  1.00  0.00     0.096 A 
HETATM   13  N   UNL     1     -43.058 -53.080  12.049  1.00  0.00    -0.352 N 
ATOM     14  HN  UNL     1     -42.992 -52.533  11.191  1.00  0.00     0.166 HD
ENDBRANCH   1   7
BRANCH   4  15
HETATM   15  C   UNL     1     -40.877 -49.212  13.065  1.00  0.00     0.131 C 
BRANCH  15  16
HETATM   16  C   UNL     1     -41.140 -48.452  11.752  1.00  0.00     0.032 C 
HETATM   17  C   UNL     1     -40.233 -47.218  11.578  1.00  0.00     0.009 C 
HETATM   18  C   UNL     1     -40.556 -46.114  12.581  1.00  0.00     0.001 C 
HETATM   19  C   UNL     1     -42.029 -45.708  12.536  1.00  0.00     0.002 C 
HETATM   20  C   UNL     1     -42.982 -46.898  12.609  1.00  0.00     0.032 C 
HETATM   21  C   UNL     1     -42.608 -48.005  11.619  1.00  0.00     0.123 C 
BRANCH  21  22
HETATM   22  O   UNL     1     -43.495 -49.111  11.759  1.00  0.00    -0.395 OA
HETATM   23  H   UNL     1     -42.971 -49.909  11.940  1.00  0.00     0.210 HD
ENDBRANCH  21  22
ENDBRANCH  15  16
ENDBRANCH   4  15
TORSDOF 4
ENDMDL
MODEL 8
REMARK VINA RESULT:      -5.7      2.215      3.021
REMARK  4 active torsions:
REMARK  status: ('A' for Active; 'I' for Inactive)
REMARK    1  A    between atoms: C_5  and  N_6 
REMARK       I    between atoms: N_6  and  C_7 
REMARK       I    between atoms: C_7  and  N_9 
REMARK    2  A    between atoms: N_9  and  C_10 
REMARK    3  A    between atoms: C_10  and  C_11 
REMARK    4  A    between atoms: C_16  and  O_17 
ROOT
HETATM    1  N   UNL     1     -39.339 -48.357  11.350  1.00  0.00    -0.295 N 
HETATM    2  C   UNL     1     -39.600 -49.541  11.973  1.00  0.00     0.321 C 
HETATM    3  O   UNL     1     -38.799 -50.469  11.874  1.00  0.00    -0.247 OA
HETATM    4  N   UNL     1     -40.724 -49.592  12.733  1.00  0.00    -0.342 N 
HETATM    5  H   UNL     1     -38.447 -48.342  10.882  1.00  0.00     0.172 HD
HETATM    6  H   UNL     1     -41.363 -48.808  12.612  1.00  0.00     0.164 HD
ENDROOT
BRANCH   1   7
HETATM    7  C   UNL     1     -40.129 -47.201  11.318  1.00  0.00     0.108 A 
HETATM    8  C   UNL     1     -39.898 -46.225  12.279  1.00  0.00     0.049 A 
HETATM    9  C   UNL     1     -40.678 -45.068  12.267  1.00  0.00     0.012 A 
HETATM   10  C   UNL     1     -41.643 -44.895  11.275  1.00  0.00    -0.046 A 
HETATM   11  C   UNL     1     -42.490 -43.667  11.186  1.00  0.00     0.049 C 
HETATM   12  C   UNL     1     -41.800 -45.922  10.357  1.00  0.00     0.096 A 
HETATM   13  N   UNL     1     -41.078 -47.063  10.365  1.00  0.00    -0.352 N 
ATOM     14  HN  UNL     1     -41.242 -47.796   9.675  1.00  0.00     0.166 HD
ENDBRANCH   1   7
BRANCH   4  15
HETATM   15  C   UNL     1     -41.152 -50.731  13.507  1.00  0.00     0.131 C 
BRANCH  15  16
HETATM   16  C   UNL     1     -42.422 -51.384  12.930  1.00  0.00     0.032 C 
HETATM   17  C   UNL     1     -43.468 -51.723  14.008  1.00  0.00     0.009 C 
HETATM   18  C   UNL     1     -43.005 -52.844  14.936  1.00  0.00     0.001 C 
HETATM   19  C   UNL     1     -42.602 -54.100  14.165  1.00  0.00     0.002 C 
HETATM   20  C   UNL     1     -41.636 -53.817  13.018  1.00  0.00     0.032 C 
HETATM   21  C   UNL     1     -42.109 -52.663  12.130  1.00  0.00     0.123 C 
BRANCH  21  22
HETATM   22  O   UNL     1     -41.152 -52.405  11.106  1.00  0.00    -0.395 OA
HETATM   23  H   UNL     1     -41.417 -52.886  10.304  1.00  0.00     0.210 HD
ENDBRANCH  21  22
ENDBRANCH  15  16
ENDBRANCH   4  15
TORSDOF 4
ENDMDL
MODEL 9
REMARK VINA RESULT:      -5.6      2.456      6.609
REMARK  4 active torsions:
REMARK  status: ('A' for Active; 'I' for Inactive)
REMARK    1  A    between atoms: C_5  and  N_6 
REMARK       I    between atoms: N_6  and  C_7 
REMARK       I    between atoms: C_7  and  N_9 
REMARK    2  A    between atoms: N_9  and  C_10 
REMARK    3  A    between atoms: C_10  and  C_11 
REMARK    4  A    between atoms: C_16  and  O_17 
ROOT
HETATM    1  N   UNL     1     -40.942 -51.966  11.628  1.00  0.00    -0.295 N 
HETATM    2  C   UNL     1     -40.895 -50.614  11.455  1.00  0.00     0.321 C 
HETATM    3  O   UNL     1     -39.914 -50.104  10.918  1.00  0.00    -0.247 OA
HETATM    4  N   UNL     1     -41.994 -49.915  11.841  1.00  0.00    -0.342 N 
HETATM    5  H   UNL     1     -40.146 -52.444  11.236  1.00  0.00     0.172 HD
HETATM    6  H   UNL     1     -42.667 -50.441  12.396  1.00  0.00     0.164 HD
ENDROOT
BRANCH   1   7
HETATM    7  C   UNL     1     -41.947 -52.729  12.235  1.00  0.00     0.108 A 
HETATM    8  C   UNL     1     -41.611 -53.479  13.356  1.00  0.00     0.049 A 
HETATM    9  C   UNL     1     -42.598 -54.248  13.974  1.00  0.00     0.012 A 
HETATM   10  C   UNL     1     -43.903 -54.222  13.482  1.00  0.00    -0.046 A 
HETATM   11  C   UNL     1     -45.013 -54.997  14.114  1.00  0.00     0.049 C 
HETATM   12  C   UNL     1     -44.144 -53.443  12.361  1.00  0.00     0.096 A 
HETATM   13  N   UNL     1     -43.200 -52.712  11.730  1.00  0.00    -0.352 N 
ATOM     14  HN  UNL     1     -43.425 -52.166  10.898  1.00  0.00     0.166 HD
ENDBRANCH   1   7
BRANCH   4  15
HETATM   15  C   UNL     1     -42.162 -48.490  11.702  1.00  0.00     0.131 C 
BRANCH  15  16
HETATM   16  C   UNL     1     -42.092 -47.759  13.056  1.00  0.00     0.032 C 
HETATM   17  C   UNL     1     -43.000 -46.516  13.117  1.00  0.00     0.009 C 
HETATM   18  C   UNL     1     -42.516 -45.397  12.199  1.00  0.00     0.001 C 
HETATM   19  C   UNL     1     -41.063 -45.014  12.474  1.00  0.00     0.002 C 
HETATM   20  C   UNL     1     -40.124 -46.216  12.521  1.00  0.00     0.032 C 
HETATM   21  C   UNL     1     -40.655 -47.337  13.418  1.00  0.00     0.123 C 
BRANCH  21  22
HETATM   22  O   UNL     1     -39.771 -48.453  13.389  1.00  0.00    -0.395 OA
HETATM   23  H   UNL     1     -39.333 -48.481  12.522  1.00  0.00     0.210 HD
ENDBRANCH  21  22
ENDBRANCH  15  16
ENDBRANCH   4  15
TORSDOF 4
ENDMDL
