MODEL 1
REMARK VINA RESULT:      -6.8      0.000      0.000
REMARK  6 active torsions:
REMARK  status: ('A' for Active; 'I' for Inactive)
REMARK    1  A    between atoms: C_6  and  O_7 
REMARK    2  A    between atoms: O_7  and  C_8 
REMARK    3  A    between atoms: C_8  and  C_9 
REMARK    4  A    between atoms: C_9  and  N_10 
REMARK    5  A    between atoms: C_11  and  C_20 
REMARK    6  A    between atoms: C_14  and  C_15 
REMARK       I    between atoms: C_15  and  N_17 
ROOT
HETATM    1  N   UNL     1     -40.586 -53.085  13.425  1.00  0.00    -0.307 N 
HETATM    2  C   UNL     1     -39.509 -53.076  14.333  1.00  0.00     0.121 C 
HETATM    3  C   UNL     1     -38.661 -52.029  14.312  1.00  0.00     0.036 C 
HETATM    4  C   UNL     1     -38.808 -50.955  13.368  1.00  0.00     0.025 C 
HETATM    5  C   UNL     1     -39.859 -50.891  12.535  1.00  0.00     0.100 C 
HETATM    6  C   UNL     1     -40.873 -51.985  12.595  1.00  0.00     0.264 C 
HETATM    7  O   UNL     1     -41.900 -51.914  11.916  1.00  0.00    -0.267 OA
ENDROOT
BRANCH   1   8
HETATM    8  C   UNL     1     -41.484 -54.239  13.301  1.00  0.00     0.159 C 
BRANCH   8   9
HETATM    9  C   UNL     1     -42.709 -54.156  14.218  1.00  0.00     0.196 C 
BRANCH   9  10
HETATM   10  O   UNL     1     -43.919 -54.411  13.492  1.00  0.00    -0.350 OA
BRANCH  10  11
HETATM   11  C   UNL     1     -44.850 -53.411  13.521  1.00  0.00     0.069 A 
HETATM   12  C   UNL     1     -45.099 -52.837  14.768  1.00  0.00     0.037 A 
HETATM   13  C   UNL     1     -46.036 -51.809  14.896  1.00  0.00     0.003 A 
HETATM   14  C   UNL     1     -46.746 -51.364  13.776  1.00  0.00     0.007 A 
HETATM   15  C   UNL     1     -46.521 -51.946  12.527  1.00  0.00    -0.059 A 
HETATM   16  C   UNL     1     -47.270 -51.520  11.301  1.00  0.00     0.048 C 
HETATM   17  C   UNL     1     -45.573 -52.969  12.413  1.00  0.00     0.043 A 
ENDBRANCH  10  11
ENDBRANCH   9  10
ENDBRANCH   8   9
ENDBRANCH   1   8
BRANCH   2  18
HETATM   18  C   UNL     1     -39.255 -54.173  15.362  1.00  0.00     0.432 C 
HETATM   19  F   UNL     1     -40.328 -54.516  16.113  1.00  0.00    -0.165 F 
HETATM   20  F   UNL     1     -38.817 -55.311  14.765  1.00  0.00    -0.165 F 
HETATM   21  F   UNL     1     -38.289 -53.797  16.242  1.00  0.00    -0.165 F 
ENDBRANCH   2  18
BRANCH   5  22
HETATM   22  C   UNL     1     -39.916 -49.746  11.580  1.00  0.00     0.254 C 
HETATM   23  O   UNL     1     -39.514 -48.622  11.867  1.00  0.00    -0.268 OA
HETATM   24  N   UNL     1     -40.428 -50.001  10.350  1.00  0.00    -0.366 N 
HETATM   25  H   UNL     1     -40.771 -50.924  10.091  1.00  0.00     0.159 HD
HETATM   26  H   UNL     1     -40.468 -49.253   9.672  1.00  0.00     0.159 HD
ENDBRANCH   5  22
TORSDOF 6
ENDMDL
MODEL 2
REMARK VINA RESULT:      -6.5      1.809      2.650
REMARK  6 active torsions:
REMARK  status: ('A' for Active; 'I' for Inactive)
REMARK    1  A    between atoms: C_6  and  O_7 
REMARK    2  A    between atoms: O_7  and  C_8 
REMARK    3  A    between atoms: C_8  and  C_9 
REMARK    4  A    between atoms: C_9  and  N_10 
REMARK    5  A    between atoms: C_11  and  C_20 
REMARK    6  A    between atoms: C_14  and  C_15 
REMARK       I    between atoms: C_15  and  N_17 
ROOT
HETATM    1  N   UNL     1     -41.751 -54.243  15.120  1.00  0.00    -0.307 N 
HETATM    2  C   UNL     1     -40.637 -54.982  15.564  1.00  0.00     0.121 C 
HETATM    3  C   UNL     1     -39.434 -54.719  15.018  1.00  0.00     0.036 C 
HETATM    4  C   UNL     1     -39.272 -53.740  13.978  1.00  0.00     0.025 C 
HETATM    5  C   UNL     1     -40.293 -52.965  13.578  1.00  0.00     0.100 C 
HETATM    6  C   UNL     1     -41.623 -53.161  14.229  1.00  0.00     0.264 C 
HETATM    7  O   UNL     1     -42.560 -52.407  13.958  1.00  0.00    -0.267 OA
ENDROOT
BRANCH   1   8
HETATM    8  C   UNL     1     -43.113 -54.547  15.574  1.00  0.00     0.159 C 
BRANCH   8   9
HETATM    9  C   UNL     1     -43.959 -55.265  14.518  1.00  0.00     0.196 C 
BRANCH   9  10
HETATM   10  O   UNL     1     -45.359 -55.139  14.801  1.00  0.00    -0.350 OA
BRANCH  10  11
HETATM   11  C   UNL     1     -45.886 -53.887  14.642  1.00  0.00     0.069 A 
HETATM   12  C   UNL     1     -45.784 -53.333  13.366  1.00  0.00     0.037 A 
HETATM   13  C   UNL     1     -46.292 -52.057  13.110  1.00  0.00     0.003 A 
HETATM   14  C   UNL     1     -46.886 -51.320  14.139  1.00  0.00     0.007 A 
HETATM   15  C   UNL     1     -46.974 -51.855  15.425  1.00  0.00    -0.059 A 
HETATM   16  C   UNL     1     -47.581 -51.097  16.566  1.00  0.00     0.048 C 
HETATM   17  C   UNL     1     -46.468 -53.138  15.664  1.00  0.00     0.043 A 
ENDBRANCH  10  11
ENDBRANCH   9  10
ENDBRANCH   8   9
ENDBRANCH   1   8
BRANCH   2  18
HETATM   18  C   UNL     1     -40.705 -56.053  16.647  1.00  0.00     0.432 C 
HETATM   19  F   UNL     1     -41.677 -56.981  16.480  1.00  0.00    -0.165 F 
HETATM   20  F   UNL     1     -39.531 -56.731  16.739  1.00  0.00    -0.165 F 
HETATM   21  F   UNL     1     -40.930 -55.495  17.867  1.00  0.00    -0.165 F 
ENDBRANCH   2  18
BRANCH   5  22
HETATM   22  C   UNL     1     -40.031 -51.987  12.481  1.00  0.00     0.254 C 
HETATM   23  O   UNL     1     -39.029 -51.280  12.449  1.00  0.00    -0.268 OA
HETATM   24  N   UNL     1     -40.958 -51.916  11.493  1.00  0.00    -0.366 N 
HETATM   25  H   UNL     1     -41.799 -52.490  11.502  1.00  0.00     0.159 HD
HETATM   26  H   UNL     1     -40.806 -51.276  10.726  1.00  0.00     0.159 HD
ENDBRANCH   5  22
TORSDOF 6
ENDMDL
MODEL 3
REMARK VINA RESULT:      -6.5      2.333      6.132
REMARK  6 active torsions:
REMARK  status: ('A' for Active; 'I' for Inactive)
REMARK    1  A    between atoms: C_6  and  O_7 
REMARK    2  A    between atoms: O_7  and  C_8 
REMARK    3  A    between atoms: C_8  and  C_9 
REMARK    4  A    between atoms: C_9  and  N_10 
REMARK    5  A    between atoms: C_11  and  C_20 
REMARK    6  A    between atoms: C_14  and  C_15 
REMARK       I    between atoms: C_15  and  N_17 
ROOT
HETATM    1  N   UNL     1     -42.586 -53.051  13.096  1.00  0.00    -0.307 N 
HETATM    2  C   UNL     1     -41.683 -53.606  14.023  1.00  0.00     0.121 C 
HETATM    3  C   UNL     1     -42.129 -54.568  14.855  1.00  0.00     0.036 C 
HETATM    4  C   UNL     1     -43.498 -55.004  14.843  1.00  0.00     0.025 C 
HETATM    5  C   UNL     1     -44.371 -54.552  13.929  1.00  0.00     0.100 C 
HETATM    6  C   UNL     1     -43.889 -53.556  12.927  1.00  0.00     0.264 C 
HETATM    7  O   UNL     1     -44.632 -53.188  12.015  1.00  0.00    -0.267 OA
ENDROOT
BRANCH   1   8
HETATM    8  C   UNL     1     -42.216 -51.920  12.237  1.00  0.00     0.159 C 
BRANCH   8   9
HETATM    9  C   UNL     1     -42.587 -50.558  12.833  1.00  0.00     0.196 C 
BRANCH   9  10
HETATM   10  O   UNL     1     -41.816 -49.504  12.239  1.00  0.00    -0.350 OA
BRANCH  10  11
HETATM   11  C   UNL     1     -40.475 -49.528  12.505  1.00  0.00     0.069 A 
HETATM   12  C   UNL     1     -40.103 -49.239  13.818  1.00  0.00     0.037 A 
HETATM   13  C   UNL     1     -38.754 -49.236  14.183  1.00  0.00     0.003 A 
HETATM   14  C   UNL     1     -37.769 -49.504  13.227  1.00  0.00     0.007 A 
HETATM   15  C   UNL     1     -38.129 -49.773  11.905  1.00  0.00    -0.059 A 
HETATM   16  C   UNL     1     -37.111 -50.044  10.840  1.00  0.00     0.048 C 
HETATM   17  C   UNL     1     -39.484 -49.780  11.557  1.00  0.00     0.043 A 
ENDBRANCH  10  11
ENDBRANCH   9  10
ENDBRANCH   8   9
ENDBRANCH   1   8
BRANCH   2  18
HETATM   18  C   UNL     1     -40.217 -53.202  14.129  1.00  0.00     0.432 C 
HETATM   19  F   UNL     1     -39.671 -52.712  12.990  1.00  0.00    -0.165 F 
HETATM   20  F   UNL     1     -40.038 -52.255  15.086  1.00  0.00    -0.165 F 
HETATM   21  F   UNL     1     -39.445 -54.265  14.483  1.00  0.00    -0.165 F 
ENDBRANCH   2  18
BRANCH   5  22
HETATM   22  C   UNL     1     -45.776 -55.051  14.007  1.00  0.00     0.254 C 
HETATM   23  O   UNL     1     -46.067 -56.235  13.865  1.00  0.00    -0.268 OA
HETATM   24  N   UNL     1     -46.739 -54.129  14.258  1.00  0.00    -0.366 N 
HETATM   25  H   UNL     1     -46.521 -53.142  14.375  1.00  0.00     0.159 HD
HETATM   26  H   UNL     1     -47.699 -54.434  14.332  1.00  0.00     0.159 HD
ENDBRANCH   5  22
TORSDOF 6
ENDMDL
MODEL 4
REMARK VINA RESULT:      -6.3      2.985      3.590
REMARK  6 active torsions:
REMARK  status: ('A' for Active; 'I' for Inactive)
REMARK    1  A    between atoms: C_6  and  O_7 
REMARK    2  A    between atoms: O_7  and  C_8 
REMARK    3  A    between atoms: C_8  and  C_9 
REMARK    4  A    between atoms: C_9  and  N_10 
REMARK    5  A    between atoms: C_11  and  C_20 
REMARK    6  A    between atoms: C_14  and  C_15 
REMARK       I    between atoms: C_15  and  N_17 
ROOT
HETATM    1  N   UNL     1     -41.094 -50.960  13.319  1.00  0.00    -0.307 N 
HETATM    2  C   UNL     1     -41.659 -49.691  13.085  1.00  0.00     0.121 C 
HETATM    3  C   UNL     1     -40.915 -48.764  12.451  1.00  0.00     0.036 C 
HETATM    4  C   UNL     1     -39.561 -49.027  12.048  1.00  0.00     0.025 C 
HETATM    5  C   UNL     1     -39.010 -50.243  12.187  1.00  0.00     0.100 C 
HETATM    6  C   UNL     1     -39.837 -51.325  12.799  1.00  0.00     0.264 C 
HETATM    7  O   UNL     1     -39.402 -52.477  12.857  1.00  0.00    -0.267 OA
ENDROOT
BRANCH   1   8
HETATM    8  C   UNL     1     -41.789 -51.985  14.105  1.00  0.00     0.159 C 
BRANCH   8   9
HETATM    9  C   UNL     1     -42.382 -53.108  13.249  1.00  0.00     0.196 C 
BRANCH   9  10
HETATM   10  O   UNL     1     -43.545 -53.675  13.868  1.00  0.00    -0.350 OA
BRANCH  10  11
HETATM   11  C   UNL     1     -44.686 -52.926  13.784  1.00  0.00     0.069 A 
HETATM   12  C   UNL     1     -45.170 -52.404  14.984  1.00  0.00     0.037 A 
HETATM   13  C   UNL     1     -46.332 -51.629  14.997  1.00  0.00     0.003 A 
HETATM   14  C   UNL     1     -47.028 -51.389  13.808  1.00  0.00     0.007 A 
HETATM   15  C   UNL     1     -46.564 -51.924  12.604  1.00  0.00    -0.059 A 
HETATM   16  C   UNL     1     -47.285 -51.714  11.307  1.00  0.00     0.048 C 
HETATM   17  C   UNL     1     -45.395 -52.692  12.606  1.00  0.00     0.043 A 
ENDBRANCH  10  11
ENDBRANCH   9  10
ENDBRANCH   8   9
ENDBRANCH   1   8
BRANCH   2  18
HETATM   18  C   UNL     1     -43.078 -49.306  13.488  1.00  0.00     0.432 C 
HETATM   19  F   UNL     1     -44.060 -49.865  12.742  1.00  0.00    -0.165 F 
HETATM   20  F   UNL     1     -43.329 -49.644  14.779  1.00  0.00    -0.165 F 
HETATM   21  F   UNL     1     -43.261 -47.961  13.395  1.00  0.00    -0.165 F 
ENDBRANCH   2  18
BRANCH   5  22
HETATM   22  C   UNL     1     -37.592 -50.415  11.753  1.00  0.00     0.254 C 
HETATM   23  O   UNL     1     -37.126 -49.845  10.771  1.00  0.00    -0.268 OA
HETATM   24  N   UNL     1     -36.817 -51.233  12.509  1.00  0.00    -0.366 N 
HETATM   25  H   UNL     1     -37.184 -51.718  13.325  1.00  0.00     0.159 HD
HETATM   26  H   UNL     1     -35.848 -51.360  12.253  1.00  0.00     0.159 HD
ENDBRANCH   5  22
TORSDOF 6
ENDMDL
MODEL 5
REMARK VINA RESULT:      -6.3      2.306      5.574
REMARK  6 active torsions:
REMARK  status: ('A' for Active; 'I' for Inactive)
REMARK    1  A    between atoms: C_6  and  O_7 
REMARK    2  A    between atoms: O_7  and  C_8 
REMARK    3  A    between atoms: C_8  and  C_9 
REMARK    4  A    between atoms: C_9  and  N_10 
REMARK    5  A    between atoms: C_11  and  C_20 
REMARK    6  A    between atoms: C_14  and  C_15 
REMARK       I    between atoms: C_15  and  N_17 
ROOT
HETATM    1  N   UNL     1     -41.931 -53.490  13.266  1.00  0.00    -0.307 N 
HETATM    2  C   UNL     1     -41.303 -54.178  14.322  1.00  0.00     0.121 C 
HETATM    3  C   UNL     1     -42.067 -54.914  15.153  1.00  0.00     0.036 C 
HETATM    4  C   UNL     1     -43.496 -54.978  15.009  1.00  0.00     0.025 C 
HETATM    5  C   UNL     1     -44.124 -54.396  13.976  1.00  0.00     0.100 C 
HETATM    6  C   UNL     1     -43.300 -53.651  12.979  1.00  0.00     0.264 C 
HETATM    7  O   UNL     1     -43.827 -53.184  11.966  1.00  0.00    -0.267 OA
ENDROOT
BRANCH   1   8
HETATM    8  C   UNL     1     -41.191 -52.574  12.390  1.00  0.00     0.159 C 
BRANCH   8   9
HETATM    9  C   UNL     1     -41.284 -51.109  12.827  1.00  0.00     0.196 C 
BRANCH   9  10
HETATM   10  O   UNL     1     -40.196 -50.339  12.296  1.00  0.00    -0.350 OA
BRANCH  10  11
HETATM   11  C   UNL     1     -40.537 -49.140  11.736  1.00  0.00     0.069 A 
HETATM   12  C   UNL     1     -39.664 -48.078  11.975  1.00  0.00     0.037 A 
HETATM   13  C   UNL     1     -39.931 -46.813  11.444  1.00  0.00     0.003 A 
HETATM   14  C   UNL     1     -41.087 -46.601  10.687  1.00  0.00     0.007 A 
HETATM   15  C   UNL     1     -41.979 -47.651  10.459  1.00  0.00    -0.059 A 
HETATM   16  C   UNL     1     -43.241 -47.470   9.673  1.00  0.00     0.048 C 
HETATM   17  C   UNL     1     -41.693 -48.914  10.990  1.00  0.00     0.043 A 
ENDBRANCH  10  11
ENDBRANCH   9  10
ENDBRANCH   8   9
ENDBRANCH   1   8
BRANCH   2  18
HETATM   18  C   UNL     1     -39.798 -54.162  14.571  1.00  0.00     0.432 C 
HETATM   19  F   UNL     1     -39.257 -52.933  14.748  1.00  0.00    -0.165 F 
HETATM   20  F   UNL     1     -39.477 -54.892  15.670  1.00  0.00    -0.165 F 
HETATM   21  F   UNL     1     -39.127 -54.717  13.525  1.00  0.00    -0.165 F 
ENDBRANCH   2  18
BRANCH   5  22
HETATM   22  C   UNL     1     -45.612 -54.504  13.921  1.00  0.00     0.254 C 
HETATM   23  O   UNL     1     -46.212 -55.538  14.198  1.00  0.00    -0.268 OA
HETATM   24  N   UNL     1     -46.292 -53.388  13.557  1.00  0.00    -0.366 N 
HETATM   25  H   UNL     1     -45.815 -52.521  13.319  1.00  0.00     0.159 HD
HETATM   26  H   UNL     1     -47.302 -53.420  13.524  1.00  0.00     0.159 HD
ENDBRANCH   5  22
TORSDOF 6
ENDMDL
MODEL 6
REMARK VINA RESULT:      -6.2      3.308      5.221
REMARK  6 active torsions:
REMARK  status: ('A' for Active; 'I' for Inactive)
REMARK    1  A    between atoms: C_6  and  O_7 
REMARK    2  A    between atoms: O_7  and  C_8 
REMARK    3  A    between atoms: C_8  and  C_9 
REMARK    4  A    between atoms: C_9  and  N_10 
REMARK    5  A    between atoms: C_11  and  C_20 
REMARK    6  A    between atoms: C_14  and  C_15 
REMARK       I    between atoms: C_15  and  N_17 
ROOT
HETATM    1  N   UNL     1     -44.846 -52.464  13.761  1.00  0.00    -0.307 N 
HETATM    2  C   UNL     1     -44.961 -51.431  14.711  1.00  0.00     0.121 C 
HETATM    3  C   UNL     1     -44.015 -50.471  14.731  1.00  0.00     0.036 C 
HETATM    4  C   UNL     1     -42.886 -50.502  13.842  1.00  0.00     0.025 C 
HETATM    5  C   UNL     1     -42.778 -51.428  12.877  1.00  0.00     0.100 C 
HETATM    6  C   UNL     1     -43.857 -52.453  12.759  1.00  0.00     0.264 C 
HETATM    7  O   UNL     1     -43.843 -53.261  11.828  1.00  0.00    -0.267 OA
ENDROOT
BRANCH   1   8
HETATM    8  C   UNL     1     -45.764 -53.609  13.747  1.00  0.00     0.159 C 
BRANCH   8   9
HETATM    9  C   UNL     1     -45.091 -54.932  14.130  1.00  0.00     0.196 C 
BRANCH   9  10
HETATM   10  O   UNL     1     -44.649 -54.913  15.494  1.00  0.00    -0.350 OA
BRANCH  10  11
HETATM   11  C   UNL     1     -43.376 -54.456  15.699  1.00  0.00     0.069 A 
HETATM   12  C   UNL     1     -43.179 -53.672  16.835  1.00  0.00     0.037 A 
HETATM   13  C   UNL     1     -41.913 -53.158  17.125  1.00  0.00     0.003 A 
HETATM   14  C   UNL     1     -40.840 -53.411  16.265  1.00  0.00     0.007 A 
HETATM   15  C   UNL     1     -41.030 -54.177  15.113  1.00  0.00    -0.059 A 
HETATM   16  C   UNL     1     -39.919 -54.459  14.149  1.00  0.00     0.048 C 
HETATM   17  C   UNL     1     -42.303 -54.691  14.841  1.00  0.00     0.043 A 
ENDBRANCH  10  11
ENDBRANCH   9  10
ENDBRANCH   8   9
ENDBRANCH   1   8
BRANCH   2  18
HETATM   18  C   UNL     1     -46.109 -51.317  15.708  1.00  0.00     0.432 C 
HETATM   19  F   UNL     1     -46.307 -52.408  16.485  1.00  0.00    -0.165 F 
HETATM   20  F   UNL     1     -45.922 -50.267  16.550  1.00  0.00    -0.165 F 
HETATM   21  F   UNL     1     -47.288 -51.097  15.067  1.00  0.00    -0.165 F 
ENDBRANCH   2  18
BRANCH   5  22
HETATM   22  C   UNL     1     -41.561 -51.388  12.013  1.00  0.00     0.254 C 
HETATM   23  O   UNL     1     -40.884 -50.374  11.869  1.00  0.00    -0.268 OA
HETATM   24  N   UNL     1     -41.217 -52.542  11.389  1.00  0.00    -0.366 N 
HETATM   25  H   UNL     1     -41.766 -53.393  11.491  1.00  0.00     0.159 HD
HETATM   26  H   UNL     1     -40.390 -52.556  10.808  1.00  0.00     0.159 HD
ENDBRANCH   5  22
TORSDOF 6
ENDMDL
MODEL 7
REMARK VINA RESULT:      -6.2      2.190      6.366
REMARK  6 active torsions:
REMARK  status: ('A' for Active; 'I' for Inactive)
REMARK    1  A    between atoms: C_6  and  O_7 
REMARK    2  A    between atoms: O_7  and  C_8 
REMARK    3  A    between atoms: C_8  and  C_9 
REMARK    4  A    between atoms: C_9  and  N_10 
REMARK    5  A    between atoms: C_11  and  C_20 
REMARK    6  A    between atoms: C_14  and  C_15 
REMARK       I    between atoms: C_15  and  N_17 
ROOT
HETATM    1  N   UNL     1     -41.845 -53.801  13.327  1.00  0.00    -0.307 N 
HETATM    2  C   UNL     1     -41.287 -54.427  14.458  1.00  0.00     0.121 C 
HETATM    3  C   UNL     1     -42.121 -54.943  15.382  1.00  0.00     0.036 C 
HETATM    4  C   UNL     1     -43.549 -54.835  15.257  1.00  0.00     0.025 C 
HETATM    5  C   UNL     1     -44.120 -54.310  14.162  1.00  0.00     0.100 C 
HETATM    6  C   UNL     1     -43.230 -53.814  13.072  1.00  0.00     0.264 C 
HETATM    7  O   UNL     1     -43.715 -53.413  12.011  1.00  0.00    -0.267 OA
ENDROOT
BRANCH   1   8
HETATM    8  C   UNL     1     -41.013 -53.109  12.335  1.00  0.00     0.159 C 
BRANCH   8   9
HETATM    9  C   UNL     1     -40.646 -51.679  12.742  1.00  0.00     0.196 C 
BRANCH   9  10
HETATM   10  O   UNL     1     -39.283 -51.379  12.412  1.00  0.00    -0.350 OA
BRANCH  10  11
HETATM   11  C   UNL     1     -38.687 -50.413  13.175  1.00  0.00     0.069 A 
HETATM   12  C   UNL     1     -39.023 -49.094  12.871  1.00  0.00     0.037 A 
HETATM   13  C   UNL     1     -38.462 -48.039  13.595  1.00  0.00     0.003 A 
HETATM   14  C   UNL     1     -37.542 -48.301  14.615  1.00  0.00     0.007 A 
HETATM   15  C   UNL     1     -37.181 -49.617  14.914  1.00  0.00    -0.059 A 
HETATM   16  C   UNL     1     -36.184 -49.948  15.982  1.00  0.00     0.048 C 
HETATM   17  C   UNL     1     -37.758 -50.662  14.185  1.00  0.00     0.043 A 
ENDBRANCH  10  11
ENDBRANCH   9  10
ENDBRANCH   8   9
ENDBRANCH   1   8
BRANCH   2  18
HETATM   18  C   UNL     1     -39.788 -54.578  14.693  1.00  0.00     0.432 C 
HETATM   19  F   UNL     1     -39.072 -54.966  13.612  1.00  0.00    -0.165 F 
HETATM   20  F   UNL     1     -39.241 -53.413  15.127  1.00  0.00    -0.165 F 
HETATM   21  F   UNL     1     -39.540 -55.507  15.656  1.00  0.00    -0.165 F 
ENDBRANCH   2  18
BRANCH   5  22
HETATM   22  C   UNL     1     -45.610 -54.226  14.132  1.00  0.00     0.254 C 
HETATM   23  O   UNL     1     -46.328 -54.912  14.854  1.00  0.00    -0.268 OA
HETATM   24  N   UNL     1     -46.154 -53.335  13.265  1.00  0.00    -0.366 N 
HETATM   25  H   UNL     1     -45.579 -52.759  12.654  1.00  0.00     0.159 HD
HETATM   26  H   UNL     1     -47.160 -53.240  13.229  1.00  0.00     0.159 HD
ENDBRANCH   5  22
TORSDOF 6
ENDMDL
MODEL 8
REMARK VINA RESULT:      -6.2      2.171      2.916
REMARK  6 active torsions:
REMARK  status: ('A' for Active; 'I' for Inactive)
REMARK    1  A    between atoms: C_6  and  O_7 
REMARK    2  A    between atoms: O_7  and  C_8 
REMARK    3  A    between atoms: C_8  and  C_9 
REMARK    4  A    between atoms: C_9  and  N_10 
REMARK    5  A    between atoms: C_11  and  C_20 
REMARK    6  A    between atoms: C_14  and  C_15 
REMARK       I    between atoms: C_15  and  N_17 
ROOT
HETATM    1  N   UNL     1     -40.645 -50.387  13.068  1.00  0.00    -0.307 N 
HETATM    2  C   UNL     1     -39.246 -50.263  13.162  1.00  0.00     0.121 C 
HETATM    3  C   UNL     1     -38.640 -49.288  12.456  1.00  0.00     0.036 C 
HETATM    4  C   UNL     1     -39.378 -48.409  11.591  1.00  0.00     0.025 C 
HETATM    5  C   UNL     1     -40.718 -48.448  11.529  1.00  0.00     0.100 C 
HETATM    6  C   UNL     1     -41.434 -49.452  12.371  1.00  0.00     0.264 C 
HETATM    7  O   UNL     1     -42.666 -49.456  12.414  1.00  0.00    -0.267 OA
ENDROOT
BRANCH   1   8
HETATM    8  C   UNL     1     -41.369 -51.492  13.708  1.00  0.00     0.159 C 
BRANCH   8   9
HETATM    9  C   UNL     1     -41.588 -52.691  12.780  1.00  0.00     0.196 C 
BRANCH   9  10
HETATM   10  O   UNL     1     -42.847 -52.597  12.098  1.00  0.00    -0.350 OA
BRANCH  10  11
HETATM   11  C   UNL     1     -43.947 -52.935  12.836  1.00  0.00     0.069 A 
HETATM   12  C   UNL     1     -44.189 -54.300  12.991  1.00  0.00     0.037 A 
HETATM   13  C   UNL     1     -45.292 -54.741  13.727  1.00  0.00     0.003 A 
HETATM   14  C   UNL     1     -46.172 -53.814  14.294  1.00  0.00     0.007 A 
HETATM   15  C   UNL     1     -45.952 -52.445  14.126  1.00  0.00    -0.059 A 
HETATM   16  C   UNL     1     -46.877 -51.413  14.695  1.00  0.00     0.048 C 
HETATM   17  C   UNL     1     -44.839 -52.019  13.394  1.00  0.00     0.043 A 
ENDBRANCH  10  11
ENDBRANCH   9  10
ENDBRANCH   8   9
ENDBRANCH   1   8
BRANCH   2  18
HETATM   18  C   UNL     1     -38.370 -51.154  14.035  1.00  0.00     0.432 C 
HETATM   19  F   UNL     1     -38.399 -52.472  13.726  1.00  0.00    -0.165 F 
HETATM   20  F   UNL     1     -37.069 -50.769  13.978  1.00  0.00    -0.165 F 
HETATM   21  F   UNL     1     -38.743 -51.071  15.341  1.00  0.00    -0.165 F 
ENDBRANCH   2  18
BRANCH   5  22
HETATM   22  C   UNL     1     -41.395 -47.506  10.589  1.00  0.00     0.254 C 
HETATM   23  O   UNL     1     -41.244 -46.289  10.648  1.00  0.00    -0.268 OA
HETATM   24  N   UNL     1     -42.191 -48.058   9.640  1.00  0.00    -0.366 N 
HETATM   25  H   UNL     1     -42.333 -49.064   9.575  1.00  0.00     0.159 HD
HETATM   26  H   UNL     1     -42.653 -47.451   8.977  1.00  0.00     0.159 HD
ENDBRANCH   5  22
TORSDOF 6
ENDMDL
MODEL 9
REMARK VINA RESULT:      -6.1      4.994      6.437
REMARK  6 active torsions:
REMARK  status: ('A' for Active; 'I' for Inactive)
REMARK    1  A    between atoms: C_6  and  O_7 
REMARK    2  A    between atoms: O_7  and  C_8 
REMARK    3  A    between atoms: C_8  and  C_9 
REMARK    4  A    between atoms: C_9  and  N_10 
REMARK    5  A    between atoms: C_11  and  C_20 
REMARK    6  A    between atoms: C_14  and  C_15 
REMARK       I    between atoms: C_15  and  N_17 
ROOT
HETATM    1  N   UNL     1     -41.604 -47.460  11.577  1.00  0.00    -0.307 N 
HETATM    2  C   UNL     1     -42.181 -46.597  10.625  1.00  0.00     0.121 C 
HETATM    3  C   UNL     1     -41.782 -45.311  10.600  1.00  0.00     0.036 C 
HETATM    4  C   UNL     1     -40.821 -44.798  11.537  1.00  0.00     0.025 C 
HETATM    5  C   UNL     1     -40.195 -45.601  12.412  1.00  0.00     0.100 C 
HETATM    6  C   UNL     1     -40.540 -47.054  12.406  1.00  0.00     0.264 C 
HETATM    7  O   UNL     1     -39.921 -47.839  13.126  1.00  0.00    -0.267 OA
ENDROOT
BRANCH   1   8
HETATM    8  C   UNL     1     -42.066 -48.842  11.751  1.00  0.00     0.159 C 
BRANCH   8   9
HETATM    9  C   UNL     1     -43.070 -49.006  12.897  1.00  0.00     0.196 C 
BRANCH   9  10
HETATM   10  O   UNL     1     -43.146 -50.372  13.328  1.00  0.00    -0.350 OA
BRANCH  10  11
HETATM   11  C   UNL     1     -44.328 -50.746  13.906  1.00  0.00     0.069 A 
HETATM   12  C   UNL     1     -45.315 -51.215  13.039  1.00  0.00     0.037 A 
HETATM   13  C   UNL     1     -46.556 -51.618  13.538  1.00  0.00     0.003 A 
HETATM   14  C   UNL     1     -46.822 -51.533  14.909  1.00  0.00     0.007 A 
HETATM   15  C   UNL     1     -45.848 -51.045  15.783  1.00  0.00    -0.059 A 
HETATM   16  C   UNL     1     -46.092 -50.914  17.255  1.00  0.00     0.048 C 
HETATM   17  C   UNL     1     -44.608 -50.653  15.269  1.00  0.00     0.043 A 
ENDBRANCH  10  11
ENDBRANCH   9  10
ENDBRANCH   8   9
ENDBRANCH   1   8
BRANCH   2  18
HETATM   18  C   UNL     1     -43.220 -47.037   9.599  1.00  0.00     0.432 C 
HETATM   19  F   UNL     1     -42.832 -48.047   8.784  1.00  0.00    -0.165 F 
HETATM   20  F   UNL     1     -44.365 -47.444  10.206  1.00  0.00    -0.165 F 
HETATM   21  F   UNL     1     -43.559 -46.006   8.779  1.00  0.00    -0.165 F 
ENDBRANCH   2  18
BRANCH   5  22
HETATM   22  C   UNL     1     -39.224 -44.973  13.356  1.00  0.00     0.254 C 
HETATM   23  O   UNL     1     -38.442 -44.092  13.014  1.00  0.00    -0.268 OA
HETATM   24  N   UNL     1     -39.247 -45.415  14.639  1.00  0.00    -0.366 N 
HETATM   25  H   UNL     1     -39.885 -46.148  14.944  1.00  0.00     0.159 HD
HETATM   26  H   UNL     1     -38.614 -45.002  15.309  1.00  0.00     0.159 HD
ENDBRANCH   5  22
TORSDOF 6
ENDMDL
