MODEL 1
REMARK VINA RESULT:      -6.4      0.000      0.000
REMARK  5 active torsions:
REMARK  status: ('A' for Active; 'I' for Inactive)
REMARK    1  A    between atoms: C_2  and  N_4 
REMARK    2  A    between atoms: C_9  and  N_10 
REMARK       I    between atoms: N_10  and  C_11 
REMARK       I    between atoms: C_11  and  N_13 
REMARK    3  A    between atoms: N_13  and  C_14 
REMARK    4  A    between atoms: C_14  and  C_15 
REMARK    5  A    between atoms: C_15  and  C_16 
ROOT
HETATM    1  N   UNL     1     -40.539 -50.229  10.848  1.00  0.00    -0.293 N 
HETATM    2  C   UNL     1     -41.268 -48.996  11.020  1.00  0.00     0.321 C 
HETATM    3  O   UNL     1     -41.468 -48.515  12.118  1.00  0.00    -0.247 OA
HETATM    4  N   UNL     1     -41.693 -48.443   9.843  1.00  0.00    -0.343 N 
HETATM    5  H   UNL     1     -40.282 -50.510   9.919  1.00  0.00     0.172 HD
HETATM    6  H   UNL     1     -41.746 -48.991   8.997  1.00  0.00     0.164 HD
ENDROOT
BRANCH   1   7
HETATM    7  C   UNL     1     -40.145 -51.014  11.945  1.00  0.00     0.127 A 
HETATM    8  N   UNL     1     -38.976 -50.950  12.690  1.00  0.00    -0.273 N 
HETATM    9  N   UNL     1     -38.939 -51.850  13.698  1.00  0.00    -0.308 N 
HETATM   10  C   UNL     1     -40.083 -52.517  13.585  1.00  0.00     0.111 A 
ATOM     11  HN  UNL     1     -38.202 -51.985  14.389  1.00  0.00     0.186 HD
HETATM   12  C   UNL     1     -40.857 -52.053  12.515  1.00  0.00     0.069 A 
BRANCH   8  13
HETATM   13  C   UNL     1     -37.815 -50.073  12.569  1.00  0.00     0.102 C 
HETATM   14  C   UNL     1     -37.308 -49.956  11.132  1.00  0.00     0.034 C 
HETATM   15  C   UNL     1     -38.030 -48.733  13.267  1.00  0.00     0.034 C 
ENDBRANCH   8  13
ENDBRANCH   1   7
BRANCH   4  16
HETATM   16  C   UNL     1     -42.564 -47.284   9.977  1.00  0.00     0.128 C 
BRANCH  16  17
HETATM   17  C   UNL     1     -43.325 -46.866   8.720  1.00  0.00     0.053 C 
BRANCH  17  18
HETATM   18  C   UNL     1     -44.624 -47.579   8.531  1.00  0.00    -0.082 C 
HETATM   19  C   UNL     1     -44.922 -48.436   7.546  1.00  0.00    -0.024 C 
HETATM   20  C   UNL     1     -46.344 -48.883   7.612  1.00  0.00     0.027 C 
HETATM   21  C   UNL     1     -46.771 -48.437   9.008  1.00  0.00     0.008 C 
HETATM   22  C   UNL     1     -45.818 -47.309   9.398  1.00  0.00     0.034 C 
ENDBRANCH  17  18
ENDBRANCH  16  17
ENDBRANCH   4  16
TORSDOF 5
ENDMDL
MODEL 2
REMARK VINA RESULT:      -6.4      3.195      5.009
REMARK  5 active torsions:
REMARK  status: ('A' for Active; 'I' for Inactive)
REMARK    1  A    between atoms: C_2  and  N_4 
REMARK    2  A    between atoms: C_9  and  N_10 
REMARK       I    between atoms: N_10  and  C_11 
REMARK       I    between atoms: C_11  and  N_13 
REMARK    3  A    between atoms: N_13  and  C_14 
REMARK    4  A    between atoms: C_14  and  C_15 
REMARK    5  A    between atoms: C_15  and  C_16 
ROOT
HETATM    1  N   UNL     1     -41.209 -51.300  11.316  1.00  0.00    -0.293 N 
HETATM    2  C   UNL     1     -41.881 -51.880  12.452  1.00  0.00     0.321 C 
HETATM    3  O   UNL     1     -42.175 -51.222  13.431  1.00  0.00    -0.247 OA
HETATM    4  N   UNL     1     -42.146 -53.215  12.307  1.00  0.00    -0.343 N 
HETATM    5  H   UNL     1     -41.113 -51.850  10.480  1.00  0.00     0.172 HD
HETATM    6  H   UNL     1     -41.661 -53.773  11.621  1.00  0.00     0.164 HD
ENDROOT
BRANCH   1   7
HETATM    7  C   UNL     1     -40.730 -49.979  11.336  1.00  0.00     0.127 A 
HETATM    8  N   UNL     1     -39.447 -49.518  11.593  1.00  0.00    -0.273 N 
HETATM    9  N   UNL     1     -39.337 -48.174  11.503  1.00  0.00    -0.308 N 
HETATM   10  C   UNL     1     -40.567 -47.763  11.213  1.00  0.00     0.111 A 
ATOM     11  HN  UNL     1     -38.500 -47.605  11.630  1.00  0.00     0.186 HD
HETATM   12  C   UNL     1     -41.467 -48.830  11.111  1.00  0.00     0.069 A 
BRANCH   8  13
HETATM   13  C   UNL     1     -38.222 -50.242  11.922  1.00  0.00     0.102 C 
HETATM   14  C   UNL     1     -37.125 -50.056  10.874  1.00  0.00     0.034 C 
HETATM   15  C   UNL     1     -37.767 -49.983  13.356  1.00  0.00     0.034 C 
ENDBRANCH   8  13
ENDBRANCH   1   7
BRANCH   4  16
HETATM   16  C   UNL     1     -42.682 -53.876  13.490  1.00  0.00     0.128 C 
BRANCH  16  17
HETATM   17  C   UNL     1     -44.144 -54.313  13.411  1.00  0.00     0.053 C 
BRANCH  17  18
HETATM   18  C   UNL     1     -45.118 -53.181  13.455  1.00  0.00    -0.082 C 
HETATM   19  C   UNL     1     -45.817 -52.696  12.420  1.00  0.00    -0.024 C 
HETATM   20  C   UNL     1     -46.620 -51.499  12.806  1.00  0.00     0.027 C 
HETATM   21  C   UNL     1     -46.577 -51.545  14.331  1.00  0.00     0.008 C 
HETATM   22  C   UNL     1     -45.339 -52.362  14.692  1.00  0.00     0.034 C 
ENDBRANCH  17  18
ENDBRANCH  16  17
ENDBRANCH   4  16
TORSDOF 5
ENDMDL
MODEL 3
REMARK VINA RESULT:      -6.4      2.242      6.781
REMARK  5 active torsions:
REMARK  status: ('A' for Active; 'I' for Inactive)
REMARK    1  A    between atoms: C_2  and  N_4 
REMARK    2  A    between atoms: C_9  and  N_10 
REMARK       I    between atoms: N_10  and  C_11 
REMARK       I    between atoms: C_11  and  N_13 
REMARK    3  A    between atoms: N_13  and  C_14 
REMARK    4  A    between atoms: C_14  and  C_15 
REMARK    5  A    between atoms: C_15  and  C_16 
ROOT
HETATM    1  N   UNL     1     -41.303 -48.999  10.344  1.00  0.00    -0.293 N 
HETATM    2  C   UNL     1     -41.378 -49.794  11.544  1.00  0.00     0.321 C 
HETATM    3  O   UNL     1     -41.865 -49.363  12.571  1.00  0.00    -0.247 OA
HETATM    4  N   UNL     1     -40.858 -51.051  11.401  1.00  0.00    -0.343 N 
HETATM    5  H   UNL     1     -41.020 -49.444   9.488  1.00  0.00     0.172 HD
HETATM    6  H   UNL     1     -40.234 -51.275  10.640  1.00  0.00     0.164 HD
ENDROOT
BRANCH   1   7
HETATM    7  C   UNL     1     -41.657 -47.639  10.334  1.00  0.00     0.127 A 
HETATM    8  N   UNL     1     -42.760 -47.028   9.753  1.00  0.00    -0.273 N 
HETATM    9  N   UNL     1     -42.797 -45.693   9.962  1.00  0.00    -0.308 N 
HETATM   10  C   UNL     1     -41.695 -45.438  10.659  1.00  0.00     0.111 A 
ATOM     11  HN  UNL     1     -43.510 -45.032   9.655  1.00  0.00     0.186 HD
HETATM   12  C   UNL     1     -40.949 -46.597  10.904  1.00  0.00     0.069 A 
BRANCH   8  13
HETATM   13  C   UNL     1     -43.868 -47.590   8.986  1.00  0.00     0.102 C 
HETATM   14  C   UNL     1     -45.137 -46.742   9.071  1.00  0.00     0.034 C 
HETATM   15  C   UNL     1     -43.455 -47.956   7.563  1.00  0.00     0.034 C 
ENDBRANCH   8  13
ENDBRANCH   1   7
BRANCH   4  16
HETATM   16  C   UNL     1     -40.770 -51.834  12.627  1.00  0.00     0.128 C 
BRANCH  16  17
HETATM   17  C   UNL     1     -41.033 -53.332  12.488  1.00  0.00     0.053 C 
BRANCH  17  18
HETATM   18  C   UNL     1     -42.283 -53.794  13.164  1.00  0.00    -0.082 C 
HETATM   19  C   UNL     1     -42.354 -54.526  14.283  1.00  0.00    -0.024 C 
HETATM   20  C   UNL     1     -43.763 -54.889  14.619  1.00  0.00     0.027 C 
HETATM   21  C   UNL     1     -44.572 -53.958  13.719  1.00  0.00     0.008 C 
HETATM   22  C   UNL     1     -43.643 -53.572  12.570  1.00  0.00     0.034 C 
ENDBRANCH  17  18
ENDBRANCH  16  17
ENDBRANCH   4  16
TORSDOF 5
ENDMDL
MODEL 4
REMARK VINA RESULT:      -6.3      2.968      6.095
REMARK  5 active torsions:
REMARK  status: ('A' for Active; 'I' for Inactive)
REMARK    1  A    between atoms: C_2  and  N_4 
REMARK    2  A    between atoms: C_9  and  N_10 
REMARK       I    between atoms: N_10  and  C_11 
REMARK       I    between atoms: C_11  and  N_13 
REMARK    3  A    between atoms: N_13  and  C_14 
REMARK    4  A    between atoms: C_14  and  C_15 
REMARK    5  A    between atoms: C_15  and  C_16 
ROOT
HETATM    1  N   UNL     1     -41.652 -49.170  10.693  1.00  0.00    -0.293 N 
HETATM    2  C   UNL     1     -42.162 -49.801  11.885  1.00  0.00     0.321 C 
HETATM    3  O   UNL     1     -42.805 -49.186  12.713  1.00  0.00    -0.247 OA
HETATM    4  N   UNL     1     -41.853 -51.131  11.976  1.00  0.00    -0.343 N 
HETATM    5  H   UNL     1     -41.248 -49.749   9.977  1.00  0.00     0.172 HD
HETATM    6  H   UNL     1     -41.109 -51.533  11.425  1.00  0.00     0.164 HD
ENDROOT
BRANCH   1   7
HETATM    7  C   UNL     1     -41.747 -47.783  10.492  1.00  0.00     0.127 A 
HETATM    8  N   UNL     1     -42.684 -47.069   9.757  1.00  0.00    -0.273 N 
HETATM    9  N   UNL     1     -42.484 -45.732   9.800  1.00  0.00    -0.308 N 
HETATM   10  C   UNL     1     -41.394 -45.586  10.546  1.00  0.00     0.111 A 
ATOM     11  HN  UNL     1     -43.044 -45.002   9.360  1.00  0.00     0.186 HD
HETATM   12  C   UNL     1     -40.891 -46.816  10.987  1.00  0.00     0.069 A 
BRANCH   8  13
HETATM   13  C   UNL     1     -43.832 -47.523   8.979  1.00  0.00     0.102 C 
HETATM   14  C   UNL     1     -45.007 -46.546   9.032  1.00  0.00     0.034 C 
HETATM   15  C   UNL     1     -43.438 -47.950   7.567  1.00  0.00     0.034 C 
ENDBRANCH   8  13
ENDBRANCH   1   7
BRANCH   4  16
HETATM   16  C   UNL     1     -42.213 -51.771  13.234  1.00  0.00     0.128 C 
BRANCH  16  17
HETATM   17  C   UNL     1     -43.293 -52.848  13.156  1.00  0.00     0.053 C 
BRANCH  17  18
HETATM   18  C   UNL     1     -44.685 -52.323  13.294  1.00  0.00    -0.082 C 
HETATM   19  C   UNL     1     -45.698 -52.531  12.443  1.00  0.00    -0.024 C 
HETATM   20  C   UNL     1     -46.921 -51.774  12.842  1.00  0.00     0.027 C 
HETATM   21  C   UNL     1     -46.600 -51.351  14.273  1.00  0.00     0.008 C 
HETATM   22  C   UNL     1     -45.078 -51.374  14.387  1.00  0.00     0.034 C 
ENDBRANCH  17  18
ENDBRANCH  16  17
ENDBRANCH   4  16
TORSDOF 5
ENDMDL
MODEL 5
REMARK VINA RESULT:      -6.3      0.815      2.122
REMARK  5 active torsions:
REMARK  status: ('A' for Active; 'I' for Inactive)
REMARK    1  A    between atoms: C_2  and  N_4 
REMARK    2  A    between atoms: C_9  and  N_10 
REMARK       I    between atoms: N_10  and  C_11 
REMARK       I    between atoms: C_11  and  N_13 
REMARK    3  A    between atoms: N_13  and  C_14 
REMARK    4  A    between atoms: C_14  and  C_15 
REMARK    5  A    between atoms: C_15  and  C_16 
ROOT
HETATM    1  N   UNL     1     -40.095 -49.909  10.668  1.00  0.00    -0.293 N 
HETATM    2  C   UNL     1     -40.802 -48.672  10.885  1.00  0.00     0.321 C 
HETATM    3  O   UNL     1     -40.553 -47.945  11.828  1.00  0.00    -0.247 OA
HETATM    4  N   UNL     1     -41.755 -48.413   9.938  1.00  0.00    -0.343 N 
HETATM    5  H   UNL     1     -40.241 -50.402   9.804  1.00  0.00     0.172 HD
HETATM    6  H   UNL     1     -42.113 -49.145   9.343  1.00  0.00     0.164 HD
ENDROOT
BRANCH   1   7
HETATM    7  C   UNL     1     -39.180 -50.413  11.608  1.00  0.00     0.127 A 
HETATM    8  N   UNL     1     -39.419 -51.206  12.722  1.00  0.00    -0.273 N 
HETATM    9  N   UNL     1     -38.292 -51.527  13.396  1.00  0.00    -0.308 N 
HETATM   10  C   UNL     1     -37.322 -50.913  12.727  1.00  0.00     0.111 A 
ATOM     11  HN  UNL     1     -38.206 -52.109  14.230  1.00  0.00     0.186 HD
HETATM   12  C   UNL     1     -37.814 -50.202  11.625  1.00  0.00     0.069 A 
BRANCH   8  13
HETATM   13  C   UNL     1     -40.665 -51.748  13.258  1.00  0.00     0.102 C 
HETATM   14  C   UNL     1     -41.216 -52.903  12.422  1.00  0.00     0.034 C 
HETATM   15  C   UNL     1     -40.567 -52.047  14.751  1.00  0.00     0.034 C 
ENDBRANCH   8  13
ENDBRANCH   1   7
BRANCH   4  16
HETATM   16  C   UNL     1     -42.599 -47.255  10.202  1.00  0.00     0.128 C 
BRANCH  16  17
HETATM   17  C   UNL     1     -43.367 -46.696   9.006  1.00  0.00     0.053 C 
BRANCH  17  18
HETATM   18  C   UNL     1     -44.606 -47.460   8.670  1.00  0.00    -0.082 C 
HETATM   19  C   UNL     1     -44.753 -48.328   7.660  1.00  0.00    -0.024 C 
HETATM   20  C   UNL     1     -46.155 -48.831   7.562  1.00  0.00     0.027 C 
HETATM   21  C   UNL     1     -46.759 -48.403   8.897  1.00  0.00     0.008 C 
HETATM   22  C   UNL     1     -45.904 -47.239   9.391  1.00  0.00     0.034 C 
ENDBRANCH  17  18
ENDBRANCH  16  17
ENDBRANCH   4  16
TORSDOF 5
ENDMDL
MODEL 6
REMARK VINA RESULT:      -6.3      3.290      5.419
REMARK  5 active torsions:
REMARK  status: ('A' for Active; 'I' for Inactive)
REMARK    1  A    between atoms: C_2  and  N_4 
REMARK    2  A    between atoms: C_9  and  N_10 
REMARK       I    between atoms: N_10  and  C_11 
REMARK       I    between atoms: C_11  and  N_13 
REMARK    3  A    between atoms: N_13  and  C_14 
REMARK    4  A    between atoms: C_14  and  C_15 
REMARK    5  A    between atoms: C_15  and  C_16 
ROOT
HETATM    1  N   UNL     1     -41.065 -51.540  11.423  1.00  0.00    -0.293 N 
HETATM    2  C   UNL     1     -41.735 -52.109  12.565  1.00  0.00     0.321 C 
HETATM    3  O   UNL     1     -41.810 -51.520  13.626  1.00  0.00    -0.247 OA
HETATM    4  N   UNL     1     -42.264 -53.349  12.328  1.00  0.00    -0.343 N 
HETATM    5  H   UNL     1     -41.150 -52.003  10.535  1.00  0.00     0.172 HD
HETATM    6  H   UNL     1     -41.956 -53.907  11.546  1.00  0.00     0.164 HD
ENDROOT
BRANCH   1   7
HETATM    7  C   UNL     1     -40.341 -50.339  11.512  1.00  0.00     0.127 A 
HETATM    8  N   UNL     1     -40.783 -49.036  11.328  1.00  0.00    -0.273 N 
HETATM    9  N   UNL     1     -39.813 -48.114  11.517  1.00  0.00    -0.308 N 
HETATM   10  C   UNL     1     -38.729 -48.831  11.798  1.00  0.00     0.111 A 
ATOM     11  HN  UNL     1     -39.894 -47.100  11.458  1.00  0.00     0.186 HD
HETATM   12  C   UNL     1     -38.994 -50.206  11.795  1.00  0.00     0.069 A 
BRANCH   8  13
HETATM   13  C   UNL     1     -42.105 -48.517  10.987  1.00  0.00     0.102 C 
HETATM   14  C   UNL     1     -43.082 -48.567  12.162  1.00  0.00     0.034 C 
HETATM   15  C   UNL     1     -42.028 -47.159  10.294  1.00  0.00     0.034 C 
ENDBRANCH   8  13
ENDBRANCH   1   7
BRANCH   4  16
HETATM   16  C   UNL     1     -42.812 -54.027  13.495  1.00  0.00     0.128 C 
BRANCH  16  17
HETATM   17  C   UNL     1     -44.297 -54.378  13.433  1.00  0.00     0.053 C 
BRANCH  17  18
HETATM   18  C   UNL     1     -45.202 -53.190  13.449  1.00  0.00    -0.082 C 
HETATM   19  C   UNL     1     -45.871 -52.688  12.403  1.00  0.00    -0.024 C 
HETATM   20  C   UNL     1     -46.602 -51.437  12.761  1.00  0.00     0.027 C 
HETATM   21  C   UNL     1     -46.562 -51.450  14.287  1.00  0.00     0.008 C 
HETATM   22  C   UNL     1     -45.374 -52.331  14.668  1.00  0.00     0.034 C 
ENDBRANCH  17  18
ENDBRANCH  16  17
ENDBRANCH   4  16
TORSDOF 5
ENDMDL
MODEL 7
REMARK VINA RESULT:      -6.2      4.054      6.051
REMARK  5 active torsions:
REMARK  status: ('A' for Active; 'I' for Inactive)
REMARK    1  A    between atoms: C_2  and  N_4 
REMARK    2  A    between atoms: C_9  and  N_10 
REMARK       I    between atoms: N_10  and  C_11 
REMARK       I    between atoms: C_11  and  N_13 
REMARK    3  A    between atoms: N_13  and  C_14 
REMARK    4  A    between atoms: C_14  and  C_15 
REMARK    5  A    between atoms: C_15  and  C_16 
ROOT
HETATM    1  N   UNL     1     -43.484 -53.150  12.005  1.00  0.00    -0.293 N 
HETATM    2  C   UNL     1     -42.485 -52.261  12.544  1.00  0.00     0.321 C 
HETATM    3  O   UNL     1     -42.388 -52.050  13.738  1.00  0.00    -0.247 OA
HETATM    4  N   UNL     1     -41.680 -51.699  11.590  1.00  0.00    -0.343 N 
HETATM    5  H   UNL     1     -43.434 -53.396  11.032  1.00  0.00     0.172 HD
HETATM    6  H   UNL     1     -41.954 -51.682  10.620  1.00  0.00     0.164 HD
ENDROOT
BRANCH   1   7
HETATM    7  C   UNL     1     -44.488 -53.710  12.812  1.00  0.00     0.127 A 
HETATM    8  N   UNL     1     -45.661 -53.131  13.275  1.00  0.00    -0.273 N 
HETATM    9  N   UNL     1     -46.414 -53.976  14.015  1.00  0.00    -0.308 N 
HETATM   10  C   UNL     1     -45.706 -55.100  14.053  1.00  0.00     0.111 A 
ATOM     11  HN  UNL     1     -47.320 -53.792  14.447  1.00  0.00     0.186 HD
HETATM   12  C   UNL     1     -44.506 -54.988  13.340  1.00  0.00     0.069 A 
BRANCH   8  13
HETATM   13  C   UNL     1     -46.206 -51.791  13.078  1.00  0.00     0.102 C 
HETATM   14  C   UNL     1     -47.043 -51.673  11.805  1.00  0.00     0.034 C 
HETATM   15  C   UNL     1     -46.896 -51.261  14.332  1.00  0.00     0.034 C 
ENDBRANCH   8  13
ENDBRANCH   1   7
BRANCH   4  16
HETATM   16  C   UNL     1     -40.761 -50.677  12.073  1.00  0.00     0.128 C 
BRANCH  16  17
HETATM   17  C   UNL     1     -40.362 -49.602  11.063  1.00  0.00     0.053 C 
BRANCH  17  18
HETATM   18  C   UNL     1     -41.165 -48.346  11.165  1.00  0.00    -0.082 C 
HETATM   19  C   UNL     1     -42.502 -48.260  11.186  1.00  0.00    -0.024 C 
HETATM   20  C   UNL     1     -42.965 -46.841  11.194  1.00  0.00     0.027 C 
HETATM   21  C   UNL     1     -41.690 -46.074  11.535  1.00  0.00     0.008 C 
HETATM   22  C   UNL     1     -40.532 -46.986  11.136  1.00  0.00     0.034 C 
ENDBRANCH  17  18
ENDBRANCH  16  17
ENDBRANCH   4  16
TORSDOF 5
ENDMDL
MODEL 8
REMARK VINA RESULT:      -6.1      2.489      6.307
REMARK  5 active torsions:
REMARK  status: ('A' for Active; 'I' for Inactive)
REMARK    1  A    between atoms: C_2  and  N_4 
REMARK    2  A    between atoms: C_9  and  N_10 
REMARK       I    between atoms: N_10  and  C_11 
REMARK       I    between atoms: C_11  and  N_13 
REMARK    3  A    between atoms: N_13  and  C_14 
REMARK    4  A    between atoms: C_14  and  C_15 
REMARK    5  A    between atoms: C_15  and  C_16 
ROOT
HETATM    1  N   UNL     1     -41.206 -49.143  10.347  1.00  0.00    -0.293 N 
HETATM    2  C   UNL     1     -41.390 -50.002  11.491  1.00  0.00     0.321 C 
HETATM    3  O   UNL     1     -42.196 -49.746  12.364  1.00  0.00    -0.247 OA
HETATM    4  N   UNL     1     -40.582 -51.106  11.481  1.00  0.00    -0.343 N 
HETATM    5  H   UNL     1     -40.631 -49.467   9.589  1.00  0.00     0.172 HD
HETATM    6  H   UNL     1     -39.758 -51.145  10.900  1.00  0.00     0.164 HD
ENDROOT
BRANCH   1   7
HETATM    7  C   UNL     1     -41.844 -47.894  10.250  1.00  0.00     0.127 A 
HETATM    8  N   UNL     1     -41.334 -46.630  10.509  1.00  0.00    -0.273 N 
HETATM    9  N   UNL     1     -42.228 -45.641  10.286  1.00  0.00    -0.308 N 
HETATM   10  C   UNL     1     -43.332 -46.275   9.906  1.00  0.00     0.111 A 
ATOM     11  HN  UNL     1     -42.086 -44.636  10.386  1.00  0.00     0.186 HD
HETATM   12  C   UNL     1     -43.156 -47.664   9.879  1.00  0.00     0.069 A 
BRANCH   8  13
HETATM   13  C   UNL     1     -40.009 -46.210  10.959  1.00  0.00     0.102 C 
HETATM   14  C   UNL     1     -39.614 -44.832  10.428  1.00  0.00     0.034 C 
HETATM   15  C   UNL     1     -39.835 -46.373  12.466  1.00  0.00     0.034 C 
ENDBRANCH   8  13
ENDBRANCH   1   7
BRANCH   4  16
HETATM   16  C   UNL     1     -40.621 -51.918  12.690  1.00  0.00     0.128 C 
BRANCH  16  17
HETATM   17  C   UNL     1     -40.926 -53.402  12.493  1.00  0.00     0.053 C 
BRANCH  17  18
HETATM   18  C   UNL     1     -42.111 -53.885  13.264  1.00  0.00    -0.082 C 
HETATM   19  C   UNL     1     -42.083 -54.532  14.436  1.00  0.00    -0.024 C 
HETATM   20  C   UNL     1     -43.448 -54.953  14.870  1.00  0.00     0.027 C 
HETATM   21  C   UNL     1     -44.357 -54.144  13.946  1.00  0.00     0.008 C 
HETATM   22  C   UNL     1     -43.509 -53.792  12.726  1.00  0.00     0.034 C 
ENDBRANCH  17  18
ENDBRANCH  16  17
ENDBRANCH   4  16
TORSDOF 5
ENDMDL
MODEL 9
REMARK VINA RESULT:      -5.9      3.569      6.963
REMARK  5 active torsions:
REMARK  status: ('A' for Active; 'I' for Inactive)
REMARK    1  A    between atoms: C_2  and  N_4 
REMARK    2  A    between atoms: C_9  and  N_10 
REMARK       I    between atoms: N_10  and  C_11 
REMARK       I    between atoms: C_11  and  N_13 
REMARK    3  A    between atoms: N_13  and  C_14 
REMARK    4  A    between atoms: C_14  and  C_15 
REMARK    5  A    between atoms: C_15  and  C_16 
ROOT
HETATM    1  N   UNL     1     -42.368 -52.436  11.847  1.00  0.00    -0.293 N 
HETATM    2  C   UNL     1     -41.457 -51.374  12.200  1.00  0.00     0.321 C 
HETATM    3  O   UNL     1     -41.161 -51.138  13.355  1.00  0.00    -0.247 OA
HETATM    4  N   UNL     1     -40.976 -50.685  11.120  1.00  0.00    -0.343 N 
HETATM    5  H   UNL     1     -42.472 -52.678  10.878  1.00  0.00     0.172 HD
HETATM    6  H   UNL     1     -41.439 -50.727  10.225  1.00  0.00     0.164 HD
ENDROOT
BRANCH   1   7
HETATM    7  C   UNL     1     -43.071 -53.162  12.824  1.00  0.00     0.127 A 
HETATM    8  N   UNL     1     -44.310 -52.894  13.387  1.00  0.00    -0.273 N 
HETATM    9  N   UNL     1     -44.696 -53.826  14.288  1.00  0.00    -0.308 N 
HETATM   10  C   UNL     1     -43.684 -54.686  14.324  1.00  0.00     0.111 A 
ATOM     11  HN  UNL     1     -45.567 -53.860  14.818  1.00  0.00     0.186 HD
HETATM   12  C   UNL     1     -42.651 -54.319  13.453  1.00  0.00     0.069 A 
BRANCH   8  13
HETATM   13  C   UNL     1     -45.248 -51.799  13.154  1.00  0.00     0.102 C 
HETATM   14  C   UNL     1     -46.379 -52.182  12.200  1.00  0.00     0.034 C 
HETATM   15  C   UNL     1     -45.718 -51.157  14.456  1.00  0.00     0.034 C 
ENDBRANCH   8  13
ENDBRANCH   1   7
BRANCH   4  16
HETATM   16  C   UNL     1     -40.178 -49.508  11.437  1.00  0.00     0.128 C 
BRANCH  16  17
HETATM   17  C   UNL     1     -38.666 -49.717  11.496  1.00  0.00     0.053 C 
BRANCH  17  18
HETATM   18  C   UNL     1     -38.089 -49.584  12.867  1.00  0.00    -0.082 C 
HETATM   19  C   UNL     1     -37.979 -48.452  13.575  1.00  0.00    -0.024 C 
HETATM   20  C   UNL     1     -37.262 -48.673  14.865  1.00  0.00     0.027 C 
HETATM   21  C   UNL     1     -37.266 -50.194  14.994  1.00  0.00     0.008 C 
HETATM   22  C   UNL     1     -37.440 -50.736  13.577  1.00  0.00     0.034 C 
ENDBRANCH  17  18
ENDBRANCH  16  17
ENDBRANCH   4  16
TORSDOF 5
ENDMDL
