MODEL 1
REMARK VINA RESULT:      -6.7      0.000      0.000
REMARK  5 active torsions:
REMARK  status: ('A' for Active; 'I' for Inactive)
REMARK       I    between atoms: C_2  and  N_3 
REMARK       I    between atoms: C_2  and  N_13 
REMARK    1  A    between atoms: N_3  and  C_4 
REMARK    2  A    between atoms: C_4  and  C_5 
REMARK    3  A    between atoms: C_5  and  N_6 
REMARK    4  A    between atoms: N_13  and  C_14 
REMARK    5  A    between atoms: C_17  and  N_21 
ROOT
HETATM    1  O   UNL     1     -42.396 -51.731  14.096  1.00  0.00    -0.247 OA
HETATM    2  C   UNL     1     -42.491 -52.071  12.925  1.00  0.00     0.320 C 
HETATM    3  N   UNL     1     -42.947 -53.319  12.557  1.00  0.00    -0.341 N 
HETATM    4  N   UNL     1     -42.193 -51.293  11.822  1.00  0.00    -0.308 N 
HETATM    5  H   UNL     1     -42.753 -53.634  11.619  1.00  0.00     0.164 HD
HETATM    6  H   UNL     1     -42.656 -51.563  10.967  1.00  0.00     0.170 HD
ENDROOT
BRANCH   4   7
HETATM    7  C   UNL     1     -41.631 -49.996  11.866  1.00  0.00     0.051 A 
HETATM    8  C   UNL     1     -42.342 -48.865  12.233  1.00  0.00     0.035 A 
HETATM    9  C   UNL     1     -41.723 -47.612  12.192  1.00  0.00     0.051 A 
HETATM   10  C   UNL     1     -40.397 -47.475  11.778  1.00  0.00     0.103 A 
HETATM   11  N   UNL     1     -39.677 -48.580  11.486  1.00  0.00    -0.350 N 
HETATM   12  C   UNL     1     -40.295 -49.795  11.541  1.00  0.00     0.119 A 
ATOM     13  HN  UNL     1     -38.693 -48.507  11.229  1.00  0.00     0.166 HD
BRANCH  10  14
HETATM   14  N   UNL     1     -39.797 -46.229  11.723  1.00  0.00    -0.363 N 
HETATM   15  C   UNL     1     -39.370 -45.532  12.947  1.00  0.00     0.150 C 
HETATM   16  C   UNL     1     -40.289 -44.337  13.256  1.00  0.00     0.187 C 
HETATM   17  O   UNL     1     -40.393 -43.448  12.137  1.00  0.00    -0.388 OA
HETATM   18  C   UNL     1     -40.954 -44.147  11.010  1.00  0.00     0.187 C 
HETATM   19  C   UNL     1     -40.079 -45.335  10.588  1.00  0.00     0.150 C 
ENDBRANCH  10  14
ENDBRANCH   4   7
BRANCH   3  20
HETATM   20  C   UNL     1     -43.330 -54.315  13.549  1.00  0.00     0.144 C 
BRANCH  20  21
HETATM   21  C   UNL     1     -44.820 -54.666  13.507  1.00  0.00     0.154 C 
BRANCH  21  22
HETATM   22  N   UNL     1     -45.706 -53.609  13.979  1.00  0.00    -0.287 N 
HETATM   23  C   UNL     1     -46.155 -53.515  15.261  1.00  0.00     0.226 C 
HETATM   24  O   UNL     1     -45.952 -54.311  16.164  1.00  0.00    -0.273 OA
HETATM   25  C   UNL     1     -47.010 -52.284  15.389  1.00  0.00     0.112 C 
HETATM   26  C   UNL     1     -46.803 -51.563  14.071  1.00  0.00     0.112 C 
HETATM   27  C   UNL     1     -46.172 -52.602  13.189  1.00  0.00     0.226 C 
HETATM   28  O   UNL     1     -46.082 -52.509  11.974  1.00  0.00    -0.273 OA
ENDBRANCH  21  22
ENDBRANCH  20  21
ENDBRANCH   3  20
TORSDOF 5
ENDMDL
MODEL 2
REMARK VINA RESULT:      -6.4      1.978      2.787
REMARK  5 active torsions:
REMARK  status: ('A' for Active; 'I' for Inactive)
REMARK       I    between atoms: C_2  and  N_3 
REMARK       I    between atoms: C_2  and  N_13 
REMARK    1  A    between atoms: N_3  and  C_4 
REMARK    2  A    between atoms: C_4  and  C_5 
REMARK    3  A    between atoms: C_5  and  N_6 
REMARK    4  A    between atoms: N_13  and  C_14 
REMARK    5  A    between atoms: C_17  and  N_21 
ROOT
HETATM    1  O   UNL     1     -41.425 -49.852  13.360  1.00  0.00    -0.247 OA
HETATM    2  C   UNL     1     -41.941 -50.149  12.291  1.00  0.00     0.320 C 
HETATM    3  N   UNL     1     -42.184 -51.457  11.930  1.00  0.00    -0.341 N 
HETATM    4  N   UNL     1     -42.369 -49.265  11.319  1.00  0.00    -0.308 N 
HETATM    5  H   UNL     1     -42.354 -51.653  10.956  1.00  0.00     0.164 HD
HETATM    6  H   UNL     1     -43.079 -49.620  10.696  1.00  0.00     0.170 HD
ENDROOT
BRANCH   4   7
HETATM    7  C   UNL     1     -42.192 -47.862  11.355  1.00  0.00     0.051 A 
HETATM    8  C   UNL     1     -41.148 -47.205  10.725  1.00  0.00     0.035 A 
HETATM    9  C   UNL     1     -41.017 -45.819  10.861  1.00  0.00     0.051 A 
HETATM   10  C   UNL     1     -41.918 -45.081  11.630  1.00  0.00     0.103 A 
HETATM   11  N   UNL     1     -42.977 -45.704  12.189  1.00  0.00    -0.350 N 
HETATM   12  C   UNL     1     -43.095 -47.055  12.038  1.00  0.00     0.119 A 
ATOM     13  HN  UNL     1     -43.675 -45.177  12.714  1.00  0.00     0.166 HD
BRANCH  10  14
HETATM   14  N   UNL     1     -41.770 -43.712  11.775  1.00  0.00    -0.363 N 
HETATM   15  C   UNL     1     -40.468 -43.058  11.561  1.00  0.00     0.150 C 
HETATM   16  C   UNL     1     -39.855 -42.592  12.892  1.00  0.00     0.187 C 
HETATM   17  O   UNL     1     -40.762 -41.762  13.631  1.00  0.00    -0.388 OA
HETATM   18  C   UNL     1     -41.957 -42.502  13.939  1.00  0.00     0.187 C 
HETATM   19  C   UNL     1     -42.677 -42.971  12.666  1.00  0.00     0.150 C 
ENDBRANCH  10  14
ENDBRANCH   4   7
BRANCH   3  20
HETATM   20  C   UNL     1     -41.823 -52.568  12.800  1.00  0.00     0.144 C 
BRANCH  20  21
HETATM   21  C   UNL     1     -42.800 -52.765  13.963  1.00  0.00     0.154 C 
BRANCH  21  22
HETATM   22  N   UNL     1     -44.191 -52.465  13.645  1.00  0.00    -0.287 N 
HETATM   23  C   UNL     1     -44.861 -51.385  14.133  1.00  0.00     0.226 C 
HETATM   24  O   UNL     1     -44.442 -50.570  14.940  1.00  0.00    -0.273 OA
HETATM   25  C   UNL     1     -46.253 -51.378  13.563  1.00  0.00     0.112 C 
HETATM   26  C   UNL     1     -46.215 -52.465  12.506  1.00  0.00     0.112 C 
HETATM   27  C   UNL     1     -44.961 -53.228  12.822  1.00  0.00     0.226 C 
HETATM   28  O   UNL     1     -44.698 -54.334  12.372  1.00  0.00    -0.273 OA
ENDBRANCH  21  22
ENDBRANCH  20  21
ENDBRANCH   3  20
TORSDOF 5
ENDMDL
MODEL 3
REMARK VINA RESULT:      -6.1      2.369      2.879
REMARK  5 active torsions:
REMARK  status: ('A' for Active; 'I' for Inactive)
REMARK       I    between atoms: C_2  and  N_3 
REMARK       I    between atoms: C_2  and  N_13 
REMARK    1  A    between atoms: N_3  and  C_4 
REMARK    2  A    between atoms: C_4  and  C_5 
REMARK    3  A    between atoms: C_5  and  N_6 
REMARK    4  A    between atoms: N_13  and  C_14 
REMARK    5  A    between atoms: C_17  and  N_21 
ROOT
HETATM    1  O   UNL     1     -43.105 -52.886  13.139  1.00  0.00    -0.247 OA
HETATM    2  C   UNL     1     -42.456 -52.364  14.035  1.00  0.00     0.320 C 
HETATM    3  N   UNL     1     -42.269 -52.974  15.257  1.00  0.00    -0.341 N 
HETATM    4  N   UNL     1     -41.813 -51.143  13.971  1.00  0.00    -0.308 N 
HETATM    5  H   UNL     1     -41.967 -52.400  16.029  1.00  0.00     0.164 HD
HETATM    6  H   UNL     1     -41.046 -51.026  14.618  1.00  0.00     0.170 HD
ENDROOT
BRANCH   4   7
HETATM    7  C   UNL     1     -41.878 -50.241  12.884  1.00  0.00     0.051 A 
HETATM    8  C   UNL     1     -40.834 -50.029  12.000  1.00  0.00     0.035 A 
HETATM    9  C   UNL     1     -40.964 -49.074  10.987  1.00  0.00     0.051 A 
HETATM   10  C   UNL     1     -42.130 -48.319  10.852  1.00  0.00     0.103 A 
HETATM   11  N   UNL     1     -43.178 -48.569  11.666  1.00  0.00    -0.350 N 
HETATM   12  C   UNL     1     -43.037 -49.511  12.643  1.00  0.00     0.119 A 
ATOM     13  HN  UNL     1     -44.057 -48.064  11.553  1.00  0.00     0.166 HD
BRANCH  10  14
HETATM   14  N   UNL     1     -42.243 -47.363   9.858  1.00  0.00    -0.363 N 
HETATM   15  C   UNL     1     -41.798 -45.977  10.077  1.00  0.00     0.150 C 
HETATM   16  C   UNL     1     -42.996 -45.022  10.206  1.00  0.00     0.187 C 
HETATM   17  O   UNL     1     -43.884 -45.133   9.086  1.00  0.00    -0.388 OA
HETATM   18  C   UNL     1     -44.403 -46.473   9.007  1.00  0.00     0.187 C 
HETATM   19  C   UNL     1     -43.282 -47.505   8.825  1.00  0.00     0.150 C 
ENDBRANCH  10  14
ENDBRANCH   4   7
BRANCH   3  20
HETATM   20  C   UNL     1     -42.848 -54.276  15.557  1.00  0.00     0.144 C 
BRANCH  20  21
HETATM   21  C   UNL     1     -44.095 -54.193  16.443  1.00  0.00     0.154 C 
BRANCH  21  22
HETATM   22  N   UNL     1     -45.207 -53.454  15.857  1.00  0.00    -0.287 N 
HETATM   23  C   UNL     1     -45.543 -52.184  16.216  1.00  0.00     0.226 C 
HETATM   24  O   UNL     1     -45.032 -51.518  17.102  1.00  0.00    -0.273 OA
HETATM   25  C   UNL     1     -46.708 -51.734  15.378  1.00  0.00     0.112 C 
HETATM   26  C   UNL     1     -46.846 -52.825  14.335  1.00  0.00     0.112 C 
HETATM   27  C   UNL     1     -46.019 -53.952  14.885  1.00  0.00     0.226 C 
HETATM   28  O   UNL     1     -46.072 -55.105  14.480  1.00  0.00    -0.273 OA
ENDBRANCH  21  22
ENDBRANCH  20  21
ENDBRANCH   3  20
TORSDOF 5
ENDMDL
MODEL 4
REMARK VINA RESULT:      -6.1      2.233      3.119
REMARK  5 active torsions:
REMARK  status: ('A' for Active; 'I' for Inactive)
REMARK       I    between atoms: C_2  and  N_3 
REMARK       I    between atoms: C_2  and  N_13 
REMARK    1  A    between atoms: N_3  and  C_4 
REMARK    2  A    between atoms: C_4  and  C_5 
REMARK    3  A    between atoms: C_5  and  N_6 
REMARK    4  A    between atoms: N_13  and  C_14 
REMARK    5  A    between atoms: C_17  and  N_21 
ROOT
HETATM    1  O   UNL     1     -41.672 -50.791  14.598  1.00  0.00    -0.247 OA
HETATM    2  C   UNL     1     -40.551 -51.213  14.349  1.00  0.00     0.320 C 
HETATM    3  N   UNL     1     -40.036 -52.336  14.960  1.00  0.00    -0.341 N 
HETATM    4  N   UNL     1     -39.660 -50.674  13.440  1.00  0.00    -0.308 N 
HETATM    5  H   UNL     1     -39.038 -52.477  14.923  1.00  0.00     0.164 HD
HETATM    6  H   UNL     1     -38.965 -51.315  13.087  1.00  0.00     0.170 HD
ENDROOT
BRANCH   4   7
HETATM    7  C   UNL     1     -39.860 -49.479  12.710  1.00  0.00     0.051 A 
HETATM    8  C   UNL     1     -39.461 -48.231  13.159  1.00  0.00     0.035 A 
HETATM    9  C   UNL     1     -39.751 -47.094  12.399  1.00  0.00     0.051 A 
HETATM   10  C   UNL     1     -40.445 -47.191  11.191  1.00  0.00     0.103 A 
HETATM   11  N   UNL     1     -40.775 -48.410  10.713  1.00  0.00    -0.350 N 
HETATM   12  C   UNL     1     -40.476 -49.509  11.464  1.00  0.00     0.119 A 
ATOM     13  HN  UNL     1     -41.238 -48.507   9.810  1.00  0.00     0.166 HD
BRANCH  10  14
HETATM   14  N   UNL     1     -40.744 -46.058  10.454  1.00  0.00    -0.363 N 
HETATM   15  C   UNL     1     -39.768 -44.966  10.303  1.00  0.00     0.150 C 
HETATM   16  C   UNL     1     -40.185 -43.731  11.119  1.00  0.00     0.187 C 
HETATM   17  O   UNL     1     -41.518 -43.312  10.800  1.00  0.00    -0.388 OA
HETATM   18  C   UNL     1     -42.447 -44.369  11.105  1.00  0.00     0.187 C 
HETATM   19  C   UNL     1     -42.146 -45.639  10.298  1.00  0.00     0.150 C 
ENDBRANCH  10  14
ENDBRANCH   4   7
BRANCH   3  20
HETATM   20  C   UNL     1     -40.797 -53.081  15.954  1.00  0.00     0.144 C 
BRANCH  20  21
HETATM   21  C   UNL     1     -41.289 -54.439  15.445  1.00  0.00     0.154 C 
BRANCH  21  22
HETATM   22  N   UNL     1     -42.527 -54.385  14.676  1.00  0.00    -0.287 N 
HETATM   23  C   UNL     1     -42.580 -54.078  13.350  1.00  0.00     0.226 C 
HETATM   24  O   UNL     1     -41.645 -53.742  12.642  1.00  0.00    -0.273 OA
HETATM   25  C   UNL     1     -44.010 -54.159  12.890  1.00  0.00     0.112 C 
HETATM   26  C   UNL     1     -44.735 -54.776  14.069  1.00  0.00     0.112 C 
HETATM   27  C   UNL     1     -43.756 -54.643  15.201  1.00  0.00     0.226 C 
HETATM   28  O   UNL     1     -44.047 -54.782  16.380  1.00  0.00    -0.273 OA
ENDBRANCH  21  22
ENDBRANCH  20  21
ENDBRANCH   3  20
TORSDOF 5
ENDMDL
MODEL 5
REMARK VINA RESULT:      -5.9      3.060      4.365
REMARK  5 active torsions:
REMARK  status: ('A' for Active; 'I' for Inactive)
REMARK       I    between atoms: C_2  and  N_3 
REMARK       I    between atoms: C_2  and  N_13 
REMARK    1  A    between atoms: N_3  and  C_4 
REMARK    2  A    between atoms: C_4  and  C_5 
REMARK    3  A    between atoms: C_5  and  N_6 
REMARK    4  A    between atoms: N_13  and  C_14 
REMARK    5  A    between atoms: C_17  and  N_21 
ROOT
HETATM    1  O   UNL     1     -42.285 -49.357  13.210  1.00  0.00    -0.247 OA
HETATM    2  C   UNL     1     -42.068 -49.777  12.082  1.00  0.00     0.320 C 
HETATM    3  N   UNL     1     -42.013 -51.125  11.798  1.00  0.00    -0.341 N 
HETATM    4  N   UNL     1     -41.871 -49.009  10.950  1.00  0.00    -0.308 N 
HETATM    5  H   UNL     1     -41.574 -51.407  10.935  1.00  0.00     0.164 HD
HETATM    6  H   UNL     1     -42.071 -49.473  10.076  1.00  0.00     0.170 HD
ENDROOT
BRANCH   4   7
HETATM    7  C   UNL     1     -41.791 -47.598  10.924  1.00  0.00     0.051 A 
HETATM    8  C   UNL     1     -40.598 -46.896  10.984  1.00  0.00     0.035 A 
HETATM    9  C   UNL     1     -40.615 -45.498  11.011  1.00  0.00     0.051 A 
HETATM   10  C   UNL     1     -41.818 -44.790  10.986  1.00  0.00     0.103 A 
HETATM   11  N   UNL     1     -42.981 -45.465  10.856  1.00  0.00    -0.350 N 
HETATM   12  C   UNL     1     -42.945 -46.828  10.822  1.00  0.00     0.119 A 
ATOM     13  HN  UNL     1     -43.868 -44.966  10.786  1.00  0.00     0.166 HD
BRANCH  10  14
HETATM   14  N   UNL     1     -41.827 -43.407  11.031  1.00  0.00    -0.363 N 
HETATM   15  C   UNL     1     -40.654 -42.652  11.503  1.00  0.00     0.150 C 
HETATM   16  C   UNL     1     -40.912 -42.033  12.887  1.00  0.00     0.187 C 
HETATM   17  O   UNL     1     -42.106 -41.239  12.898  1.00  0.00    -0.388 OA
HETATM   18  C   UNL     1     -43.241 -42.063  12.573  1.00  0.00     0.187 C 
HETATM   19  C   UNL     1     -43.104 -42.691  11.178  1.00  0.00     0.150 C 
ENDBRANCH  10  14
ENDBRANCH   4   7
BRANCH   3  20
HETATM   20  C   UNL     1     -42.197 -52.132  12.834  1.00  0.00     0.144 C 
BRANCH  20  21
HETATM   21  C   UNL     1     -41.346 -53.386  12.615  1.00  0.00     0.154 C 
BRANCH  21  22
HETATM   22  N   UNL     1     -40.700 -53.897  13.818  1.00  0.00    -0.287 N 
HETATM   23  C   UNL     1     -41.343 -54.633  14.767  1.00  0.00     0.226 C 
HETATM   24  O   UNL     1     -42.532 -54.907  14.794  1.00  0.00    -0.273 OA
HETATM   25  C   UNL     1     -40.357 -55.017  15.836  1.00  0.00     0.112 C 
HETATM   26  C   UNL     1     -39.018 -54.601  15.258  1.00  0.00     0.112 C 
HETATM   27  C   UNL     1     -39.386 -53.699  14.115  1.00  0.00     0.226 C 
HETATM   28  O   UNL     1     -38.602 -52.951  13.550  1.00  0.00    -0.273 OA
ENDBRANCH  21  22
ENDBRANCH  20  21
ENDBRANCH   3  20
TORSDOF 5
ENDMDL
MODEL 6
REMARK VINA RESULT:      -5.9      1.881      8.633
REMARK  5 active torsions:
REMARK  status: ('A' for Active; 'I' for Inactive)
REMARK       I    between atoms: C_2  and  N_3 
REMARK       I    between atoms: C_2  and  N_13 
REMARK    1  A    between atoms: N_3  and  C_4 
REMARK    2  A    between atoms: C_4  and  C_5 
REMARK    3  A    between atoms: C_5  and  N_6 
REMARK    4  A    between atoms: N_13  and  C_14 
REMARK    5  A    between atoms: C_17  and  N_21 
ROOT
HETATM    1  O   UNL     1     -42.149 -47.627  10.546  1.00  0.00    -0.247 OA
HETATM    2  C   UNL     1     -41.049 -47.721  11.074  1.00  0.00     0.320 C 
HETATM    3  N   UNL     1     -40.086 -46.743  10.944  1.00  0.00    -0.341 N 
HETATM    4  N   UNL     1     -40.612 -48.764  11.869  1.00  0.00    -0.308 N 
HETATM    5  H   UNL     1     -39.133 -46.988  11.165  1.00  0.00     0.164 HD
HETATM    6  H   UNL     1     -39.864 -48.534  12.506  1.00  0.00     0.170 HD
ENDROOT
BRANCH   4   7
HETATM    7  C   UNL     1     -41.335 -49.951  12.129  1.00  0.00     0.051 A 
HETATM    8  C   UNL     1     -42.424 -50.014  12.982  1.00  0.00     0.035 A 
HETATM    9  C   UNL     1     -43.045 -51.243  13.227  1.00  0.00     0.051 A 
HETATM   10  C   UNL     1     -42.582 -52.417  12.630  1.00  0.00     0.103 A 
HETATM   11  N   UNL     1     -41.565 -52.352  11.743  1.00  0.00    -0.350 N 
HETATM   12  C   UNL     1     -40.978 -51.143  11.509  1.00  0.00     0.119 A 
ATOM     13  HN  UNL     1     -41.243 -53.190  11.258  1.00  0.00     0.166 HD
BRANCH  10  14
HETATM   14  N   UNL     1     -43.190 -53.632  12.892  1.00  0.00    -0.363 N 
HETATM   15  C   UNL     1     -44.620 -53.845  12.613  1.00  0.00     0.150 C 
HETATM   16  C   UNL     1     -45.436 -53.914  13.915  1.00  0.00     0.187 C 
HETATM   17  O   UNL     1     -44.910 -54.895  14.818  1.00  0.00    -0.388 OA
HETATM   18  C   UNL     1     -43.556 -54.555  15.171  1.00  0.00     0.187 C 
HETATM   19  C   UNL     1     -42.643 -54.511  13.938  1.00  0.00     0.150 C 
ENDBRANCH  10  14
ENDBRANCH   4   7
BRANCH   3  20
HETATM   20  C   UNL     1     -40.319 -45.541  10.156  1.00  0.00     0.144 C 
BRANCH  20  21
HETATM   21  C   UNL     1     -40.116 -44.248  10.951  1.00  0.00     0.154 C 
BRANCH  21  22
HETATM   22  N   UNL     1     -41.252 -43.861  11.780  1.00  0.00    -0.287 N 
HETATM   23  C   UNL     1     -41.468 -44.342  13.035  1.00  0.00     0.226 C 
HETATM   24  O   UNL     1     -40.812 -45.193  13.613  1.00  0.00    -0.273 OA
HETATM   25  C   UNL     1     -42.705 -43.695  13.597  1.00  0.00     0.112 C 
HETATM   26  C   UNL     1     -43.035 -42.611  12.589  1.00  0.00     0.112 C 
HETATM   27  C   UNL     1     -42.208 -42.975  11.389  1.00  0.00     0.226 C 
HETATM   28  O   UNL     1     -42.376 -42.508  10.272  1.00  0.00    -0.273 OA
ENDBRANCH  21  22
ENDBRANCH  20  21
ENDBRANCH   3  20
TORSDOF 5
ENDMDL
MODEL 7
REMARK VINA RESULT:      -5.7      3.272      8.622
REMARK  5 active torsions:
REMARK  status: ('A' for Active; 'I' for Inactive)
REMARK       I    between atoms: C_2  and  N_3 
REMARK       I    between atoms: C_2  and  N_13 
REMARK    1  A    between atoms: N_3  and  C_4 
REMARK    2  A    between atoms: C_4  and  C_5 
REMARK    3  A    between atoms: C_5  and  N_6 
REMARK    4  A    between atoms: N_13  and  C_14 
REMARK    5  A    between atoms: C_17  and  N_21 
ROOT
HETATM    1  O   UNL     1     -42.298 -49.474  13.240  1.00  0.00    -0.247 OA
HETATM    2  C   UNL     1     -42.022 -49.805  12.095  1.00  0.00     0.320 C 
HETATM    3  N   UNL     1     -42.282 -48.993  11.012  1.00  0.00    -0.341 N 
HETATM    4  N   UNL     1     -41.412 -50.985  11.713  1.00  0.00    -0.308 N 
HETATM    5  H   UNL     1     -42.285 -49.415  10.096  1.00  0.00     0.164 HD
HETATM    6  H   UNL     1     -40.931 -50.952  10.825  1.00  0.00     0.170 HD
ENDROOT
BRANCH   4   7
HETATM    7  C   UNL     1     -41.090 -52.056  12.577  1.00  0.00     0.051 A 
HETATM    8  C   UNL     1     -41.914 -53.151  12.782  1.00  0.00     0.035 A 
HETATM    9  C   UNL     1     -41.543 -54.138  13.701  1.00  0.00     0.051 A 
HETATM   10  C   UNL     1     -40.354 -54.038  14.426  1.00  0.00     0.103 A 
HETATM   11  N   UNL     1     -39.513 -53.010  14.181  1.00  0.00    -0.350 N 
HETATM   12  C   UNL     1     -39.887 -52.062  13.275  1.00  0.00     0.119 A 
ATOM     13  HN  UNL     1     -38.617 -52.945  14.664  1.00  0.00     0.166 HD
BRANCH  10  14
HETATM   14  N   UNL     1     -40.004 -55.010  15.346  1.00  0.00    -0.363 N 
HETATM   15  C   UNL     1     -40.932 -55.423  16.412  1.00  0.00     0.150 C 
HETATM   16  C   UNL     1     -40.470 -54.905  17.784  1.00  0.00     0.187 C 
HETATM   17  O   UNL     1     -39.118 -55.289  18.067  1.00  0.00    -0.388 OA
HETATM   18  C   UNL     1     -38.236 -54.734  17.073  1.00  0.00     0.187 C 
HETATM   19  C   UNL     1     -38.584 -55.235  15.664  1.00  0.00     0.150 C 
ENDBRANCH  10  14
ENDBRANCH   4   7
BRANCH   3  20
HETATM   20  C   UNL     1     -42.917 -47.692  11.169  1.00  0.00     0.144 C 
BRANCH  20  21
HETATM   21  C   UNL     1     -42.336 -46.620  10.242  1.00  0.00     0.154 C 
BRANCH  21  22
HETATM   22  N   UNL     1     -41.393 -45.711  10.882  1.00  0.00    -0.287 N 
HETATM   23  C   UNL     1     -41.610 -44.374  11.022  1.00  0.00     0.226 C 
HETATM   24  O   UNL     1     -42.557 -43.739  10.586  1.00  0.00    -0.273 OA
HETATM   25  C   UNL     1     -40.448 -43.768  11.761  1.00  0.00     0.112 C 
HETATM   26  C   UNL     1     -39.650 -44.969  12.227  1.00  0.00     0.112 C 
HETATM   27  C   UNL     1     -40.203 -46.104  11.412  1.00  0.00     0.226 C 
HETATM   28  O   UNL     1     -39.661 -47.194  11.295  1.00  0.00    -0.273 OA
ENDBRANCH  21  22
ENDBRANCH  20  21
ENDBRANCH   3  20
TORSDOF 5
ENDMDL
MODEL 8
REMARK VINA RESULT:      -5.7      3.593      5.198
REMARK  5 active torsions:
REMARK  status: ('A' for Active; 'I' for Inactive)
REMARK       I    between atoms: C_2  and  N_3 
REMARK       I    between atoms: C_2  and  N_13 
REMARK    1  A    between atoms: N_3  and  C_4 
REMARK    2  A    between atoms: C_4  and  C_5 
REMARK    3  A    between atoms: C_5  and  N_6 
REMARK    4  A    between atoms: N_13  and  C_14 
REMARK    5  A    between atoms: C_17  and  N_21 
ROOT
HETATM    1  O   UNL     1     -41.743 -48.911  12.938  1.00  0.00    -0.247 OA
HETATM    2  C   UNL     1     -41.613 -49.250  11.770  1.00  0.00     0.320 C 
HETATM    3  N   UNL     1     -41.573 -50.575  11.390  1.00  0.00    -0.341 N 
HETATM    4  N   UNL     1     -41.511 -48.405  10.682  1.00  0.00    -0.308 N 
HETATM    5  H   UNL     1     -41.201 -50.792  10.478  1.00  0.00     0.164 HD
HETATM    6  H   UNL     1     -41.776 -48.809   9.796  1.00  0.00     0.170 HD
ENDROOT
BRANCH   4   7
HETATM    7  C   UNL     1     -41.442 -46.994  10.747  1.00  0.00     0.051 A 
HETATM    8  C   UNL     1     -40.255 -46.282  10.705  1.00  0.00     0.035 A 
HETATM    9  C   UNL     1     -40.275 -44.889  10.834  1.00  0.00     0.051 A 
HETATM   10  C   UNL     1     -41.475 -44.198  11.013  1.00  0.00     0.103 A 
HETATM   11  N   UNL     1     -42.641 -44.878  10.985  1.00  0.00    -0.350 N 
HETATM   12  C   UNL     1     -42.603 -46.235  10.848  1.00  0.00     0.119 A 
ATOM     13  HN  UNL     1     -43.532 -44.388  11.064  1.00  0.00     0.166 HD
BRANCH  10  14
HETATM   14  N   UNL     1     -41.484 -42.822  11.159  1.00  0.00    -0.363 N 
HETATM   15  C   UNL     1     -40.460 -42.132  11.962  1.00  0.00     0.150 C 
HETATM   16  C   UNL     1     -41.050 -41.606  13.281  1.00  0.00     0.187 C 
HETATM   17  O   UNL     1     -42.204 -40.785  13.055  1.00  0.00    -0.388 OA
HETATM   18  C   UNL     1     -43.228 -41.554  12.398  1.00  0.00     0.187 C 
HETATM   19  C   UNL     1     -42.752 -42.085  11.038  1.00  0.00     0.150 C 
ENDBRANCH  10  14
ENDBRANCH   4   7
BRANCH   3  20
HETATM   20  C   UNL     1     -41.669 -51.652  12.365  1.00  0.00     0.144 C 
BRANCH  20  21
HETATM   21  C   UNL     1     -40.340 -52.379  12.596  1.00  0.00     0.154 C 
BRANCH  21  22
HETATM   22  N   UNL     1     -39.378 -51.641  13.406  1.00  0.00    -0.287 N 
HETATM   23  C   UNL     1     -39.330 -51.704  14.765  1.00  0.00     0.226 C 
HETATM   24  O   UNL     1     -40.101 -52.307  15.495  1.00  0.00    -0.273 OA
HETATM   25  C   UNL     1     -38.193 -50.848  15.252  1.00  0.00     0.112 C 
HETATM   26  C   UNL     1     -37.455 -50.473  13.982  1.00  0.00     0.112 C 
HETATM   27  C   UNL     1     -38.425 -50.819  12.888  1.00  0.00     0.226 C 
HETATM   28  O   UNL     1     -38.324 -50.434  11.733  1.00  0.00    -0.273 OA
ENDBRANCH  21  22
ENDBRANCH  20  21
ENDBRANCH   3  20
TORSDOF 5
ENDMDL
MODEL 9
REMARK VINA RESULT:      -5.6      3.271      5.307
REMARK  5 active torsions:
REMARK  status: ('A' for Active; 'I' for Inactive)
REMARK       I    between atoms: C_2  and  N_3 
REMARK       I    between atoms: C_2  and  N_13 
REMARK    1  A    between atoms: N_3  and  C_4 
REMARK    2  A    between atoms: C_4  and  C_5 
REMARK    3  A    between atoms: C_5  and  N_6 
REMARK    4  A    between atoms: N_13  and  C_14 
REMARK    5  A    between atoms: C_17  and  N_21 
ROOT
HETATM    1  O   UNL     1     -39.305 -47.806  12.586  1.00  0.00    -0.247 OA
HETATM    2  C   UNL     1     -39.826 -48.148  11.532  1.00  0.00     0.320 C 
HETATM    3  N   UNL     1     -39.660 -49.412  11.008  1.00  0.00    -0.341 N 
HETATM    4  N   UNL     1     -40.646 -47.370  10.738  1.00  0.00    -0.308 N 
HETATM    5  H   UNL     1     -39.879 -49.550  10.033  1.00  0.00     0.164 HD
HETATM    6  H   UNL     1     -41.271 -47.883  10.133  1.00  0.00     0.170 HD
ENDROOT
BRANCH   4   7
HETATM    7  C   UNL     1     -40.947 -46.007  10.961  1.00  0.00     0.051 A 
HETATM    8  C   UNL     1     -40.040 -44.979  10.759  1.00  0.00     0.035 A 
HETATM    9  C   UNL     1     -40.404 -43.663  11.061  1.00  0.00     0.051 A 
HETATM   10  C   UNL     1     -41.667 -43.362  11.574  1.00  0.00     0.103 A 
HETATM   11  N   UNL     1     -42.579 -44.349  11.708  1.00  0.00    -0.350 N 
HETATM   12  C   UNL     1     -42.210 -45.626  11.399  1.00  0.00     0.119 A 
ATOM     13  HN  UNL     1     -43.523 -44.145  12.034  1.00  0.00     0.166 HD
BRANCH  10  14
HETATM   14  N   UNL     1     -42.012 -42.059  11.887  1.00  0.00    -0.363 N 
HETATM   15  C   UNL     1     -42.019 -41.586  13.282  1.00  0.00     0.150 C 
HETATM   16  C   UNL     1     -43.455 -41.382  13.792  1.00  0.00     0.187 C 
HETATM   17  O   UNL     1     -44.207 -40.522  12.926  1.00  0.00    -0.388 OA
HETATM   18  C   UNL     1     -44.292 -41.107  11.613  1.00  0.00     0.187 C 
HETATM   19  C   UNL     1     -42.902 -41.305  10.991  1.00  0.00     0.150 C 
ENDBRANCH  10  14
ENDBRANCH   4   7
BRANCH   3  20
HETATM   20  C   UNL     1     -38.839 -50.414  11.674  1.00  0.00     0.144 C 
BRANCH  20  21
HETATM   21  C   UNL     1     -39.386 -50.829  13.043  1.00  0.00     0.154 C 
BRANCH  21  22
HETATM   22  N   UNL     1     -40.356 -51.917  13.005  1.00  0.00    -0.287 N 
HETATM   23  C   UNL     1     -41.665 -51.750  12.670  1.00  0.00     0.226 C 
HETATM   24  O   UNL     1     -42.228 -50.694  12.430  1.00  0.00    -0.273 OA
HETATM   25  C   UNL     1     -42.349 -53.090  12.699  1.00  0.00     0.112 C 
HETATM   26  C   UNL     1     -41.209 -54.074  12.869  1.00  0.00     0.112 C 
HETATM   27  C   UNL     1     -40.053 -53.213  13.292  1.00  0.00     0.226 C 
HETATM   28  O   UNL     1     -39.017 -53.643  13.779  1.00  0.00    -0.273 OA
ENDBRANCH  21  22
ENDBRANCH  20  21
ENDBRANCH   3  20
TORSDOF 5
ENDMDL
