MODEL 1
REMARK VINA RESULT:      -6.2      0.000      0.000
REMARK  6 active torsions:
REMARK  status: ('A' for Active; 'I' for Inactive)
REMARK    1  A    between atoms: C_2  and  C_3 
REMARK    2  A    between atoms: C_2  and  N_13 
REMARK    3  A    between atoms: C_3  and  C_4 
REMARK       I    between atoms: C_4  and  N_6 
REMARK    4  A    between atoms: N_13  and  C_14 
REMARK    5  A    between atoms: C_14  and  C_15 
REMARK    6  A    between atoms: C_15  and  C_16 
ROOT
HETATM    1  C   UNL     1     -38.570 -49.123  12.100  1.00  0.00     0.043 C 
HETATM    2  C   UNL     1     -39.577 -50.216  11.706  1.00  0.00     0.225 C 
ENDROOT
BRANCH   2   3
HETATM    3  C   UNL     1     -40.447 -50.639  12.909  1.00  0.00     0.138 C 
BRANCH   3   4
HETATM    4  C   UNL     1     -41.106 -51.999  12.700  1.00  0.00     0.221 C 
HETATM    5  O   UNL     1     -40.626 -52.822  11.919  1.00  0.00    -0.273 OA
HETATM    6  N   UNL     1     -42.265 -52.272  13.428  1.00  0.00    -0.352 N 
HETATM    7  C   UNL     1     -43.014 -51.279  14.202  1.00  0.00     0.125 C 
HETATM    8  C   UNL     1     -42.896 -53.578  13.243  1.00  0.00     0.125 C 
HETATM    9  C   UNL     1     -44.120 -50.642  13.367  1.00  0.00     0.020 C 
HETATM   10  C   UNL     1     -45.436 -51.423  13.346  1.00  0.00     0.002 C 
HETATM   11  C   UNL     1     -45.350 -52.948  13.297  1.00  0.00     0.002 C 
HETATM   12  C   UNL     1     -44.207 -53.513  12.459  1.00  0.00     0.020 C 
ENDBRANCH   3   4
ENDBRANCH   2   3
BRANCH   2  13
HETATM   13  N   UNL     1     -40.472 -49.752  10.622  1.00  0.00     0.088 N 
HETATM   14  H   UNL     1     -40.823 -50.562  10.110  1.00  0.00     0.316 HD
BRANCH  13  15
HETATM   15  C   UNL     1     -41.631 -48.968  11.078  1.00  0.00     0.275 C 
BRANCH  15  16
HETATM   16  C   UNL     1     -41.671 -47.517  10.566  1.00  0.00     0.071 C 
BRANCH  16  17
HETATM   17  C   UNL     1     -42.968 -47.197   9.911  1.00  0.00    -0.022 A 
HETATM   18  C   UNL     1     -43.215 -46.303   8.843  1.00  0.00     0.115 A 
HETATM   19  N   UNL     1     -44.499 -46.273   8.492  1.00  0.00    -0.310 N 
HETATM   20  N   UNL     1     -45.086 -47.132   9.338  1.00  0.00    -0.308 N 
ATOM     21  HN  UNL     1     -44.935 -45.725   7.750  1.00  0.00     0.186 HD
HETATM   22  C   UNL     1     -46.504 -47.386   9.254  1.00  0.00     0.177 C 
HETATM   23  C   UNL     1     -44.215 -47.710  10.208  1.00  0.00     0.118 A 
ENDBRANCH  16  17
ENDBRANCH  15  16
ENDBRANCH  13  15
ENDBRANCH   2  13
TORSDOF 6
ENDMDL
MODEL 2
REMARK VINA RESULT:      -6.1      2.029      3.030
REMARK  6 active torsions:
REMARK  status: ('A' for Active; 'I' for Inactive)
REMARK    1  A    between atoms: C_2  and  C_3 
REMARK    2  A    between atoms: C_2  and  N_13 
REMARK    3  A    between atoms: C_3  and  C_4 
REMARK       I    between atoms: C_4  and  N_6 
REMARK    4  A    between atoms: N_13  and  C_14 
REMARK    5  A    between atoms: C_14  and  C_15 
REMARK    6  A    between atoms: C_15  and  C_16 
ROOT
HETATM    1  C   UNL     1     -40.403 -52.538  13.028  1.00  0.00     0.043 C 
HETATM    2  C   UNL     1     -41.764 -52.932  12.430  1.00  0.00     0.225 C 
ENDROOT
BRANCH   2   3
HETATM    3  C   UNL     1     -42.499 -53.949  13.329  1.00  0.00     0.138 C 
BRANCH   3   4
HETATM    4  C   UNL     1     -44.016 -53.825  13.228  1.00  0.00     0.221 C 
HETATM    5  O   UNL     1     -44.603 -54.071  12.173  1.00  0.00    -0.273 OA
HETATM    6  N   UNL     1     -44.708 -53.427  14.372  1.00  0.00    -0.352 N 
HETATM    7  C   UNL     1     -44.075 -52.910  15.588  1.00  0.00     0.125 C 
HETATM    8  C   UNL     1     -46.163 -53.317  14.287  1.00  0.00     0.125 C 
HETATM    9  C   UNL     1     -43.973 -51.388  15.559  1.00  0.00     0.020 C 
HETATM   10  C   UNL     1     -45.221 -50.654  16.054  1.00  0.00     0.002 C 
HETATM   11  C   UNL     1     -46.581 -51.244  15.684  1.00  0.00     0.002 C 
HETATM   12  C   UNL     1     -46.665 -51.873  14.296  1.00  0.00     0.020 C 
ENDBRANCH   3   4
ENDBRANCH   2   3
BRANCH   2  13
HETATM   13  N   UNL     1     -42.634 -51.747  12.256  1.00  0.00     0.088 N 
HETATM   14  H   UNL     1     -43.306 -51.712  13.024  1.00  0.00     0.316 HD
BRANCH  13  15
HETATM   15  C   UNL     1     -41.918 -50.461  12.223  1.00  0.00     0.275 C 
BRANCH  15  16
HETATM   16  C   UNL     1     -42.793 -49.226  12.504  1.00  0.00     0.071 C 
BRANCH  16  17
HETATM   17  C   UNL     1     -42.696 -48.220  11.413  1.00  0.00    -0.022 A 
HETATM   18  C   UNL     1     -41.534 -47.625  10.869  1.00  0.00     0.115 A 
HETATM   19  N   UNL     1     -41.812 -46.772   9.886  1.00  0.00    -0.310 N 
HETATM   20  N   UNL     1     -43.151 -46.800   9.803  1.00  0.00    -0.308 N 
ATOM     21  HN  UNL     1     -41.159 -46.224   9.326  1.00  0.00     0.186 HD
HETATM   22  C   UNL     1     -43.838 -46.000   8.818  1.00  0.00     0.177 C 
HETATM   23  C   UNL     1     -43.728 -47.648  10.695  1.00  0.00     0.118 A 
ENDBRANCH  16  17
ENDBRANCH  15  16
ENDBRANCH  13  15
ENDBRANCH   2  13
TORSDOF 6
ENDMDL
MODEL 3
REMARK VINA RESULT:      -5.8      2.366      4.513
REMARK  6 active torsions:
REMARK  status: ('A' for Active; 'I' for Inactive)
REMARK    1  A    between atoms: C_2  and  C_3 
REMARK    2  A    between atoms: C_2  and  N_13 
REMARK    3  A    between atoms: C_3  and  C_4 
REMARK       I    between atoms: C_4  and  N_6 
REMARK    4  A    between atoms: N_13  and  C_14 
REMARK    5  A    between atoms: C_14  and  C_15 
REMARK    6  A    between atoms: C_15  and  C_16 
ROOT
HETATM    1  C   UNL     1     -41.518 -54.055  15.608  1.00  0.00     0.043 C 
HETATM    2  C   UNL     1     -42.225 -54.461  14.304  1.00  0.00     0.225 C 
ENDROOT
BRANCH   2   3
HETATM    3  C   UNL     1     -43.540 -55.218  14.590  1.00  0.00     0.138 C 
BRANCH   3   4
HETATM    4  C   UNL     1     -44.759 -54.504  14.012  1.00  0.00     0.221 C 
HETATM    5  O   UNL     1     -44.972 -54.496  12.798  1.00  0.00    -0.273 OA
HETATM    6  N   UNL     1     -45.620 -53.870  14.908  1.00  0.00    -0.352 N 
HETATM    7  C   UNL     1     -45.327 -53.648  16.326  1.00  0.00     0.125 C 
HETATM    8  C   UNL     1     -46.797 -53.195  14.364  1.00  0.00     0.125 C 
HETATM    9  C   UNL     1     -44.671 -52.290  16.554  1.00  0.00     0.020 C 
HETATM   10  C   UNL     1     -45.650 -51.125  16.710  1.00  0.00     0.002 C 
HETATM   11  C   UNL     1     -46.899 -51.129  15.829  1.00  0.00     0.002 C 
HETATM   12  C   UNL     1     -46.700 -51.670  14.416  1.00  0.00     0.020 C 
ENDBRANCH   3   4
ENDBRANCH   2   3
BRANCH   2  13
HETATM   13  N   UNL     1     -42.538 -53.275  13.475  1.00  0.00     0.088 N 
HETATM   14  H   UNL     1     -43.552 -53.165  13.421  1.00  0.00     0.316 HD
BRANCH  13  15
HETATM   15  C   UNL     1     -41.972 -52.012  13.974  1.00  0.00     0.275 C 
BRANCH  15  16
HETATM   16  C   UNL     1     -42.821 -50.762  13.681  1.00  0.00     0.071 C 
BRANCH  16  17
HETATM   17  C   UNL     1     -42.288 -49.989  12.527  1.00  0.00    -0.022 A 
HETATM   18  C   UNL     1     -41.162 -50.279  11.722  1.00  0.00     0.115 A 
HETATM   19  N   UNL     1     -40.979 -49.379  10.759  1.00  0.00    -0.310 N 
HETATM   20  N   UNL     1     -41.975 -48.499  10.947  1.00  0.00    -0.308 N 
ATOM     21  HN  UNL     1     -40.253 -49.362  10.043  1.00  0.00     0.186 HD
HETATM   22  C   UNL     1     -42.121 -47.364  10.067  1.00  0.00     0.177 C 
HETATM   23  C   UNL     1     -42.784 -48.817  11.992  1.00  0.00     0.118 A 
ENDBRANCH  16  17
ENDBRANCH  15  16
ENDBRANCH  13  15
ENDBRANCH   2  13
TORSDOF 6
ENDMDL
MODEL 4
REMARK VINA RESULT:      -5.8      2.257      4.035
REMARK  6 active torsions:
REMARK  status: ('A' for Active; 'I' for Inactive)
REMARK    1  A    between atoms: C_2  and  C_3 
REMARK    2  A    between atoms: C_2  and  N_13 
REMARK    3  A    between atoms: C_3  and  C_4 
REMARK       I    between atoms: C_4  and  N_6 
REMARK    4  A    between atoms: N_13  and  C_14 
REMARK    5  A    between atoms: C_14  and  C_15 
REMARK    6  A    between atoms: C_15  and  C_16 
ROOT
HETATM    1  C   UNL     1     -39.360 -54.536  13.970  1.00  0.00     0.043 C 
HETATM    2  C   UNL     1     -40.433 -53.575  13.432  1.00  0.00     0.225 C 
ENDROOT
BRANCH   2   3
HETATM    3  C   UNL     1     -41.835 -54.219  13.474  1.00  0.00     0.138 C 
BRANCH   3   4
HETATM    4  C   UNL     1     -42.911 -53.311  12.885  1.00  0.00     0.221 C 
HETATM    5  O   UNL     1     -42.611 -52.375  12.141  1.00  0.00    -0.273 OA
HETATM    6  N   UNL     1     -44.238 -53.583  13.217  1.00  0.00    -0.352 N 
HETATM    7  C   UNL     1     -44.658 -54.528  14.255  1.00  0.00     0.125 C 
HETATM    8  C   UNL     1     -45.275 -52.725  12.646  1.00  0.00     0.125 C 
HETATM    9  C   UNL     1     -44.842 -53.832  15.600  1.00  0.00     0.020 C 
HETATM   10  C   UNL     1     -46.218 -53.195  15.808  1.00  0.00     0.002 C 
HETATM   11  C   UNL     1     -46.871 -52.516  14.604  1.00  0.00     0.002 C 
HETATM   12  C   UNL     1     -45.914 -51.784  13.668  1.00  0.00     0.020 C 
ENDBRANCH   3   4
ENDBRANCH   2   3
BRANCH   2  13
HETATM   13  N   UNL     1     -40.470 -52.322  14.218  1.00  0.00     0.088 N 
HETATM   14  H   UNL     1     -40.612 -52.550  15.203  1.00  0.00     0.316 HD
BRANCH  13  15
HETATM   15  C   UNL     1     -39.255 -51.497  14.114  1.00  0.00     0.275 C 
BRANCH  15  16
HETATM   16  C   UNL     1     -39.511 -49.990  13.936  1.00  0.00     0.071 C 
BRANCH  16  17
HETATM   17  C   UNL     1     -40.080 -49.679  12.597  1.00  0.00    -0.022 A 
HETATM   18  C   UNL     1     -39.798 -50.301  11.359  1.00  0.00     0.115 A 
HETATM   19  N   UNL     1     -40.504 -49.781  10.357  1.00  0.00    -0.310 N 
HETATM   20  N   UNL     1     -41.228 -48.814  10.939  1.00  0.00    -0.308 N 
ATOM     21  HN  UNL     1     -40.495 -50.054   9.374  1.00  0.00     0.186 HD
HETATM   22  C   UNL     1     -42.148 -48.021  10.160  1.00  0.00     0.177 C 
HETATM   23  C   UNL     1     -41.011 -48.711  12.278  1.00  0.00     0.118 A 
ENDBRANCH  16  17
ENDBRANCH  15  16
ENDBRANCH  13  15
ENDBRANCH   2  13
TORSDOF 6
ENDMDL
MODEL 5
REMARK VINA RESULT:      -5.7      1.528      1.992
REMARK  6 active torsions:
REMARK  status: ('A' for Active; 'I' for Inactive)
REMARK    1  A    between atoms: C_2  and  C_3 
REMARK    2  A    between atoms: C_2  and  N_13 
REMARK    3  A    between atoms: C_3  and  C_4 
REMARK       I    between atoms: C_4  and  N_6 
REMARK    4  A    between atoms: N_13  and  C_14 
REMARK    5  A    between atoms: C_14  and  C_15 
REMARK    6  A    between atoms: C_15  and  C_16 
ROOT
HETATM    1  C   UNL     1     -38.523 -49.126  12.126  1.00  0.00     0.043 C 
HETATM    2  C   UNL     1     -39.461 -50.292  11.776  1.00  0.00     0.225 C 
ENDROOT
BRANCH   2   3
HETATM    3  C   UNL     1     -40.275 -50.747  13.006  1.00  0.00     0.138 C 
BRANCH   3   4
HETATM    4  C   UNL     1     -40.985 -52.078  12.775  1.00  0.00     0.221 C 
HETATM    5  O   UNL     1     -40.512 -52.923  12.013  1.00  0.00    -0.273 OA
HETATM    6  N   UNL     1     -42.180 -52.300  13.459  1.00  0.00    -0.352 N 
HETATM    7  C   UNL     1     -42.914 -51.273  14.204  1.00  0.00     0.125 C 
HETATM    8  C   UNL     1     -42.859 -53.578  13.253  1.00  0.00     0.125 C 
HETATM    9  C   UNL     1     -43.960 -50.591  13.329  1.00  0.00     0.020 C 
HETATM   10  C   UNL     1     -45.306 -51.316  13.259  1.00  0.00     0.002 C 
HETATM   11  C   UNL     1     -45.284 -52.844  13.216  1.00  0.00     0.002 C 
HETATM   12  C   UNL     1     -44.136 -53.458  12.421  1.00  0.00     0.020 C 
ENDBRANCH   3   4
ENDBRANCH   2   3
BRANCH   2  13
HETATM   13  N   UNL     1     -40.406 -49.914  10.702  1.00  0.00     0.088 N 
HETATM   14  H   UNL     1     -40.880 -50.753  10.364  1.00  0.00     0.316 HD
BRANCH  13  15
HETATM   15  C   UNL     1     -41.437 -48.945  11.108  1.00  0.00     0.275 C 
BRANCH  15  16
HETATM   16  C   UNL     1     -41.992 -48.076   9.965  1.00  0.00     0.071 C 
BRANCH  16  17
HETATM   17  C   UNL     1     -42.303 -46.694  10.421  1.00  0.00    -0.022 A 
HETATM   18  C   UNL     1     -43.242 -45.784   9.885  1.00  0.00     0.115 A 
HETATM   19  N   UNL     1     -43.273 -44.632  10.553  1.00  0.00    -0.310 N 
HETATM   20  N   UNL     1     -42.346 -44.789  11.510  1.00  0.00    -0.308 N 
ATOM     21  HN  UNL     1     -43.865 -43.820  10.378  1.00  0.00     0.186 HD
HETATM   22  C   UNL     1     -42.097 -43.735  12.463  1.00  0.00     0.177 C 
HETATM   23  C   UNL     1     -41.735 -46.003  11.474  1.00  0.00     0.118 A 
ENDBRANCH  16  17
ENDBRANCH  15  16
ENDBRANCH  13  15
ENDBRANCH   2  13
TORSDOF 6
ENDMDL
MODEL 6
REMARK VINA RESULT:      -5.6      3.554      5.689
REMARK  6 active torsions:
REMARK  status: ('A' for Active; 'I' for Inactive)
REMARK    1  A    between atoms: C_2  and  C_3 
REMARK    2  A    between atoms: C_2  and  N_13 
REMARK    3  A    between atoms: C_3  and  C_4 
REMARK       I    between atoms: C_4  and  N_6 
REMARK    4  A    between atoms: N_13  and  C_14 
REMARK    5  A    between atoms: C_14  and  C_15 
REMARK    6  A    between atoms: C_15  and  C_16 
ROOT
HETATM    1  C   UNL     1     -42.374 -52.026  16.439  1.00  0.00     0.043 C 
HETATM    2  C   UNL     1     -42.224 -53.403  17.106  1.00  0.00     0.225 C 
ENDROOT
BRANCH   2   3
HETATM    3  C   UNL     1     -43.465 -54.287  16.856  1.00  0.00     0.138 C 
BRANCH   3   4
HETATM    4  C   UNL     1     -43.724 -54.519  15.370  1.00  0.00     0.221 C 
HETATM    5  O   UNL     1     -42.868 -55.038  14.651  1.00  0.00    -0.273 OA
HETATM    6  N   UNL     1     -44.962 -54.124  14.862  1.00  0.00    -0.352 N 
HETATM    7  C   UNL     1     -45.938 -53.310  15.590  1.00  0.00     0.125 C 
HETATM    8  C   UNL     1     -45.223 -54.355  13.442  1.00  0.00     0.125 C 
HETATM    9  C   UNL     1     -45.750 -51.824  15.301  1.00  0.00     0.020 C 
HETATM   10  C   UNL     1     -46.466 -51.322  14.045  1.00  0.00     0.002 C 
HETATM   11  C   UNL     1     -46.490 -52.247  12.828  1.00  0.00     0.002 C 
HETATM   12  C   UNL     1     -45.225 -53.072  12.610  1.00  0.00     0.020 C 
ENDBRANCH   3   4
ENDBRANCH   2   3
BRANCH   2  13
HETATM   13  N   UNL     1     -41.031 -54.116  16.596  1.00  0.00     0.088 N 
HETATM   14  H   UNL     1     -41.332 -54.863  15.968  1.00  0.00     0.316 HD
BRANCH  13  15
HETATM   15  C   UNL     1     -40.077 -53.267  15.865  1.00  0.00     0.275 C 
BRANCH  15  16
HETATM   16  C   UNL     1     -39.633 -53.822  14.499  1.00  0.00     0.071 C 
BRANCH  16  17
HETATM   17  C   UNL     1     -40.126 -52.982  13.374  1.00  0.00    -0.022 A 
HETATM   18  C   UNL     1     -40.974 -53.356  12.306  1.00  0.00     0.115 A 
HETATM   19  N   UNL     1     -41.229 -52.344  11.480  1.00  0.00    -0.310 N 
HETATM   20  N   UNL     1     -40.537 -51.319  12.002  1.00  0.00    -0.308 N 
ATOM     21  HN  UNL     1     -41.816 -52.346  10.646  1.00  0.00     0.186 HD
HETATM   22  C   UNL     1     -40.580 -50.019  11.379  1.00  0.00     0.177 C 
HETATM   23  C   UNL     1     -39.859 -51.649  13.133  1.00  0.00     0.118 A 
ENDBRANCH  16  17
ENDBRANCH  15  16
ENDBRANCH  13  15
ENDBRANCH   2  13
TORSDOF 6
ENDMDL
MODEL 7
REMARK VINA RESULT:      -5.4      1.713      2.448
REMARK  6 active torsions:
REMARK  status: ('A' for Active; 'I' for Inactive)
REMARK    1  A    between atoms: C_2  and  C_3 
REMARK    2  A    between atoms: C_2  and  N_13 
REMARK    3  A    between atoms: C_3  and  C_4 
REMARK       I    between atoms: C_4  and  N_6 
REMARK    4  A    between atoms: N_13  and  C_14 
REMARK    5  A    between atoms: C_14  and  C_15 
REMARK    6  A    between atoms: C_15  and  C_16 
ROOT
HETATM    1  C   UNL     1     -40.341 -51.238  13.655  1.00  0.00     0.043 C 
HETATM    2  C   UNL     1     -40.930 -51.735  12.325  1.00  0.00     0.225 C 
ENDROOT
BRANCH   2   3
HETATM    3  C   UNL     1     -42.450 -51.978  12.439  1.00  0.00     0.138 C 
BRANCH   3   4
HETATM    4  C   UNL     1     -42.808 -52.884  13.615  1.00  0.00     0.221 C 
HETATM    5  O   UNL     1     -42.349 -54.024  13.697  1.00  0.00    -0.273 OA
HETATM    6  N   UNL     1     -43.666 -52.370  14.587  1.00  0.00    -0.352 N 
HETATM    7  C   UNL     1     -44.420 -51.120  14.454  1.00  0.00     0.125 C 
HETATM    8  C   UNL     1     -44.004 -53.226  15.722  1.00  0.00     0.125 C 
HETATM    9  C   UNL     1     -45.809 -51.367  13.873  1.00  0.00     0.020 C 
HETATM   10  C   UNL     1     -46.875 -51.746  14.903  1.00  0.00     0.002 C 
HETATM   11  C   UNL     1     -46.453 -52.663  16.051  1.00  0.00     0.002 C 
HETATM   12  C   UNL     1     -45.442 -53.745  15.684  1.00  0.00     0.020 C 
ENDBRANCH   3   4
ENDBRANCH   2   3
BRANCH   2  13
HETATM   13  N   UNL     1     -40.693 -50.758  11.238  1.00  0.00     0.088 N 
HETATM   14  H   UNL     1     -41.585 -50.348  10.958  1.00  0.00     0.316 HD
BRANCH  13  15
HETATM   15  C   UNL     1     -39.780 -49.659  11.591  1.00  0.00     0.275 C 
BRANCH  15  16
HETATM   16  C   UNL     1     -40.474 -48.335  11.960  1.00  0.00     0.071 C 
BRANCH  16  17
HETATM   17  C   UNL     1     -41.762 -48.166  11.235  1.00  0.00    -0.022 A 
HETATM   18  C   UNL     1     -43.075 -48.366  11.721  1.00  0.00     0.115 A 
HETATM   19  N   UNL     1     -44.003 -48.105  10.802  1.00  0.00    -0.310 N 
HETATM   20  N   UNL     1     -43.294 -47.752   9.719  1.00  0.00    -0.308 N 
ATOM     21  HN  UNL     1     -45.017 -48.159  10.900  1.00  0.00     0.186 HD
HETATM   22  C   UNL     1     -43.966 -47.374   8.499  1.00  0.00     0.177 C 
HETATM   23  C   UNL     1     -41.950 -47.774   9.924  1.00  0.00     0.118 A 
ENDBRANCH  16  17
ENDBRANCH  15  16
ENDBRANCH  13  15
ENDBRANCH   2  13
TORSDOF 6
ENDMDL
MODEL 8
REMARK VINA RESULT:      -5.3      1.986      2.655
REMARK  6 active torsions:
REMARK  status: ('A' for Active; 'I' for Inactive)
REMARK    1  A    between atoms: C_2  and  C_3 
REMARK    2  A    between atoms: C_2  and  N_13 
REMARK    3  A    between atoms: C_3  and  C_4 
REMARK       I    between atoms: C_4  and  N_6 
REMARK    4  A    between atoms: N_13  and  C_14 
REMARK    5  A    between atoms: C_14  and  C_15 
REMARK    6  A    between atoms: C_15  and  C_16 
ROOT
HETATM    1  C   UNL     1     -37.974 -47.560  14.751  1.00  0.00     0.043 C 
HETATM    2  C   UNL     1     -37.932 -48.803  13.847  1.00  0.00     0.225 C 
ENDROOT
BRANCH   2   3
HETATM    3  C   UNL     1     -38.325 -50.077  14.625  1.00  0.00     0.138 C 
BRANCH   3   4
HETATM    4  C   UNL     1     -38.737 -51.219  13.700  1.00  0.00     0.221 C 
HETATM    5  O   UNL     1     -37.968 -51.642  12.835  1.00  0.00    -0.273 OA
HETATM    6  N   UNL     1     -40.009 -51.763  13.876  1.00  0.00    -0.352 N 
HETATM    7  C   UNL     1     -41.053 -51.181  14.723  1.00  0.00     0.125 C 
HETATM    8  C   UNL     1     -40.407 -52.866  13.003  1.00  0.00     0.125 C 
HETATM    9  C   UNL     1     -41.957 -50.244  13.928  1.00  0.00     0.020 C 
HETATM   10  C   UNL     1     -43.115 -50.934  13.204  1.00  0.00     0.002 C 
HETATM   11  C   UNL     1     -42.840 -52.299  12.573  1.00  0.00     0.002 C 
HETATM   12  C   UNL     1     -41.453 -52.468  11.960  1.00  0.00     0.020 C 
ENDBRANCH   3   4
ENDBRANCH   2   3
BRANCH   2  13
HETATM   13  N   UNL     1     -38.849 -48.656  12.694  1.00  0.00     0.088 N 
HETATM   14  H   UNL     1     -39.416 -49.501  12.611  1.00  0.00     0.316 HD
BRANCH  13  15
HETATM   15  C   UNL     1     -39.761 -47.505  12.780  1.00  0.00     0.275 C 
BRANCH  15  16
HETATM   16  C   UNL     1     -39.870 -46.669  11.492  1.00  0.00     0.071 C 
BRANCH  16  17
HETATM   17  C   UNL     1     -41.127 -46.955  10.751  1.00  0.00    -0.022 A 
HETATM   18  C   UNL     1     -41.724 -48.210  10.488  1.00  0.00     0.115 A 
HETATM   19  N   UNL     1     -42.863 -48.099   9.808  1.00  0.00    -0.310 N 
HETATM   20  N   UNL     1     -42.997 -46.778   9.615  1.00  0.00    -0.308 N 
ATOM     21  HN  UNL     1     -43.489 -48.845   9.503  1.00  0.00     0.186 HD
HETATM   22  C   UNL     1     -44.144 -46.256   8.914  1.00  0.00     0.177 C 
HETATM   23  C   UNL     1     -41.985 -46.050  10.158  1.00  0.00     0.118 A 
ENDBRANCH  16  17
ENDBRANCH  15  16
ENDBRANCH  13  15
ENDBRANCH   2  13
TORSDOF 6
ENDMDL
MODEL 9
REMARK VINA RESULT:      -5.2      2.066      3.180
REMARK  6 active torsions:
REMARK  status: ('A' for Active; 'I' for Inactive)
REMARK    1  A    between atoms: C_2  and  C_3 
REMARK    2  A    between atoms: C_2  and  N_13 
REMARK    3  A    between atoms: C_3  and  C_4 
REMARK       I    between atoms: C_4  and  N_6 
REMARK    4  A    between atoms: N_13  and  C_14 
REMARK    5  A    between atoms: C_14  and  C_15 
REMARK    6  A    between atoms: C_15  and  C_16 
ROOT
HETATM    1  C   UNL     1     -38.283 -50.816  15.934  1.00  0.00     0.043 C 
HETATM    2  C   UNL     1     -38.783 -51.593  14.705  1.00  0.00     0.225 C 
ENDROOT
BRANCH   2   3
HETATM    3  C   UNL     1     -40.270 -51.296  14.418  1.00  0.00     0.138 C 
BRANCH   3   4
HETATM    4  C   UNL     1     -40.961 -52.442  13.685  1.00  0.00     0.221 C 
HETATM    5  O   UNL     1     -40.361 -53.105  12.837  1.00  0.00    -0.273 OA
HETATM    6  N   UNL     1     -42.290 -52.710  14.014  1.00  0.00    -0.352 N 
HETATM    7  C   UNL     1     -43.133 -51.842  14.840  1.00  0.00     0.125 C 
HETATM    8  C   UNL     1     -42.956 -53.814  13.325  1.00  0.00     0.125 C 
HETATM    9  C   UNL     1     -43.920 -50.853  13.986  1.00  0.00     0.020 C 
HETATM   10  C   UNL     1     -45.243 -51.393  13.438  1.00  0.00     0.002 C 
HETATM   11  C   UNL     1     -45.275 -52.851  12.981  1.00  0.00     0.002 C 
HETATM   12  C   UNL     1     -44.001 -53.353  12.308  1.00  0.00     0.020 C 
ENDBRANCH   3   4
ENDBRANCH   2   3
BRANCH   2  13
HETATM   13  N   UNL     1     -37.996 -51.249  13.500  1.00  0.00     0.088 N 
HETATM   14  H   UNL     1     -38.432 -51.680  12.683  1.00  0.00     0.316 HD
BRANCH  13  15
HETATM   15  C   UNL     1     -37.873 -49.806  13.240  1.00  0.00     0.275 C 
BRANCH  15  16
HETATM   16  C   UNL     1     -38.147 -49.386  11.784  1.00  0.00     0.071 C 
BRANCH  16  17
HETATM   17  C   UNL     1     -39.580 -49.051  11.565  1.00  0.00    -0.022 A 
HETATM   18  C   UNL     1     -40.621 -49.900  11.125  1.00  0.00     0.115 A 
HETATM   19  N   UNL     1     -41.793 -49.272  11.055  1.00  0.00    -0.310 N 
HETATM   20  N   UNL     1     -41.511 -48.017  11.433  1.00  0.00    -0.308 N 
ATOM     21  HN  UNL     1     -42.697 -49.657  10.779  1.00  0.00     0.186 HD
HETATM   22  C   UNL     1     -42.554 -47.022  11.500  1.00  0.00     0.177 C 
HETATM   23  C   UNL     1     -40.200 -47.831  11.747  1.00  0.00     0.118 A 
ENDBRANCH  16  17
ENDBRANCH  15  16
ENDBRANCH  13  15
ENDBRANCH   2  13
TORSDOF 6
ENDMDL
