MODEL 1
REMARK VINA RESULT:      -5.6      0.000      0.000
REMARK  5 active torsions:
REMARK  status: ('A' for Active; 'I' for Inactive)
REMARK    1  A    between atoms: C_2  and  C_3 
REMARK       I    between atoms: C_2  and  N_10 
REMARK    2  A    between atoms: C_3  and  N_4 
REMARK    3  A    between atoms: N_10  and  C_11 
REMARK    4  A    between atoms: C_11  and  C_12 
REMARK    5  A    between atoms: N_15  and  C_17 
ROOT
HETATM    1  O   UNL     1     -39.314 -52.298  15.420  1.00  0.00    -0.272 OA
HETATM    2  C   UNL     1     -39.368 -51.787  14.304  1.00  0.00     0.237 C 
HETATM    3  N   UNL     1     -40.147 -52.289  13.278  1.00  0.00    -0.359 N 
HETATM    4  H   UNL     1     -40.019 -51.930  12.339  1.00  0.00     0.162 HD
ENDROOT
BRANCH   3   5
HETATM    5  C   UNL     1     -40.900 -53.526  13.418  1.00  0.00     0.129 C 
BRANCH   5   6
HETATM    6  C   UNL     1     -42.385 -53.269  13.636  1.00  0.00     0.033 C 
HETATM    7  C   UNL     1     -43.158 -54.438  14.248  1.00  0.00     0.038 C 
HETATM    8  C   UNL     1     -44.538 -54.387  13.595  1.00  0.00     0.273 C 
HETATM    9  N   UNL     1     -44.553 -53.230  12.683  1.00  0.00     0.093 N 
HETATM   10  C   UNL     1     -43.138 -53.018  12.332  1.00  0.00     0.279 C 
BRANCH   9  11
HETATM   11  C   UNL     1     -45.174 -52.026  13.270  1.00  0.00     0.223 A 
HETATM   12  C   UNL     1     -46.453 -52.126  14.057  1.00  0.00     0.038 A 
HETATM   13  C   UNL     1     -46.473 -51.546  12.675  1.00  0.00     0.038 A 
ENDBRANCH   9  11
ENDBRANCH   5   6
ENDBRANCH   3   5
BRANCH   2  14
HETATM   14  C   UNL     1     -38.606 -50.525  13.974  1.00  0.00     0.249 C 
BRANCH  14  15
HETATM   15  N   UNL     1     -37.913 -50.643  12.717  1.00  0.00    -0.264 N 
HETATM   16  C   UNL     1     -38.025 -49.877  11.602  1.00  0.00     0.213 A 
HETATM   17  N   UNL     1     -37.288 -50.414  10.655  1.00  0.00    -0.281 N 
HETATM   18  N   UNL     1     -36.720 -51.535  11.214  1.00  0.00    -0.008 NA
ATOM     19  HN  UNL     1     -37.162 -50.070   9.704  1.00  0.00     0.184 HD
HETATM   20  N   UNL     1     -37.103 -51.687  12.474  1.00  0.00    -0.005 NA
ENDBRANCH  14  15
ENDBRANCH   2  14
TORSDOF 5
ENDMDL
MODEL 2
REMARK VINA RESULT:      -5.4      4.935      5.825
REMARK  5 active torsions:
REMARK  status: ('A' for Active; 'I' for Inactive)
REMARK    1  A    between atoms: C_2  and  C_3 
REMARK       I    between atoms: C_2  and  N_10 
REMARK    2  A    between atoms: C_3  and  N_4 
REMARK    3  A    between atoms: N_10  and  C_11 
REMARK    4  A    between atoms: C_11  and  C_12 
REMARK    5  A    between atoms: N_15  and  C_17 
ROOT
HETATM    1  O   UNL     1     -42.996 -47.543  12.059  1.00  0.00    -0.272 OA
HETATM    2  C   UNL     1     -42.513 -48.271  11.196  1.00  0.00     0.237 C 
HETATM    3  N   UNL     1     -42.014 -49.532  11.461  1.00  0.00    -0.359 N 
HETATM    4  H   UNL     1     -41.476 -50.011  10.747  1.00  0.00     0.162 HD
ENDROOT
BRANCH   3   5
HETATM    5  C   UNL     1     -41.939 -50.062  12.814  1.00  0.00     0.129 C 
BRANCH   5   6
HETATM    6  C   UNL     1     -42.945 -51.182  13.044  1.00  0.00     0.033 C 
HETATM    7  C   UNL     1     -44.373 -50.716  13.328  1.00  0.00     0.038 C 
HETATM    8  C   UNL     1     -44.929 -51.725  14.331  1.00  0.00     0.273 C 
HETATM    9  N   UNL     1     -43.878 -52.727  14.578  1.00  0.00     0.093 N 
HETATM   10  C   UNL     1     -42.619 -52.024  14.274  1.00  0.00     0.279 C 
BRANCH   9  11
HETATM   11  C   UNL     1     -44.041 -53.959  13.781  1.00  0.00     0.223 A 
HETATM   12  C   UNL     1     -45.305 -54.771  13.868  1.00  0.00     0.038 A 
HETATM   13  C   UNL     1     -44.051 -55.274  14.517  1.00  0.00     0.038 A 
ENDBRANCH   9  11
ENDBRANCH   5   6
ENDBRANCH   3   5
BRANCH   2  14
HETATM   14  C   UNL     1     -42.464 -47.852   9.745  1.00  0.00     0.249 C 
BRANCH  14  15
HETATM   15  N   UNL     1     -43.395 -46.787   9.474  1.00  0.00    -0.264 N 
HETATM   16  C   UNL     1     -44.710 -46.862   9.145  1.00  0.00     0.213 A 
HETATM   17  N   UNL     1     -45.139 -45.649   8.877  1.00  0.00    -0.281 N 
HETATM   18  N   UNL     1     -44.053 -44.822   9.044  1.00  0.00    -0.008 NA
ATOM     19  HN  UNL     1     -46.083 -45.377   8.602  1.00  0.00     0.184 HD
HETATM   20  N   UNL     1     -42.979 -45.511   9.403  1.00  0.00    -0.005 NA
ENDBRANCH  14  15
ENDBRANCH   2  14
TORSDOF 5
ENDMDL
MODEL 3
REMARK VINA RESULT:      -5.3      4.577      6.028
REMARK  5 active torsions:
REMARK  status: ('A' for Active; 'I' for Inactive)
REMARK    1  A    between atoms: C_2  and  C_3 
REMARK       I    between atoms: C_2  and  N_10 
REMARK    2  A    between atoms: C_3  and  N_4 
REMARK    3  A    between atoms: N_10  and  C_11 
REMARK    4  A    between atoms: C_11  and  C_12 
REMARK    5  A    between atoms: N_15  and  C_17 
ROOT
HETATM    1  O   UNL     1     -40.831 -47.020  10.753  1.00  0.00    -0.272 OA
HETATM    2  C   UNL     1     -41.903 -47.621  10.769  1.00  0.00     0.237 C 
HETATM    3  N   UNL     1     -42.007 -48.977  11.013  1.00  0.00    -0.359 N 
HETATM    4  H   UNL     1     -42.891 -49.444  10.844  1.00  0.00     0.162 HD
ENDROOT
BRANCH   3   5
HETATM    5  C   UNL     1     -40.834 -49.822  11.183  1.00  0.00     0.129 C 
BRANCH   5   6
HETATM    6  C   UNL     1     -40.994 -50.794  12.344  1.00  0.00     0.033 C 
HETATM    7  C   UNL     1     -39.748 -50.970  13.212  1.00  0.00     0.038 C 
HETATM    8  C   UNL     1     -39.762 -52.439  13.634  1.00  0.00     0.273 C 
HETATM    9  N   UNL     1     -40.971 -53.052  13.058  1.00  0.00     0.093 N 
HETATM   10  C   UNL     1     -41.284 -52.220  11.883  1.00  0.00     0.279 C 
BRANCH   9  11
HETATM   11  C   UNL     1     -42.100 -53.132  14.007  1.00  0.00     0.223 A 
HETATM   12  C   UNL     1     -42.137 -54.197  15.070  1.00  0.00     0.038 A 
HETATM   13  C   UNL     1     -43.041 -54.302  13.880  1.00  0.00     0.038 A 
ENDBRANCH   9  11
ENDBRANCH   5   6
ENDBRANCH   3   5
BRANCH   2  14
HETATM   14  C   UNL     1     -43.215 -46.902  10.559  1.00  0.00     0.249 C 
BRANCH  14  15
HETATM   15  N   UNL     1     -43.899 -47.388   9.389  1.00  0.00    -0.264 N 
HETATM   16  C   UNL     1     -45.216 -47.672   9.223  1.00  0.00     0.213 A 
HETATM   17  N   UNL     1     -45.379 -48.195   8.028  1.00  0.00    -0.281 N 
HETATM   18  N   UNL     1     -44.127 -48.232   7.462  1.00  0.00    -0.008 NA
ATOM     19  HN  UNL     1     -46.254 -48.509   7.608  1.00  0.00     0.184 HD
HETATM   20  N   UNL     1     -43.213 -47.746   8.291  1.00  0.00    -0.005 NA
ENDBRANCH  14  15
ENDBRANCH   2  14
TORSDOF 5
ENDMDL
MODEL 4
REMARK VINA RESULT:      -5.2      5.084      5.814
REMARK  5 active torsions:
REMARK  status: ('A' for Active; 'I' for Inactive)
REMARK    1  A    between atoms: C_2  and  C_3 
REMARK       I    between atoms: C_2  and  N_10 
REMARK    2  A    between atoms: C_3  and  N_4 
REMARK    3  A    between atoms: N_10  and  C_11 
REMARK    4  A    between atoms: C_11  and  C_12 
REMARK    5  A    between atoms: N_15  and  C_17 
ROOT
HETATM    1  O   UNL     1     -42.995 -47.506  11.980  1.00  0.00    -0.272 OA
HETATM    2  C   UNL     1     -42.529 -48.236  11.109  1.00  0.00     0.237 C 
HETATM    3  N   UNL     1     -41.973 -49.473  11.375  1.00  0.00    -0.359 N 
HETATM    4  H   UNL     1     -41.454 -49.950  10.647  1.00  0.00     0.162 HD
ENDROOT
BRANCH   3   5
HETATM    5  C   UNL     1     -41.815 -49.970  12.734  1.00  0.00     0.129 C 
BRANCH   5   6
HETATM    6  C   UNL     1     -43.146 -50.382  13.349  1.00  0.00     0.033 C 
HETATM    7  C   UNL     1     -43.432 -49.780  14.725  1.00  0.00     0.038 C 
HETATM    8  C   UNL     1     -44.186 -50.869  15.487  1.00  0.00     0.273 C 
HETATM    9  N   UNL     1     -44.343 -52.016  14.576  1.00  0.00     0.093 N 
HETATM   10  C   UNL     1     -43.232 -51.882  13.618  1.00  0.00     0.279 C 
BRANCH   9  11
HETATM   11  C   UNL     1     -45.659 -52.063  13.909  1.00  0.00     0.223 A 
HETATM   12  C   UNL     1     -46.864 -51.414  14.537  1.00  0.00     0.038 A 
HETATM   13  C   UNL     1     -46.736 -52.907  14.541  1.00  0.00     0.038 A 
ENDBRANCH   9  11
ENDBRANCH   5   6
ENDBRANCH   3   5
BRANCH   2  14
HETATM   14  C   UNL     1     -42.565 -47.849   9.649  1.00  0.00     0.249 C 
BRANCH  14  15
HETATM   15  N   UNL     1     -43.459 -46.743   9.421  1.00  0.00    -0.264 N 
HETATM   16  C   UNL     1     -44.783 -46.760   9.120  1.00  0.00     0.213 A 
HETATM   17  N   UNL     1     -45.170 -45.525   8.887  1.00  0.00    -0.281 N 
HETATM   18  N   UNL     1     -44.049 -44.745   9.047  1.00  0.00    -0.008 NA
ATOM     19  HN  UNL     1     -46.108 -45.211   8.639  1.00  0.00     0.184 HD
HETATM   20  N   UNL     1     -42.995 -45.483   9.367  1.00  0.00    -0.005 NA
ENDBRANCH  14  15
ENDBRANCH   2  14
TORSDOF 5
ENDMDL
MODEL 5
REMARK VINA RESULT:      -5.2      1.829      2.288
REMARK  5 active torsions:
REMARK  status: ('A' for Active; 'I' for Inactive)
REMARK    1  A    between atoms: C_2  and  C_3 
REMARK       I    between atoms: C_2  and  N_10 
REMARK    2  A    between atoms: C_3  and  N_4 
REMARK    3  A    between atoms: N_10  and  C_11 
REMARK    4  A    between atoms: C_11  and  C_12 
REMARK    5  A    between atoms: N_15  and  C_17 
ROOT
HETATM    1  O   UNL     1     -39.981 -52.515  14.863  1.00  0.00    -0.272 OA
HETATM    2  C   UNL     1     -40.073 -52.340  13.651  1.00  0.00     0.237 C 
HETATM    3  N   UNL     1     -40.868 -53.118  12.831  1.00  0.00    -0.359 N 
HETATM    4  H   UNL     1     -40.770 -53.036  11.825  1.00  0.00     0.162 HD
ENDROOT
BRANCH   3   5
HETATM    5  C   UNL     1     -41.594 -54.274  13.334  1.00  0.00     0.129 C 
BRANCH   5   6
HETATM    6  C   UNL     1     -42.976 -53.898  13.854  1.00  0.00     0.033 C 
HETATM    7  C   UNL     1     -43.787 -55.060  14.424  1.00  0.00     0.038 C 
HETATM    8  C   UNL     1     -45.236 -54.757  14.047  1.00  0.00     0.273 C 
HETATM    9  N   UNL     1     -45.245 -53.473  13.326  1.00  0.00     0.093 N 
HETATM   10  C   UNL     1     -43.891 -53.359  12.757  1.00  0.00     0.279 C 
BRANCH   9  11
HETATM   11  C   UNL     1     -45.595 -52.321  14.180  1.00  0.00     0.223 A 
HETATM   12  C   UNL     1     -46.881 -52.305  14.962  1.00  0.00     0.038 A 
HETATM   13  C   UNL     1     -46.742 -51.446  13.742  1.00  0.00     0.038 A 
ENDBRANCH   9  11
ENDBRANCH   5   6
ENDBRANCH   3   5
BRANCH   2  14
HETATM   14  C   UNL     1     -39.342 -51.213  12.958  1.00  0.00     0.249 C 
BRANCH  14  15
HETATM   15  N   UNL     1     -40.234 -50.431  12.143  1.00  0.00    -0.264 N 
HETATM   16  C   UNL     1     -39.981 -49.773  10.983  1.00  0.00     0.213 A 
HETATM   17  N   UNL     1     -41.057 -49.098  10.646  1.00  0.00    -0.281 N 
HETATM   18  N   UNL     1     -41.982 -49.352  11.631  1.00  0.00    -0.008 NA
ATOM     19  HN  UNL     1     -41.181 -48.507   9.824  1.00  0.00     0.184 HD
HETATM   20  N   UNL     1     -41.485 -50.162  12.556  1.00  0.00    -0.005 NA
ENDBRANCH  14  15
ENDBRANCH   2  14
TORSDOF 5
ENDMDL
MODEL 6
REMARK VINA RESULT:      -5.0      3.446      6.788
REMARK  5 active torsions:
REMARK  status: ('A' for Active; 'I' for Inactive)
REMARK    1  A    between atoms: C_2  and  C_3 
REMARK       I    between atoms: C_2  and  N_10 
REMARK    2  A    between atoms: C_3  and  N_4 
REMARK    3  A    between atoms: N_10  and  C_11 
REMARK    4  A    between atoms: C_11  and  C_12 
REMARK    5  A    between atoms: N_15  and  C_17 
ROOT
HETATM    1  O   UNL     1     -43.972 -50.417  14.170  1.00  0.00    -0.272 OA
HETATM    2  C   UNL     1     -44.257 -51.230  13.295  1.00  0.00     0.237 C 
HETATM    3  N   UNL     1     -43.310 -51.863  12.511  1.00  0.00    -0.359 N 
HETATM    4  H   UNL     1     -43.612 -52.387  11.697  1.00  0.00     0.162 HD
ENDROOT
BRANCH   3   5
HETATM    5  C   UNL     1     -41.894 -51.541  12.603  1.00  0.00     0.129 C 
BRANCH   5   6
HETATM    6  C   UNL     1     -41.120 -52.593  13.386  1.00  0.00     0.033 C 
HETATM    7  C   UNL     1     -41.743 -53.989  13.377  1.00  0.00     0.038 C 
HETATM    8  C   UNL     1     -41.447 -54.566  14.761  1.00  0.00     0.273 C 
HETATM    9  N   UNL     1     -40.671 -53.557  15.502  1.00  0.00     0.093 N 
HETATM   10  C   UNL     1     -41.038 -52.275  14.877  1.00  0.00     0.279 C 
BRANCH   9  11
HETATM   11  C   UNL     1     -39.215 -53.799  15.476  1.00  0.00     0.223 A 
HETATM   12  C   UNL     1     -38.663 -55.192  15.616  1.00  0.00     0.038 A 
HETATM   13  C   UNL     1     -38.553 -54.231  16.760  1.00  0.00     0.038 A 
ENDBRANCH   9  11
ENDBRANCH   5   6
ENDBRANCH   3   5
BRANCH   2  14
HETATM   14  C   UNL     1     -45.688 -51.640  13.032  1.00  0.00     0.249 C 
BRANCH  14  15
HETATM   15  N   UNL     1     -45.926 -53.003  13.430  1.00  0.00    -0.264 N 
HETATM   16  C   UNL     1     -46.673 -53.476  14.460  1.00  0.00     0.213 A 
HETATM   17  N   UNL     1     -46.517 -54.780  14.519  1.00  0.00    -0.281 N 
HETATM   18  N   UNL     1     -45.650 -55.100  13.502  1.00  0.00    -0.008 NA
ATOM     19  HN  UNL     1     -46.951 -55.422  15.183  1.00  0.00     0.184 HD
HETATM   20  N   UNL     1     -45.277 -54.017  12.834  1.00  0.00    -0.005 NA
ENDBRANCH  14  15
ENDBRANCH   2  14
TORSDOF 5
ENDMDL
MODEL 7
REMARK VINA RESULT:      -4.8      1.818      2.375
REMARK  5 active torsions:
REMARK  status: ('A' for Active; 'I' for Inactive)
REMARK    1  A    between atoms: C_2  and  C_3 
REMARK       I    between atoms: C_2  and  N_10 
REMARK    2  A    between atoms: C_3  and  N_4 
REMARK    3  A    between atoms: N_10  and  C_11 
REMARK    4  A    between atoms: C_11  and  C_12 
REMARK    5  A    between atoms: N_15  and  C_17 
ROOT
HETATM    1  O   UNL     1     -38.704 -51.612  15.990  1.00  0.00    -0.272 OA
HETATM    2  C   UNL     1     -38.599 -51.741  14.773  1.00  0.00     0.237 C 
HETATM    3  N   UNL     1     -39.047 -52.855  14.088  1.00  0.00    -0.359 N 
HETATM    4  H   UNL     1     -38.780 -52.980  13.118  1.00  0.00     0.162 HD
ENDROOT
BRANCH   3   5
HETATM    5  C   UNL     1     -39.600 -54.012  14.776  1.00  0.00     0.129 C 
BRANCH   5   6
HETATM    6  C   UNL     1     -41.056 -54.256  14.401  1.00  0.00     0.033 C 
HETATM    7  C   UNL     1     -41.394 -53.996  12.933  1.00  0.00     0.038 C 
HETATM    8  C   UNL     1     -42.812 -53.427  12.946  1.00  0.00     0.273 C 
HETATM    9  N   UNL     1     -43.262 -53.396  14.348  1.00  0.00     0.093 N 
HETATM   10  C   UNL     1     -42.018 -53.325  15.134  1.00  0.00     0.279 C 
BRANCH   9  11
HETATM   11  C   UNL     1     -44.099 -54.553  14.723  1.00  0.00     0.223 A 
HETATM   12  C   UNL     1     -45.188 -55.045  13.807  1.00  0.00     0.038 A 
HETATM   13  C   UNL     1     -45.546 -54.293  15.053  1.00  0.00     0.038 A 
ENDBRANCH   9  11
ENDBRANCH   5   6
ENDBRANCH   3   5
BRANCH   2  14
HETATM   14  C   UNL     1     -38.000 -50.654  13.911  1.00  0.00     0.249 C 
BRANCH  14  15
HETATM   15  N   UNL     1     -38.784 -50.432  12.724  1.00  0.00    -0.264 N 
HETATM   16  C   UNL     1     -38.382 -50.015  11.496  1.00  0.00     0.213 A 
HETATM   17  N   UNL     1     -39.448 -49.843  10.747  1.00  0.00    -0.281 N 
HETATM   18  N   UNL     1     -40.521 -50.160  11.545  1.00  0.00    -0.008 NA
ATOM     19  HN  UNL     1     -39.473 -49.537   9.774  1.00  0.00     0.184 HD
HETATM   20  N   UNL     1     -40.125 -50.516  12.760  1.00  0.00    -0.005 NA
ENDBRANCH  14  15
ENDBRANCH   2  14
TORSDOF 5
ENDMDL
MODEL 8
REMARK VINA RESULT:      -4.8      2.388      6.680
REMARK  5 active torsions:
REMARK  status: ('A' for Active; 'I' for Inactive)
REMARK    1  A    between atoms: C_2  and  C_3 
REMARK       I    between atoms: C_2  and  N_10 
REMARK    2  A    between atoms: C_3  and  N_4 
REMARK    3  A    between atoms: N_10  and  C_11 
REMARK    4  A    between atoms: C_11  and  C_12 
REMARK    5  A    between atoms: N_15  and  C_17 
ROOT
HETATM    1  O   UNL     1     -43.889 -55.140  15.609  1.00  0.00    -0.272 OA
HETATM    2  C   UNL     1     -43.922 -54.784  14.434  1.00  0.00     0.237 C 
HETATM    3  N   UNL     1     -42.796 -54.415  13.722  1.00  0.00    -0.359 N 
HETATM    4  H   UNL     1     -42.906 -53.969  12.818  1.00  0.00     0.162 HD
ENDROOT
BRANCH   3   5
HETATM    5  C   UNL     1     -41.483 -54.334  14.345  1.00  0.00     0.129 C 
BRANCH   5   6
HETATM    6  C   UNL     1     -40.608 -53.271  13.695  1.00  0.00     0.033 C 
HETATM    7  C   UNL     1     -39.185 -53.183  14.246  1.00  0.00     0.038 C 
HETATM    8  C   UNL     1     -38.830 -51.698  14.199  1.00  0.00     0.273 C 
HETATM    9  N   UNL     1     -39.984 -50.987  13.623  1.00  0.00     0.093 N 
HETATM   10  C   UNL     1     -41.137 -51.856  13.915  1.00  0.00     0.279 C 
BRANCH   9  11
HETATM   11  C   UNL     1     -39.842 -50.707  12.180  1.00  0.00     0.223 A 
HETATM   12  C   UNL     1     -38.638 -49.973  11.654  1.00  0.00     0.038 A 
HETATM   13  C   UNL     1     -39.961 -49.273  11.730  1.00  0.00     0.038 A 
ENDBRANCH   9  11
ENDBRANCH   5   6
ENDBRANCH   3   5
BRANCH   2  14
HETATM   14  C   UNL     1     -45.214 -54.760  13.650  1.00  0.00     0.249 C 
BRANCH  14  15
HETATM   15  N   UNL     1     -45.704 -53.416  13.485  1.00  0.00    -0.264 N 
HETATM   16  C   UNL     1     -46.188 -52.560  14.421  1.00  0.00     0.213 A 
HETATM   17  N   UNL     1     -46.627 -51.483  13.810  1.00  0.00    -0.281 N 
HETATM   18  N   UNL     1     -46.405 -51.697  12.470  1.00  0.00    -0.008 NA
ATOM     19  HN  UNL     1     -47.044 -50.658  14.240  1.00  0.00     0.184 HD
HETATM   20  N   UNL     1     -45.847 -52.882  12.261  1.00  0.00    -0.005 NA
ENDBRANCH  14  15
ENDBRANCH   2  14
TORSDOF 5
ENDMDL
MODEL 9
REMARK VINA RESULT:      -4.7      2.405      3.934
REMARK  5 active torsions:
REMARK  status: ('A' for Active; 'I' for Inactive)
REMARK    1  A    between atoms: C_2  and  C_3 
REMARK       I    between atoms: C_2  and  N_10 
REMARK    2  A    between atoms: C_3  and  N_4 
REMARK    3  A    between atoms: N_10  and  C_11 
REMARK    4  A    between atoms: C_11  and  C_12 
REMARK    5  A    between atoms: N_15  and  C_17 
ROOT
HETATM    1  O   UNL     1     -42.570 -50.134  12.970  1.00  0.00    -0.272 OA
HETATM    2  C   UNL     1     -41.878 -50.792  12.199  1.00  0.00     0.237 C 
HETATM    3  N   UNL     1     -42.104 -52.130  11.931  1.00  0.00    -0.359 N 
HETATM    4  H   UNL     1     -41.402 -52.658  11.425  1.00  0.00     0.162 HD
ENDROOT
BRANCH   3   5
HETATM    5  C   UNL     1     -43.135 -52.890  12.622  1.00  0.00     0.129 C 
BRANCH   5   6
HETATM    6  C   UNL     1     -42.547 -53.841  13.655  1.00  0.00     0.033 C 
HETATM    7  C   UNL     1     -43.566 -54.738  14.357  1.00  0.00     0.038 C 
HETATM    8  C   UNL     1     -43.050 -54.883  15.788  1.00  0.00     0.273 C 
HETATM    9  N   UNL     1     -41.788 -54.129  15.880  1.00  0.00     0.093 N 
HETATM   10  C   UNL     1     -41.889 -53.109  14.822  1.00  0.00     0.279 C 
BRANCH   9  11
HETATM   11  C   UNL     1     -40.586 -54.974  15.735  1.00  0.00     0.223 A 
HETATM   12  C   UNL     1     -40.351 -56.142  16.655  1.00  0.00     0.038 A 
HETATM   13  C   UNL     1     -39.538 -54.893  16.816  1.00  0.00     0.038 A 
ENDBRANCH   9  11
ENDBRANCH   5   6
ENDBRANCH   3   5
BRANCH   2  14
HETATM   14  C   UNL     1     -40.731 -50.169  11.437  1.00  0.00     0.249 C 
BRANCH  14  15
HETATM   15  N   UNL     1     -39.460 -50.553  11.994  1.00  0.00    -0.264 N 
HETATM   16  C   UNL     1     -38.247 -49.962  11.846  1.00  0.00     0.213 A 
HETATM   17  N   UNL     1     -37.346 -50.714  12.439  1.00  0.00    -0.281 N 
HETATM   18  N   UNL     1     -38.034 -51.787  12.953  1.00  0.00    -0.008 NA
ATOM     19  HN  UNL     1     -36.344 -50.536  12.504  1.00  0.00     0.184 HD
HETATM   20  N   UNL     1     -39.328 -51.701  12.680  1.00  0.00    -0.005 NA
ENDBRANCH  14  15
ENDBRANCH   2  14
TORSDOF 5
ENDMDL
