MODEL 1
REMARK VINA RESULT:      -5.7      0.000      0.000
REMARK  8 active torsions:
REMARK  status: ('A' for Active; 'I' for Inactive)
REMARK    1  A    between atoms: O_2  and  C_3 
REMARK    2  A    between atoms: C_3  and  C_4 
REMARK    3  A    between atoms: C_4  and  O_5 
REMARK    4  A    between atoms: O_5  and  C_6 
REMARK    5  A    between atoms: C_11  and  C_14 
REMARK       I    between atoms: C_14  and  N_16 
REMARK    6  A    between atoms: N_19  and  C_20 
REMARK    7  A    between atoms: C_20  and  C_21 
REMARK    8  A    between atoms: C_21  and  O_22 
ROOT
HETATM    1  C   UNL     1     -44.262 -54.253  13.458  1.00  0.00     0.142 A 
HETATM    2  C   UNL     1     -43.819 -54.956  14.561  1.00  0.00     0.058 A 
HETATM    3  C   UNL     1     -42.478 -54.842  14.920  1.00  0.00     0.030 A 
HETATM    4  C   UNL     1     -41.634 -53.992  14.200  1.00  0.00     0.066 A 
HETATM    5 CL   UNL     1     -40.009 -53.844  14.753  1.00  0.00    -0.082 Cl
HETATM    6  C   UNL     1     -42.177 -53.292  13.120  1.00  0.00     0.124 A 
HETATM    7  N   UNL     1     -43.473 -53.449  12.720  1.00  0.00    -0.331 N 
ATOM      8  HN  UNL     1     -43.831 -52.974  11.891  1.00  0.00     0.168 HD
ENDROOT
BRANCH   6   9
HETATM    9  C   UNL     1     -41.365 -52.327  12.302  1.00  0.00     0.272 C 
HETATM   10  O   UNL     1     -40.465 -52.775  11.589  1.00  0.00    -0.266 OA
HETATM   11  N   UNL     1     -41.630 -50.940  12.351  1.00  0.00    -0.343 N 
HETATM   12  C   UNL     1     -40.927 -50.095  11.383  1.00  0.00     0.156 C 
HETATM   13  C   UNL     1     -42.840 -50.355  12.945  1.00  0.00     0.156 C 
HETATM   14  C   UNL     1     -40.870 -48.604  11.786  1.00  0.00     0.292 C 
HETATM   15  N   UNL     1     -42.164 -48.013  12.211  1.00  0.00     0.093 N 
HETATM   16  C   UNL     1     -42.698 -48.863  13.294  1.00  0.00     0.292 C 
BRANCH  15  17
HETATM   17  C   UNL     1     -43.078 -47.876  11.054  1.00  0.00     0.298 C 
BRANCH  17  18
HETATM   18  C   UNL     1     -42.429 -47.234   9.816  1.00  0.00     0.194 C 
BRANCH  18  19
HETATM   19  O   UNL     1     -42.667 -48.023   8.655  1.00  0.00    -0.399 OA
HETATM   20  H   UNL     1     -41.786 -48.350   8.381  1.00  0.00     0.209 HD
ENDBRANCH  18  19
ENDBRANCH  17  18
ENDBRANCH  15  17
ENDBRANCH   6   9
BRANCH   1  21
HETATM   21  O   UNL     1     -45.603 -54.354  13.155  1.00  0.00    -0.334 OA
BRANCH  21  22
HETATM   22  C   UNL     1     -46.413 -53.422  13.883  1.00  0.00     0.203 C 
BRANCH  22  23
HETATM   23  C   UNL     1     -46.511 -52.119  13.096  1.00  0.00     0.193 C 
BRANCH  23  24
HETATM   24  O   UNL     1     -46.466 -52.410  11.694  1.00  0.00    -0.394 OA
HETATM   25  C   UNL     1     -47.451 -51.679  10.977  1.00  0.00     0.201 C 
ENDBRANCH  23  24
ENDBRANCH  22  23
ENDBRANCH  21  22
ENDBRANCH   1  21
TORSDOF 8
ENDMDL
MODEL 2
REMARK VINA RESULT:      -5.5      2.217      6.088
REMARK  8 active torsions:
REMARK  status: ('A' for Active; 'I' for Inactive)
REMARK    1  A    between atoms: O_2  and  C_3 
REMARK    2  A    between atoms: C_3  and  C_4 
REMARK    3  A    between atoms: C_4  and  O_5 
REMARK    4  A    between atoms: O_5  and  C_6 
REMARK    5  A    between atoms: C_11  and  C_14 
REMARK       I    between atoms: C_14  and  N_16 
REMARK    6  A    between atoms: N_19  and  C_20 
REMARK    7  A    between atoms: C_20  and  C_21 
REMARK    8  A    between atoms: C_21  and  O_22 
ROOT
HETATM    1  C   UNL     1     -41.066 -48.491  11.097  1.00  0.00     0.142 A 
HETATM    2  C   UNL     1     -39.909 -48.104  11.743  1.00  0.00     0.058 A 
HETATM    3  C   UNL     1     -39.311 -49.004  12.621  1.00  0.00     0.030 A 
HETATM    4  C   UNL     1     -39.858 -50.280  12.790  1.00  0.00     0.066 A 
HETATM    5 CL   UNL     1     -39.017 -51.364  13.833  1.00  0.00    -0.082 Cl
HETATM    6  C   UNL     1     -41.010 -50.598  12.068  1.00  0.00     0.124 A 
HETATM    7  N   UNL     1     -41.641 -49.699  11.257  1.00  0.00    -0.331 N 
ATOM      8  HN  UNL     1     -42.516 -49.933  10.788  1.00  0.00     0.168 HD
ENDROOT
BRANCH   6   9
HETATM    9  C   UNL     1     -41.658 -51.952  12.151  1.00  0.00     0.272 C 
HETATM   10  O   UNL     1     -41.015 -52.934  11.776  1.00  0.00    -0.266 OA
HETATM   11  N   UNL     1     -42.973 -52.093  12.649  1.00  0.00    -0.343 N 
HETATM   12  C   UNL     1     -43.454 -53.458  12.877  1.00  0.00     0.156 C 
HETATM   13  C   UNL     1     -43.698 -51.034  13.365  1.00  0.00     0.156 C 
HETATM   14  C   UNL     1     -44.994 -53.571  12.940  1.00  0.00     0.292 C 
HETATM   15  N   UNL     1     -45.666 -52.584  13.823  1.00  0.00     0.093 N 
HETATM   16  C   UNL     1     -45.223 -51.242  13.395  1.00  0.00     0.292 C 
BRANCH  15  17
HETATM   17  C   UNL     1     -45.382 -52.880  15.246  1.00  0.00     0.298 C 
BRANCH  17  18
HETATM   18  C   UNL     1     -46.021 -54.185  15.752  1.00  0.00     0.194 C 
BRANCH  18  19
HETATM   19  O   UNL     1     -45.500 -54.539  17.030  1.00  0.00    -0.399 OA
HETATM   20  H   UNL     1     -44.790 -55.186  16.847  1.00  0.00     0.209 HD
ENDBRANCH  18  19
ENDBRANCH  17  18
ENDBRANCH  15  17
ENDBRANCH   6   9
BRANCH   1  21
HETATM   21  O   UNL     1     -41.609 -47.593  10.202  1.00  0.00    -0.334 OA
BRANCH  21  22
HETATM   22  C   UNL     1     -43.042 -47.625  10.178  1.00  0.00     0.203 C 
BRANCH  22  23
HETATM   23  C   UNL     1     -43.523 -47.492   8.737  1.00  0.00     0.193 C 
BRANCH  23  24
HETATM   24  O   UNL     1     -44.720 -46.706   8.710  1.00  0.00    -0.394 OA
HETATM   25  C   UNL     1     -45.858 -47.473   9.077  1.00  0.00     0.201 C 
ENDBRANCH  23  24
ENDBRANCH  22  23
ENDBRANCH  21  22
ENDBRANCH   1  21
TORSDOF 8
ENDMDL
MODEL 3
REMARK VINA RESULT:      -5.5      3.697      5.482
REMARK  8 active torsions:
REMARK  status: ('A' for Active; 'I' for Inactive)
REMARK    1  A    between atoms: O_2  and  C_3 
REMARK    2  A    between atoms: C_3  and  C_4 
REMARK    3  A    between atoms: C_4  and  O_5 
REMARK    4  A    between atoms: O_5  and  C_6 
REMARK    5  A    between atoms: C_11  and  C_14 
REMARK       I    between atoms: C_14  and  N_16 
REMARK    6  A    between atoms: N_19  and  C_20 
REMARK    7  A    between atoms: C_20  and  C_21 
REMARK    8  A    between atoms: C_21  and  O_22 
ROOT
HETATM    1  C   UNL     1     -46.355 -52.751  17.377  1.00  0.00     0.142 A 
HETATM    2  C   UNL     1     -47.246 -51.794  16.934  1.00  0.00     0.058 A 
HETATM    3  C   UNL     1     -47.233 -51.455  15.583  1.00  0.00     0.030 A 
HETATM    4  C   UNL     1     -46.366 -52.116  14.708  1.00  0.00     0.066 A 
HETATM    5 CL   UNL     1     -46.464 -51.697  13.039  1.00  0.00    -0.082 Cl
HETATM    6  C   UNL     1     -45.524 -53.096  15.238  1.00  0.00     0.124 A 
HETATM    7  N   UNL     1     -45.483 -53.387  16.571  1.00  0.00    -0.331 N 
ATOM      8  HN  UNL     1     -44.816 -54.063  16.943  1.00  0.00     0.168 HD
ENDROOT
BRANCH   6   9
HETATM    9  C   UNL     1     -44.580 -53.889  14.378  1.00  0.00     0.272 C 
HETATM   10  O   UNL     1     -44.935 -55.002  13.988  1.00  0.00    -0.266 OA
HETATM   11  N   UNL     1     -43.315 -53.366  14.025  1.00  0.00    -0.343 N 
HETATM   12  C   UNL     1     -42.541 -54.114  13.031  1.00  0.00     0.156 C 
HETATM   13  C   UNL     1     -42.927 -51.960  14.208  1.00  0.00     0.156 C 
HETATM   14  C   UNL     1     -41.029 -53.792  13.051  1.00  0.00     0.292 C 
HETATM   15  N   UNL     1     -40.689 -52.347  13.055  1.00  0.00     0.093 N 
HETATM   16  C   UNL     1     -41.404 -51.733  14.192  1.00  0.00     0.292 C 
BRANCH  15  17
HETATM   17  C   UNL     1     -41.011 -51.733  11.747  1.00  0.00     0.298 C 
BRANCH  17  18
HETATM   18  C   UNL     1     -40.534 -50.277  11.606  1.00  0.00     0.194 C 
BRANCH  18  19
HETATM   19  O   UNL     1     -40.433 -49.909  10.234  1.00  0.00    -0.399 OA
HETATM   20  H   UNL     1     -41.314 -49.555   9.997  1.00  0.00     0.209 HD
ENDBRANCH  18  19
ENDBRANCH  17  18
ENDBRANCH  15  17
ENDBRANCH   6   9
BRANCH   1  21
HETATM   21  O   UNL     1     -46.423 -53.094  18.710  1.00  0.00    -0.334 OA
BRANCH  21  22
HETATM   22  C   UNL     1     -45.746 -54.323  19.006  1.00  0.00     0.203 C 
BRANCH  22  23
HETATM   23  C   UNL     1     -46.773 -55.380  19.400  1.00  0.00     0.193 C 
BRANCH  23  24
HETATM   24  O   UNL     1     -46.155 -56.672  19.369  1.00  0.00    -0.394 OA
HETATM   25  C   UNL     1     -46.993 -57.666  19.944  1.00  0.00     0.201 C 
ENDBRANCH  23  24
ENDBRANCH  22  23
ENDBRANCH  21  22
ENDBRANCH   1  21
TORSDOF 8
ENDMDL
MODEL 4
REMARK VINA RESULT:      -5.1      4.053      5.704
REMARK  8 active torsions:
REMARK  status: ('A' for Active; 'I' for Inactive)
REMARK    1  A    between atoms: O_2  and  C_3 
REMARK    2  A    between atoms: C_3  and  C_4 
REMARK    3  A    between atoms: C_4  and  O_5 
REMARK    4  A    between atoms: O_5  and  C_6 
REMARK    5  A    between atoms: C_11  and  C_14 
REMARK       I    between atoms: C_14  and  N_16 
REMARK    6  A    between atoms: N_19  and  C_20 
REMARK    7  A    between atoms: C_20  and  C_21 
REMARK    8  A    between atoms: C_21  and  O_22 
ROOT
HETATM    1  C   UNL     1     -46.566 -52.585  17.357  1.00  0.00     0.142 A 
HETATM    2  C   UNL     1     -47.404 -51.590  16.892  1.00  0.00     0.058 A 
HETATM    3  C   UNL     1     -47.339 -51.252  15.542  1.00  0.00     0.030 A 
HETATM    4  C   UNL     1     -46.478 -51.950  14.690  1.00  0.00     0.066 A 
HETATM    5 CL   UNL     1     -46.511 -51.526  13.020  1.00  0.00    -0.082 Cl
HETATM    6  C   UNL     1     -45.693 -52.964  15.242  1.00  0.00     0.124 A 
HETATM    7  N   UNL     1     -45.700 -53.257  16.575  1.00  0.00    -0.331 N 
ATOM      8  HN  UNL     1     -45.073 -53.960  16.965  1.00  0.00     0.168 HD
ENDROOT
BRANCH   6   9
HETATM    9  C   UNL     1     -44.760 -53.796  14.407  1.00  0.00     0.272 C 
HETATM   10  O   UNL     1     -45.185 -54.845  13.920  1.00  0.00    -0.266 OA
HETATM   11  N   UNL     1     -43.426 -53.382  14.186  1.00  0.00    -0.343 N 
HETATM   12  C   UNL     1     -42.647 -54.146  13.208  1.00  0.00     0.156 C 
HETATM   13  C   UNL     1     -42.924 -52.035  14.488  1.00  0.00     0.156 C 
HETATM   14  C   UNL     1     -41.119 -53.977  13.365  1.00  0.00     0.292 C 
HETATM   15  N   UNL     1     -40.646 -52.576  13.488  1.00  0.00     0.093 N 
HETATM   16  C   UNL     1     -41.391 -51.959  14.604  1.00  0.00     0.292 C 
BRANCH  15  17
HETATM   17  C   UNL     1     -40.799 -51.859  12.201  1.00  0.00     0.298 C 
BRANCH  17  18
HETATM   18  C   UNL     1     -39.820 -50.686  12.019  1.00  0.00     0.194 C 
BRANCH  18  19
HETATM   19  O   UNL     1     -38.486 -51.160  11.872  1.00  0.00    -0.399 OA
HETATM   20  H   UNL     1     -38.392 -51.375  10.922  1.00  0.00     0.209 HD
ENDBRANCH  18  19
ENDBRANCH  17  18
ENDBRANCH  15  17
ENDBRANCH   6   9
BRANCH   1  21
HETATM   21  O   UNL     1     -46.685 -52.924  18.688  1.00  0.00    -0.334 OA
BRANCH  21  22
HETATM   22  C   UNL     1     -47.570 -52.057  19.409  1.00  0.00     0.203 C 
BRANCH  22  23
HETATM   23  C   UNL     1     -48.649 -52.893  20.091  1.00  0.00     0.193 C 
BRANCH  23  24
HETATM   24  O   UNL     1     -49.927 -52.552  19.543  1.00  0.00    -0.394 OA
HETATM   25  C   UNL     1     -50.941 -52.561  20.538  1.00  0.00     0.201 C 
ENDBRANCH  23  24
ENDBRANCH  22  23
ENDBRANCH  21  22
ENDBRANCH   1  21
TORSDOF 8
ENDMDL
MODEL 5
REMARK VINA RESULT:      -5.1      2.792      6.333
REMARK  8 active torsions:
REMARK  status: ('A' for Active; 'I' for Inactive)
REMARK    1  A    between atoms: O_2  and  C_3 
REMARK    2  A    between atoms: C_3  and  C_4 
REMARK    3  A    between atoms: C_4  and  O_5 
REMARK    4  A    between atoms: O_5  and  C_6 
REMARK    5  A    between atoms: C_11  and  C_14 
REMARK       I    between atoms: C_14  and  N_16 
REMARK    6  A    between atoms: N_19  and  C_20 
REMARK    7  A    between atoms: C_20  and  C_21 
REMARK    8  A    between atoms: C_21  and  O_22 
ROOT
HETATM    1  C   UNL     1     -41.044 -51.046  11.936  1.00  0.00     0.142 A 
HETATM    2  C   UNL     1     -40.017 -51.773  12.504  1.00  0.00     0.058 A 
HETATM    3  C   UNL     1     -40.345 -52.839  13.337  1.00  0.00     0.030 A 
HETATM    4  C   UNL     1     -41.687 -53.177  13.539  1.00  0.00     0.066 A 
HETATM    5 CL   UNL     1     -42.011 -54.557  14.520  1.00  0.00    -0.082 Cl
HETATM    6  C   UNL     1     -42.659 -52.408  12.897  1.00  0.00     0.124 A 
HETATM    7  N   UNL     1     -42.349 -51.320  12.132  1.00  0.00    -0.331 N 
ATOM      8  HN  UNL     1     -43.078 -50.736  11.724  1.00  0.00     0.168 HD
ENDROOT
BRANCH   6   9
HETATM    9  C   UNL     1     -44.127 -52.708  13.020  1.00  0.00     0.272 C 
HETATM   10  O   UNL     1     -44.657 -53.411  12.158  1.00  0.00    -0.266 OA
HETATM   11  N   UNL     1     -44.879 -52.195  14.102  1.00  0.00    -0.343 N 
HETATM   12  C   UNL     1     -46.249 -52.692  14.252  1.00  0.00     0.156 C 
HETATM   13  C   UNL     1     -44.285 -51.593  15.303  1.00  0.00     0.156 C 
HETATM   14  C   UNL     1     -47.153 -51.773  15.105  1.00  0.00     0.292 C 
HETATM   15  N   UNL     1     -46.569 -51.336  16.398  1.00  0.00     0.093 N 
HETATM   16  C   UNL     1     -45.264 -50.712  16.100  1.00  0.00     0.292 C 
BRANCH  15  17
HETATM   17  C   UNL     1     -46.486 -52.472  17.343  1.00  0.00     0.298 C 
BRANCH  17  18
HETATM   18  C   UNL     1     -47.309 -52.279  18.628  1.00  0.00     0.194 C 
BRANCH  18  19
HETATM   19  O   UNL     1     -48.571 -51.688  18.335  1.00  0.00    -0.399 OA
HETATM   20  H   UNL     1     -49.220 -52.415  18.416  1.00  0.00     0.209 HD
ENDBRANCH  18  19
ENDBRANCH  17  18
ENDBRANCH  15  17
ENDBRANCH   6   9
BRANCH   1  21
HETATM   21  O   UNL     1     -40.685 -50.024  11.083  1.00  0.00    -0.334 OA
BRANCH  21  22
HETATM   22  C   UNL     1     -41.164 -48.743  11.513  1.00  0.00     0.203 C 
BRANCH  22  23
HETATM   23  C   UNL     1     -41.900 -48.069  10.359  1.00  0.00     0.193 C 
BRANCH  23  24
HETATM   24  O   UNL     1     -41.576 -46.674  10.344  1.00  0.00    -0.394 OA
HETATM   25  C   UNL     1     -40.294 -46.429  10.907  1.00  0.00     0.201 C 
ENDBRANCH  23  24
ENDBRANCH  22  23
ENDBRANCH  21  22
ENDBRANCH   1  21
TORSDOF 8
ENDMDL
MODEL 6
REMARK VINA RESULT:      -5.1      3.664      5.873
REMARK  8 active torsions:
REMARK  status: ('A' for Active; 'I' for Inactive)
REMARK    1  A    between atoms: O_2  and  C_3 
REMARK    2  A    between atoms: C_3  and  C_4 
REMARK    3  A    between atoms: C_4  and  O_5 
REMARK    4  A    between atoms: O_5  and  C_6 
REMARK    5  A    between atoms: C_11  and  C_14 
REMARK       I    between atoms: C_14  and  N_16 
REMARK    6  A    between atoms: N_19  and  C_20 
REMARK    7  A    between atoms: C_20  and  C_21 
REMARK    8  A    between atoms: C_21  and  O_22 
ROOT
HETATM    1  C   UNL     1     -45.736 -50.772  16.743  1.00  0.00     0.142 A 
HETATM    2  C   UNL     1     -46.965 -51.304  16.404  1.00  0.00     0.058 A 
HETATM    3  C   UNL     1     -47.206 -51.605  15.066  1.00  0.00     0.030 A 
HETATM    4  C   UNL     1     -46.199 -51.413  14.116  1.00  0.00     0.066 A 
HETATM    5 CL   UNL     1     -46.547 -51.882  12.494  1.00  0.00    -0.082 Cl
HETATM    6  C   UNL     1     -44.975 -50.903  14.555  1.00  0.00     0.124 A 
HETATM    7  N   UNL     1     -44.752 -50.543  15.853  1.00  0.00    -0.331 N 
ATOM      8  HN  UNL     1     -43.871 -50.115  16.138  1.00  0.00     0.168 HD
ENDROOT
BRANCH   6   9
HETATM    9  C   UNL     1     -43.816 -50.692  13.621  1.00  0.00     0.272 C 
HETATM   10  O   UNL     1     -43.693 -49.593  13.077  1.00  0.00    -0.266 OA
HETATM   11  N   UNL     1     -42.889 -51.731  13.377  1.00  0.00    -0.343 N 
HETATM   12  C   UNL     1     -41.688 -51.383  12.612  1.00  0.00     0.156 C 
HETATM   13  C   UNL     1     -42.799 -52.958  14.180  1.00  0.00     0.156 C 
HETATM   14  C   UNL     1     -40.987 -52.601  11.971  1.00  0.00     0.292 C 
HETATM   15  N   UNL     1     -40.759 -53.752  12.880  1.00  0.00     0.093 N 
HETATM   16  C   UNL     1     -42.066 -54.109  13.469  1.00  0.00     0.292 C 
BRANCH  15  17
HETATM   17  C   UNL     1     -39.722 -53.426  13.884  1.00  0.00     0.298 C 
BRANCH  17  18
HETATM   18  C   UNL     1     -39.037 -54.659  14.499  1.00  0.00     0.194 C 
BRANCH  18  19
HETATM   19  O   UNL     1     -38.700 -55.605  13.490  1.00  0.00    -0.399 OA
HETATM   20  H   UNL     1     -38.126 -56.261  13.934  1.00  0.00     0.209 HD
ENDBRANCH  18  19
ENDBRANCH  17  18
ENDBRANCH  15  17
ENDBRANCH   6   9
BRANCH   1  21
HETATM   21  O   UNL     1     -45.514 -50.526  18.081  1.00  0.00    -0.334 OA
BRANCH  21  22
HETATM   22  C   UNL     1     -44.202 -50.912  18.510  1.00  0.00     0.203 C 
BRANCH  22  23
HETATM   23  C   UNL     1     -44.132 -52.433  18.605  1.00  0.00     0.193 C 
BRANCH  23  24
HETATM   24  O   UNL     1     -43.064 -52.909  17.779  1.00  0.00    -0.394 OA
HETATM   25  C   UNL     1     -42.015 -51.955  17.680  1.00  0.00     0.201 C 
ENDBRANCH  23  24
ENDBRANCH  22  23
ENDBRANCH  21  22
ENDBRANCH   1  21
TORSDOF 8
ENDMDL
MODEL 7
REMARK VINA RESULT:      -5.1      4.217      6.087
REMARK  8 active torsions:
REMARK  status: ('A' for Active; 'I' for Inactive)
REMARK    1  A    between atoms: O_2  and  C_3 
REMARK    2  A    between atoms: C_3  and  C_4 
REMARK    3  A    between atoms: C_4  and  O_5 
REMARK    4  A    between atoms: O_5  and  C_6 
REMARK    5  A    between atoms: C_11  and  C_14 
REMARK       I    between atoms: C_14  and  N_16 
REMARK    6  A    between atoms: N_19  and  C_20 
REMARK    7  A    between atoms: C_20  and  C_21 
REMARK    8  A    between atoms: C_21  and  O_22 
ROOT
HETATM    1  C   UNL     1     -45.738 -50.771  16.746  1.00  0.00     0.142 A 
HETATM    2  C   UNL     1     -46.955 -51.299  16.362  1.00  0.00     0.058 A 
HETATM    3  C   UNL     1     -47.139 -51.621  15.019  1.00  0.00     0.030 A 
HETATM    4  C   UNL     1     -46.089 -51.452  14.112  1.00  0.00     0.066 A 
HETATM    5 CL   UNL     1     -46.369 -51.946  12.485  1.00  0.00    -0.082 Cl
HETATM    6  C   UNL     1     -44.882 -50.945  14.596  1.00  0.00     0.124 A 
HETATM    7  N   UNL     1     -44.713 -50.564  15.897  1.00  0.00    -0.331 N 
ATOM      8  HN  UNL     1     -43.842 -50.138  16.214  1.00  0.00     0.168 HD
ENDROOT
BRANCH   6   9
HETATM    9  C   UNL     1     -43.681 -50.758  13.712  1.00  0.00     0.272 C 
HETATM   10  O   UNL     1     -43.494 -49.653  13.200  1.00  0.00    -0.266 OA
HETATM   11  N   UNL     1     -42.787 -51.828  13.476  1.00  0.00    -0.343 N 
HETATM   12  C   UNL     1     -41.545 -51.511  12.765  1.00  0.00     0.156 C 
HETATM   13  C   UNL     1     -42.776 -53.076  14.251  1.00  0.00     0.156 C 
HETATM   14  C   UNL     1     -40.868 -52.740  12.120  1.00  0.00     0.292 C 
HETATM   15  N   UNL     1     -40.721 -53.921  13.008  1.00  0.00     0.093 N 
HETATM   16  C   UNL     1     -42.062 -54.239  13.539  1.00  0.00     0.292 C 
BRANCH  15  17
HETATM   17  C   UNL     1     -39.710 -53.660  14.058  1.00  0.00     0.298 C 
BRANCH  17  18
HETATM   18  C   UNL     1     -39.536 -54.815  15.059  1.00  0.00     0.194 C 
BRANCH  18  19
HETATM   19  O   UNL     1     -38.433 -55.638  14.694  1.00  0.00    -0.399 OA
HETATM   20  H   UNL     1     -38.827 -56.493  14.427  1.00  0.00     0.209 HD
ENDBRANCH  18  19
ENDBRANCH  17  18
ENDBRANCH  15  17
ENDBRANCH   6   9
BRANCH   1  21
HETATM   21  O   UNL     1     -45.573 -50.503  18.088  1.00  0.00    -0.334 OA
BRANCH  21  22
HETATM   22  C   UNL     1     -46.384 -51.336  18.928  1.00  0.00     0.203 C 
BRANCH  22  23
HETATM   23  C   UNL     1     -47.150 -50.460  19.915  1.00  0.00     0.193 C 
BRANCH  23  24
HETATM   24  O   UNL     1     -48.315 -49.931  19.271  1.00  0.00    -0.394 OA
HETATM   25  C   UNL     1     -48.342 -48.512  19.325  1.00  0.00     0.201 C 
ENDBRANCH  23  24
ENDBRANCH  22  23
ENDBRANCH  21  22
ENDBRANCH   1  21
TORSDOF 8
ENDMDL
MODEL 8
REMARK VINA RESULT:      -5.0      2.269      6.366
REMARK  8 active torsions:
REMARK  status: ('A' for Active; 'I' for Inactive)
REMARK    1  A    between atoms: O_2  and  C_3 
REMARK    2  A    between atoms: C_3  and  C_4 
REMARK    3  A    between atoms: C_4  and  O_5 
REMARK    4  A    between atoms: O_5  and  C_6 
REMARK    5  A    between atoms: C_11  and  C_14 
REMARK       I    between atoms: C_14  and  N_16 
REMARK    6  A    between atoms: N_19  and  C_20 
REMARK    7  A    between atoms: C_20  and  C_21 
REMARK    8  A    between atoms: C_21  and  O_22 
ROOT
HETATM    1  C   UNL     1     -39.809 -48.562  12.977  1.00  0.00     0.142 A 
HETATM    2  C   UNL     1     -38.743 -48.854  13.805  1.00  0.00     0.058 A 
HETATM    3  C   UNL     1     -38.586 -50.168  14.239  1.00  0.00     0.030 A 
HETATM    4  C   UNL     1     -39.468 -51.158  13.795  1.00  0.00     0.066 A 
HETATM    5 CL   UNL     1     -39.163 -52.773  14.314  1.00  0.00    -0.082 Cl
HETATM    6  C   UNL     1     -40.497 -50.778  12.932  1.00  0.00     0.124 A 
HETATM    7  N   UNL     1     -40.698 -49.481  12.554  1.00  0.00    -0.331 N 
ATOM      8  HN  UNL     1     -41.493 -49.218  11.972  1.00  0.00     0.168 HD
ENDROOT
BRANCH   6   9
HETATM    9  C   UNL     1     -41.477 -51.769  12.369  1.00  0.00     0.272 C 
HETATM   10  O   UNL     1     -41.103 -52.517  11.464  1.00  0.00    -0.266 OA
HETATM   11  N   UNL     1     -42.797 -51.841  12.871  1.00  0.00    -0.343 N 
HETATM   12  C   UNL     1     -43.624 -52.958  12.407  1.00  0.00     0.156 C 
HETATM   13  C   UNL     1     -43.240 -51.195  14.114  1.00  0.00     0.156 C 
HETATM   14  C   UNL     1     -45.141 -52.722  12.581  1.00  0.00     0.292 C 
HETATM   15  N   UNL     1     -45.556 -52.236  13.921  1.00  0.00     0.093 N 
HETATM   16  C   UNL     1     -44.767 -51.021  14.209  1.00  0.00     0.292 C 
BRANCH  15  17
HETATM   17  C   UNL     1     -45.398 -53.304  14.934  1.00  0.00     0.298 C 
BRANCH  17  18
HETATM   18  C   UNL     1     -46.232 -54.565  14.649  1.00  0.00     0.194 C 
BRANCH  18  19
HETATM   19  O   UNL     1     -45.406 -55.616  14.159  1.00  0.00    -0.399 OA
HETATM   20  H   UNL     1     -44.556 -55.518  14.633  1.00  0.00     0.209 HD
ENDBRANCH  18  19
ENDBRANCH  17  18
ENDBRANCH  15  17
ENDBRANCH   6   9
BRANCH   1  21
HETATM   21  O   UNL     1     -39.911 -47.262  12.531  1.00  0.00    -0.334 OA
BRANCH  21  22
HETATM   22  C   UNL     1     -40.424 -47.167  11.196  1.00  0.00     0.203 C 
BRANCH  22  23
HETATM   23  C   UNL     1     -40.046 -45.812  10.607  1.00  0.00     0.193 C 
BRANCH  23  24
HETATM   24  O   UNL     1     -41.229 -45.154  10.140  1.00  0.00    -0.394 OA
HETATM   25  C   UNL     1     -42.326 -46.053  10.052  1.00  0.00     0.201 C 
ENDBRANCH  23  24
ENDBRANCH  22  23
ENDBRANCH  21  22
ENDBRANCH   1  21
TORSDOF 8
ENDMDL
MODEL 9
REMARK VINA RESULT:      -5.0      4.486      6.823
REMARK  8 active torsions:
REMARK  status: ('A' for Active; 'I' for Inactive)
REMARK    1  A    between atoms: O_2  and  C_3 
REMARK    2  A    between atoms: C_3  and  C_4 
REMARK    3  A    between atoms: C_4  and  O_5 
REMARK    4  A    between atoms: O_5  and  C_6 
REMARK    5  A    between atoms: C_11  and  C_14 
REMARK       I    between atoms: C_14  and  N_16 
REMARK    6  A    between atoms: N_19  and  C_20 
REMARK    7  A    between atoms: C_20  and  C_21 
REMARK    8  A    between atoms: C_21  and  O_22 
ROOT
HETATM    1  C   UNL     1     -47.347 -52.365  18.541  1.00  0.00     0.142 A 
HETATM    2  C   UNL     1     -47.958 -51.238  18.028  1.00  0.00     0.058 A 
HETATM    3  C   UNL     1     -47.748 -50.928  16.686  1.00  0.00     0.030 A 
HETATM    4  C   UNL     1     -46.977 -51.778  15.887  1.00  0.00     0.066 A 
HETATM    5 CL   UNL     1     -46.828 -51.369  14.220  1.00  0.00    -0.082 Cl
HETATM    6  C   UNL     1     -46.427 -52.914  16.483  1.00  0.00     0.124 A 
HETATM    7  N   UNL     1     -46.572 -53.191  17.813  1.00  0.00    -0.331 N 
ATOM      8  HN  UNL     1     -46.109 -53.994  18.239  1.00  0.00     0.168 HD
ENDROOT
BRANCH   6   9
HETATM    9  C   UNL     1     -45.612 -53.910  15.706  1.00  0.00     0.272 C 
HETATM   10  O   UNL     1     -46.203 -54.785  15.071  1.00  0.00    -0.266 OA
HETATM   11  N   UNL     1     -44.200 -53.840  15.704  1.00  0.00    -0.343 N 
HETATM   12  C   UNL     1     -43.494 -54.722  14.771  1.00  0.00     0.156 C 
HETATM   13  C   UNL     1     -43.434 -52.687  16.194  1.00  0.00     0.156 C 
HETATM   14  C   UNL     1     -42.013 -54.961  15.143  1.00  0.00     0.292 C 
HETATM   15  N   UNL     1     -41.234 -53.737  15.458  1.00  0.00     0.093 N 
HETATM   16  C   UNL     1     -41.965 -53.014  16.519  1.00  0.00     0.292 C 
BRANCH  15  17
HETATM   17  C   UNL     1     -41.009 -52.934  14.235  1.00  0.00     0.298 C 
BRANCH  17  18
HETATM   18  C   UNL     1     -39.988 -53.549  13.262  1.00  0.00     0.194 C 
BRANCH  18  19
HETATM   19  O   UNL     1     -40.595 -53.832  12.006  1.00  0.00    -0.399 OA
HETATM   20  H   UNL     1     -40.548 -54.804  11.910  1.00  0.00     0.209 HD
ENDBRANCH  18  19
ENDBRANCH  17  18
ENDBRANCH  15  17
ENDBRANCH   6   9
BRANCH   1  21
HETATM   21  O   UNL     1     -47.610 -52.666  19.861  1.00  0.00    -0.334 OA
BRANCH  21  22
HETATM   22  C   UNL     1     -47.163 -53.977  20.234  1.00  0.00     0.203 C 
BRANCH  22  23
HETATM   23  C   UNL     1     -48.375 -54.863  20.502  1.00  0.00     0.193 C 
BRANCH  23  24
HETATM   24  O   UNL     1     -48.326 -56.004  19.638  1.00  0.00    -0.394 OA
HETATM   25  C   UNL     1     -47.564 -57.059  20.209  1.00  0.00     0.201 C 
ENDBRANCH  23  24
ENDBRANCH  22  23
ENDBRANCH  21  22
ENDBRANCH   1  21
TORSDOF 8
ENDMDL
