MODEL 1
REMARK VINA RESULT:      -6.4      0.000      0.000
REMARK  7 active torsions:
REMARK  status: ('A' for Active; 'I' for Inactive)
REMARK       I    between atoms: C_2  and  N_4 
REMARK    1  A    between atoms: N_4  and  C_5 
REMARK    2  A    between atoms: C_8  and  O_9 
REMARK    3  A    between atoms: O_9  and  C_10 
REMARK    4  A    between atoms: C_10  and  C_11 
REMARK    5  A    between atoms: C_11  and  O_12 
REMARK    6  A    between atoms: C_11  and  C_13 
REMARK    7  A    between atoms: C_13  and  N_14 
ROOT
HETATM    1  C   UNL     1     -41.161 -52.646  12.432  1.00  0.00     0.160 C 
ENDROOT
BRANCH   1   2
HETATM    2  C   UNL     1     -39.990 -51.816  12.987  1.00  0.00     0.209 C 
BRANCH   2   3
HETATM    3  O   UNL     1     -40.535 -50.630  13.578  1.00  0.00    -0.349 OA
BRANCH   3   4
HETATM    4  C   UNL     1     -41.135 -49.734  12.741  1.00  0.00     0.069 A 
HETATM    5  C   UNL     1     -42.469 -49.453  13.046  1.00  0.00     0.039 A 
HETATM    6  C   UNL     1     -43.187 -48.507  12.310  1.00  0.00     0.032 A 
HETATM    7  C   UNL     1     -42.543 -47.772  11.318  1.00  0.00     0.034 A 
HETATM    8  C   UNL     1     -41.216 -48.067  10.993  1.00  0.00     0.032 A 
HETATM    9  C   UNL     1     -40.516 -49.056  11.692  1.00  0.00     0.039 A 
BRANCH   7  10
HETATM   10  N   UNL     1     -43.252 -46.729  10.691  1.00  0.00    -0.328 N 
HETATM   11  C   UNL     1     -43.685 -46.819   9.377  1.00  0.00     0.218 C 
HETATM   12  C   UNL     1     -44.380 -45.571   8.901  1.00  0.00     0.117 C 
HETATM   13  O   UNL     1     -43.531 -47.783   8.633  1.00  0.00    -0.274 OA
HETATM   14  H   UNL     1     -43.105 -45.796  11.051  1.00  0.00     0.169 HD
ENDBRANCH   7  10
ENDBRANCH   3   4
ENDBRANCH   2   3
ENDBRANCH   1   2
BRANCH   1  15
HETATM   15  O   UNL     1     -40.657 -53.471  11.373  1.00  0.00    -0.392 OA
HETATM   16  H   UNL     1     -40.185 -54.220  11.783  1.00  0.00     0.210 HD
ENDBRANCH   1  15
BRANCH   1  17
HETATM   17  C   UNL     1     -41.809 -53.509  13.523  1.00  0.00     0.164 C 
BRANCH  17  18
HETATM   18  N   UNL     1     -42.793 -52.792  14.318  1.00  0.00    -0.332 N 
HETATM   19  C   UNL     1     -42.671 -52.403  15.638  1.00  0.00     0.080 A 
HETATM   20  C   UNL     1     -41.454 -52.574  16.468  1.00  0.00     0.089 C 
HETATM   21  N   UNL     1     -43.791 -51.857  16.071  1.00  0.00    -0.344 N 
HETATM   22  C   UNL     1     -44.658 -51.885  15.011  1.00  0.00     0.060 A 
ATOM     23  HN  UNL     1     -43.973 -51.490  17.004  1.00  0.00     0.167 HD
HETATM   24  C   UNL     1     -45.983 -51.434  14.937  1.00  0.00     0.032 A 
HETATM   25  C   UNL     1     -44.063 -52.462  13.894  1.00  0.00     0.062 A 
HETATM   26  C   UNL     1     -46.679 -51.573  13.730  1.00  0.00     0.002 A 
HETATM   27  C   UNL     1     -46.062 -52.147  12.617  1.00  0.00     0.002 A 
HETATM   28  C   UNL     1     -44.740 -52.604  12.673  1.00  0.00     0.032 A 
ENDBRANCH  17  18
ENDBRANCH   1  17
TORSDOF 7
ENDMDL
MODEL 2
REMARK VINA RESULT:      -6.3      2.404      6.154
REMARK  7 active torsions:
REMARK  status: ('A' for Active; 'I' for Inactive)
REMARK       I    between atoms: C_2  and  N_4 
REMARK    1  A    between atoms: N_4  and  C_5 
REMARK    2  A    between atoms: C_8  and  O_9 
REMARK    3  A    between atoms: O_9  and  C_10 
REMARK    4  A    between atoms: C_10  and  C_11 
REMARK    5  A    between atoms: C_11  and  O_12 
REMARK    6  A    between atoms: C_11  and  C_13 
REMARK    7  A    between atoms: C_13  and  N_14 
ROOT
HETATM    1  C   UNL     1     -40.956 -52.753  12.424  1.00  0.00     0.160 C 
ENDROOT
BRANCH   1   2
HETATM    2  C   UNL     1     -42.210 -53.435  12.999  1.00  0.00     0.209 C 
BRANCH   2   3
HETATM    3  O   UNL     1     -43.355 -52.851  12.367  1.00  0.00    -0.349 OA
BRANCH   3   4
HETATM    4  C   UNL     1     -44.447 -52.612  13.152  1.00  0.00     0.069 A 
HETATM    5  C   UNL     1     -44.459 -53.310  14.362  1.00  0.00     0.039 A 
HETATM    6  C   UNL     1     -45.485 -53.115  15.290  1.00  0.00     0.032 A 
HETATM    7  C   UNL     1     -46.461 -52.151  15.046  1.00  0.00     0.034 A 
HETATM    8  C   UNL     1     -46.466 -51.468  13.827  1.00  0.00     0.032 A 
HETATM    9  C   UNL     1     -45.470 -51.708  12.874  1.00  0.00     0.039 A 
BRANCH   7  10
HETATM   10  N   UNL     1     -47.398 -51.877  16.060  1.00  0.00    -0.328 N 
HETATM   11  C   UNL     1     -47.147 -50.957  17.067  1.00  0.00     0.218 C 
HETATM   12  C   UNL     1     -48.268 -50.859  18.067  1.00  0.00     0.117 C 
HETATM   13  O   UNL     1     -46.129 -50.281  17.186  1.00  0.00    -0.274 OA
HETATM   14  H   UNL     1     -48.064 -52.606  16.277  1.00  0.00     0.169 HD
ENDBRANCH   7  10
ENDBRANCH   3   4
ENDBRANCH   2   3
ENDBRANCH   1   2
BRANCH   1  15
HETATM   15  O   UNL     1     -41.228 -52.403  11.060  1.00  0.00    -0.392 OA
HETATM   16  H   UNL     1     -41.195 -53.224  10.534  1.00  0.00     0.210 HD
ENDBRANCH   1  15
BRANCH   1  17
HETATM   17  C   UNL     1     -40.571 -51.507  13.232  1.00  0.00     0.164 C 
BRANCH  17  18
HETATM   18  N   UNL     1     -40.323 -50.337  12.405  1.00  0.00    -0.332 N 
HETATM   19  C   UNL     1     -39.107 -49.914  11.906  1.00  0.00     0.080 A 
HETATM   20  C   UNL     1     -37.824 -50.643  12.055  1.00  0.00     0.089 C 
HETATM   21  N   UNL     1     -39.234 -48.762  11.275  1.00  0.00    -0.344 N 
HETATM   22  C   UNL     1     -40.560 -48.431  11.359  1.00  0.00     0.060 A 
ATOM     23  HN  UNL     1     -38.495 -48.228  10.819  1.00  0.00     0.167 HD
HETATM   24  C   UNL     1     -41.226 -47.303  10.860  1.00  0.00     0.032 A 
HETATM   25  C   UNL     1     -41.273 -49.398  12.059  1.00  0.00     0.062 A 
HETATM   26  C   UNL     1     -42.604 -47.181  11.075  1.00  0.00     0.002 A 
HETATM   27  C   UNL     1     -43.304 -48.166  11.772  1.00  0.00     0.002 A 
HETATM   28  C   UNL     1     -42.655 -49.298  12.280  1.00  0.00     0.032 A 
ENDBRANCH  17  18
ENDBRANCH   1  17
TORSDOF 7
ENDMDL
MODEL 3
REMARK VINA RESULT:      -6.3      2.252      2.636
REMARK  7 active torsions:
REMARK  status: ('A' for Active; 'I' for Inactive)
REMARK       I    between atoms: C_2  and  N_4 
REMARK    1  A    between atoms: N_4  and  C_5 
REMARK    2  A    between atoms: C_8  and  O_9 
REMARK    3  A    between atoms: O_9  and  C_10 
REMARK    4  A    between atoms: C_10  and  C_11 
REMARK    5  A    between atoms: C_11  and  O_12 
REMARK    6  A    between atoms: C_11  and  C_13 
REMARK    7  A    between atoms: C_13  and  N_14 
ROOT
HETATM    1  C   UNL     1     -41.236 -51.828  12.074  1.00  0.00     0.160 C 
ENDROOT
BRANCH   1   2
HETATM    2  C   UNL     1     -40.212 -50.684  11.985  1.00  0.00     0.209 C 
BRANCH   2   3
HETATM    3  O   UNL     1     -40.568 -49.863  10.866  1.00  0.00    -0.349 OA
BRANCH   3   4
HETATM    4  C   UNL     1     -40.949 -48.579  11.129  1.00  0.00     0.069 A 
HETATM    5  C   UNL     1     -42.059 -48.139  10.403  1.00  0.00     0.039 A 
HETATM    6  C   UNL     1     -42.595 -46.868  10.616  1.00  0.00     0.032 A 
HETATM    7  C   UNL     1     -42.075 -46.061  11.625  1.00  0.00     0.034 A 
HETATM    8  C   UNL     1     -40.951 -46.486  12.338  1.00  0.00     0.032 A 
HETATM    9  C   UNL     1     -40.378 -47.737  12.081  1.00  0.00     0.039 A 
BRANCH   7  10
HETATM   10  N   UNL     1     -42.725 -44.845  11.912  1.00  0.00    -0.328 N 
HETATM   11  C   UNL     1     -42.329 -43.645  11.342  1.00  0.00     0.218 C 
HETATM   12  C   UNL     1     -43.135 -42.470  11.827  1.00  0.00     0.117 C 
HETATM   13  O   UNL     1     -41.414 -43.499  10.537  1.00  0.00    -0.274 OA
HETATM   14  H   UNL     1     -43.206 -44.782  12.800  1.00  0.00     0.169 HD
ENDBRANCH   7  10
ENDBRANCH   3   4
ENDBRANCH   2   3
ENDBRANCH   1   2
BRANCH   1  15
HETATM   15  O   UNL     1     -40.641 -53.001  11.501  1.00  0.00    -0.392 OA
HETATM   16  H   UNL     1     -40.893 -53.761  12.059  1.00  0.00     0.210 HD
ENDBRANCH   1  15
BRANCH   1  17
HETATM   17  C   UNL     1     -41.660 -52.096  13.525  1.00  0.00     0.164 C 
BRANCH  17  18
HETATM   18  N   UNL     1     -43.090 -51.946  13.745  1.00  0.00    -0.332 N 
HETATM   19  C   UNL     1     -43.780 -50.766  13.945  1.00  0.00     0.080 A 
HETATM   20  C   UNL     1     -43.187 -49.409  13.880  1.00  0.00     0.089 C 
HETATM   21  N   UNL     1     -45.051 -51.006  14.207  1.00  0.00    -0.344 N 
HETATM   22  C   UNL     1     -45.193 -52.368  14.172  1.00  0.00     0.060 A 
ATOM     23  HN  UNL     1     -45.778 -50.317  14.398  1.00  0.00     0.167 HD
HETATM   24  C   UNL     1     -46.338 -53.146  14.388  1.00  0.00     0.032 A 
HETATM   25  C   UNL     1     -43.982 -52.988  13.882  1.00  0.00     0.062 A 
HETATM   26  C   UNL     1     -46.235 -54.540  14.299  1.00  0.00     0.002 A 
HETATM   27  C   UNL     1     -45.015 -55.144  13.998  1.00  0.00     0.002 A 
HETATM   28  C   UNL     1     -43.860 -54.383  13.782  1.00  0.00     0.032 A 
ENDBRANCH  17  18
ENDBRANCH   1  17
TORSDOF 7
ENDMDL
MODEL 4
REMARK VINA RESULT:      -6.3      3.681      5.260
REMARK  7 active torsions:
REMARK  status: ('A' for Active; 'I' for Inactive)
REMARK       I    between atoms: C_2  and  N_4 
REMARK    1  A    between atoms: N_4  and  C_5 
REMARK    2  A    between atoms: C_8  and  O_9 
REMARK    3  A    between atoms: O_9  and  C_10 
REMARK    4  A    between atoms: C_10  and  C_11 
REMARK    5  A    between atoms: C_11  and  O_12 
REMARK    6  A    between atoms: C_11  and  C_13 
REMARK    7  A    between atoms: C_13  and  N_14 
ROOT
HETATM    1  C   UNL     1     -41.194 -53.195  12.892  1.00  0.00     0.160 C 
ENDROOT
BRANCH   1   2
HETATM    2  C   UNL     1     -40.020 -53.424  13.859  1.00  0.00     0.209 C 
BRANCH   2   3
HETATM    3  O   UNL     1     -38.881 -52.728  13.340  1.00  0.00    -0.349 OA
BRANCH   3   4
HETATM    4  C   UNL     1     -38.499 -51.587  13.986  1.00  0.00     0.069 A 
HETATM    5  C   UNL     1     -38.609 -51.641  15.378  1.00  0.00     0.039 A 
HETATM    6  C   UNL     1     -38.195 -50.567  16.170  1.00  0.00     0.032 A 
HETATM    7  C   UNL     1     -37.585 -49.466  15.574  1.00  0.00     0.034 A 
HETATM    8  C   UNL     1     -37.495 -49.397  14.181  1.00  0.00     0.032 A 
HETATM    9  C   UNL     1     -37.965 -50.449  13.386  1.00  0.00     0.039 A 
BRANCH   7  10
HETATM   10  N   UNL     1     -37.050 -48.464  16.407  1.00  0.00    -0.328 N 
HETATM   11  C   UNL     1     -35.707 -48.430  16.748  1.00  0.00     0.218 C 
HETATM   12  C   UNL     1     -35.367 -47.301  17.684  1.00  0.00     0.117 C 
HETATM   13  O   UNL     1     -34.848 -49.219  16.367  1.00  0.00    -0.274 OA
HETATM   14  H   UNL     1     -37.688 -48.019  17.054  1.00  0.00     0.169 HD
ENDBRANCH   7  10
ENDBRANCH   3   4
ENDBRANCH   2   3
ENDBRANCH   1   2
BRANCH   1  15
HETATM   15  O   UNL     1     -40.685 -53.270  11.553  1.00  0.00    -0.392 OA
HETATM   16  H   UNL     1     -40.196 -52.444  11.377  1.00  0.00     0.210 HD
ENDBRANCH   1  15
BRANCH   1  17
HETATM   17  C   UNL     1     -42.309 -54.228  13.101  1.00  0.00     0.164 C 
BRANCH  17  18
HETATM   18  N   UNL     1     -43.252 -53.857  14.144  1.00  0.00    -0.332 N 
HETATM   19  C   UNL     1     -43.304 -54.351  15.432  1.00  0.00     0.080 A 
HETATM   20  C   UNL     1     -42.333 -55.305  16.020  1.00  0.00     0.089 C 
HETATM   21  N   UNL     1     -44.345 -53.864  16.079  1.00  0.00    -0.344 N 
HETATM   22  C   UNL     1     -44.980 -53.029  15.198  1.00  0.00     0.060 A 
ATOM     23  HN  UNL     1     -44.621 -54.067  17.040  1.00  0.00     0.167 HD
HETATM   24  C   UNL     1     -46.141 -52.265  15.379  1.00  0.00     0.032 A 
HETATM   25  C   UNL     1     -44.319 -52.999  13.975  1.00  0.00     0.062 A 
HETATM   26  C   UNL     1     -46.607 -51.480  14.317  1.00  0.00     0.002 A 
HETATM   27  C   UNL     1     -45.925 -51.455  13.100  1.00  0.00     0.002 A 
HETATM   28  C   UNL     1     -44.765 -52.214  12.901  1.00  0.00     0.032 A 
ENDBRANCH  17  18
ENDBRANCH   1  17
TORSDOF 7
ENDMDL
MODEL 5
REMARK VINA RESULT:      -6.2      2.028      2.374
REMARK  7 active torsions:
REMARK  status: ('A' for Active; 'I' for Inactive)
REMARK       I    between atoms: C_2  and  N_4 
REMARK    1  A    between atoms: N_4  and  C_5 
REMARK    2  A    between atoms: C_8  and  O_9 
REMARK    3  A    between atoms: O_9  and  C_10 
REMARK    4  A    between atoms: C_10  and  C_11 
REMARK    5  A    between atoms: C_11  and  O_12 
REMARK    6  A    between atoms: C_11  and  C_13 
REMARK    7  A    between atoms: C_13  and  N_14 
ROOT
HETATM    1  C   UNL     1     -41.594 -52.875  12.608  1.00  0.00     0.160 C 
ENDROOT
BRANCH   1   2
HETATM    2  C   UNL     1     -40.822 -52.164  13.733  1.00  0.00     0.209 C 
BRANCH   2   3
HETATM    3  O   UNL     1     -41.525 -50.958  14.053  1.00  0.00    -0.349 OA
BRANCH   3   4
HETATM    4  C   UNL     1     -41.275 -49.864  13.274  1.00  0.00     0.069 A 
HETATM    5  C   UNL     1     -39.920 -49.611  13.044  1.00  0.00     0.039 A 
HETATM    6  C   UNL     1     -39.520 -48.560  12.214  1.00  0.00     0.032 A 
HETATM    7  C   UNL     1     -40.481 -47.812  11.539  1.00  0.00     0.034 A 
HETATM    8  C   UNL     1     -41.837 -48.046  11.785  1.00  0.00     0.032 A 
HETATM    9  C   UNL     1     -42.234 -49.061  12.663  1.00  0.00     0.039 A 
BRANCH   7  10
HETATM   10  N   UNL     1     -40.046 -46.855  10.602  1.00  0.00    -0.328 N 
HETATM   11  C   UNL     1     -39.839 -45.528  10.946  1.00  0.00     0.218 C 
HETATM   12  C   UNL     1     -39.421 -44.676   9.777  1.00  0.00     0.117 C 
HETATM   13  O   UNL     1     -39.983 -45.044  12.065  1.00  0.00    -0.274 OA
HETATM   14  H   UNL     1     -40.259 -47.037   9.630  1.00  0.00     0.169 HD
ENDBRANCH   7  10
ENDBRANCH   3   4
ENDBRANCH   2   3
ENDBRANCH   1   2
BRANCH   1  15
HETATM   15  O   UNL     1     -40.645 -53.303  11.622  1.00  0.00    -0.392 OA
HETATM   16  H   UNL     1     -40.092 -52.533  11.392  1.00  0.00     0.210 HD
ENDBRANCH   1  15
BRANCH   1  17
HETATM   17  C   UNL     1     -42.393 -54.073  13.140  1.00  0.00     0.164 C 
BRANCH  17  18
HETATM   18  N   UNL     1     -43.322 -53.722  14.202  1.00  0.00    -0.332 N 
HETATM   19  C   UNL     1     -43.319 -54.197  15.499  1.00  0.00     0.080 A 
HETATM   20  C   UNL     1     -42.294 -55.101  16.074  1.00  0.00     0.089 C 
HETATM   21  N   UNL     1     -44.360 -53.740  16.168  1.00  0.00    -0.344 N 
HETATM   22  C   UNL     1     -45.052 -52.947  15.292  1.00  0.00     0.060 A 
ATOM     23  HN  UNL     1     -44.602 -53.938  17.139  1.00  0.00     0.167 HD
HETATM   24  C   UNL     1     -46.238 -52.227  15.493  1.00  0.00     0.032 A 
HETATM   25  C   UNL     1     -44.427 -52.911  14.050  1.00  0.00     0.062 A 
HETATM   26  C   UNL     1     -46.764 -51.479  14.432  1.00  0.00     0.002 A 
HETATM   27  C   UNL     1     -46.117 -51.447  13.197  1.00  0.00     0.002 A 
HETATM   28  C   UNL     1     -44.933 -52.162  12.977  1.00  0.00     0.032 A 
ENDBRANCH  17  18
ENDBRANCH   1  17
TORSDOF 7
ENDMDL
MODEL 6
REMARK VINA RESULT:      -6.2      2.925      4.316
REMARK  7 active torsions:
REMARK  status: ('A' for Active; 'I' for Inactive)
REMARK       I    between atoms: C_2  and  N_4 
REMARK    1  A    between atoms: N_4  and  C_5 
REMARK    2  A    between atoms: C_8  and  O_9 
REMARK    3  A    between atoms: O_9  and  C_10 
REMARK    4  A    between atoms: C_10  and  C_11 
REMARK    5  A    between atoms: C_11  and  O_12 
REMARK    6  A    between atoms: C_11  and  C_13 
REMARK    7  A    between atoms: C_13  and  N_14 
ROOT
HETATM    1  C   UNL     1     -37.971 -48.811  14.722  1.00  0.00     0.160 C 
ENDROOT
BRANCH   1   2
HETATM    2  C   UNL     1     -39.336 -48.378  15.284  1.00  0.00     0.209 C 
BRANCH   2   3
HETATM    3  O   UNL     1     -39.766 -47.224  14.552  1.00  0.00    -0.349 OA
BRANCH   3   4
HETATM    4  C   UNL     1     -40.507 -47.441  13.425  1.00  0.00     0.069 A 
HETATM    5  C   UNL     1     -39.946 -46.931  12.251  1.00  0.00     0.039 A 
HETATM    6  C   UNL     1     -40.566 -47.134  11.016  1.00  0.00     0.032 A 
HETATM    7  C   UNL     1     -41.709 -47.927  10.940  1.00  0.00     0.034 A 
HETATM    8  C   UNL     1     -42.286 -48.418  12.114  1.00  0.00     0.032 A 
HETATM    9  C   UNL     1     -41.696 -48.164  13.357  1.00  0.00     0.039 A 
BRANCH   7  10
HETATM   10  N   UNL     1     -42.229 -48.231   9.667  1.00  0.00    -0.328 N 
HETATM   11  C   UNL     1     -43.145 -47.407   9.030  1.00  0.00     0.218 C 
HETATM   12  C   UNL     1     -43.598 -47.951   7.701  1.00  0.00     0.117 C 
HETATM   13  O   UNL     1     -43.583 -46.347   9.465  1.00  0.00    -0.274 OA
HETATM   14  H   UNL     1     -42.241 -49.206   9.399  1.00  0.00     0.169 HD
ENDBRANCH   7  10
ENDBRANCH   3   4
ENDBRANCH   2   3
ENDBRANCH   1   2
BRANCH   1  15
HETATM   15  O   UNL     1     -36.962 -48.436  15.670  1.00  0.00    -0.392 OA
HETATM   16  H   UNL     1     -36.800 -49.206  16.246  1.00  0.00     0.210 HD
ENDBRANCH   1  15
BRANCH   1  17
HETATM   17  C   UNL     1     -37.923 -50.322  14.456  1.00  0.00     0.164 C 
BRANCH  17  18
HETATM   18  N   UNL     1     -38.848 -50.755  13.421  1.00  0.00    -0.332 N 
HETATM   19  C   UNL     1     -38.773 -50.479  12.070  1.00  0.00     0.080 A 
HETATM   20  C   UNL     1     -37.665 -49.748  11.409  1.00  0.00     0.089 C 
HETATM   21  N   UNL     1     -39.829 -50.950  11.436  1.00  0.00    -0.344 N 
HETATM   22  C   UNL     1     -40.605 -51.551  12.391  1.00  0.00     0.060 A 
ATOM     23  HN  UNL     1     -40.028 -50.880  10.438  1.00  0.00     0.167 HD
HETATM   24  C   UNL     1     -41.838 -52.203  12.251  1.00  0.00     0.032 A 
HETATM   25  C   UNL     1     -40.017 -51.451  13.647  1.00  0.00     0.062 A 
HETATM   26  C   UNL     1     -42.450 -52.745  13.388  1.00  0.00     0.002 A 
HETATM   27  C   UNL     1     -41.841 -52.642  14.639  1.00  0.00     0.002 A 
HETATM   28  C   UNL     1     -40.610 -51.993  14.798  1.00  0.00     0.032 A 
ENDBRANCH  17  18
ENDBRANCH   1  17
TORSDOF 7
ENDMDL
MODEL 7
REMARK VINA RESULT:      -6.1      4.037      5.763
REMARK  7 active torsions:
REMARK  status: ('A' for Active; 'I' for Inactive)
REMARK       I    between atoms: C_2  and  N_4 
REMARK    1  A    between atoms: N_4  and  C_5 
REMARK    2  A    between atoms: C_8  and  O_9 
REMARK    3  A    between atoms: O_9  and  C_10 
REMARK    4  A    between atoms: C_10  and  C_11 
REMARK    5  A    between atoms: C_11  and  O_12 
REMARK    6  A    between atoms: C_11  and  C_13 
REMARK    7  A    between atoms: C_13  and  N_14 
ROOT
HETATM    1  C   UNL     1     -40.877 -51.038  12.320  1.00  0.00     0.160 C 
ENDROOT
BRANCH   1   2
HETATM    2  C   UNL     1     -39.576 -50.340  11.886  1.00  0.00     0.209 C 
BRANCH   2   3
HETATM    3  O   UNL     1     -38.534 -50.761  12.774  1.00  0.00    -0.349 OA
BRANCH   3   4
HETATM    4  C   UNL     1     -38.187 -49.905  13.779  1.00  0.00     0.069 A 
HETATM    5  C   UNL     1     -37.880 -50.526  14.994  1.00  0.00     0.039 A 
HETATM    6  C   UNL     1     -37.449 -49.776  16.091  1.00  0.00     0.032 A 
HETATM    7  C   UNL     1     -37.237 -48.407  15.949  1.00  0.00     0.034 A 
HETATM    8  C   UNL     1     -37.565 -47.779  14.745  1.00  0.00     0.032 A 
HETATM    9  C   UNL     1     -38.053 -48.524  13.665  1.00  0.00     0.039 A 
BRANCH   7  10
HETATM   10  N   UNL     1     -36.667 -47.703  17.028  1.00  0.00    -0.328 N 
HETATM   11  C   UNL     1     -35.296 -47.557  17.169  1.00  0.00     0.218 C 
HETATM   12  C   UNL     1     -34.911 -46.809  18.418  1.00  0.00     0.117 C 
HETATM   13  O   UNL     1     -34.443 -47.985  16.398  1.00  0.00    -0.274 OA
HETATM   14  H   UNL     1     -37.214 -47.648  17.877  1.00  0.00     0.169 HD
ENDBRANCH   7  10
ENDBRANCH   3   4
ENDBRANCH   2   3
ENDBRANCH   1   2
BRANCH   1  15
HETATM   15  O   UNL     1     -41.968 -50.406  11.637  1.00  0.00    -0.392 OA
HETATM   16  H   UNL     1     -41.776 -49.450  11.597  1.00  0.00     0.210 HD
ENDBRANCH   1  15
BRANCH   1  17
HETATM   17  C   UNL     1     -40.844 -52.540  12.007  1.00  0.00     0.164 C 
BRANCH  17  18
HETATM   18  N   UNL     1     -41.388 -53.364  13.074  1.00  0.00    -0.332 N 
HETATM   19  C   UNL     1     -40.678 -54.030  14.054  1.00  0.00     0.080 A 
HETATM   20  C   UNL     1     -39.210 -53.949  14.248  1.00  0.00     0.089 C 
HETATM   21  N   UNL     1     -41.483 -54.760  14.802  1.00  0.00    -0.344 N 
HETATM   22  C   UNL     1     -42.743 -54.561  14.304  1.00  0.00     0.060 A 
ATOM     23  HN  UNL     1     -41.220 -55.352  15.589  1.00  0.00     0.167 HD
HETATM   24  C   UNL     1     -43.962 -55.106  14.731  1.00  0.00     0.032 A 
HETATM   25  C   UNL     1     -42.721 -53.688  13.221  1.00  0.00     0.062 A 
HETATM   26  C   UNL     1     -45.136 -54.751  14.054  1.00  0.00     0.002 A 
HETATM   27  C   UNL     1     -45.095 -53.867  12.976  1.00  0.00     0.002 A 
HETATM   28  C   UNL     1     -43.886 -53.315  12.534  1.00  0.00     0.032 A 
ENDBRANCH  17  18
ENDBRANCH   1  17
TORSDOF 7
ENDMDL
MODEL 8
REMARK VINA RESULT:      -6.1      3.216      3.522
REMARK  7 active torsions:
REMARK  status: ('A' for Active; 'I' for Inactive)
REMARK       I    between atoms: C_2  and  N_4 
REMARK    1  A    between atoms: N_4  and  C_5 
REMARK    2  A    between atoms: C_8  and  O_9 
REMARK    3  A    between atoms: O_9  and  C_10 
REMARK    4  A    between atoms: C_10  and  C_11 
REMARK    5  A    between atoms: C_11  and  O_12 
REMARK    6  A    between atoms: C_11  and  C_13 
REMARK    7  A    between atoms: C_13  and  N_14 
ROOT
HETATM    1  C   UNL     1     -40.934 -53.380  13.116  1.00  0.00     0.160 C 
ENDROOT
BRANCH   1   2
HETATM    2  C   UNL     1     -39.699 -53.581  14.012  1.00  0.00     0.209 C 
BRANCH   2   3
HETATM    3  O   UNL     1     -38.595 -52.910  13.394  1.00  0.00    -0.349 OA
BRANCH   3   4
HETATM    4  C   UNL     1     -38.426 -51.586  13.687  1.00  0.00     0.069 A 
HETATM    5  C   UNL     1     -37.989 -50.803  12.615  1.00  0.00     0.039 A 
HETATM    6  C   UNL     1     -37.833 -49.422  12.755  1.00  0.00     0.032 A 
HETATM    7  C   UNL     1     -38.200 -48.805  13.949  1.00  0.00     0.034 A 
HETATM    8  C   UNL     1     -38.614 -49.587  15.031  1.00  0.00     0.032 A 
HETATM    9  C   UNL     1     -38.713 -50.977  14.906  1.00  0.00     0.039 A 
BRANCH   7  10
HETATM   10  N   UNL     1     -38.167 -47.399  14.013  1.00  0.00    -0.328 N 
HETATM   11  C   UNL     1     -39.228 -46.617  13.582  1.00  0.00     0.218 C 
HETATM   12  C   UNL     1     -38.955 -45.141  13.700  1.00  0.00     0.117 C 
HETATM   13  O   UNL     1     -40.290 -47.032  13.129  1.00  0.00    -0.274 OA
HETATM   14  H   UNL     1     -37.255 -46.962  14.001  1.00  0.00     0.169 HD
ENDBRANCH   7  10
ENDBRANCH   3   4
ENDBRANCH   2   3
ENDBRANCH   1   2
BRANCH   1  15
HETATM   15  O   UNL     1     -40.590 -53.800  11.788  1.00  0.00    -0.392 OA
HETATM   16  H   UNL     1     -41.419 -53.861  11.276  1.00  0.00     0.210 HD
ENDBRANCH   1  15
BRANCH   1  17
HETATM   17  C   UNL     1     -42.142 -54.172  13.634  1.00  0.00     0.164 C 
BRANCH  17  18
HETATM   18  N   UNL     1     -43.106 -53.352  14.350  1.00  0.00    -0.332 N 
HETATM   19  C   UNL     1     -43.084 -53.023  15.691  1.00  0.00     0.080 A 
HETATM   20  C   UNL     1     -42.003 -53.384  16.640  1.00  0.00     0.089 C 
HETATM   21  N   UNL     1     -44.163 -52.342  16.024  1.00  0.00    -0.344 N 
HETATM   22  C   UNL     1     -44.901 -52.219  14.877  1.00  0.00     0.060 A 
ATOM     23  HN  UNL     1     -44.401 -51.982  16.949  1.00  0.00     0.167 HD
HETATM   24  C   UNL     1     -46.138 -51.589  14.681  1.00  0.00     0.032 A 
HETATM   25  C   UNL     1     -44.265 -52.838  13.806  1.00  0.00     0.062 A 
HETATM   26  C   UNL     1     -46.704 -51.595  13.400  1.00  0.00     0.002 A 
HETATM   27  C   UNL     1     -46.047 -52.213  12.336  1.00  0.00     0.002 A 
HETATM   28  C   UNL     1     -44.812 -52.849  12.514  1.00  0.00     0.032 A 
ENDBRANCH  17  18
ENDBRANCH   1  17
TORSDOF 7
ENDMDL
MODEL 9
REMARK VINA RESULT:      -6.1      2.701      5.921
REMARK  7 active torsions:
REMARK  status: ('A' for Active; 'I' for Inactive)
REMARK       I    between atoms: C_2  and  N_4 
REMARK    1  A    between atoms: N_4  and  C_5 
REMARK    2  A    between atoms: C_8  and  O_9 
REMARK    3  A    between atoms: O_9  and  C_10 
REMARK    4  A    between atoms: C_10  and  C_11 
REMARK    5  A    between atoms: C_11  and  O_12 
REMARK    6  A    between atoms: C_11  and  C_13 
REMARK    7  A    between atoms: C_13  and  N_14 
ROOT
HETATM    1  C   UNL     1     -39.612 -48.103  13.758  1.00  0.00     0.160 C 
ENDROOT
BRANCH   1   2
HETATM    2  C   UNL     1     -40.295 -48.658  15.021  1.00  0.00     0.209 C 
BRANCH   2   3
HETATM    3  O   UNL     1     -41.711 -48.533  14.843  1.00  0.00    -0.349 OA
BRANCH   3   4
HETATM    4  C   UNL     1     -42.417 -49.683  14.635  1.00  0.00     0.069 A 
HETATM    5  C   UNL     1     -42.025 -50.761  15.434  1.00  0.00     0.039 A 
HETATM    6  C   UNL     1     -42.702 -51.981  15.370  1.00  0.00     0.032 A 
HETATM    7  C   UNL     1     -43.834 -52.100  14.568  1.00  0.00     0.034 A 
HETATM    8  C   UNL     1     -44.216 -51.034  13.751  1.00  0.00     0.032 A 
HETATM    9  C   UNL     1     -43.500 -49.831  13.772  1.00  0.00     0.039 A 
BRANCH   7  10
HETATM   10  N   UNL     1     -44.577 -53.295  14.633  1.00  0.00    -0.328 N 
HETATM   11  C   UNL     1     -44.781 -54.097  13.521  1.00  0.00     0.218 C 
HETATM   12  C   UNL     1     -45.642 -55.297  13.812  1.00  0.00     0.117 C 
HETATM   13  O   UNL     1     -44.342 -53.889  12.394  1.00  0.00    -0.274 OA
HETATM   14  H   UNL     1     -45.270 -53.363  15.367  1.00  0.00     0.169 HD
ENDBRANCH   7  10
ENDBRANCH   3   4
ENDBRANCH   2   3
ENDBRANCH   1   2
BRANCH   1  15
HETATM   15  O   UNL     1     -38.761 -47.019  14.155  1.00  0.00    -0.392 OA
HETATM   16  H   UNL     1     -38.386 -47.244  15.028  1.00  0.00     0.210 HD
ENDBRANCH   1  15
BRANCH   1  17
HETATM   17  C   UNL     1     -38.800 -49.185  13.033  1.00  0.00     0.164 C 
BRANCH  17  18
HETATM   18  N   UNL     1     -39.615 -50.279  12.531  1.00  0.00    -0.332 N 
HETATM   19  C   UNL     1     -40.584 -50.211  11.548  1.00  0.00     0.080 A 
HETATM   20  C   UNL     1     -40.909 -49.001  10.755  1.00  0.00     0.089 C 
HETATM   21  N   UNL     1     -41.192 -51.373  11.409  1.00  0.00    -0.344 N 
HETATM   22  C   UNL     1     -40.605 -52.217  12.313  1.00  0.00     0.060 A 
ATOM     23  HN  UNL     1     -41.947 -51.596  10.760  1.00  0.00     0.167 HD
HETATM   24  C   UNL     1     -40.883 -53.565  12.578  1.00  0.00     0.032 A 
HETATM   25  C   UNL     1     -39.609 -51.565  13.031  1.00  0.00     0.062 A 
HETATM   26  C   UNL     1     -40.140 -54.228  13.563  1.00  0.00     0.002 A 
HETATM   27  C   UNL     1     -39.138 -53.559  14.267  1.00  0.00     0.002 A 
HETATM   28  C   UNL     1     -38.849 -52.212  14.018  1.00  0.00     0.032 A 
ENDBRANCH  17  18
ENDBRANCH   1  17
TORSDOF 7
ENDMDL
