MODEL 1
REMARK VINA RESULT:      -6.4      0.000      0.000
REMARK  5 active torsions:
REMARK  status: ('A' for Active; 'I' for Inactive)
REMARK    1  A    between atoms: C_2  and  N_3 
REMARK    2  A    between atoms: C_2  and  C_14 
REMARK    3  A    between atoms: N_3  and  C_4 
REMARK    4  A    between atoms: C_4  and  C_5 
REMARK       I    between atoms: N_8  and  C_11 
REMARK    5  A    between atoms: C_14  and  N_16 
ROOT
HETATM    1  N   UNL     1     -41.934 -50.150  11.785  1.00  0.00     0.090 N 
HETATM    2  H   UNL     1     -42.209 -50.807  11.055  1.00  0.00     0.316 HD
ENDROOT
BRANCH   1   3
HETATM    3  C   UNL     1     -41.076 -49.088  11.205  1.00  0.00     0.240 C 
HETATM    4  C   UNL     1     -39.730 -49.042  11.946  1.00  0.00     0.045 C 
BRANCH   3   5
HETATM    5  C   UNL     1     -41.759 -47.681  11.094  1.00  0.00     0.136 C 
HETATM    6  C   UNL     1     -40.771 -46.567  10.728  1.00  0.00     0.036 C 
BRANCH   5   7
HETATM    7  N   UNL     1     -42.892 -47.646  10.163  1.00  0.00    -0.297 N 
HETATM    8  C   UNL     1     -44.220 -47.467  10.442  1.00  0.00     0.118 A 
HETATM    9  C   UNL     1     -44.884 -47.464   9.233  1.00  0.00    -0.028 A 
HETATM   10  C   UNL     1     -46.321 -47.229   8.976  1.00  0.00     0.051 C 
HETATM   11  C   UNL     1     -43.870 -47.735   8.290  1.00  0.00     0.115 A 
HETATM   12  N   UNL     1     -42.663 -47.853   8.847  1.00  0.00    -0.309 N 
ATOM     13  HN  UNL     1     -41.775 -48.052   8.386  1.00  0.00     0.186 HD
ENDBRANCH   5   7
ENDBRANCH   3   5
ENDBRANCH   1   3
BRANCH   1  14
HETATM   14  C   UNL     1     -41.313 -50.882  12.890  1.00  0.00     0.274 C 
BRANCH  14  15
HETATM   15  C   UNL     1     -41.155 -52.382  12.574  1.00  0.00     0.017 C 
HETATM   16  C   UNL     1     -42.348 -52.977  11.809  1.00  0.00     0.026 C 
HETATM   17  C   UNL     1     -43.611 -53.077  12.664  1.00  0.00     0.126 C 
HETATM   18  N   UNL     1     -43.350 -53.769  13.931  1.00  0.00    -0.352 N 
HETATM   19  C   UNL     1     -42.232 -53.239  14.713  1.00  0.00     0.126 C 
HETATM   20  C   UNL     1     -44.210 -54.650  14.565  1.00  0.00     0.215 C 
HETATM   21  C   UNL     1     -40.954 -53.177  13.875  1.00  0.00     0.026 C 
HETATM   22  O   UNL     1     -43.980 -55.087  15.692  1.00  0.00    -0.274 OA
HETATM   23  C   UNL     1     -45.438 -55.151  13.851  1.00  0.00     0.117 C 
ENDBRANCH  14  15
ENDBRANCH   1  14
TORSDOF 5
ENDMDL
MODEL 2
REMARK VINA RESULT:      -6.3      1.968      2.828
REMARK  5 active torsions:
REMARK  status: ('A' for Active; 'I' for Inactive)
REMARK    1  A    between atoms: C_2  and  N_3 
REMARK    2  A    between atoms: C_2  and  C_14 
REMARK    3  A    between atoms: N_3  and  C_4 
REMARK    4  A    between atoms: C_4  and  C_5 
REMARK       I    between atoms: N_8  and  C_11 
REMARK    5  A    between atoms: C_14  and  N_16 
ROOT
HETATM    1  N   UNL     1     -41.782 -50.448  11.541  1.00  0.00     0.090 N 
HETATM    2  H   UNL     1     -42.376 -50.696  10.749  1.00  0.00     0.316 HD
ENDROOT
BRANCH   1   3
HETATM    3  C   UNL     1     -40.891 -49.324  11.163  1.00  0.00     0.240 C 
HETATM    4  C   UNL     1     -39.594 -49.390  11.984  1.00  0.00     0.045 C 
BRANCH   3   5
HETATM    5  C   UNL     1     -41.565 -47.910  11.201  1.00  0.00     0.136 C 
HETATM    6  C   UNL     1     -40.571 -46.768  10.961  1.00  0.00     0.036 C 
BRANCH   5   7
HETATM    7  N   UNL     1     -42.695 -47.769  10.275  1.00  0.00    -0.297 N 
HETATM    8  C   UNL     1     -44.012 -47.535  10.565  1.00  0.00     0.118 A 
HETATM    9  C   UNL     1     -44.673 -47.437   9.359  1.00  0.00    -0.028 A 
HETATM   10  C   UNL     1     -46.096 -47.114   9.116  1.00  0.00     0.051 C 
HETATM   11  C   UNL     1     -43.674 -47.711   8.401  1.00  0.00     0.115 A 
HETATM   12  N   UNL     1     -42.475 -47.920   8.949  1.00  0.00    -0.309 N 
ATOM     13  HN  UNL     1     -41.598 -48.142   8.478  1.00  0.00     0.186 HD
ENDBRANCH   5   7
ENDBRANCH   3   5
ENDBRANCH   1   3
BRANCH   1  14
HETATM   14  C   UNL     1     -41.076 -51.640  12.011  1.00  0.00     0.274 C 
BRANCH  14  15
HETATM   15  C   UNL     1     -41.811 -52.327  13.178  1.00  0.00     0.017 C 
HETATM   16  C   UNL     1     -41.370 -51.823  14.561  1.00  0.00     0.026 C 
HETATM   17  C   UNL     1     -39.951 -52.257  14.927  1.00  0.00     0.126 C 
HETATM   18  N   UNL     1     -39.773 -53.705  14.768  1.00  0.00    -0.352 N 
HETATM   19  C   UNL     1     -40.164 -54.243  13.464  1.00  0.00     0.126 C 
HETATM   20  C   UNL     1     -39.028 -54.525  15.599  1.00  0.00     0.215 C 
HETATM   21  C   UNL     1     -41.599 -53.848  13.113  1.00  0.00     0.026 C 
HETATM   22  O   UNL     1     -38.814 -55.706  15.326  1.00  0.00    -0.274 OA
HETATM   23  C   UNL     1     -38.505 -53.997  16.910  1.00  0.00     0.117 C 
ENDBRANCH  14  15
ENDBRANCH   1  14
TORSDOF 5
ENDMDL
MODEL 3
REMARK VINA RESULT:      -6.1      3.341      6.800
REMARK  5 active torsions:
REMARK  status: ('A' for Active; 'I' for Inactive)
REMARK    1  A    between atoms: C_2  and  N_3 
REMARK    2  A    between atoms: C_2  and  C_14 
REMARK    3  A    between atoms: N_3  and  C_4 
REMARK    4  A    between atoms: C_4  and  C_5 
REMARK       I    between atoms: N_8  and  C_11 
REMARK    5  A    between atoms: C_14  and  N_16 
ROOT
HETATM    1  N   UNL     1     -40.151 -48.287  14.258  1.00  0.00     0.090 N 
HETATM    2  H   UNL     1     -39.891 -47.786  15.108  1.00  0.00     0.316 HD
ENDROOT
BRANCH   1   3
HETATM    3  C   UNL     1     -39.013 -49.124  13.804  1.00  0.00     0.240 C 
HETATM    4  C   UNL     1     -37.705 -48.326  13.910  1.00  0.00     0.045 C 
BRANCH   3   5
HETATM    5  C   UNL     1     -39.209 -49.790  12.398  1.00  0.00     0.136 C 
HETATM    6  C   UNL     1     -37.886 -50.017  11.657  1.00  0.00     0.036 C 
BRANCH   5   7
HETATM    7  N   UNL     1     -39.961 -51.048  12.440  1.00  0.00    -0.297 N 
HETATM    8  C   UNL     1     -39.974 -52.003  13.420  1.00  0.00     0.118 A 
HETATM    9  C   UNL     1     -40.871 -52.971  13.022  1.00  0.00    -0.028 A 
HETATM   10  C   UNL     1     -41.309 -54.176  13.759  1.00  0.00     0.051 C 
HETATM   11  C   UNL     1     -41.283 -52.544  11.741  1.00  0.00     0.115 A 
HETATM   12  N   UNL     1     -40.731 -51.384  11.380  1.00  0.00    -0.309 N 
ATOM     13  HN  UNL     1     -40.860 -50.871  10.508  1.00  0.00     0.186 HD
ENDBRANCH   5   7
ENDBRANCH   3   5
ENDBRANCH   1   3
BRANCH   1  14
HETATM   14  C   UNL     1     -40.628 -47.332  13.258  1.00  0.00     0.274 C 
BRANCH  14  15
HETATM   15  C   UNL     1     -42.160 -47.371  13.103  1.00  0.00     0.017 C 
HETATM   16  C   UNL     1     -42.653 -48.472  12.151  1.00  0.00     0.026 C 
HETATM   17  C   UNL     1     -42.305 -48.192  10.689  1.00  0.00     0.126 C 
HETATM   18  N   UNL     1     -42.740 -46.852  10.280  1.00  0.00    -0.352 N 
HETATM   19  C   UNL     1     -42.290 -45.758  11.141  1.00  0.00     0.126 C 
HETATM   20  C   UNL     1     -43.267 -46.515   9.044  1.00  0.00     0.215 C 
HETATM   21  C   UNL     1     -42.675 -46.012  12.599  1.00  0.00     0.026 C 
HETATM   22  O   UNL     1     -43.484 -45.346   8.726  1.00  0.00    -0.274 OA
HETATM   23  C   UNL     1     -43.653 -47.595   8.067  1.00  0.00     0.117 C 
ENDBRANCH  14  15
ENDBRANCH   1  14
TORSDOF 5
ENDMDL
MODEL 4
REMARK VINA RESULT:      -6.1      3.107      4.732
REMARK  5 active torsions:
REMARK  status: ('A' for Active; 'I' for Inactive)
REMARK    1  A    between atoms: C_2  and  N_3 
REMARK    2  A    between atoms: C_2  and  C_14 
REMARK    3  A    between atoms: N_3  and  C_4 
REMARK    4  A    between atoms: C_4  and  C_5 
REMARK       I    between atoms: N_8  and  C_11 
REMARK    5  A    between atoms: C_14  and  N_16 
ROOT
HETATM    1  N   UNL     1     -42.618 -52.746  11.737  1.00  0.00     0.090 N 
HETATM    2  H   UNL     1     -42.698 -53.266  10.862  1.00  0.00     0.316 HD
ENDROOT
BRANCH   1   3
HETATM    3  C   UNL     1     -41.279 -52.115  11.823  1.00  0.00     0.240 C 
HETATM    4  C   UNL     1     -40.511 -52.685  13.026  1.00  0.00     0.045 C 
BRANCH   3   5
HETATM    5  C   UNL     1     -41.289 -50.548  11.794  1.00  0.00     0.136 C 
HETATM    6  C   UNL     1     -42.373 -49.941  12.691  1.00  0.00     0.036 C 
BRANCH   5   7
HETATM    7  N   UNL     1     -39.994 -49.942  12.124  1.00  0.00    -0.297 N 
HETATM    8  C   UNL     1     -39.642 -49.237  13.242  1.00  0.00     0.118 A 
HETATM    9  C   UNL     1     -38.307 -48.919  13.109  1.00  0.00    -0.028 A 
HETATM   10  C   UNL     1     -37.426 -48.231  14.078  1.00  0.00     0.051 C 
HETATM   11  C   UNL     1     -37.968 -49.409  11.830  1.00  0.00     0.115 A 
HETATM   12  N   UNL     1     -38.987 -50.023  11.225  1.00  0.00    -0.309 N 
ATOM     13  HN  UNL     1     -39.002 -50.454  10.300  1.00  0.00     0.186 HD
ENDBRANCH   5   7
ENDBRANCH   3   5
ENDBRANCH   1   3
BRANCH   1  14
HETATM   14  C   UNL     1     -42.936 -53.631  12.858  1.00  0.00     0.274 C 
BRANCH  14  15
HETATM   15  C   UNL     1     -44.414 -54.066  12.853  1.00  0.00     0.017 C 
HETATM   16  C   UNL     1     -45.399 -52.891  12.754  1.00  0.00     0.026 C 
HETATM   17  C   UNL     1     -45.438 -52.042  14.025  1.00  0.00     0.126 C 
HETATM   18  N   UNL     1     -45.658 -52.868  15.217  1.00  0.00    -0.352 N 
HETATM   19  C   UNL     1     -44.741 -53.997  15.373  1.00  0.00     0.126 C 
HETATM   20  C   UNL     1     -46.432 -52.519  16.312  1.00  0.00     0.215 C 
HETATM   21  C   UNL     1     -44.731 -54.875  14.121  1.00  0.00     0.026 C 
HETATM   22  O   UNL     1     -46.461 -53.205  17.333  1.00  0.00    -0.274 OA
HETATM   23  C   UNL     1     -47.320 -51.303  16.253  1.00  0.00     0.117 C 
ENDBRANCH  14  15
ENDBRANCH   1  14
TORSDOF 5
ENDMDL
MODEL 5
REMARK VINA RESULT:      -6.0      1.547      2.113
REMARK  5 active torsions:
REMARK  status: ('A' for Active; 'I' for Inactive)
REMARK    1  A    between atoms: C_2  and  N_3 
REMARK    2  A    between atoms: C_2  and  C_14 
REMARK    3  A    between atoms: N_3  and  C_4 
REMARK    4  A    between atoms: C_4  and  C_5 
REMARK       I    between atoms: N_8  and  C_11 
REMARK    5  A    between atoms: C_14  and  N_16 
ROOT
HETATM    1  N   UNL     1     -42.080 -50.301  11.802  1.00  0.00     0.090 N 
HETATM    2  H   UNL     1     -41.779 -51.230  11.509  1.00  0.00     0.316 HD
ENDROOT
BRANCH   1   3
HETATM    3  C   UNL     1     -41.169 -49.278  11.233  1.00  0.00     0.240 C 
HETATM    4  C   UNL     1     -39.817 -49.320  11.962  1.00  0.00     0.045 C 
BRANCH   3   5
HETATM    5  C   UNL     1     -41.773 -47.833  11.153  1.00  0.00     0.136 C 
HETATM    6  C   UNL     1     -40.723 -46.766  10.823  1.00  0.00     0.036 C 
BRANCH   5   7
HETATM    7  N   UNL     1     -42.895 -47.713  10.217  1.00  0.00    -0.297 N 
HETATM    8  C   UNL     1     -44.219 -47.502  10.494  1.00  0.00     0.118 A 
HETATM    9  C   UNL     1     -44.871 -47.416   9.282  1.00  0.00    -0.028 A 
HETATM   10  C   UNL     1     -46.296 -47.119   9.025  1.00  0.00     0.051 C 
HETATM   11  C   UNL     1     -43.858 -47.675   8.334  1.00  0.00     0.115 A 
HETATM   12  N   UNL     1     -42.661 -47.862   8.893  1.00  0.00    -0.309 N 
ATOM     13  HN  UNL     1     -41.776 -48.069   8.430  1.00  0.00     0.186 HD
ENDBRANCH   5   7
ENDBRANCH   3   5
ENDBRANCH   1   3
BRANCH   1  14
HETATM   14  C   UNL     1     -42.186 -50.262  13.261  1.00  0.00     0.274 C 
BRANCH  14  15
HETATM   15  C   UNL     1     -43.650 -50.163  13.733  1.00  0.00     0.017 C 
HETATM   16  C   UNL     1     -43.801 -50.159  15.262  1.00  0.00     0.026 C 
HETATM   17  C   UNL     1     -43.470 -51.511  15.895  1.00  0.00     0.126 C 
HETATM   18  N   UNL     1     -44.214 -52.601  15.255  1.00  0.00    -0.352 N 
HETATM   19  C   UNL     1     -44.098 -52.665  13.798  1.00  0.00     0.126 C 
HETATM   20  C   UNL     1     -44.754 -53.701  15.901  1.00  0.00     0.215 C 
HETATM   21  C   UNL     1     -44.471 -51.328  13.156  1.00  0.00     0.026 C 
HETATM   22  O   UNL     1     -45.247 -54.643  15.280  1.00  0.00    -0.274 OA
HETATM   23  C   UNL     1     -44.806 -53.744  17.406  1.00  0.00     0.117 C 
ENDBRANCH  14  15
ENDBRANCH   1  14
TORSDOF 5
ENDMDL
MODEL 6
REMARK VINA RESULT:      -5.9      2.934      5.162
REMARK  5 active torsions:
REMARK  status: ('A' for Active; 'I' for Inactive)
REMARK    1  A    between atoms: C_2  and  N_3 
REMARK    2  A    between atoms: C_2  and  C_14 
REMARK    3  A    between atoms: N_3  and  C_4 
REMARK    4  A    between atoms: C_4  and  C_5 
REMARK       I    between atoms: N_8  and  C_11 
REMARK    5  A    between atoms: C_14  and  N_16 
ROOT
HETATM    1  N   UNL     1     -44.318 -52.606  12.345  1.00  0.00     0.090 N 
HETATM    2  H   UNL     1     -44.769 -53.519  12.402  1.00  0.00     0.316 HD
ENDROOT
BRANCH   1   3
HETATM    3  C   UNL     1     -42.859 -52.754  12.567  1.00  0.00     0.240 C 
HETATM    4  C   UNL     1     -42.562 -54.129  13.185  1.00  0.00     0.045 C 
BRANCH   3   5
HETATM    5  C   UNL     1     -42.191 -51.575  13.355  1.00  0.00     0.136 C 
HETATM    6  C   UNL     1     -41.595 -52.016  14.697  1.00  0.00     0.036 C 
BRANCH   5   7
HETATM    7  N   UNL     1     -41.171 -50.854  12.587  1.00  0.00    -0.297 N 
HETATM    8  C   UNL     1     -39.830 -50.744  12.841  1.00  0.00     0.118 A 
HETATM    9  C   UNL     1     -39.289 -50.007  11.809  1.00  0.00    -0.028 A 
HETATM   10  C   UNL     1     -37.869 -49.671  11.568  1.00  0.00     0.051 C 
HETATM   11  C   UNL     1     -40.406 -49.648  11.027  1.00  0.00     0.115 A 
HETATM   12  N   UNL     1     -41.550 -50.151  11.496  1.00  0.00    -0.309 N 
ATOM     13  HN  UNL     1     -42.490 -50.034  11.118  1.00  0.00     0.186 HD
ENDBRANCH   5   7
ENDBRANCH   3   5
ENDBRANCH   1   3
BRANCH   1  14
HETATM   14  C   UNL     1     -44.973 -51.683  13.273  1.00  0.00     0.274 C 
BRANCH  14  15
HETATM   15  C   UNL     1     -46.339 -52.212  13.749  1.00  0.00     0.017 C 
HETATM   16  C   UNL     1     -46.929 -51.416  14.924  1.00  0.00     0.026 C 
HETATM   17  C   UNL     1     -46.160 -51.626  16.229  1.00  0.00     0.126 C 
HETATM   18  N   UNL     1     -45.999 -53.052  16.534  1.00  0.00    -0.352 N 
HETATM   19  C   UNL     1     -45.429 -53.861  15.456  1.00  0.00     0.126 C 
HETATM   20  C   UNL     1     -46.060 -53.622  17.795  1.00  0.00     0.215 C 
HETATM   21  C   UNL     1     -46.220 -53.689  14.159  1.00  0.00     0.026 C 
HETATM   22  O   UNL     1     -45.781 -54.805  17.989  1.00  0.00    -0.274 OA
HETATM   23  C   UNL     1     -46.539 -52.809  18.969  1.00  0.00     0.117 C 
ENDBRANCH  14  15
ENDBRANCH   1  14
TORSDOF 5
ENDMDL
MODEL 7
REMARK VINA RESULT:      -5.9      2.292      3.290
REMARK  5 active torsions:
REMARK  status: ('A' for Active; 'I' for Inactive)
REMARK    1  A    between atoms: C_2  and  N_3 
REMARK    2  A    between atoms: C_2  and  C_14 
REMARK    3  A    between atoms: N_3  and  C_4 
REMARK    4  A    between atoms: C_4  and  C_5 
REMARK       I    between atoms: N_8  and  C_11 
REMARK    5  A    between atoms: C_14  and  N_16 
ROOT
HETATM    1  N   UNL     1     -39.498 -46.784  12.255  1.00  0.00     0.090 N 
HETATM    2  H   UNL     1     -39.630 -46.118  13.016  1.00  0.00     0.316 HD
ENDROOT
BRANCH   1   3
HETATM    3  C   UNL     1     -40.393 -46.436  11.124  1.00  0.00     0.240 C 
HETATM    4  C   UNL     1     -39.836 -45.214  10.376  1.00  0.00     0.045 C 
BRANCH   3   5
HETATM    5  C   UNL     1     -41.905 -46.277  11.508  1.00  0.00     0.136 C 
HETATM    6  C   UNL     1     -42.249 -44.869  12.007  1.00  0.00     0.036 C 
BRANCH   5   7
HETATM    7  N   UNL     1     -42.829 -46.648  10.431  1.00  0.00    -0.297 N 
HETATM    8  C   UNL     1     -44.000 -47.351  10.516  1.00  0.00     0.118 A 
HETATM    9  C   UNL     1     -44.529 -47.399   9.243  1.00  0.00    -0.028 A 
HETATM   10  C   UNL     1     -45.819 -47.974   8.806  1.00  0.00     0.051 C 
HETATM   11  C   UNL     1     -43.552 -46.764   8.446  1.00  0.00     0.115 A 
HETATM   12  N   UNL     1     -42.517 -46.313   9.158  1.00  0.00    -0.309 N 
ATOM     13  HN  UNL     1     -41.685 -45.829   8.821  1.00  0.00     0.186 HD
ENDBRANCH   5   7
ENDBRANCH   3   5
ENDBRANCH   1   3
BRANCH   1  14
HETATM   14  C   UNL     1     -39.680 -48.144  12.764  1.00  0.00     0.274 C 
BRANCH  14  15
HETATM   15  C   UNL     1     -39.524 -49.204  11.656  1.00  0.00     0.017 C 
HETATM   16  C   UNL     1     -40.801 -50.021  11.404  1.00  0.00     0.026 C 
HETATM   17  C   UNL     1     -41.133 -50.972  12.554  1.00  0.00     0.126 C 
HETATM   18  N   UNL     1     -39.983 -51.811  12.907  1.00  0.00    -0.352 N 
HETATM   19  C   UNL     1     -38.739 -51.088  13.172  1.00  0.00     0.126 C 
HETATM   20  C   UNL     1     -40.038 -53.143  13.283  1.00  0.00     0.215 C 
HETATM   21  C   UNL     1     -38.378 -50.167  12.005  1.00  0.00     0.026 C 
HETATM   22  O   UNL     1     -39.047 -53.745  13.695  1.00  0.00    -0.274 OA
HETATM   23  C   UNL     1     -41.322 -53.917  13.135  1.00  0.00     0.117 C 
ENDBRANCH  14  15
ENDBRANCH   1  14
TORSDOF 5
ENDMDL
MODEL 8
REMARK VINA RESULT:      -5.8      3.492      7.292
REMARK  5 active torsions:
REMARK  status: ('A' for Active; 'I' for Inactive)
REMARK    1  A    between atoms: C_2  and  N_3 
REMARK    2  A    between atoms: C_2  and  C_14 
REMARK    3  A    between atoms: N_3  and  C_4 
REMARK    4  A    between atoms: C_4  and  C_5 
REMARK       I    between atoms: N_8  and  C_11 
REMARK    5  A    between atoms: C_14  and  N_16 
ROOT
HETATM    1  N   UNL     1     -40.617 -50.971  11.335  1.00  0.00     0.090 N 
HETATM    2  H   UNL     1     -41.590 -50.977  11.028  1.00  0.00     0.316 HD
ENDROOT
BRANCH   1   3
HETATM    3  C   UNL     1     -40.498 -51.681  12.632  1.00  0.00     0.240 C 
HETATM    4  C   UNL     1     -39.107 -51.431  13.237  1.00  0.00     0.045 C 
BRANCH   3   5
HETATM    5  C   UNL     1     -40.877 -53.201  12.585  1.00  0.00     0.136 C 
HETATM    6  C   UNL     1     -40.054 -54.052  13.559  1.00  0.00     0.036 C 
BRANCH   5   7
HETATM    7  N   UNL     1     -42.304 -53.461  12.804  1.00  0.00    -0.297 N 
HETATM    8  C   UNL     1     -42.893 -54.237  13.765  1.00  0.00     0.118 A 
HETATM    9  C   UNL     1     -44.256 -54.126  13.587  1.00  0.00    -0.028 A 
HETATM   10  C   UNL     1     -45.339 -54.705  14.411  1.00  0.00     0.051 C 
HETATM   11  C   UNL     1     -44.382 -53.323  12.433  1.00  0.00     0.115 A 
HETATM   12  N   UNL     1     -43.204 -52.923  11.950  1.00  0.00    -0.309 N 
ATOM     13  HN  UNL     1     -43.025 -52.346  11.128  1.00  0.00     0.186 HD
ENDBRANCH   5   7
ENDBRANCH   3   5
ENDBRANCH   1   3
BRANCH   1  14
HETATM   14  C   UNL     1     -40.125 -49.593  11.361  1.00  0.00     0.274 C 
BRANCH  14  15
HETATM   15  C   UNL     1     -41.196 -48.604  11.862  1.00  0.00     0.017 C 
HETATM   16  C   UNL     1     -41.227 -47.284  11.076  1.00  0.00     0.026 C 
HETATM   17  C   UNL     1     -40.001 -46.410  11.336  1.00  0.00     0.126 C 
HETATM   18  N   UNL     1     -39.777 -46.209  12.772  1.00  0.00    -0.352 N 
HETATM   19  C   UNL     1     -39.723 -47.432  13.573  1.00  0.00     0.126 C 
HETATM   20  C   UNL     1     -39.338 -45.038  13.367  1.00  0.00     0.215 C 
HETATM   21  C   UNL     1     -40.969 -48.291  13.351  1.00  0.00     0.026 C 
HETATM   22  O   UNL     1     -39.044 -44.985  14.561  1.00  0.00    -0.274 OA
HETATM   23  C   UNL     1     -39.268 -43.764  12.566  1.00  0.00     0.117 C 
ENDBRANCH  14  15
ENDBRANCH   1  14
TORSDOF 5
ENDMDL
MODEL 9
REMARK VINA RESULT:      -5.7      2.889      3.780
REMARK  5 active torsions:
REMARK  status: ('A' for Active; 'I' for Inactive)
REMARK    1  A    between atoms: C_2  and  N_3 
REMARK    2  A    between atoms: C_2  and  C_14 
REMARK    3  A    between atoms: N_3  and  C_4 
REMARK    4  A    between atoms: C_4  and  C_5 
REMARK       I    between atoms: N_8  and  C_11 
REMARK    5  A    between atoms: C_14  and  N_16 
ROOT
HETATM    1  N   UNL     1     -39.550 -50.554  14.184  1.00  0.00     0.090 N 
HETATM    2  H   UNL     1     -40.111 -49.946  13.587  1.00  0.00     0.316 HD
ENDROOT
BRANCH   1   3
HETATM    3  C   UNL     1     -38.110 -50.351  13.891  1.00  0.00     0.240 C 
HETATM    4  C   UNL     1     -37.368 -49.952  15.176  1.00  0.00     0.045 C 
BRANCH   3   5
HETATM    5  C   UNL     1     -37.814 -49.387  12.692  1.00  0.00     0.136 C 
HETATM    6  C   UNL     1     -37.481 -50.133  11.395  1.00  0.00     0.036 C 
BRANCH   5   7
HETATM    7  N   UNL     1     -38.886 -48.420  12.432  1.00  0.00    -0.297 N 
HETATM    8  C   UNL     1     -39.297 -47.372  13.209  1.00  0.00     0.118 A 
HETATM    9  C   UNL     1     -40.302 -46.732  12.515  1.00  0.00    -0.028 A 
HETATM   10  C   UNL     1     -41.027 -45.496  12.882  1.00  0.00     0.051 C 
HETATM   11  C   UNL     1     -40.478 -47.527  11.363  1.00  0.00     0.115 A 
HETATM   12  N   UNL     1     -39.629 -48.555  11.310  1.00  0.00    -0.309 N 
ATOM     13  HN  UNL     1     -39.557 -49.275  10.590  1.00  0.00     0.186 HD
ENDBRANCH   5   7
ENDBRANCH   3   5
ENDBRANCH   1   3
BRANCH   1  14
HETATM   14  C   UNL     1     -40.003 -51.936  14.031  1.00  0.00     0.274 C 
BRANCH  14  15
HETATM   15  C   UNL     1     -40.539 -52.218  12.614  1.00  0.00     0.017 C 
HETATM   16  C   UNL     1     -41.678 -51.277  12.191  1.00  0.00     0.026 C 
HETATM   17  C   UNL     1     -42.976 -51.535  12.958  1.00  0.00     0.126 C 
HETATM   18  N   UNL     1     -43.360 -52.950  12.905  1.00  0.00    -0.352 N 
HETATM   19  C   UNL     1     -42.319 -53.895  13.309  1.00  0.00     0.126 C 
HETATM   20  C   UNL     1     -44.653 -53.434  12.794  1.00  0.00     0.215 C 
HETATM   21  C   UNL     1     -41.032 -53.671  12.514  1.00  0.00     0.026 C 
HETATM   22  O   UNL     1     -44.909 -54.634  12.892  1.00  0.00    -0.274 OA
HETATM   23  C   UNL     1     -45.788 -52.493  12.484  1.00  0.00     0.117 C 
ENDBRANCH  14  15
ENDBRANCH   1  14
TORSDOF 5
ENDMDL
