MODEL 1
REMARK VINA RESULT:      -5.9      0.000      0.000
REMARK  4 active torsions:
REMARK  status: ('A' for Active; 'I' for Inactive)
REMARK    1  A    between atoms: C_2  and  C_4 
REMARK    2  A    between atoms: C_4  and  N_5 
REMARK    3  A    between atoms: C_8  and  N_11 
REMARK       I    between atoms: N_11  and  C_12 
REMARK       I    between atoms: C_12  and  N_14 
REMARK    4  A    between atoms: N_14  and  C_15 
ROOT
HETATM    1  N   UNL     1     -40.060 -48.873  11.197  1.00  0.00    -0.338 N 
HETATM    2  C   UNL     1     -41.046 -47.932  10.986  1.00  0.00     0.322 C 
HETATM    3  O   UNL     1     -41.136 -46.895  11.628  1.00  0.00    -0.247 OA
HETATM    4  N   UNL     1     -41.839 -48.289   9.923  1.00  0.00    -0.293 N 
HETATM    5  H   UNL     1     -40.355 -49.835  11.090  1.00  0.00     0.164 HD
HETATM    6  H   UNL     1     -41.378 -48.778   9.171  1.00  0.00     0.172 HD
ENDROOT
BRANCH   1   7
HETATM    7  C   UNL     1     -38.912 -48.592  12.052  1.00  0.00     0.089 C 
HETATM    8  C   UNL     1     -37.835 -49.664  11.855  1.00  0.00     0.055 C 
HETATM    9  C   UNL     1     -38.063 -50.903  12.726  1.00  0.00     0.274 C 
HETATM   10  N   UNL     1     -38.244 -50.591  14.152  1.00  0.00     0.088 N 
HETATM   11  C   UNL     1     -39.390 -49.689  14.314  1.00  0.00     0.274 C 
HETATM   12  C   UNL     1     -39.286 -48.385  13.525  1.00  0.00     0.055 C 
BRANCH  10  13
HETATM   13  C   UNL     1     -36.982 -50.141  14.768  1.00  0.00     0.276 C 
BRANCH  13  14
HETATM   14  C   UNL     1     -36.963 -49.996  16.307  1.00  0.00     0.006 C 
HETATM   15  C   UNL     1     -37.504 -51.236  17.023  1.00  0.00     0.011 C 
HETATM   16  C   UNL     1     -35.531 -49.716  16.783  1.00  0.00     0.011 C 
ENDBRANCH  13  14
ENDBRANCH  10  13
ENDBRANCH   1   7
BRANCH   4  17
HETATM   17  C   UNL     1     -42.913 -47.533   9.509  1.00  0.00     0.132 A 
HETATM   18  C   UNL     1     -44.288 -47.771   9.730  1.00  0.00     0.084 A 
HETATM   19  C   UNL     1     -44.921 -46.752   9.068  1.00  0.00     0.076 A 
HETATM   20  C   UNL     1     -46.328 -46.391   8.831  1.00  0.00     0.079 C 
HETATM   21  O   UNL     1     -43.989 -45.936   8.512  1.00  0.00    -0.241 OA
HETATM   22  N   UNL     1     -42.728 -46.452   8.746  1.00  0.00    -0.245 N 
ATOM     23  HN  UNL     1     -41.839 -46.084   8.407  1.00  0.00     0.196 HD
ENDBRANCH   4  17
TORSDOF 4
ENDMDL
MODEL 2
REMARK VINA RESULT:      -5.7      2.990      3.694
REMARK  4 active torsions:
REMARK  status: ('A' for Active; 'I' for Inactive)
REMARK    1  A    between atoms: C_2  and  C_4 
REMARK    2  A    between atoms: C_4  and  N_5 
REMARK    3  A    between atoms: C_8  and  N_11 
REMARK       I    between atoms: N_11  and  C_12 
REMARK       I    between atoms: C_12  and  N_14 
REMARK    4  A    between atoms: N_14  and  C_15 
ROOT
HETATM    1  N   UNL     1     -41.490 -50.968  12.236  1.00  0.00    -0.338 N 
HETATM    2  C   UNL     1     -42.011 -49.703  12.063  1.00  0.00     0.322 C 
HETATM    3  O   UNL     1     -42.591 -49.087  12.946  1.00  0.00    -0.247 OA
HETATM    4  N   UNL     1     -41.718 -49.223  10.810  1.00  0.00    -0.293 N 
HETATM    5  H   UNL     1     -41.568 -51.578  11.433  1.00  0.00     0.164 HD
HETATM    6  H   UNL     1     -40.831 -49.508  10.424  1.00  0.00     0.172 HD
ENDROOT
BRANCH   1   7
HETATM    7  C   UNL     1     -41.391 -51.574  13.559  1.00  0.00     0.089 C 
HETATM    8  C   UNL     1     -40.053 -51.203  14.208  1.00  0.00     0.055 C 
HETATM    9  C   UNL     1     -38.911 -52.136  13.796  1.00  0.00     0.274 C 
HETATM   10  N   UNL     1     -39.219 -53.560  13.997  1.00  0.00     0.088 N 
HETATM   11  C   UNL     1     -40.416 -53.917  13.226  1.00  0.00     0.274 C 
HETATM   12  C   UNL     1     -41.653 -53.085  13.558  1.00  0.00     0.055 C 
BRANCH  10  13
HETATM   13  C   UNL     1     -39.254 -53.905  15.430  1.00  0.00     0.276 C 
BRANCH  13  14
HETATM   14  C   UNL     1     -39.255 -55.409  15.792  1.00  0.00     0.006 C 
HETATM   15  C   UNL     1     -38.017 -55.824  16.589  1.00  0.00     0.011 C 
HETATM   16  C   UNL     1     -40.517 -55.747  16.598  1.00  0.00     0.011 C 
ENDBRANCH  13  14
ENDBRANCH  10  13
ENDBRANCH   1   7
BRANCH   4  17
HETATM   17  C   UNL     1     -42.137 -47.988  10.369  1.00  0.00     0.132 A 
HETATM   18  C   UNL     1     -43.436 -47.595   9.975  1.00  0.00     0.084 A 
HETATM   19  C   UNL     1     -43.292 -46.290   9.582  1.00  0.00     0.076 A 
HETATM   20  C   UNL     1     -44.196 -45.274   9.020  1.00  0.00     0.079 C 
HETATM   21  O   UNL     1     -41.999 -45.912   9.759  1.00  0.00    -0.241 OA
HETATM   22  N   UNL     1     -41.262 -46.993  10.207  1.00  0.00    -0.245 N 
ATOM     23  HN  UNL     1     -40.256 -47.023  10.378  1.00  0.00     0.196 HD
ENDBRANCH   4  17
TORSDOF 4
ENDMDL
MODEL 3
REMARK VINA RESULT:      -5.7      4.086      5.284
REMARK  4 active torsions:
REMARK  status: ('A' for Active; 'I' for Inactive)
REMARK    1  A    between atoms: C_2  and  C_4 
REMARK    2  A    between atoms: C_4  and  N_5 
REMARK    3  A    between atoms: C_8  and  N_11 
REMARK       I    between atoms: N_11  and  C_12 
REMARK       I    between atoms: C_12  and  N_14 
REMARK    4  A    between atoms: N_14  and  C_15 
ROOT
HETATM    1  N   UNL     1     -40.694 -49.743  12.101  1.00  0.00    -0.338 N 
HETATM    2  C   UNL     1     -40.905 -48.556  11.431  1.00  0.00     0.322 C 
HETATM    3  O   UNL     1     -41.678 -48.441  10.491  1.00  0.00    -0.247 OA
HETATM    4  N   UNL     1     -40.196 -47.535  12.016  1.00  0.00    -0.293 N 
HETATM    5  H   UNL     1     -39.743 -49.902  12.404  1.00  0.00     0.164 HD
HETATM    6  H   UNL     1     -40.089 -47.589  13.018  1.00  0.00     0.172 HD
ENDROOT
BRANCH   1   7
HETATM    7  C   UNL     1     -41.553 -50.901  11.881  1.00  0.00     0.089 C 
HETATM    8  C   UNL     1     -42.655 -50.948  12.946  1.00  0.00     0.055 C 
HETATM    9  C   UNL     1     -42.207 -51.639  14.236  1.00  0.00     0.274 C 
HETATM   10  N   UNL     1     -41.630 -52.974  14.015  1.00  0.00     0.088 N 
HETATM   11  C   UNL     1     -40.474 -52.865  13.118  1.00  0.00     0.274 C 
HETATM   12  C   UNL     1     -40.779 -52.220  11.767  1.00  0.00     0.055 C 
BRANCH  10  13
HETATM   13  C   UNL     1     -42.663 -53.946  13.613  1.00  0.00     0.276 C 
BRANCH  13  14
HETATM   14  C   UNL     1     -43.626 -54.446  14.715  1.00  0.00     0.006 C 
HETATM   15  C   UNL     1     -44.908 -55.055  14.145  1.00  0.00     0.011 C 
HETATM   16  C   UNL     1     -42.914 -55.484  15.594  1.00  0.00     0.011 C 
ENDBRANCH  13  14
ENDBRANCH  10  13
ENDBRANCH   1   7
BRANCH   4  17
HETATM   17  C   UNL     1     -40.213 -46.246  11.534  1.00  0.00     0.132 A 
HETATM   18  C   UNL     1     -40.557 -45.059  12.219  1.00  0.00     0.084 A 
HETATM   19  C   UNL     1     -40.454 -44.076  11.270  1.00  0.00     0.076 A 
HETATM   20  C   UNL     1     -40.704 -42.626  11.254  1.00  0.00     0.079 C 
HETATM   21  O   UNL     1     -40.044 -44.628  10.099  1.00  0.00    -0.241 OA
HETATM   22  N   UNL     1     -39.939 -45.999  10.250  1.00  0.00    -0.245 N 
ATOM     23  HN  UNL     1     -39.702 -46.681   9.529  1.00  0.00     0.196 HD
ENDBRANCH   4  17
TORSDOF 4
ENDMDL
MODEL 4
REMARK VINA RESULT:      -5.6      3.545      4.538
REMARK  4 active torsions:
REMARK  status: ('A' for Active; 'I' for Inactive)
REMARK    1  A    between atoms: C_2  and  C_4 
REMARK    2  A    between atoms: C_4  and  N_5 
REMARK    3  A    between atoms: C_8  and  N_11 
REMARK       I    between atoms: N_11  and  C_12 
REMARK       I    between atoms: C_12  and  N_14 
REMARK    4  A    between atoms: N_14  and  C_15 
ROOT
HETATM    1  N   UNL     1     -41.399 -50.382  11.702  1.00  0.00    -0.338 N 
HETATM    2  C   UNL     1     -41.744 -49.050  11.604  1.00  0.00     0.322 C 
HETATM    3  O   UNL     1     -42.790 -48.592  12.042  1.00  0.00    -0.247 OA
HETATM    4  N   UNL     1     -40.729 -48.326  11.029  1.00  0.00    -0.293 N 
HETATM    5  H   UNL     1     -40.904 -50.757  10.904  1.00  0.00     0.164 HD
HETATM    6  H   UNL     1     -39.792 -48.635  11.237  1.00  0.00     0.172 HD
ENDROOT
BRANCH   1   7
HETATM    7  C   UNL     1     -42.156 -51.303  12.542  1.00  0.00     0.089 C 
HETATM    8  C   UNL     1     -41.733 -51.147  14.007  1.00  0.00     0.055 C 
HETATM    9  C   UNL     1     -40.500 -51.982  14.363  1.00  0.00     0.274 C 
HETATM   10  N   UNL     1     -40.629 -53.401  13.998  1.00  0.00     0.088 N 
HETATM   11  C   UNL     1     -40.872 -53.516  12.555  1.00  0.00     0.274 C 
HETATM   12  C   UNL     1     -42.100 -52.756  12.057  1.00  0.00     0.055 C 
BRANCH  10  13
HETATM   13  C   UNL     1     -41.599 -54.093  14.867  1.00  0.00     0.276 C 
BRANCH  13  14
HETATM   14  C   UNL     1     -41.034 -54.828  16.105  1.00  0.00     0.006 C 
HETATM   15  C   UNL     1     -41.911 -56.003  16.543  1.00  0.00     0.011 C 
HETATM   16  C   UNL     1     -39.616 -55.333  15.806  1.00  0.00     0.011 C 
ENDBRANCH  13  14
ENDBRANCH  10  13
ENDBRANCH   1   7
BRANCH   4  17
HETATM   17  C   UNL     1     -40.821 -46.972  10.795  1.00  0.00     0.132 A 
HETATM   18  C   UNL     1     -40.125 -45.924  11.437  1.00  0.00     0.084 A 
HETATM   19  C   UNL     1     -40.623 -44.783  10.864  1.00  0.00     0.076 A 
HETATM   20  C   UNL     1     -40.400 -43.343  11.068  1.00  0.00     0.079 C 
HETATM   21  O   UNL     1     -41.535 -45.122   9.917  1.00  0.00    -0.241 OA
HETATM   22  N   UNL     1     -41.697 -46.495   9.906  1.00  0.00    -0.245 N 
ATOM     23  HN  UNL     1     -42.351 -47.034   9.337  1.00  0.00     0.196 HD
ENDBRANCH   4  17
TORSDOF 4
ENDMDL
MODEL 5
REMARK VINA RESULT:      -5.6      4.856      6.836
REMARK  4 active torsions:
REMARK  status: ('A' for Active; 'I' for Inactive)
REMARK    1  A    between atoms: C_2  and  C_4 
REMARK    2  A    between atoms: C_4  and  N_5 
REMARK    3  A    between atoms: C_8  and  N_11 
REMARK       I    between atoms: N_11  and  C_12 
REMARK       I    between atoms: C_12  and  N_14 
REMARK    4  A    between atoms: N_14  and  C_15 
ROOT
HETATM    1  N   UNL     1     -42.783 -48.907  12.566  1.00  0.00    -0.338 N 
HETATM    2  C   UNL     1     -42.802 -50.285  12.543  1.00  0.00     0.322 C 
HETATM    3  O   UNL     1     -41.808 -50.969  12.342  1.00  0.00    -0.247 OA
HETATM    4  N   UNL     1     -44.053 -50.760  12.852  1.00  0.00    -0.293 N 
HETATM    5  H   UNL     1     -43.601 -48.460  12.173  1.00  0.00     0.164 HD
HETATM    6  H   UNL     1     -44.581 -50.216  13.516  1.00  0.00     0.172 HD
ENDROOT
BRANCH   1   7
HETATM    7  C   UNL     1     -41.528 -48.164  12.579  1.00  0.00     0.089 C 
HETATM    8  C   UNL     1     -41.659 -46.926  13.473  1.00  0.00     0.055 C 
HETATM    9  C   UNL     1     -42.257 -45.722  12.739  1.00  0.00     0.274 C 
HETATM   10  N   UNL     1     -41.561 -45.397  11.485  1.00  0.00     0.088 N 
HETATM   11  C   UNL     1     -41.601 -46.558  10.588  1.00  0.00     0.274 C 
HETATM   12  C   UNL     1     -41.002 -47.833  11.177  1.00  0.00     0.055 C 
BRANCH  10  13
HETATM   13  C   UNL     1     -40.225 -44.832  11.743  1.00  0.00     0.276 C 
BRANCH  13  14
HETATM   14  C   UNL     1     -40.120 -43.293  11.852  1.00  0.00     0.006 C 
HETATM   15  C   UNL     1     -41.306 -42.574  11.205  1.00  0.00     0.011 C 
HETATM   16  C   UNL     1     -40.019 -42.884  13.328  1.00  0.00     0.011 C 
ENDBRANCH  13  14
ENDBRANCH  10  13
ENDBRANCH   1   7
BRANCH   4  17
HETATM   17  C   UNL     1     -44.353 -52.104  12.881  1.00  0.00     0.132 A 
HETATM   18  C   UNL     1     -45.178 -52.796  13.796  1.00  0.00     0.084 A 
HETATM   19  C   UNL     1     -45.093 -54.107  13.405  1.00  0.00     0.076 A 
HETATM   20  C   UNL     1     -45.641 -55.374  13.915  1.00  0.00     0.079 C 
HETATM   21  O   UNL     1     -44.295 -54.195  12.309  1.00  0.00    -0.241 OA
HETATM   22  N   UNL     1     -43.790 -52.943  12.008  1.00  0.00    -0.245 N 
ATOM     23  HN  UNL     1     -43.124 -52.709  11.271  1.00  0.00     0.196 HD
ENDBRANCH   4  17
TORSDOF 4
ENDMDL
MODEL 6
REMARK VINA RESULT:      -5.4      1.582      2.173
REMARK  4 active torsions:
REMARK  status: ('A' for Active; 'I' for Inactive)
REMARK    1  A    between atoms: C_2  and  C_4 
REMARK    2  A    between atoms: C_4  and  N_5 
REMARK    3  A    between atoms: C_8  and  N_11 
REMARK       I    between atoms: N_11  and  C_12 
REMARK       I    between atoms: C_12  and  N_14 
REMARK    4  A    between atoms: N_14  and  C_15 
ROOT
HETATM    1  N   UNL     1     -40.104 -48.105  12.393  1.00  0.00    -0.338 N 
HETATM    2  C   UNL     1     -41.061 -48.506  11.486  1.00  0.00     0.322 C 
HETATM    3  O   UNL     1     -41.223 -49.671  11.149  1.00  0.00    -0.247 OA
HETATM    4  N   UNL     1     -41.835 -47.442  11.092  1.00  0.00    -0.293 N 
HETATM    5  H   UNL     1     -39.668 -47.214  12.191  1.00  0.00     0.164 HD
HETATM    6  H   UNL     1     -42.004 -46.736  11.791  1.00  0.00     0.172 HD
ENDROOT
BRANCH   1   7
HETATM    7  C   UNL     1     -39.362 -49.073  13.193  1.00  0.00     0.089 C 
HETATM    8  C   UNL     1     -39.948 -49.145  14.607  1.00  0.00     0.055 C 
HETATM    9  C   UNL     1     -39.381 -48.074  15.543  1.00  0.00     0.274 C 
HETATM   10  N   UNL     1     -37.910 -48.051  15.581  1.00  0.00     0.088 N 
HETATM   11  C   UNL     1     -37.389 -47.815  14.230  1.00  0.00     0.274 C 
HETATM   12  C   UNL     1     -37.847 -48.834  13.188  1.00  0.00     0.055 C 
BRANCH  10  13
HETATM   13  C   UNL     1     -37.372 -49.234  16.278  1.00  0.00     0.276 C 
BRANCH  13  14
HETATM   14  C   UNL     1     -35.863 -49.226  16.615  1.00  0.00     0.006 C 
HETATM   15  C   UNL     1     -35.425 -47.947  17.331  1.00  0.00     0.011 C 
HETATM   16  C   UNL     1     -35.521 -50.442  17.487  1.00  0.00     0.011 C 
ENDBRANCH  13  14
ENDBRANCH  10  13
ENDBRANCH   1   7
BRANCH   4  17
HETATM   17  C   UNL     1     -42.855 -47.563  10.174  1.00  0.00     0.132 A 
HETATM   18  C   UNL     1     -44.245 -47.429  10.389  1.00  0.00     0.084 A 
HETATM   19  C   UNL     1     -44.805 -47.694   9.167  1.00  0.00     0.076 A 
HETATM   20  C   UNL     1     -46.184 -47.783   8.660  1.00  0.00     0.079 C 
HETATM   21  O   UNL     1     -43.817 -47.940   8.268  1.00  0.00    -0.241 OA
HETATM   22  N   UNL     1     -42.593 -47.907   8.911  1.00  0.00    -0.245 N 
ATOM     23  HN  UNL     1     -41.678 -48.105   8.503  1.00  0.00     0.196 HD
ENDBRANCH   4  17
TORSDOF 4
ENDMDL
MODEL 7
REMARK VINA RESULT:      -5.4     14.463     17.188
REMARK  4 active torsions:
REMARK  status: ('A' for Active; 'I' for Inactive)
REMARK    1  A    between atoms: C_2  and  C_4 
REMARK    2  A    between atoms: C_4  and  N_5 
REMARK    3  A    between atoms: C_8  and  N_11 
REMARK       I    between atoms: N_11  and  C_12 
REMARK       I    between atoms: C_12  and  N_14 
REMARK    4  A    between atoms: N_14  and  C_15 
ROOT
HETATM    1  N   UNL     1     -50.603 -50.720  -0.399  1.00  0.00    -0.338 N 
HETATM    2  C   UNL     1     -50.425 -49.838   0.646  1.00  0.00     0.322 C 
HETATM    3  O   UNL     1     -50.052 -50.179   1.759  1.00  0.00    -0.247 OA
HETATM    4  N   UNL     1     -50.645 -48.546   0.235  1.00  0.00    -0.293 N 
HETATM    5  H   UNL     1     -51.384 -50.512  -1.008  1.00  0.00     0.164 HD
HETATM    6  H   UNL     1     -50.379 -48.333  -0.715  1.00  0.00     0.172 HD
ENDROOT
BRANCH   1   7
HETATM    7  C   UNL     1     -50.138 -52.100  -0.316  1.00  0.00     0.089 C 
HETATM    8  C   UNL     1     -48.852 -52.271  -1.132  1.00  0.00     0.055 C 
HETATM    9  C   UNL     1     -49.121 -52.548  -2.614  1.00  0.00     0.274 C 
HETATM   10  N   UNL     1     -50.045 -53.669  -2.842  1.00  0.00     0.088 N 
HETATM   11  C   UNL     1     -51.324 -53.392  -2.179  1.00  0.00     0.274 C 
HETATM   12  C   UNL     1     -51.216 -53.128  -0.679  1.00  0.00     0.055 C 
BRANCH  10  13
HETATM   13  C   UNL     1     -49.416 -54.960  -2.507  1.00  0.00     0.276 C 
BRANCH  13  14
HETATM   14  C   UNL     1     -49.949 -56.213  -3.239  1.00  0.00     0.006 C 
HETATM   15  C   UNL     1     -50.442 -55.904  -4.654  1.00  0.00     0.011 C 
HETATM   16  C   UNL     1     -48.849 -57.282  -3.303  1.00  0.00     0.011 C 
ENDBRANCH  13  14
ENDBRANCH  10  13
ENDBRANCH   1   7
BRANCH   4  17
HETATM   17  C   UNL     1     -50.552 -47.468   1.086  1.00  0.00     0.132 A 
HETATM   18  C   UNL     1     -49.489 -46.547   1.219  1.00  0.00     0.084 A 
HETATM   19  C   UNL     1     -49.885 -45.714   2.233  1.00  0.00     0.076 A 
HETATM   20  C   UNL     1     -49.273 -44.572   2.931  1.00  0.00     0.079 C 
HETATM   21  O   UNL     1     -51.119 -46.089   2.662  1.00  0.00    -0.241 OA
HETATM   22  N   UNL     1     -51.518 -47.222   1.976  1.00  0.00    -0.245 N 
ATOM     23  HN  UNL     1     -52.374 -47.758   2.119  1.00  0.00     0.196 HD
ENDBRANCH   4  17
TORSDOF 4
ENDMDL
MODEL 8
REMARK VINA RESULT:      -5.3      5.019      8.648
REMARK  4 active torsions:
REMARK  status: ('A' for Active; 'I' for Inactive)
REMARK    1  A    between atoms: C_2  and  C_4 
REMARK    2  A    between atoms: C_4  and  N_5 
REMARK    3  A    between atoms: C_8  and  N_11 
REMARK       I    between atoms: N_11  and  C_12 
REMARK       I    between atoms: C_12  and  N_14 
REMARK    4  A    between atoms: N_14  and  C_15 
ROOT
HETATM    1  N   UNL     1     -39.181 -51.999  14.867  1.00  0.00    -0.338 N 
HETATM    2  C   UNL     1     -38.198 -51.033  14.923  1.00  0.00     0.322 C 
HETATM    3  O   UNL     1     -37.820 -50.400  13.947  1.00  0.00    -0.247 OA
HETATM    4  N   UNL     1     -37.780 -50.840  16.217  1.00  0.00    -0.293 N 
HETATM    5  H   UNL     1     -39.035 -52.796  15.472  1.00  0.00     0.164 HD
HETATM    6  H   UNL     1     -38.485 -50.948  16.930  1.00  0.00     0.172 HD
ENDROOT
BRANCH   1   7
HETATM    7  C   UNL     1     -40.005 -52.176  13.676  1.00  0.00     0.089 C 
HETATM    8  C   UNL     1     -41.265 -51.309  13.775  1.00  0.00     0.055 C 
HETATM    9  C   UNL     1     -42.397 -51.990  14.548  1.00  0.00     0.274 C 
HETATM   10  N   UNL     1     -42.720 -53.336  14.048  1.00  0.00     0.088 N 
HETATM   11  C   UNL     1     -41.526 -54.185  14.123  1.00  0.00     0.274 C 
HETATM   12  C   UNL     1     -40.316 -53.645  13.363  1.00  0.00     0.055 C 
BRANCH  10  13
HETATM   13  C   UNL     1     -43.381 -53.275  12.732  1.00  0.00     0.276 C 
BRANCH  13  14
HETATM   14  C   UNL     1     -44.838 -53.787  12.652  1.00  0.00     0.006 C 
HETATM   15  C   UNL     1     -45.186 -54.756  13.785  1.00  0.00     0.011 C 
HETATM   16  C   UNL     1     -45.808 -52.597  12.684  1.00  0.00     0.011 C 
ENDBRANCH  13  14
ENDBRANCH  10  13
ENDBRANCH   1   7
BRANCH   4  17
HETATM   17  C   UNL     1     -36.791 -49.943  16.552  1.00  0.00     0.132 A 
HETATM   18  C   UNL     1     -36.875 -48.832  17.421  1.00  0.00     0.084 A 
HETATM   19  C   UNL     1     -35.633 -48.257  17.360  1.00  0.00     0.076 A 
HETATM   20  C   UNL     1     -35.018 -47.061  17.956  1.00  0.00     0.079 C 
HETATM   21  O   UNL     1     -34.842 -48.991  16.534  1.00  0.00    -0.241 OA
HETATM   22  N   UNL     1     -35.583 -50.023  15.987  1.00  0.00    -0.245 N 
ATOM     23  HN  UNL     1     -35.271 -50.704  15.295  1.00  0.00     0.196 HD
ENDBRANCH   4  17
TORSDOF 4
ENDMDL
MODEL 9
REMARK VINA RESULT:      -5.3      3.513      4.367
REMARK  4 active torsions:
REMARK  status: ('A' for Active; 'I' for Inactive)
REMARK    1  A    between atoms: C_2  and  C_4 
REMARK    2  A    between atoms: C_4  and  N_5 
REMARK    3  A    between atoms: C_8  and  N_11 
REMARK       I    between atoms: N_11  and  C_12 
REMARK       I    between atoms: C_12  and  N_14 
REMARK    4  A    between atoms: N_14  and  C_15 
ROOT
HETATM    1  N   UNL     1     -40.697 -47.944  11.863  1.00  0.00    -0.338 N 
HETATM    2  C   UNL     1     -41.221 -46.859  11.192  1.00  0.00     0.322 C 
HETATM    3  O   UNL     1     -41.672 -46.923  10.057  1.00  0.00    -0.247 OA
HETATM    4  N   UNL     1     -41.231 -45.747  11.998  1.00  0.00    -0.293 N 
HETATM    5  H   UNL     1     -39.898 -47.741  12.450  1.00  0.00     0.164 HD
HETATM    6  H   UNL     1     -41.391 -45.914  12.980  1.00  0.00     0.172 HD
ENDROOT
BRANCH   1   7
HETATM    7  C   UNL     1     -40.853 -49.301  11.352  1.00  0.00     0.089 C 
HETATM    8  C   UNL     1     -42.016 -50.000  12.065  1.00  0.00     0.055 C 
HETATM    9  C   UNL     1     -41.601 -50.645  13.390  1.00  0.00     0.274 C 
HETATM   10  N   UNL     1     -40.442 -51.542  13.266  1.00  0.00     0.088 N 
HETATM   11  C   UNL     1     -39.298 -50.793  12.732  1.00  0.00     0.274 C 
HETATM   12  C   UNL     1     -39.556 -50.118  11.386  1.00  0.00     0.055 C 
BRANCH  10  13
HETATM   13  C   UNL     1     -40.793 -52.777  12.541  1.00  0.00     0.276 C 
BRANCH  13  14
HETATM   14  C   UNL     1     -40.679 -54.107  13.321  1.00  0.00     0.006 C 
HETATM   15  C   UNL     1     -39.342 -54.250  14.052  1.00  0.00     0.011 C 
HETATM   16  C   UNL     1     -41.827 -54.214  14.334  1.00  0.00     0.011 C 
ENDBRANCH  13  14
ENDBRANCH  10  13
ENDBRANCH   1   7
BRANCH   4  17
HETATM   17  C   UNL     1     -41.686 -44.521  11.569  1.00  0.00     0.132 A 
HETATM   18  C   UNL     1     -41.086 -43.254  11.745  1.00  0.00     0.084 A 
HETATM   19  C   UNL     1     -41.969 -42.376  11.174  1.00  0.00     0.076 A 
HETATM   20  C   UNL     1     -42.024 -40.912  11.030  1.00  0.00     0.079 C 
HETATM   21  O   UNL     1     -43.017 -43.070  10.659  1.00  0.00    -0.241 OA
HETATM   22  N   UNL     1     -42.865 -44.413  10.950  1.00  0.00    -0.245 N 
ATOM     23  HN  UNL     1     -43.519 -45.167  10.736  1.00  0.00     0.196 HD
ENDBRANCH   4  17
TORSDOF 4
ENDMDL
