MODEL 1
REMARK VINA RESULT:      -6.1      0.000      0.000
REMARK  5 active torsions:
REMARK  status: ('A' for Active; 'I' for Inactive)
REMARK    1  A    between atoms: CA_2  and  C_3 
REMARK    2  A    between atoms: CA_2  and  N_5 
REMARK    3  A    between atoms: C_3  and  O_4 
REMARK       I    between atoms: N_5  and  C_8 
REMARK       I    between atoms: C_8  and  N_10 
REMARK    4  A    between atoms: N_10  and  C_11 
REMARK    5  A    between atoms: C_17  and  N_18 
ROOT
HETATM    1  C   UNK A   0     -40.976 -45.249  10.805  1.00  0.00     0.060 A 
HETATM    2  C   UNK A   0     -40.256 -44.132  11.255  1.00  0.00     0.029 A 
HETATM    3  C   UNK A   0     -40.923 -42.948  11.530  1.00  0.00     0.019 A 
HETATM    4  C   UNK A   0     -42.283 -42.919  11.310  1.00  0.00     0.090 A 
HETATM    5  N   UNK A   0     -42.993 -43.962  10.825  1.00  0.00    -0.351 N 
ATOM      6  HN  UNK A   0     -43.993 -43.864  10.650  1.00  0.00     0.166 HD
HETATM    7  C   UNK A   0     -42.369 -45.143  10.571  1.00  0.00     0.125 A 
ENDROOT
BRANCH   1   8
HETATM    8  N   UNK A   0     -40.224 -46.422  10.527  1.00  0.00    -0.207 NA
HETATM    9  C   UNK A   0     -40.009 -47.309  11.566  1.00  0.00     0.299 C 
ATOM     10  N   ALA A   1     -39.266 -48.386  11.137  1.00  0.00    -0.341 N 
HETATM   11  O   UNK A   0     -40.402 -47.180  12.718  1.00  0.00    -0.254 OA
ATOM     12  H   ALA A   1     -39.336 -48.608  10.152  1.00  0.00     0.164 HD
HETATM   13  H   UNK A   0     -39.336 -46.240  10.081  1.00  0.00     0.138 HD
BRANCH  10  14
ATOM     14  CA  ALA A   1     -38.977 -49.506  12.033  1.00  0.00     0.105 C 
ATOM     15  CB  ALA A   1     -40.101 -50.544  11.963  1.00  0.00     0.034 C 
BRANCH  14  16
ATOM     16  C   ALA A   1     -37.613 -50.114  11.691  1.00  0.00     0.189 C 
BRANCH  16  17
ATOM     17  O   ALA A   1     -37.383 -50.131  10.282  1.00  0.00    -0.399 OA
ATOM     18  H   ALA A   1     -37.616 -51.020   9.961  1.00  0.00     0.209 HD
ENDBRANCH  16  17
ENDBRANCH  14  16
ENDBRANCH  10  14
ENDBRANCH   1   8
BRANCH   7  19
HETATM   19  N   UNK A   0     -43.127 -46.142   9.977  1.00  0.00    -0.366 N 
HETATM   20  C   UNK A   0     -43.697 -47.234  10.756  1.00  0.00     0.124 C 
HETATM   21  C   UNK A   0     -44.791 -47.816   9.865  1.00  0.00     0.021 C 
HETATM   22  C   UNK A   0     -45.254 -46.630   9.045  1.00  0.00     0.021 C 
HETATM   23  C   UNK A   0     -43.982 -45.812   8.835  1.00  0.00     0.124 C 
ENDBRANCH   7  19
TORSDOF 5
ENDMDL
MODEL 2
REMARK VINA RESULT:      -6.0      2.137      2.734
REMARK  5 active torsions:
REMARK  status: ('A' for Active; 'I' for Inactive)
REMARK    1  A    between atoms: CA_2  and  C_3 
REMARK    2  A    between atoms: CA_2  and  N_5 
REMARK    3  A    between atoms: C_3  and  O_4 
REMARK       I    between atoms: N_5  and  C_8 
REMARK       I    between atoms: C_8  and  N_10 
REMARK    4  A    between atoms: N_10  and  C_11 
REMARK    5  A    between atoms: C_17  and  N_18 
ROOT
HETATM    1  C   UNK A   0     -41.132 -47.526  10.830  1.00  0.00     0.060 A 
HETATM    2  C   UNK A   0     -39.926 -47.027  11.343  1.00  0.00     0.029 A 
HETATM    3  C   UNK A   0     -39.750 -45.659  11.481  1.00  0.00     0.019 A 
HETATM    4  C   UNK A   0     -40.778 -44.841  11.066  1.00  0.00     0.090 A 
HETATM    5  N   UNK A   0     -41.929 -45.291  10.518  1.00  0.00    -0.351 N 
ATOM      6  HN  UNK A   0     -42.637 -44.631  10.197  1.00  0.00     0.166 HD
HETATM    7  C   UNK A   0     -42.138 -46.630  10.395  1.00  0.00     0.125 A 
ENDROOT
BRANCH   1   8
HETATM    8  N   UNK A   0     -41.235 -48.937  10.702  1.00  0.00    -0.207 NA
HETATM    9  C   UNK A   0     -41.488 -49.670  11.846  1.00  0.00     0.299 C 
ATOM     10  N   ALA A   1     -41.554 -51.015  11.556  1.00  0.00    -0.341 N 
HETATM   11  O   UNK A   0     -41.629 -49.220  12.976  1.00  0.00    -0.254 OA
ATOM     12  H   ALA A   1     -41.827 -51.250  10.610  1.00  0.00     0.164 HD
HETATM   13  H   UNK A   0     -40.451 -49.361  10.225  1.00  0.00     0.138 HD
BRANCH  10  14
ATOM     14  CA  ALA A   1     -41.896 -51.993  12.589  1.00  0.00     0.105 C 
ATOM     15  CB  ALA A   1     -43.328 -52.499  12.386  1.00  0.00     0.034 C 
BRANCH  14  16
ATOM     16  C   ALA A   1     -40.878 -53.138  12.586  1.00  0.00     0.189 C 
BRANCH  16  17
ATOM     17  O   ALA A   1     -40.497 -53.501  11.259  1.00  0.00    -0.399 OA
ATOM     18  H   ALA A   1     -40.612 -54.464  11.178  1.00  0.00     0.209 HD
ENDBRANCH  16  17
ENDBRANCH  14  16
ENDBRANCH  10  14
ENDBRANCH   1   8
BRANCH   7  19
HETATM   19  N   UNK A   0     -43.290 -47.029   9.731  1.00  0.00    -0.366 N 
HETATM   20  C   UNK A   0     -44.369 -47.723  10.421  1.00  0.00     0.124 C 
HETATM   21  C   UNK A   0     -45.579 -47.568   9.505  1.00  0.00     0.021 C 
HETATM   22  C   UNK A   0     -45.329 -46.250   8.803  1.00  0.00     0.021 C 
HETATM   23  C   UNK A   0     -43.812 -46.203   8.640  1.00  0.00     0.124 C 
ENDBRANCH   7  19
TORSDOF 5
ENDMDL
MODEL 3
REMARK VINA RESULT:      -6.0      2.850      6.344
REMARK  5 active torsions:
REMARK  status: ('A' for Active; 'I' for Inactive)
REMARK    1  A    between atoms: CA_2  and  C_3 
REMARK    2  A    between atoms: CA_2  and  N_5 
REMARK    3  A    between atoms: C_3  and  O_4 
REMARK       I    between atoms: N_5  and  C_8 
REMARK       I    between atoms: C_8  and  N_10 
REMARK    4  A    between atoms: N_10  and  C_11 
REMARK    5  A    between atoms: C_17  and  N_18 
ROOT
HETATM    1  C   UNK A   0     -39.498 -50.085  11.784  1.00  0.00     0.060 A 
HETATM    2  C   UNK A   0     -38.375 -49.285  12.040  1.00  0.00     0.029 A 
HETATM    3  C   UNK A   0     -37.575 -49.553  13.141  1.00  0.00     0.019 A 
HETATM    4  C   UNK A   0     -37.953 -50.593  13.963  1.00  0.00     0.090 A 
HETATM    5  N   UNK A   0     -39.061 -51.345  13.771  1.00  0.00    -0.351 N 
ATOM      6  HN  UNK A   0     -39.305 -52.077  14.437  1.00  0.00     0.166 HD
HETATM    7  C   UNK A   0     -39.848 -51.120  12.685  1.00  0.00     0.125 A 
ENDROOT
BRANCH   1   8
HETATM    8  N   UNK A   0     -40.279 -49.741  10.648  1.00  0.00    -0.207 NA
HETATM    9  C   UNK A   0     -41.270 -48.791  10.813  1.00  0.00     0.299 C 
ATOM     10  N   ALA A   1     -41.936 -48.574   9.627  1.00  0.00    -0.341 N 
HETATM   11  O   UNK A   0     -41.549 -48.211  11.855  1.00  0.00    -0.254 OA
ATOM     12  H   ALA A   1     -41.410 -48.764   8.784  1.00  0.00     0.164 HD
HETATM   13  H   UNK A   0     -40.685 -50.537  10.176  1.00  0.00     0.138 HD
BRANCH  10  14
ATOM     14  CA  ALA A   1     -42.975 -47.549   9.523  1.00  0.00     0.105 C 
ATOM     15  CB  ALA A   1     -42.373 -46.159   9.748  1.00  0.00     0.034 C 
BRANCH  14  16
ATOM     16  C   ALA A   1     -43.683 -47.654   8.168  1.00  0.00     0.189 C 
BRANCH  16  17
ATOM     17  O   ALA A   1     -42.890 -48.361   7.213  1.00  0.00    -0.399 OA
ATOM     18  H   ALA A   1     -41.967 -48.328   7.524  1.00  0.00     0.209 HD
ENDBRANCH  16  17
ENDBRANCH  14  16
ENDBRANCH  10  14
ENDBRANCH   1   8
BRANCH   7  19
HETATM   19  N   UNK A   0     -41.024 -51.852  12.597  1.00  0.00    -0.366 N 
HETATM   20  C   UNK A   0     -41.017 -53.308  12.541  1.00  0.00     0.124 C 
HETATM   21  C   UNK A   0     -42.439 -53.718  12.913  1.00  0.00     0.021 C 
HETATM   22  C   UNK A   0     -42.901 -52.609  13.834  1.00  0.00     0.021 C 
HETATM   23  C   UNK A   0     -42.227 -51.360  13.272  1.00  0.00     0.124 C 
ENDBRANCH   7  19
TORSDOF 5
ENDMDL
MODEL 4
REMARK VINA RESULT:      -5.9      4.459      7.189
REMARK  5 active torsions:
REMARK  status: ('A' for Active; 'I' for Inactive)
REMARK    1  A    between atoms: CA_2  and  C_3 
REMARK    2  A    between atoms: CA_2  and  N_5 
REMARK    3  A    between atoms: C_3  and  O_4 
REMARK       I    between atoms: N_5  and  C_8 
REMARK       I    between atoms: C_8  and  N_10 
REMARK    4  A    between atoms: N_10  and  C_11 
REMARK    5  A    between atoms: C_17  and  N_18 
ROOT
HETATM    1  C   UNK A   0     -42.110 -52.650  12.787  1.00  0.00     0.060 A 
HETATM    2  C   UNK A   0     -40.948 -53.347  13.147  1.00  0.00     0.029 A 
HETATM    3  C   UNK A   0     -41.012 -54.338  14.115  1.00  0.00     0.019 A 
HETATM    4  C   UNK A   0     -42.233 -54.568  14.710  1.00  0.00     0.090 A 
HETATM    5  N   UNK A   0     -43.358 -53.874  14.421  1.00  0.00    -0.351 N 
ATOM      6  HN  UNK A   0     -44.223 -54.069  14.924  1.00  0.00     0.166 HD
HETATM    7  C   UNK A   0     -43.329 -52.915  13.457  1.00  0.00     0.125 A 
ENDROOT
BRANCH   1   8
HETATM    8  N   UNK A   0     -41.966 -51.638  11.801  1.00  0.00    -0.207 NA
HETATM    9  C   UNK A   0     -41.821 -50.333  12.235  1.00  0.00     0.299 C 
ATOM     10  N   ALA A   1     -41.698 -49.477  11.163  1.00  0.00    -0.341 N 
HETATM   11  O   UNK A   0     -41.810 -49.956  13.399  1.00  0.00    -0.254 OA
ATOM     12  H   ALA A   1     -41.321 -49.881  10.315  1.00  0.00     0.164 HD
HETATM   13  H   UNK A   0     -42.686 -51.654  11.092  1.00  0.00     0.138 HD
BRANCH  10  14
ATOM     14  CA  ALA A   1     -41.448 -48.049  11.364  1.00  0.00     0.105 C 
ATOM     15  CB  ALA A   1     -39.944 -47.787  11.488  1.00  0.00     0.034 C 
BRANCH  14  16
ATOM     16  C   ALA A   1     -42.079 -47.240  10.227  1.00  0.00     0.189 C 
BRANCH  16  17
ATOM     17  O   ALA A   1     -42.416 -48.070   9.114  1.00  0.00    -0.399 OA
ATOM     18  H   ALA A   1     -42.904 -47.517   8.479  1.00  0.00     0.209 HD
ENDBRANCH  16  17
ENDBRANCH  14  16
ENDBRANCH  10  14
ENDBRANCH   1   8
BRANCH   7  19
HETATM   19  N   UNK A   0     -44.484 -52.167  13.279  1.00  0.00    -0.366 N 
HETATM   20  C   UNK A   0     -45.610 -52.670  12.502  1.00  0.00     0.124 C 
HETATM   21  C   UNK A   0     -46.792 -51.803  12.923  1.00  0.00     0.021 C 
HETATM   22  C   UNK A   0     -46.465 -51.422  14.352  1.00  0.00     0.021 C 
HETATM   23  C   UNK A   0     -44.944 -51.288  14.357  1.00  0.00     0.124 C 
ENDBRANCH   7  19
TORSDOF 5
ENDMDL
MODEL 5
REMARK VINA RESULT:      -5.7      1.712      3.711
REMARK  5 active torsions:
REMARK  status: ('A' for Active; 'I' for Inactive)
REMARK    1  A    between atoms: CA_2  and  C_3 
REMARK    2  A    between atoms: CA_2  and  N_5 
REMARK    3  A    between atoms: C_3  and  O_4 
REMARK       I    between atoms: N_5  and  C_8 
REMARK       I    between atoms: C_8  and  N_10 
REMARK    4  A    between atoms: N_10  and  C_11 
REMARK    5  A    between atoms: C_17  and  N_18 
ROOT
HETATM    1  C   UNK A   0     -42.483 -47.355   9.666  1.00  0.00     0.060 A 
HETATM    2  C   UNK A   0     -43.655 -47.651   8.955  1.00  0.00     0.029 A 
HETATM    3  C   UNK A   0     -44.592 -46.655   8.727  1.00  0.00     0.019 A 
HETATM    4  C   UNK A   0     -44.333 -45.407   9.251  1.00  0.00     0.090 A 
HETATM    5  N   UNK A   0     -43.239 -45.108   9.987  1.00  0.00    -0.351 N 
ATOM      6  HN  UNK A   0     -43.124 -44.173  10.378  1.00  0.00     0.166 HD
HETATM    7  C   UNK A   0     -42.291 -46.059  10.203  1.00  0.00     0.125 A 
ENDROOT
BRANCH   1   8
HETATM    8  N   UNK A   0     -41.576 -48.429   9.876  1.00  0.00    -0.207 NA
HETATM    9  C   UNK A   0     -41.658 -49.114  11.074  1.00  0.00     0.299 C 
ATOM     10  N   ALA A   1     -40.714 -50.117  11.124  1.00  0.00    -0.341 N 
HETATM   11  O   UNK A   0     -42.440 -48.883  11.987  1.00  0.00    -0.254 OA
ATOM     12  H   ALA A   1     -40.415 -50.486  10.231  1.00  0.00     0.164 HD
HETATM   13  H   UNK A   0     -40.609 -48.181   9.722  1.00  0.00     0.138 HD
BRANCH  10  14
ATOM     14  CA  ALA A   1     -40.655 -51.039  12.258  1.00  0.00     0.105 C 
ATOM     15  CB  ALA A   1     -41.216 -52.407  11.858  1.00  0.00     0.034 C 
BRANCH  14  16
ATOM     16  C   ALA A   1     -39.218 -51.139  12.780  1.00  0.00     0.189 C 
BRANCH  16  17
ATOM     17  O   ALA A   1     -38.270 -51.146  11.711  1.00  0.00    -0.399 OA
ATOM     18  H   ALA A   1     -37.561 -51.765  11.959  1.00  0.00     0.209 HD
ENDBRANCH  16  17
ENDBRANCH  14  16
ENDBRANCH  10  14
ENDBRANCH   1   8
BRANCH   7  19
HETATM   19  N   UNK A   0     -41.245 -45.724  11.052  1.00  0.00    -0.366 N 
HETATM   20  C   UNK A   0     -40.096 -44.958  10.583  1.00  0.00     0.124 C 
HETATM   21  C   UNK A   0     -39.444 -44.422  11.854  1.00  0.00     0.021 C 
HETATM   22  C   UNK A   0     -40.603 -44.275  12.817  1.00  0.00     0.021 C 
HETATM   23  C   UNK A   0     -41.525 -45.438  12.460  1.00  0.00     0.124 C 
ENDBRANCH   7  19
TORSDOF 5
ENDMDL
MODEL 6
REMARK VINA RESULT:      -5.6      2.795      5.429
REMARK  5 active torsions:
REMARK  status: ('A' for Active; 'I' for Inactive)
REMARK    1  A    between atoms: CA_2  and  C_3 
REMARK    2  A    between atoms: CA_2  and  N_5 
REMARK    3  A    between atoms: C_3  and  O_4 
REMARK       I    between atoms: N_5  and  C_8 
REMARK       I    between atoms: C_8  and  N_10 
REMARK    4  A    between atoms: N_10  and  C_11 
REMARK    5  A    between atoms: C_17  and  N_18 
ROOT
HETATM    1  C   UNK A   0     -40.818 -48.827  10.970  1.00  0.00     0.060 A 
HETATM    2  C   UNK A   0     -41.899 -48.105  10.444  1.00  0.00     0.029 A 
HETATM    3  C   UNK A   0     -41.853 -46.719  10.414  1.00  0.00     0.019 A 
HETATM    4  C   UNK A   0     -40.738 -46.109  10.946  1.00  0.00     0.090 A 
HETATM    5  N   UNK A   0     -39.706 -46.777  11.510  1.00  0.00    -0.351 N 
ATOM      6  HN  UNK A   0     -38.926 -46.264  11.920  1.00  0.00     0.166 HD
HETATM    7  C   UNK A   0     -39.714 -48.137  11.528  1.00  0.00     0.125 A 
ENDROOT
BRANCH   1   8
HETATM    8  N   UNK A   0     -40.942 -50.242  10.983  1.00  0.00    -0.207 NA
HETATM    9  C   UNK A   0     -41.605 -50.820  12.050  1.00  0.00     0.299 C 
ATOM     10  N   ALA A   1     -41.636 -52.190  11.917  1.00  0.00    -0.341 N 
HETATM   11  O   UNK A   0     -42.099 -50.227  13.000  1.00  0.00    -0.254 OA
ATOM     12  H   ALA A   1     -41.583 -52.543  10.970  1.00  0.00     0.164 HD
HETATM   13  H   UNK A   0     -40.065 -50.729  10.859  1.00  0.00     0.138 HD
BRANCH  10  14
ATOM     14  CA  ALA A   1     -42.358 -53.024  12.878  1.00  0.00     0.105 C 
ATOM     15  CB  ALA A   1     -43.745 -53.381  12.335  1.00  0.00     0.034 C 
BRANCH  14  16
ATOM     16  C   ALA A   1     -41.535 -54.273  13.212  1.00  0.00     0.189 C 
BRANCH  16  17
ATOM     17  O   ALA A   1     -40.242 -54.227  12.608  1.00  0.00    -0.399 OA
ATOM     18  H   ALA A   1     -39.954 -53.297  12.610  1.00  0.00     0.209 HD
ENDBRANCH  16  17
ENDBRANCH  14  16
ENDBRANCH  10  14
ENDBRANCH   1   8
BRANCH   7  19
HETATM   19  N   UNK A   0     -38.680 -48.764  12.212  1.00  0.00    -0.366 N 
HETATM   20  C   UNK A   0     -38.817 -49.161  13.607  1.00  0.00     0.124 C 
HETATM   21  C   UNK A   0     -37.706 -50.182  13.831  1.00  0.00     0.021 C 
HETATM   22  C   UNK A   0     -37.529 -50.822  12.469  1.00  0.00     0.021 C 
HETATM   23  C   UNK A   0     -37.794 -49.680  11.492  1.00  0.00     0.124 C 
ENDBRANCH   7  19
TORSDOF 5
ENDMDL
MODEL 7
REMARK VINA RESULT:      -5.6      2.893      7.344
REMARK  5 active torsions:
REMARK  status: ('A' for Active; 'I' for Inactive)
REMARK    1  A    between atoms: CA_2  and  C_3 
REMARK    2  A    between atoms: CA_2  and  N_5 
REMARK    3  A    between atoms: C_3  and  O_4 
REMARK       I    between atoms: N_5  and  C_8 
REMARK       I    between atoms: C_8  and  N_10 
REMARK    4  A    between atoms: N_10  and  C_11 
REMARK    5  A    between atoms: C_17  and  N_18 
ROOT
HETATM    1  C   UNK A   0     -40.508 -51.460  12.177  1.00  0.00     0.060 A 
HETATM    2  C   UNK A   0     -41.176 -52.669  11.930  1.00  0.00     0.029 A 
HETATM    3  C   UNK A   0     -41.118 -53.691  12.865  1.00  0.00     0.019 A 
HETATM    4  C   UNK A   0     -40.364 -53.474  13.998  1.00  0.00     0.090 A 
HETATM    5  N   UNK A   0     -39.666 -52.341  14.236  1.00  0.00    -0.351 N 
ATOM      6  HN  UNK A   0     -39.097 -52.257  15.078  1.00  0.00     0.166 HD
HETATM    7  C   UNK A   0     -39.726 -51.313  13.348  1.00  0.00     0.125 A 
ENDROOT
BRANCH   1   8
HETATM    8  N   UNK A   0     -40.598 -50.465  11.167  1.00  0.00    -0.207 NA
HETATM    9  C   UNK A   0     -41.559 -49.483  11.316  1.00  0.00     0.299 C 
ATOM     10  N   ALA A   1     -41.519 -48.601  10.258  1.00  0.00    -0.341 N 
HETATM   11  O   UNK A   0     -42.355 -49.385  12.241  1.00  0.00    -0.254 OA
ATOM     12  H   ALA A   1     -40.626 -48.513   9.790  1.00  0.00     0.164 HD
HETATM   13  H   UNK A   0     -40.675 -50.839  10.232  1.00  0.00     0.138 HD
BRANCH  10  14
ATOM     14  CA  ALA A   1     -42.385 -47.422  10.228  1.00  0.00     0.105 C 
ATOM     15  CB  ALA A   1     -41.559 -46.152  10.454  1.00  0.00     0.034 C 
BRANCH  14  16
ATOM     16  C   ALA A   1     -43.159 -47.373   8.906  1.00  0.00     0.189 C 
BRANCH  16  17
ATOM     17  O   ALA A   1     -42.830 -46.210   8.146  1.00  0.00    -0.399 OA
ATOM     18  H   ALA A   1     -41.979 -45.877   8.482  1.00  0.00     0.209 HD
ENDBRANCH  16  17
ENDBRANCH  14  16
ENDBRANCH  10  14
ENDBRANCH   1   8
BRANCH   7  19
HETATM   19  N   UNK A   0     -38.908 -50.219  13.594  1.00  0.00    -0.366 N 
HETATM   20  C   UNK A   0     -39.407 -49.027  14.268  1.00  0.00     0.124 C 
HETATM   21  C   UNK A   0     -38.154 -48.297  14.744  1.00  0.00     0.021 C 
HETATM   22  C   UNK A   0     -37.158 -49.413  14.978  1.00  0.00     0.021 C 
HETATM   23  C   UNK A   0     -37.491 -50.435  13.894  1.00  0.00     0.124 C 
ENDBRANCH   7  19
TORSDOF 5
ENDMDL
MODEL 8
REMARK VINA RESULT:      -5.3      4.976      7.653
REMARK  5 active torsions:
REMARK  status: ('A' for Active; 'I' for Inactive)
REMARK    1  A    between atoms: CA_2  and  C_3 
REMARK    2  A    between atoms: CA_2  and  N_5 
REMARK    3  A    between atoms: C_3  and  O_4 
REMARK       I    between atoms: N_5  and  C_8 
REMARK       I    between atoms: C_8  and  N_10 
REMARK    4  A    between atoms: N_10  and  C_11 
REMARK    5  A    between atoms: C_17  and  N_18 
ROOT
HETATM    1  C   UNK A   0     -44.690 -51.723  13.745  1.00  0.00     0.060 A 
HETATM    2  C   UNK A   0     -46.009 -51.250  13.800  1.00  0.00     0.029 A 
HETATM    3  C   UNK A   0     -46.850 -51.670  14.820  1.00  0.00     0.019 A 
HETATM    4  C   UNK A   0     -46.345 -52.577  15.726  1.00  0.00     0.090 A 
HETATM    5  N   UNK A   0     -45.097 -53.092  15.665  1.00  0.00    -0.351 N 
ATOM      6  HN  UNK A   0     -44.796 -53.789  16.347  1.00  0.00     0.166 HD
HETATM    7  C   UNK A   0     -44.243 -52.677  14.691  1.00  0.00     0.125 A 
ENDROOT
BRANCH   1   8
HETATM    8  N   UNK A   0     -43.892 -51.263  12.664  1.00  0.00    -0.207 NA
HETATM    9  C   UNK A   0     -43.038 -50.202  12.901  1.00  0.00     0.299 C 
ATOM     10  N   ALA A   1     -42.341 -49.876  11.758  1.00  0.00    -0.341 N 
HETATM   11  O   UNK A   0     -42.902 -49.608  13.962  1.00  0.00    -0.254 OA
ATOM     12  H   ALA A   1     -42.210 -50.626  11.092  1.00  0.00     0.164 HD
HETATM   13  H   UNK A   0     -44.419 -51.060  11.826  1.00  0.00     0.138 HD
BRANCH  10  14
ATOM     14  CA  ALA A   1     -41.311 -48.837  11.775  1.00  0.00     0.105 C 
ATOM     15  CB  ALA A   1     -39.924 -49.465  11.611  1.00  0.00     0.034 C 
BRANCH  14  16
ATOM     16  C   ALA A   1     -41.600 -47.793  10.691  1.00  0.00     0.189 C 
BRANCH  16  17
ATOM     17  O   ALA A   1     -41.853 -48.405   9.426  1.00  0.00    -0.399 OA
ATOM     18  H   ALA A   1     -42.815 -48.542   9.358  1.00  0.00     0.209 HD
ENDBRANCH  16  17
ENDBRANCH  14  16
ENDBRANCH  10  14
ENDBRANCH   1   8
BRANCH   7  19
HETATM   19  N   UNK A   0     -43.013 -53.318  14.617  1.00  0.00    -0.366 N 
HETATM   20  C   UNK A   0     -42.610 -54.063  13.432  1.00  0.00     0.124 C 
HETATM   21  C   UNK A   0     -41.095 -54.199  13.556  1.00  0.00     0.021 C 
HETATM   22  C   UNK A   0     -40.686 -52.961  14.326  1.00  0.00     0.021 C 
HETATM   23  C   UNK A   0     -41.852 -52.722  15.282  1.00  0.00     0.124 C 
ENDBRANCH   7  19
TORSDOF 5
ENDMDL
MODEL 9
REMARK VINA RESULT:      -5.2      4.874      8.284
REMARK  5 active torsions:
REMARK  status: ('A' for Active; 'I' for Inactive)
REMARK    1  A    between atoms: CA_2  and  C_3 
REMARK    2  A    between atoms: CA_2  and  N_5 
REMARK    3  A    between atoms: C_3  and  O_4 
REMARK       I    between atoms: N_5  and  C_8 
REMARK       I    between atoms: C_8  and  N_10 
REMARK    4  A    between atoms: N_10  and  C_11 
REMARK    5  A    between atoms: C_17  and  N_18 
ROOT
HETATM    1  C   UNK A   0     -40.110 -54.226  14.315  1.00  0.00     0.060 A 
HETATM    2  C   UNK A   0     -38.952 -54.769  14.891  1.00  0.00     0.029 A 
HETATM    3  C   UNK A   0     -39.053 -55.564  16.022  1.00  0.00     0.019 A 
HETATM    4  C   UNK A   0     -40.309 -55.756  16.554  1.00  0.00     0.090 A 
HETATM    5  N   UNK A   0     -41.436 -55.201  16.053  1.00  0.00    -0.351 N 
ATOM      6  HN  UNK A   0     -42.332 -55.354  16.515  1.00  0.00     0.166 HD
HETATM    7  C   UNK A   0     -41.369 -54.439  14.929  1.00  0.00     0.125 A 
ENDROOT
BRANCH   1   8
HETATM    8  N   UNK A   0     -39.929 -53.408  13.168  1.00  0.00    -0.207 NA
HETATM    9  C   UNK A   0     -39.672 -52.064  13.370  1.00  0.00     0.299 C 
ATOM     10  N   ALA A   1     -39.526 -51.412  12.166  1.00  0.00    -0.341 N 
HETATM   11  O   UNK A   0     -39.589 -51.500  14.453  1.00  0.00    -0.254 OA
ATOM     12  H   ALA A   1     -39.212 -51.982  11.390  1.00  0.00     0.164 HD
HETATM   13  H   UNK A   0     -40.674 -53.486  12.490  1.00  0.00     0.138 HD
BRANCH  10  14
ATOM     14  CA  ALA A   1     -39.164 -49.995  12.116  1.00  0.00     0.105 C 
ATOM     15  CB  ALA A   1     -37.771 -49.826  11.502  1.00  0.00     0.034 C 
BRANCH  14  16
ATOM     16  C   ALA A   1     -40.230 -49.208  11.346  1.00  0.00     0.189 C 
BRANCH  16  17
ATOM     17  O   ALA A   1     -40.550 -49.834  10.103  1.00  0.00    -0.399 OA
ATOM     18  H   ALA A   1     -40.261 -49.233   9.394  1.00  0.00     0.209 HD
ENDBRANCH  16  17
ENDBRANCH  14  16
ENDBRANCH  10  14
ENDBRANCH   1   8
BRANCH   7  19
HETATM   19  N   UNK A   0     -42.539 -53.811  14.522  1.00  0.00    -0.366 N 
HETATM   20  C   UNK A   0     -42.877 -52.465  14.965  1.00  0.00     0.124 C 
HETATM   21  C   UNK A   0     -43.936 -51.986  13.976  1.00  0.00     0.021 C 
HETATM   22  C   UNK A   0     -43.588 -52.719  12.697  1.00  0.00     0.021 C 
HETATM   23  C   UNK A   0     -43.062 -54.068  13.179  1.00  0.00     0.124 C 
ENDBRANCH   7  19
TORSDOF 5
ENDMDL
