MODEL 1
REMARK VINA RESULT:      -6.0      0.000      0.000
REMARK  3 active torsions:
REMARK  status: ('A' for Active; 'I' for Inactive)
REMARK       I    between atoms: N_1  and  C_2 
REMARK       I    between atoms: C_2  and  N_4 
REMARK    1  A    between atoms: C_7  and  N_10 
REMARK    2  A    between atoms: N_10  and  C_11 
REMARK    3  A    between atoms: C_15  and  N_16 
ROOT
HETATM    1  N   UNL     1     -40.956 -47.940  12.674  1.00  0.00     0.094 N 
HETATM    2  H   UNL     1     -41.804 -48.508  12.750  1.00  0.00     0.317 HD
ENDROOT
BRANCH   1   3
HETATM    3  C   UNL     1     -40.601 -47.796  11.255  1.00  0.00     0.224 C 
HETATM    4  C   UNL     1     -40.500 -46.335  10.785  1.00  0.00     0.055 C 
HETATM    5  C   UNL     1     -41.853 -45.628  10.816  1.00  0.00     0.129 C 
HETATM    6  N   UNL     1     -42.836 -46.379  10.042  1.00  0.00    -0.339 N 
HETATM    7  C   UNL     1     -43.754 -45.681   9.292  1.00  0.00     0.294 C 
HETATM    8  C   UNL     1     -43.010 -47.773  10.454  1.00  0.00     0.129 C 
HETATM    9  N   UNL     1     -44.579 -46.442   8.529  1.00  0.00    -0.254 NA
HETATM   10  O   UNL     1     -43.843 -44.461   9.244  1.00  0.00    -0.254 OA
HETATM   11  H   UNL     1     -45.145 -45.878   7.908  1.00  0.00     0.128 HD
HETATM   12  H   UNL     1     -44.139 -47.226   8.068  1.00  0.00     0.128 HD
HETATM   13  C   UNL     1     -41.676 -48.513  10.418  1.00  0.00     0.055 C 
ENDBRANCH   1   3
BRANCH   1  14
HETATM   14  C   UNL     1     -39.915 -48.481  13.544  1.00  0.00     0.244 C 
HETATM   15  C   UNL     1     -38.526 -48.625  12.911  1.00  0.00     0.038 C 
HETATM   16  C   UNL     1     -37.837 -49.771  13.656  1.00  0.00     0.004 C 
HETATM   17  C   UNL     1     -38.860 -50.335  14.641  1.00  0.00     0.028 C 
HETATM   18  C   UNL     1     -40.227 -49.885  14.120  1.00  0.00     0.123 C 
BRANCH  18  19
HETATM   19  N   UNL     1     -40.851 -50.830  13.210  1.00  0.00    -0.345 N 
HETATM   20  C   UNL     1     -42.165 -51.219  13.268  1.00  0.00     0.109 A 
HETATM   21  C   UNL     1     -42.339 -52.069  12.202  1.00  0.00     0.106 A 
HETATM   22  N   UNL     1     -41.173 -52.210  11.501  1.00  0.00    -0.361 N 
HETATM   23  C   UNL     1     -40.296 -51.466  12.135  1.00  0.00     0.183 A 
ATOM     24  HN  UNL     1     -41.018 -52.773  10.665  1.00  0.00     0.166 HD
ENDBRANCH  18  19
ENDBRANCH   1  14
TORSDOF 3
ENDMDL
MODEL 2
REMARK VINA RESULT:      -5.9      5.074      8.330
REMARK  3 active torsions:
REMARK  status: ('A' for Active; 'I' for Inactive)
REMARK       I    between atoms: N_1  and  C_2 
REMARK       I    between atoms: C_2  and  N_4 
REMARK    1  A    between atoms: C_7  and  N_10 
REMARK    2  A    between atoms: N_10  and  C_11 
REMARK    3  A    between atoms: C_15  and  N_16 
ROOT
HETATM    1  N   UNL     1     -43.673 -53.366  15.956  1.00  0.00     0.094 N 
HETATM    2  H   UNL     1     -43.087 -52.574  15.681  1.00  0.00     0.317 HD
ENDROOT
BRANCH   1   3
HETATM    3  C   UNL     1     -43.408 -54.498  15.057  1.00  0.00     0.224 C 
HETATM    4  C   UNL     1     -42.600 -55.634  15.708  1.00  0.00     0.055 C 
HETATM    5  C   UNL     1     -41.177 -55.200  16.054  1.00  0.00     0.129 C 
HETATM    6  N   UNL     1     -40.507 -54.669  14.871  1.00  0.00    -0.339 N 
HETATM    7  C   UNL     1     -39.174 -54.951  14.690  1.00  0.00     0.294 C 
HETATM    8  C   UNL     1     -41.204 -53.561  14.215  1.00  0.00     0.129 C 
HETATM    9  N   UNL     1     -38.639 -54.502  13.526  1.00  0.00    -0.254 NA
HETATM   10  O   UNL     1     -38.477 -55.593  15.466  1.00  0.00    -0.254 OA
HETATM   11  H   UNL     1     -37.696 -54.843  13.389  1.00  0.00     0.128 HD
HETATM   12  H   UNL     1     -39.226 -54.608  12.711  1.00  0.00     0.128 HD
HETATM   13  C   UNL     1     -42.626 -53.968  13.840  1.00  0.00     0.055 C 
ENDBRANCH   1   3
BRANCH   1  14
HETATM   14  C   UNL     1     -45.068 -52.941  16.057  1.00  0.00     0.244 C 
HETATM   15  C   UNL     1     -46.054 -53.665  15.133  1.00  0.00     0.038 C 
HETATM   16  C   UNL     1     -47.196 -52.679  14.876  1.00  0.00     0.004 C 
HETATM   17  C   UNL     1     -46.817 -51.373  15.574  1.00  0.00     0.028 C 
HETATM   18  C   UNL     1     -45.301 -51.437  15.773  1.00  0.00     0.123 C 
BRANCH  18  19
HETATM   19  N   UNL     1     -44.538 -50.863  14.678  1.00  0.00    -0.345 N 
HETATM   20  C   UNL     1     -43.437 -50.058  14.830  1.00  0.00     0.109 A 
HETATM   21  C   UNL     1     -43.004 -49.791  13.553  1.00  0.00     0.106 A 
HETATM   22  N   UNL     1     -43.807 -50.405  12.632  1.00  0.00    -0.361 N 
HETATM   23  C   UNL     1     -44.725 -51.030  13.335  1.00  0.00     0.183 A 
ATOM     24  HN  UNL     1     -43.714 -50.383  11.616  1.00  0.00     0.166 HD
ENDBRANCH  18  19
ENDBRANCH   1  14
TORSDOF 3
ENDMDL
MODEL 3
REMARK VINA RESULT:      -5.8      2.297      3.588
REMARK  3 active torsions:
REMARK  status: ('A' for Active; 'I' for Inactive)
REMARK       I    between atoms: N_1  and  C_2 
REMARK       I    between atoms: C_2  and  N_4 
REMARK    1  A    between atoms: C_7  and  N_10 
REMARK    2  A    between atoms: N_10  and  C_11 
REMARK    3  A    between atoms: C_15  and  N_16 
ROOT
HETATM    1  N   UNL     1     -42.115 -50.432  12.069  1.00  0.00     0.094 N 
HETATM    2  H   UNL     1     -41.524 -50.333  11.239  1.00  0.00     0.317 HD
ENDROOT
BRANCH   1   3
HETATM    3  C   UNL     1     -42.150 -49.152  12.790  1.00  0.00     0.224 C 
HETATM    4  C   UNL     1     -43.344 -48.258  12.415  1.00  0.00     0.055 C 
HETATM    5  C   UNL     1     -43.263 -47.772  10.969  1.00  0.00     0.129 C 
HETATM    6  N   UNL     1     -41.989 -47.102  10.729  1.00  0.00    -0.339 N 
HETATM    7  C   UNL     1     -41.973 -45.991   9.919  1.00  0.00     0.294 C 
HETATM    8  C   UNL     1     -40.804 -47.905  11.036  1.00  0.00     0.129 C 
HETATM    9  N   UNL     1     -40.773 -45.367   9.813  1.00  0.00    -0.254 NA
HETATM   10  O   UNL     1     -42.949 -45.526   9.343  1.00  0.00    -0.254 OA
HETATM   11  H   UNL     1     -40.846 -44.492   9.311  1.00  0.00     0.128 HD
HETATM   12  H   UNL     1     -40.247 -45.292  10.672  1.00  0.00     0.128 HD
HETATM   13  C   UNL     1     -40.846 -48.394  12.481  1.00  0.00     0.055 C 
ENDBRANCH   1   3
BRANCH   1  14
HETATM   14  C   UNL     1     -41.692 -51.595  12.845  1.00  0.00     0.244 C 
HETATM   15  C   UNL     1     -41.264 -52.821  12.029  1.00  0.00     0.038 C 
HETATM   16  C   UNL     1     -41.540 -54.038  12.916  1.00  0.00     0.004 C 
HETATM   17  C   UNL     1     -42.207 -53.514  14.188  1.00  0.00     0.028 C 
HETATM   18  C   UNL     1     -42.762 -52.135  13.826  1.00  0.00     0.123 C 
BRANCH  18  19
HETATM   19  N   UNL     1     -44.130 -52.160  13.335  1.00  0.00    -0.345 N 
HETATM   20  C   UNL     1     -45.106 -51.268  13.699  1.00  0.00     0.109 A 
HETATM   21  C   UNL     1     -46.214 -51.625  12.967  1.00  0.00     0.106 A 
HETATM   22  N   UNL     1     -45.942 -52.705  12.175  1.00  0.00    -0.361 N 
HETATM   23  C   UNL     1     -44.689 -53.012  12.425  1.00  0.00     0.183 A 
ATOM     24  HN  UNL     1     -46.576 -53.173  11.527  1.00  0.00     0.166 HD
ENDBRANCH  18  19
ENDBRANCH   1  14
TORSDOF 3
ENDMDL
MODEL 4
REMARK VINA RESULT:      -5.7      2.934      5.983
REMARK  3 active torsions:
REMARK  status: ('A' for Active; 'I' for Inactive)
REMARK       I    between atoms: N_1  and  C_2 
REMARK       I    between atoms: C_2  and  N_4 
REMARK    1  A    between atoms: C_7  and  N_10 
REMARK    2  A    between atoms: N_10  and  C_11 
REMARK    3  A    between atoms: C_15  and  N_16 
ROOT
HETATM    1  N   UNL     1     -40.401 -47.129  13.331  1.00  0.00     0.094 N 
HETATM    2  H   UNL     1     -41.283 -46.803  13.738  1.00  0.00     0.317 HD
ENDROOT
BRANCH   1   3
HETATM    3  C   UNL     1     -39.546 -47.661  14.400  1.00  0.00     0.224 C 
HETATM    4  C   UNL     1     -38.087 -47.894  13.972  1.00  0.00     0.055 C 
HETATM    5  C   UNL     1     -37.965 -49.001  12.928  1.00  0.00     0.129 C 
HETATM    6  N   UNL     1     -38.589 -50.228  13.414  1.00  0.00    -0.339 N 
HETATM    7  C   UNL     1     -37.990 -51.431  13.119  1.00  0.00     0.294 C 
HETATM    8  C   UNL     1     -39.991 -50.090  13.812  1.00  0.00     0.129 C 
HETATM    9  N   UNL     1     -38.573 -52.521  13.678  1.00  0.00    -0.254 NA
HETATM   10  O   UNL     1     -36.979 -51.567  12.442  1.00  0.00    -0.254 OA
HETATM   11  H   UNL     1     -38.023 -53.358  13.532  1.00  0.00     0.128 HD
HETATM   12  H   UNL     1     -38.881 -52.406  14.633  1.00  0.00     0.128 HD
HETATM   13  C   UNL     1     -40.145 -49.001  14.869  1.00  0.00     0.055 C 
ENDBRANCH   1   3
BRANCH   1  14
HETATM   14  C   UNL     1     -39.816 -46.074  12.506  1.00  0.00     0.244 C 
HETATM   15  C   UNL     1     -40.346 -44.658  12.760  1.00  0.00     0.038 C 
HETATM   16  C   UNL     1     -40.177 -43.900  11.440  1.00  0.00     0.004 C 
HETATM   17  C   UNL     1     -39.641 -44.904  10.420  1.00  0.00     0.028 C 
HETATM   18  C   UNL     1     -39.984 -46.285  10.981  1.00  0.00     0.123 C 
BRANCH  18  19
HETATM   19  N   UNL     1     -41.271 -46.798  10.541  1.00  0.00    -0.345 N 
HETATM   20  C   UNL     1     -42.304 -46.023  10.079  1.00  0.00     0.109 A 
HETATM   21  C   UNL     1     -43.294 -46.909   9.728  1.00  0.00     0.106 A 
HETATM   22  N   UNL     1     -42.896 -48.196   9.965  1.00  0.00    -0.361 N 
HETATM   23  C   UNL     1     -41.684 -48.098  10.463  1.00  0.00     0.183 A 
ATOM     24  HN  UNL     1     -43.426 -49.050   9.791  1.00  0.00     0.166 HD
ENDBRANCH  18  19
ENDBRANCH   1  14
TORSDOF 3
ENDMDL
MODEL 5
REMARK VINA RESULT:      -5.5      2.181      3.787
REMARK  3 active torsions:
REMARK  status: ('A' for Active; 'I' for Inactive)
REMARK       I    between atoms: N_1  and  C_2 
REMARK       I    between atoms: C_2  and  N_4 
REMARK    1  A    between atoms: C_7  and  N_10 
REMARK    2  A    between atoms: N_10  and  C_11 
REMARK    3  A    between atoms: C_15  and  N_16 
ROOT
HETATM    1  N   UNL     1     -43.141 -49.883  12.557  1.00  0.00     0.094 N 
HETATM    2  H   UNL     1     -42.507 -50.493  12.034  1.00  0.00     0.317 HD
ENDROOT
BRANCH   1   3
HETATM    3  C   UNL     1     -42.351 -48.890  13.297  1.00  0.00     0.224 C 
HETATM    4  C   UNL     1     -42.930 -47.465  13.238  1.00  0.00     0.055 C 
HETATM    5  C   UNL     1     -42.875 -46.883  11.827  1.00  0.00     0.129 C 
HETATM    6  N   UNL     1     -41.511 -46.936  11.309  1.00  0.00    -0.339 N 
HETATM    7  C   UNL     1     -41.058 -45.885  10.546  1.00  0.00     0.294 C 
HETATM    8  C   UNL     1     -40.905 -48.269  11.305  1.00  0.00     0.129 C 
HETATM    9  N   UNL     1     -39.755 -45.959  10.174  1.00  0.00    -0.254 NA
HETATM   10  O   UNL     1     -41.722 -44.907  10.229  1.00  0.00    -0.254 OA
HETATM   11  H   UNL     1     -39.443 -45.108   9.725  1.00  0.00     0.128 HD
HETATM   12  H   UNL     1     -39.120 -46.293  10.885  1.00  0.00     0.128 HD
HETATM   13  C   UNL     1     -40.929 -48.873  12.706  1.00  0.00     0.055 C 
ENDBRANCH   1   3
BRANCH   1  14
HETATM   14  C   UNL     1     -44.065 -50.689  13.351  1.00  0.00     0.244 C 
HETATM   15  C   UNL     1     -43.873 -50.619  14.871  1.00  0.00     0.038 C 
HETATM   16  C   UNL     1     -44.384 -51.952  15.425  1.00  0.00     0.004 C 
HETATM   17  C   UNL     1     -44.776 -52.808  14.221  1.00  0.00     0.028 C 
HETATM   18  C   UNL     1     -44.037 -52.203  13.026  1.00  0.00     0.123 C 
BRANCH  18  19
HETATM   19  N   UNL     1     -42.728 -52.786  12.785  1.00  0.00    -0.345 N 
HETATM   20  C   UNL     1     -42.206 -53.848  13.479  1.00  0.00     0.109 A 
HETATM   21  C   UNL     1     -40.986 -54.098  12.896  1.00  0.00     0.106 A 
HETATM   22  N   UNL     1     -40.751 -53.220  11.874  1.00  0.00    -0.361 N 
HETATM   23  C   UNL     1     -41.806 -52.438  11.839  1.00  0.00     0.183 A 
ATOM     24  HN  UNL     1     -39.931 -53.181  11.268  1.00  0.00     0.166 HD
ENDBRANCH  18  19
ENDBRANCH   1  14
TORSDOF 3
ENDMDL
MODEL 6
REMARK VINA RESULT:      -5.4      3.658      6.163
REMARK  3 active torsions:
REMARK  status: ('A' for Active; 'I' for Inactive)
REMARK       I    between atoms: N_1  and  C_2 
REMARK       I    between atoms: C_2  and  N_4 
REMARK    1  A    between atoms: C_7  and  N_10 
REMARK    2  A    between atoms: N_10  and  C_11 
REMARK    3  A    between atoms: C_15  and  N_16 
ROOT
HETATM    1  N   UNL     1     -40.532 -52.730  13.619  1.00  0.00     0.094 N 
HETATM    2  H   UNL     1     -40.850 -52.424  12.695  1.00  0.00     0.317 HD
ENDROOT
BRANCH   1   3
HETATM    3  C   UNL     1     -41.559 -52.397  14.615  1.00  0.00     0.224 C 
HETATM    4  C   UNL     1     -42.101 -53.616  15.382  1.00  0.00     0.055 C 
HETATM    5  C   UNL     1     -42.879 -54.564  14.473  1.00  0.00     0.129 C 
HETATM    6  N   UNL     1     -43.942 -53.845  13.779  1.00  0.00    -0.339 N 
HETATM    7  C   UNL     1     -45.148 -54.478  13.588  1.00  0.00     0.294 C 
HETATM    8  C   UNL     1     -43.496 -52.687  13.001  1.00  0.00     0.129 C 
HETATM    9  N   UNL     1     -46.118 -53.720  13.017  1.00  0.00    -0.254 NA
HETATM   10  O   UNL     1     -45.400 -55.628  13.925  1.00  0.00    -0.254 OA
HETATM   11  H   UNL     1     -47.013 -54.192  13.016  1.00  0.00     0.128 HD
HETATM   12  H   UNL     1     -46.169 -52.766  13.345  1.00  0.00     0.128 HD
HETATM   13  C   UNL     1     -42.728 -51.710  13.886  1.00  0.00     0.055 C 
ENDBRANCH   1   3
BRANCH   1  14
HETATM   14  C   UNL     1     -39.192 -52.209  13.880  1.00  0.00     0.244 C 
HETATM   15  C   UNL     1     -38.968 -51.618  15.278  1.00  0.00     0.038 C 
HETATM   16  C   UNL     1     -37.862 -50.571  15.122  1.00  0.00     0.004 C 
HETATM   17  C   UNL     1     -37.525 -50.502  13.632  1.00  0.00     0.028 C 
HETATM   18  C   UNL     1     -38.737 -51.093  12.908  1.00  0.00     0.123 C 
BRANCH  18  19
HETATM   19  N   UNL     1     -39.742 -50.110  12.542  1.00  0.00    -0.345 N 
HETATM   20  C   UNL     1     -40.445 -50.112  11.364  1.00  0.00     0.109 A 
HETATM   21  C   UNL     1     -41.314 -49.051  11.457  1.00  0.00     0.106 A 
HETATM   22  N   UNL     1     -41.158 -48.403  12.651  1.00  0.00    -0.361 N 
HETATM   23  C   UNL     1     -40.201 -49.052  13.275  1.00  0.00     0.183 A 
ATOM     24  HN  UNL     1     -41.674 -47.590  12.986  1.00  0.00     0.166 HD
ENDBRANCH  18  19
ENDBRANCH   1  14
TORSDOF 3
ENDMDL
MODEL 7
REMARK VINA RESULT:      -5.4      3.109      5.515
REMARK  3 active torsions:
REMARK  status: ('A' for Active; 'I' for Inactive)
REMARK       I    between atoms: N_1  and  C_2 
REMARK       I    between atoms: C_2  and  N_4 
REMARK    1  A    between atoms: C_7  and  N_10 
REMARK    2  A    between atoms: N_10  and  C_11 
REMARK    3  A    between atoms: C_15  and  N_16 
ROOT
HETATM    1  N   UNL     1     -41.729 -49.793  13.674  1.00  0.00     0.094 N 
HETATM    2  H   UNL     1     -41.864 -48.805  13.904  1.00  0.00     0.317 HD
ENDROOT
BRANCH   1   3
HETATM    3  C   UNL     1     -42.363 -50.619  14.711  1.00  0.00     0.224 C 
HETATM    4  C   UNL     1     -42.101 -52.127  14.552  1.00  0.00     0.055 C 
HETATM    5  C   UNL     1     -42.754 -52.693  13.293  1.00  0.00     0.129 C 
HETATM    6  N   UNL     1     -44.182 -52.387  13.280  1.00  0.00    -0.339 N 
HETATM    7  C   UNL     1     -45.052 -53.337  12.799  1.00  0.00     0.294 C 
HETATM    8  C   UNL     1     -44.508 -50.965  13.396  1.00  0.00     0.129 C 
HETATM    9  N   UNL     1     -46.368 -53.022  12.900  1.00  0.00    -0.254 NA
HETATM   10  O   UNL     1     -44.725 -54.423  12.338  1.00  0.00    -0.254 OA
HETATM   11  H   UNL     1     -46.962 -53.801  12.648  1.00  0.00     0.128 HD
HETATM   12  H   UNL     1     -46.640 -52.573  13.763  1.00  0.00     0.128 HD
HETATM   13  C   UNL     1     -43.882 -50.372  14.656  1.00  0.00     0.055 C 
ENDBRANCH   1   3
BRANCH   1  14
HETATM   14  C   UNL     1     -40.314 -50.056  13.422  1.00  0.00     0.244 C 
HETATM   15  C   UNL     1     -39.327 -49.319  14.336  1.00  0.00     0.038 C 
HETATM   16  C   UNL     1     -38.037 -49.160  13.525  1.00  0.00     0.004 C 
HETATM   17  C   UNL     1     -38.321 -49.718  12.131  1.00  0.00     0.028 C 
HETATM   18  C   UNL     1     -39.844 -49.714  11.987  1.00  0.00     0.123 C 
BRANCH  18  19
HETATM   19  N   UNL     1     -40.378 -48.492  11.409  1.00  0.00    -0.345 N 
HETATM   20  C   UNL     1     -39.813 -47.250  11.547  1.00  0.00     0.109 A 
HETATM   21  C   UNL     1     -40.605 -46.406  10.806  1.00  0.00     0.106 A 
HETATM   22  N   UNL     1     -41.634 -47.095  10.226  1.00  0.00    -0.361 N 
HETATM   23  C   UNL     1     -41.480 -48.340  10.615  1.00  0.00     0.183 A 
ATOM     24  HN  UNL     1     -42.365 -46.722   9.620  1.00  0.00     0.166 HD
ENDBRANCH  18  19
ENDBRANCH   1  14
TORSDOF 3
ENDMDL
MODEL 8
REMARK VINA RESULT:      -5.3      3.526      6.471
REMARK  3 active torsions:
REMARK  status: ('A' for Active; 'I' for Inactive)
REMARK       I    between atoms: N_1  and  C_2 
REMARK       I    between atoms: C_2  and  N_4 
REMARK    1  A    between atoms: C_7  and  N_10 
REMARK    2  A    between atoms: N_10  and  C_11 
REMARK    3  A    between atoms: C_15  and  N_16 
ROOT
HETATM    1  N   UNL     1     -40.978 -51.291  12.950  1.00  0.00     0.094 N 
HETATM    2  H   UNL     1     -41.252 -51.312  13.935  1.00  0.00     0.317 HD
ENDROOT
BRANCH   1   3
HETATM    3  C   UNL     1     -41.466 -52.510  12.289  1.00  0.00     0.224 C 
HETATM    4  C   UNL     1     -42.996 -52.666  12.322  1.00  0.00     0.055 C 
HETATM    5  C   UNL     1     -43.520 -52.878  13.740  1.00  0.00     0.129 C 
HETATM    6  N   UNL     1     -42.847 -54.012  14.366  1.00  0.00    -0.339 N 
HETATM    7  C   UNL     1     -43.580 -54.846  15.177  1.00  0.00     0.294 C 
HETATM    8  C   UNL     1     -41.386 -53.919  14.399  1.00  0.00     0.129 C 
HETATM    9  N   UNL     1     -42.913 -55.928  15.651  1.00  0.00    -0.254 NA
HETATM   10  O   UNL     1     -44.764 -54.697  15.454  1.00  0.00    -0.254 OA
HETATM   11  H   UNL     1     -43.530 -56.568  16.136  1.00  0.00     0.128 HD
HETATM   12  H   UNL     1     -42.303 -56.385  14.989  1.00  0.00     0.128 HD
HETATM   13  C   UNL     1     -40.829 -53.723  12.992  1.00  0.00     0.055 C 
ENDBRANCH   1   3
BRANCH   1  14
HETATM   14  C   UNL     1     -39.545 -51.030  12.837  1.00  0.00     0.244 C 
HETATM   15  C   UNL     1     -38.879 -50.428  14.080  1.00  0.00     0.038 C 
HETATM   16  C   UNL     1     -37.678 -49.626  13.570  1.00  0.00     0.004 C 
HETATM   17  C   UNL     1     -37.717 -49.695  12.044  1.00  0.00     0.028 C 
HETATM   18  C   UNL     1     -39.156 -50.072  11.685  1.00  0.00     0.123 C 
BRANCH  18  19
HETATM   19  N   UNL     1     -40.030 -48.930  11.475  1.00  0.00    -0.345 N 
HETATM   20  C   UNL     1     -39.732 -47.641  11.837  1.00  0.00     0.109 A 
HETATM   21  C   UNL     1     -40.799 -46.888  11.410  1.00  0.00     0.106 A 
HETATM   22  N   UNL     1     -41.736 -47.678  10.803  1.00  0.00    -0.361 N 
HETATM   23  C   UNL     1     -41.254 -48.899  10.868  1.00  0.00     0.183 A 
ATOM     24  HN  UNL     1     -42.620 -47.384  10.389  1.00  0.00     0.166 HD
ENDBRANCH  18  19
ENDBRANCH   1  14
TORSDOF 3
ENDMDL
MODEL 9
REMARK VINA RESULT:      -5.3      4.117      6.058
REMARK  3 active torsions:
REMARK  status: ('A' for Active; 'I' for Inactive)
REMARK       I    between atoms: N_1  and  C_2 
REMARK       I    between atoms: C_2  and  N_4 
REMARK    1  A    between atoms: C_7  and  N_10 
REMARK    2  A    between atoms: N_10  and  C_11 
REMARK    3  A    between atoms: C_15  and  N_16 
ROOT
HETATM    1  N   UNL     1     -41.630 -52.968  14.892  1.00  0.00     0.094 N 
HETATM    2  H   UNL     1     -42.542 -52.978  14.428  1.00  0.00     0.317 HD
ENDROOT
BRANCH   1   3
HETATM    3  C   UNL     1     -40.586 -53.291  13.910  1.00  0.00     0.224 C 
HETATM    4  C   UNL     1     -39.342 -52.392  14.006  1.00  0.00     0.055 C 
HETATM    5  C   UNL     1     -39.651 -50.944  13.632  1.00  0.00     0.129 C 
HETATM    6  N   UNL     1     -40.264 -50.880  12.309  1.00  0.00    -0.339 N 
HETATM    7  C   UNL     1     -39.923 -49.839  11.477  1.00  0.00     0.294 C 
HETATM    8  C   UNL     1     -41.474 -51.688  12.152  1.00  0.00     0.129 C 
HETATM    9  N   UNL     1     -40.461 -49.892  10.232  1.00  0.00    -0.254 NA
HETATM   10  O   UNL     1     -39.163 -48.925  11.768  1.00  0.00    -0.254 OA
HETATM   11  H   UNL     1     -40.080 -49.176   9.627  1.00  0.00     0.128 HD
HETATM   12  H   UNL     1     -40.477 -50.809   9.807  1.00  0.00     0.128 HD
HETATM   13  C   UNL     1     -41.194 -53.147  12.502  1.00  0.00     0.055 C 
ENDBRANCH   1   3
BRANCH   1  14
HETATM   14  C   UNL     1     -41.670 -53.811  16.085  1.00  0.00     0.244 C 
HETATM   15  C   UNL     1     -41.047 -55.204  15.938  1.00  0.00     0.038 C 
HETATM   16  C   UNL     1     -41.772 -56.101  16.945  1.00  0.00     0.004 C 
HETATM   17  C   UNL     1     -42.861 -55.246  17.593  1.00  0.00     0.028 C 
HETATM   18  C   UNL     1     -43.094 -54.077  16.634  1.00  0.00     0.123 C 
BRANCH  18  19
HETATM   19  N   UNL     1     -44.129 -54.324  15.644  1.00  0.00    -0.345 N 
HETATM   20  C   UNL     1     -45.416 -53.858  15.728  1.00  0.00     0.109 A 
HETATM   21  C   UNL     1     -46.029 -54.275  14.570  1.00  0.00     0.106 A 
HETATM   22  N   UNL     1     -45.156 -54.982  13.789  1.00  0.00    -0.361 N 
HETATM   23  C   UNL     1     -44.029 -55.005  14.464  1.00  0.00     0.183 A 
ATOM     24  HN  UNL     1     -45.341 -55.401  12.878  1.00  0.00     0.166 HD
ENDBRANCH  18  19
ENDBRANCH   1  14
TORSDOF 3
ENDMDL
