MODEL 1
REMARK VINA RESULT:      -6.0      0.000      0.000
REMARK  3 active torsions:
REMARK  status: ('A' for Active; 'I' for Inactive)
REMARK    1  A    between atoms: C_4  and  N_5 
REMARK    2  A    between atoms: C_7  and  N_11 
REMARK       I    between atoms: N_11  and  C_12 
REMARK       I    between atoms: C_12  and  N_14 
REMARK    3  A    between atoms: N_14  and  C_15 
ROOT
HETATM    1  N   UNL     1     -42.241 -49.257  11.335  1.00  0.00    -0.336 N 
HETATM    2  C   UNL     1     -41.251 -50.164  11.659  1.00  0.00     0.321 C 
HETATM    3  O   UNL     1     -40.113 -50.039  11.231  1.00  0.00    -0.247 OA
HETATM    4  N   UNL     1     -41.702 -51.162  12.490  1.00  0.00    -0.308 N 
HETATM    5  H   UNL     1     -42.954 -49.128  12.042  1.00  0.00     0.164 HD
HETATM    6  H   UNL     1     -42.693 -51.352  12.459  1.00  0.00     0.170 HD
ENDROOT
BRANCH   1   7
HETATM    7  C   UNL     1     -41.846 -48.088  10.549  1.00  0.00     0.112 C 
HETATM    8  C   UNL     1     -41.648 -46.833  11.406  1.00  0.00     0.152 C 
HETATM    9  N   UNL     1     -42.219 -45.748  10.657  1.00  0.00    -0.345 N 
HETATM   10  C   UNL     1     -42.885 -46.192   9.518  1.00  0.00     0.222 C 
HETATM   11  C   UNL     1     -42.867 -47.698   9.492  1.00  0.00     0.129 C 
HETATM   12  O   UNL     1     -43.501 -45.501   8.720  1.00  0.00    -0.273 OA
BRANCH   9  13
HETATM   13  C   UNL     1     -42.603 -44.526  11.303  1.00  0.00     0.091 A 
HETATM   14  C   UNL     1     -41.666 -43.364  11.502  1.00  0.00     0.006 A 
HETATM   15  C   UNL     1     -40.236 -43.421  11.091  1.00  0.00     0.012 C 
HETATM   16  C   UNL     1     -42.141 -44.150  12.689  1.00  0.00     0.032 A 
ENDBRANCH   9  13
ENDBRANCH   1   7
BRANCH   4  17
HETATM   17  C   UNL     1     -40.869 -52.149  13.073  1.00  0.00     0.051 A 
HETATM   18  C   UNL     1     -39.975 -51.883  14.111  1.00  0.00     0.032 A 
HETATM   19  C   UNL     1     -39.159 -52.897  14.609  1.00  0.00     0.019 A 
HETATM   20  C   UNL     1     -39.275 -54.162  14.062  1.00  0.00     0.088 A 
HETATM   21  N   UNL     1     -40.152 -54.475  13.083  1.00  0.00    -0.373 N 
HETATM   22  C   UNL     1     -40.927 -53.464  12.618  1.00  0.00     0.117 A 
ATOM     23  HN  UNL     1     -40.228 -55.422  12.714  1.00  0.00     0.164 HD
ENDBRANCH   4  17
TORSDOF 3
ENDMDL
MODEL 2
REMARK VINA RESULT:      -5.8      3.573      4.024
REMARK  3 active torsions:
REMARK  status: ('A' for Active; 'I' for Inactive)
REMARK    1  A    between atoms: C_4  and  N_5 
REMARK    2  A    between atoms: C_7  and  N_11 
REMARK       I    between atoms: N_11  and  C_12 
REMARK       I    between atoms: C_12  and  N_14 
REMARK    3  A    between atoms: N_14  and  C_15 
ROOT
HETATM    1  N   UNL     1     -43.440 -49.098  12.062  1.00  0.00    -0.336 N 
HETATM    2  C   UNL     1     -43.802 -50.087  12.957  1.00  0.00     0.321 C 
HETATM    3  O   UNL     1     -43.149 -50.293  13.970  1.00  0.00    -0.247 OA
HETATM    4  N   UNL     1     -44.937 -50.759  12.572  1.00  0.00    -0.308 N 
HETATM    5  H   UNL     1     -44.209 -48.673  11.561  1.00  0.00     0.164 HD
HETATM    6  H   UNL     1     -45.145 -50.748  11.584  1.00  0.00     0.170 HD
ENDROOT
BRANCH   1   7
HETATM    7  C   UNL     1     -42.313 -48.243  12.430  1.00  0.00     0.112 C 
HETATM    8  C   UNL     1     -42.729 -46.794  12.704  1.00  0.00     0.152 C 
HETATM    9  N   UNL     1     -41.712 -45.971  12.108  1.00  0.00    -0.345 N 
HETATM   10  C   UNL     1     -40.803 -46.719  11.365  1.00  0.00     0.222 C 
HETATM   11  C   UNL     1     -41.242 -48.159  11.353  1.00  0.00     0.129 C 
HETATM   12  O   UNL     1     -39.864 -46.283  10.714  1.00  0.00    -0.273 OA
BRANCH   9  13
HETATM   13  C   UNL     1     -41.969 -44.596  11.788  1.00  0.00     0.091 A 
HETATM   14  C   UNL     1     -41.099 -43.460  12.256  1.00  0.00     0.006 A 
HETATM   15  C   UNL     1     -39.927 -43.676  13.149  1.00  0.00     0.012 C 
HETATM   16  C   UNL     1     -42.493 -43.602  12.794  1.00  0.00     0.032 A 
ENDBRANCH   9  13
ENDBRANCH   1   7
BRANCH   4  17
HETATM   17  C   UNL     1     -45.594 -51.732  13.364  1.00  0.00     0.051 A 
HETATM   18  C   UNL     1     -46.402 -51.415  14.456  1.00  0.00     0.032 A 
HETATM   19  C   UNL     1     -46.985 -52.429  15.214  1.00  0.00     0.019 A 
HETATM   20  C   UNL     1     -46.755 -53.741  14.843  1.00  0.00     0.088 A 
HETATM   21  N   UNL     1     -46.012 -54.095  13.772  1.00  0.00    -0.373 N 
HETATM   22  C   UNL     1     -45.455 -53.084  13.060  1.00  0.00     0.117 A 
ATOM     23  HN  UNL     1     -45.877 -55.072  13.511  1.00  0.00     0.164 HD
ENDBRANCH   4  17
TORSDOF 3
ENDMDL
MODEL 3
REMARK VINA RESULT:      -5.8      1.984      2.098
REMARK  3 active torsions:
REMARK  status: ('A' for Active; 'I' for Inactive)
REMARK    1  A    between atoms: C_4  and  N_5 
REMARK    2  A    between atoms: C_7  and  N_11 
REMARK       I    between atoms: N_11  and  C_12 
REMARK       I    between atoms: C_12  and  N_14 
REMARK    3  A    between atoms: N_14  and  C_15 
ROOT
HETATM    1  N   UNL     1     -41.845 -48.151  11.512  1.00  0.00    -0.336 N 
HETATM    2  C   UNL     1     -41.350 -49.316  12.064  1.00  0.00     0.321 C 
HETATM    3  O   UNL     1     -40.296 -49.325  12.683  1.00  0.00    -0.247 OA
HETATM    4  N   UNL     1     -42.169 -50.397  11.839  1.00  0.00    -0.308 N 
HETATM    5  H   UNL     1     -42.855 -48.097  11.457  1.00  0.00     0.164 HD
HETATM    6  H   UNL     1     -42.777 -50.333  11.035  1.00  0.00     0.170 HD
ENDROOT
BRANCH   1   7
HETATM    7  C   UNL     1     -41.113 -46.916  11.789  1.00  0.00     0.112 C 
HETATM    8  C   UNL     1     -42.037 -45.725  12.067  1.00  0.00     0.152 C 
HETATM    9  N   UNL     1     -41.448 -44.602  11.390  1.00  0.00    -0.345 N 
HETATM   10  C   UNL     1     -40.365 -44.976  10.599  1.00  0.00     0.222 C 
HETATM   11  C   UNL     1     -40.219 -46.473  10.640  1.00  0.00     0.129 C 
HETATM   12  O   UNL     1     -39.704 -44.242   9.879  1.00  0.00    -0.273 OA
BRANCH   9  13
HETATM   13  C   UNL     1     -42.231 -43.444  11.066  1.00  0.00     0.091 A 
HETATM   14  C   UNL     1     -41.805 -42.037  11.395  1.00  0.00     0.006 A 
HETATM   15  C   UNL     1     -40.552 -41.745  12.145  1.00  0.00     0.012 C 
HETATM   16  C   UNL     1     -42.982 -42.643  12.100  1.00  0.00     0.032 A 
ENDBRANCH   9  13
ENDBRANCH   1   7
BRANCH   4  17
HETATM   17  C   UNL     1     -41.964 -51.683  12.399  1.00  0.00     0.051 A 
HETATM   18  C   UNL     1     -42.576 -52.114  13.575  1.00  0.00     0.032 A 
HETATM   19  C   UNL     1     -42.296 -53.379  14.087  1.00  0.00     0.019 A 
HETATM   20  C   UNL     1     -41.416 -54.189  13.392  1.00  0.00     0.088 A 
HETATM   21  N   UNL     1     -40.829 -53.829  12.230  1.00  0.00    -0.373 N 
HETATM   22  C   UNL     1     -41.120 -52.590  11.763  1.00  0.00     0.117 A 
ATOM     23  HN  UNL     1     -40.199 -54.457  11.729  1.00  0.00     0.164 HD
ENDBRANCH   4  17
TORSDOF 3
ENDMDL
MODEL 4
REMARK VINA RESULT:      -5.8      3.235      8.319
REMARK  3 active torsions:
REMARK  status: ('A' for Active; 'I' for Inactive)
REMARK    1  A    between atoms: C_4  and  N_5 
REMARK    2  A    between atoms: C_7  and  N_11 
REMARK       I    between atoms: N_11  and  C_12 
REMARK       I    between atoms: C_12  and  N_14 
REMARK    3  A    between atoms: N_14  and  C_15 
ROOT
HETATM    1  N   UNL     1     -42.622 -51.725  12.370  1.00  0.00    -0.336 N 
HETATM    2  C   UNL     1     -42.471 -50.352  12.349  1.00  0.00     0.321 C 
HETATM    3  O   UNL     1     -42.961 -49.648  13.220  1.00  0.00    -0.247 OA
HETATM    4  N   UNL     1     -41.729 -49.918  11.276  1.00  0.00    -0.308 N 
HETATM    5  H   UNL     1     -41.857 -52.246  11.961  1.00  0.00     0.164 HD
HETATM    6  H   UNL     1     -41.712 -50.530  10.473  1.00  0.00     0.170 HD
ENDROOT
BRANCH   1   7
HETATM    7  C   UNL     1     -43.296 -52.306  13.530  1.00  0.00     0.112 C 
HETATM    8  C   UNL     1     -42.322 -52.924  14.538  1.00  0.00     0.152 C 
HETATM    9  N   UNL     1     -42.930 -54.150  14.976  1.00  0.00    -0.345 N 
HETATM   10  C   UNL     1     -44.082 -54.450  14.253  1.00  0.00     0.222 C 
HETATM   11  C   UNL     1     -44.265 -53.422  13.169  1.00  0.00     0.129 C 
HETATM   12  O   UNL     1     -44.777 -55.448  14.376  1.00  0.00    -0.273 OA
BRANCH   9  13
HETATM   13  C   UNL     1     -42.144 -55.192  15.573  1.00  0.00     0.091 A 
HETATM   14  C   UNL     1     -42.321 -55.650  16.997  1.00  0.00     0.006 A 
HETATM   15  C   UNL     1     -43.295 -55.005  17.921  1.00  0.00     0.012 C 
HETATM   16  C   UNL     1     -41.069 -54.926  16.597  1.00  0.00     0.032 A 
ENDBRANCH   9  13
ENDBRANCH   1   7
BRANCH   4  17
HETATM   17  C   UNL     1     -41.319 -48.576  11.081  1.00  0.00     0.051 A 
HETATM   18  C   UNL     1     -40.219 -48.008  11.725  1.00  0.00     0.032 A 
HETATM   19  C   UNL     1     -39.899 -46.669  11.513  1.00  0.00     0.019 A 
HETATM   20  C   UNL     1     -40.685 -45.935  10.644  1.00  0.00     0.088 A 
HETATM   21  N   UNL     1     -41.736 -46.452   9.969  1.00  0.00    -0.373 N 
HETATM   22  C   UNL     1     -42.022 -47.756  10.202  1.00  0.00     0.117 A 
ATOM     23  HN  UNL     1     -42.284 -45.890   9.318  1.00  0.00     0.164 HD
ENDBRANCH   4  17
TORSDOF 3
ENDMDL
MODEL 5
REMARK VINA RESULT:      -5.7      3.438      4.432
REMARK  3 active torsions:
REMARK  status: ('A' for Active; 'I' for Inactive)
REMARK    1  A    between atoms: C_4  and  N_5 
REMARK    2  A    between atoms: C_7  and  N_11 
REMARK       I    between atoms: N_11  and  C_12 
REMARK       I    between atoms: C_12  and  N_14 
REMARK    3  A    between atoms: N_14  and  C_15 
ROOT
HETATM    1  N   UNL     1     -42.826 -50.237  12.234  1.00  0.00    -0.336 N 
HETATM    2  C   UNL     1     -43.328 -51.196  13.092  1.00  0.00     0.321 C 
HETATM    3  O   UNL     1     -42.958 -51.261  14.255  1.00  0.00    -0.247 OA
HETATM    4  N   UNL     1     -44.254 -52.013  12.488  1.00  0.00    -0.308 N 
HETATM    5  H   UNL     1     -43.465 -49.933  11.510  1.00  0.00     0.164 HD
HETATM    6  H   UNL     1     -44.187 -52.092  11.483  1.00  0.00     0.170 HD
ENDROOT
BRANCH   1   7
HETATM    7  C   UNL     1     -41.919 -49.240  12.803  1.00  0.00     0.112 C 
HETATM    8  C   UNL     1     -42.000 -47.887  12.089  1.00  0.00     0.152 C 
HETATM    9  N   UNL     1     -40.645 -47.418  11.977  1.00  0.00    -0.345 N 
HETATM   10  C   UNL     1     -39.724 -48.378  12.387  1.00  0.00     0.222 C 
HETATM   11  C   UNL     1     -40.455 -49.647  12.733  1.00  0.00     0.129 C 
HETATM   12  O   UNL     1     -38.506 -48.275  12.358  1.00  0.00    -0.273 OA
BRANCH   9  13
HETATM   13  C   UNL     1     -40.288 -46.421  11.009  1.00  0.00     0.091 A 
HETATM   14  C   UNL     1     -39.663 -45.100  11.372  1.00  0.00     0.006 A 
HETATM   15  C   UNL     1     -39.423 -44.700  12.787  1.00  0.00     0.012 C 
HETATM   16  C   UNL     1     -41.060 -45.138  10.826  1.00  0.00     0.032 A 
ENDBRANCH   9  13
ENDBRANCH   1   7
BRANCH   4  17
HETATM   17  C   UNL     1     -45.013 -52.997  13.168  1.00  0.00     0.051 A 
HETATM   18  C   UNL     1     -44.622 -54.332  13.273  1.00  0.00     0.032 A 
HETATM   19  C   UNL     1     -45.440 -55.252  13.925  1.00  0.00     0.019 A 
HETATM   20  C   UNL     1     -46.627 -54.803  14.474  1.00  0.00     0.088 A 
HETATM   21  N   UNL     1     -47.029 -53.514  14.431  1.00  0.00    -0.373 N 
HETATM   22  C   UNL     1     -46.211 -52.646  13.784  1.00  0.00     0.117 A 
ATOM     23  HN  UNL     1     -47.901 -53.209  14.863  1.00  0.00     0.164 HD
ENDBRANCH   4  17
TORSDOF 3
ENDMDL
MODEL 6
REMARK VINA RESULT:      -5.7      2.414      8.272
REMARK  3 active torsions:
REMARK  status: ('A' for Active; 'I' for Inactive)
REMARK    1  A    between atoms: C_4  and  N_5 
REMARK    2  A    between atoms: C_7  and  N_11 
REMARK       I    between atoms: N_11  and  C_12 
REMARK       I    between atoms: C_12  and  N_14 
REMARK    3  A    between atoms: N_14  and  C_15 
ROOT
HETATM    1  N   UNL     1     -39.363 -47.648  12.759  1.00  0.00    -0.336 N 
HETATM    2  C   UNL     1     -39.989 -46.683  11.993  1.00  0.00     0.321 C 
HETATM    3  O   UNL     1     -40.357 -46.922  10.852  1.00  0.00    -0.247 OA
HETATM    4  N   UNL     1     -40.135 -45.491  12.662  1.00  0.00    -0.308 N 
HETATM    5  H   UNL     1     -39.520 -47.572  13.756  1.00  0.00     0.164 HD
HETATM    6  H   UNL     1     -39.483 -45.321  13.413  1.00  0.00     0.170 HD
ENDROOT
BRANCH   1   7
HETATM    7  C   UNL     1     -39.259 -48.991  12.188  1.00  0.00     0.112 C 
HETATM    8  C   UNL     1     -39.919 -50.062  13.062  1.00  0.00     0.152 C 
HETATM    9  N   UNL     1     -39.036 -51.196  13.032  1.00  0.00    -0.345 N 
HETATM   10  C   UNL     1     -37.839 -50.910  12.382  1.00  0.00     0.222 C 
HETATM   11  C   UNL     1     -37.823 -49.455  11.996  1.00  0.00     0.129 C 
HETATM   12  O   UNL     1     -36.887 -51.665  12.246  1.00  0.00    -0.273 OA
BRANCH   9  13
HETATM   13  C   UNL     1     -39.096 -52.205  14.050  1.00  0.00     0.091 A 
HETATM   14  C   UNL     1     -39.930 -53.453  13.931  1.00  0.00     0.006 A 
HETATM   15  C   UNL     1     -40.812 -53.707  12.758  1.00  0.00     0.012 C 
HETATM   16  C   UNL     1     -40.298 -52.405  14.939  1.00  0.00     0.032 A 
ENDBRANCH   9  13
ENDBRANCH   1   7
BRANCH   4  17
HETATM   17  C   UNL     1     -40.850 -44.377  12.156  1.00  0.00     0.051 A 
HETATM   18  C   UNL     1     -42.241 -44.277  12.193  1.00  0.00     0.032 A 
HETATM   19  C   UNL     1     -42.878 -43.167  11.641  1.00  0.00     0.019 A 
HETATM   20  C   UNL     1     -42.097 -42.174  11.079  1.00  0.00     0.088 A 
HETATM   21  N   UNL     1     -40.747 -42.210  11.054  1.00  0.00    -0.373 N 
HETATM   22  C   UNL     1     -40.160 -43.306  11.595  1.00  0.00     0.117 A 
ATOM     23  HN  UNL     1     -40.197 -41.452  10.650  1.00  0.00     0.164 HD
ENDBRANCH   4  17
TORSDOF 3
ENDMDL
MODEL 7
REMARK VINA RESULT:      -5.6      3.753      5.204
REMARK  3 active torsions:
REMARK  status: ('A' for Active; 'I' for Inactive)
REMARK    1  A    between atoms: C_4  and  N_5 
REMARK    2  A    between atoms: C_7  and  N_11 
REMARK       I    between atoms: N_11  and  C_12 
REMARK       I    between atoms: C_12  and  N_14 
REMARK    3  A    between atoms: N_14  and  C_15 
ROOT
HETATM    1  N   UNL     1     -41.115 -51.370  11.278  1.00  0.00    -0.336 N 
HETATM    2  C   UNL     1     -41.918 -51.850  12.295  1.00  0.00     0.321 C 
HETATM    3  O   UNL     1     -41.836 -51.404  13.430  1.00  0.00    -0.247 OA
HETATM    4  N   UNL     1     -42.776 -52.836  11.869  1.00  0.00    -0.308 N 
HETATM    5  H   UNL     1     -41.526 -51.405  10.354  1.00  0.00     0.164 HD
HETATM    6  H   UNL     1     -42.491 -53.347  11.047  1.00  0.00     0.170 HD
ENDROOT
BRANCH   1   7
HETATM    7  C   UNL     1     -40.243 -50.238  11.592  1.00  0.00     0.112 C 
HETATM    8  C   UNL     1     -39.207 -50.566  12.672  1.00  0.00     0.152 C 
HETATM    9  N   UNL     1     -39.143 -49.410  13.524  1.00  0.00    -0.345 N 
HETATM   10  C   UNL     1     -40.120 -48.471  13.204  1.00  0.00     0.222 C 
HETATM   11  C   UNL     1     -40.997 -49.023  12.111  1.00  0.00     0.129 C 
HETATM   12  O   UNL     1     -40.332 -47.416  13.785  1.00  0.00    -0.273 OA
BRANCH   9  13
HETATM   13  C   UNL     1     -38.622 -49.503  14.857  1.00  0.00     0.091 A 
HETATM   14  C   UNL     1     -37.558 -48.584  15.396  1.00  0.00     0.006 A 
HETATM   15  C   UNL     1     -36.917 -47.535  14.555  1.00  0.00     0.012 C 
HETATM   16  C   UNL     1     -37.243 -50.033  15.165  1.00  0.00     0.032 A 
ENDBRANCH   9  13
ENDBRANCH   1   7
BRANCH   4  17
HETATM   17  C   UNL     1     -43.790 -53.412  12.675  1.00  0.00     0.051 A 
HETATM   18  C   UNL     1     -43.548 -54.420  13.608  1.00  0.00     0.032 A 
HETATM   19  C   UNL     1     -44.602 -54.966  14.338  1.00  0.00     0.019 A 
HETATM   20  C   UNL     1     -45.875 -54.471  14.122  1.00  0.00     0.088 A 
HETATM   21  N   UNL     1     -46.152 -53.471  13.257  1.00  0.00    -0.373 N 
HETATM   22  C   UNL     1     -45.104 -52.966  12.561  1.00  0.00     0.117 A 
ATOM     23  HN  UNL     1     -47.099 -53.114  13.135  1.00  0.00     0.164 HD
ENDBRANCH   4  17
TORSDOF 3
ENDMDL
MODEL 8
REMARK VINA RESULT:      -5.3      4.575      7.049
REMARK  3 active torsions:
REMARK  status: ('A' for Active; 'I' for Inactive)
REMARK    1  A    between atoms: C_4  and  N_5 
REMARK    2  A    between atoms: C_7  and  N_11 
REMARK       I    between atoms: N_11  and  C_12 
REMARK       I    between atoms: C_12  and  N_14 
REMARK    3  A    between atoms: N_14  and  C_15 
ROOT
HETATM    1  N   UNL     1     -39.729 -54.226  15.503  1.00  0.00    -0.336 N 
HETATM    2  C   UNL     1     -39.081 -55.389  15.871  1.00  0.00     0.321 C 
HETATM    3  O   UNL     1     -38.313 -55.954  15.107  1.00  0.00    -0.247 OA
HETATM    4  N   UNL     1     -39.399 -55.791  17.147  1.00  0.00    -0.308 N 
HETATM    5  H   UNL     1     -39.934 -53.591  16.264  1.00  0.00     0.164 HD
HETATM    6  H   UNL     1     -40.286 -55.467  17.505  1.00  0.00     0.170 HD
ENDROOT
BRANCH   1   7
HETATM    7  C   UNL     1     -39.376 -53.645  14.209  1.00  0.00     0.112 C 
HETATM    8  C   UNL     1     -38.649 -52.302  14.337  1.00  0.00     0.152 C 
HETATM    9  N   UNL     1     -39.192 -51.458  13.308  1.00  0.00    -0.345 N 
HETATM   10  C   UNL     1     -40.272 -52.051  12.661  1.00  0.00     0.222 C 
HETATM   11  C   UNL     1     -40.582 -53.368  13.323  1.00  0.00     0.129 C 
HETATM   12  O   UNL     1     -40.956 -51.550  11.780  1.00  0.00    -0.273 OA
BRANCH   9  13
HETATM   13  C   UNL     1     -39.076 -50.030  13.388  1.00  0.00     0.091 A 
HETATM   14  C   UNL     1     -38.287 -49.207  12.405  1.00  0.00     0.006 A 
HETATM   15  C   UNL     1     -37.507 -49.828  11.298  1.00  0.00     0.012 C 
HETATM   16  C   UNL     1     -37.812 -49.331  13.823  1.00  0.00     0.032 A 
ENDBRANCH   9  13
ENDBRANCH   1   7
BRANCH   4  17
HETATM   17  C   UNL     1     -38.784 -56.877  17.817  1.00  0.00     0.051 A 
HETATM   18  C   UNL     1     -37.596 -56.761  18.539  1.00  0.00     0.032 A 
HETATM   19  C   UNL     1     -37.030 -57.883  19.139  1.00  0.00     0.019 A 
HETATM   20  C   UNL     1     -37.682 -59.096  19.014  1.00  0.00     0.088 A 
HETATM   21  N   UNL     1     -38.853 -59.249  18.357  1.00  0.00    -0.373 N 
HETATM   22  C   UNL     1     -39.374 -58.138  17.780  1.00  0.00     0.117 A 
ATOM     23  HN  UNL     1     -39.321 -60.154  18.299  1.00  0.00     0.164 HD
ENDBRANCH   4  17
TORSDOF 3
ENDMDL
MODEL 9
REMARK VINA RESULT:      -5.3      3.605      7.970
REMARK  3 active torsions:
REMARK  status: ('A' for Active; 'I' for Inactive)
REMARK    1  A    between atoms: C_4  and  N_5 
REMARK    2  A    between atoms: C_7  and  N_11 
REMARK       I    between atoms: N_11  and  C_12 
REMARK       I    between atoms: C_12  and  N_14 
REMARK    3  A    between atoms: N_14  and  C_15 
ROOT
HETATM    1  N   UNL     1     -43.842 -50.380  12.680  1.00  0.00    -0.336 N 
HETATM    2  C   UNL     1     -43.251 -49.134  12.602  1.00  0.00     0.321 C 
HETATM    3  O   UNL     1     -43.202 -48.395  13.575  1.00  0.00    -0.247 OA
HETATM    4  N   UNL     1     -42.749 -48.865  11.351  1.00  0.00    -0.308 N 
HETATM    5  H   UNL     1     -43.449 -51.080  12.063  1.00  0.00     0.164 HD
HETATM    6  H   UNL     1     -43.171 -49.370  10.586  1.00  0.00     0.170 HD
ENDROOT
BRANCH   1   7
HETATM    7  C   UNL     1     -44.307 -50.818  13.996  1.00  0.00     0.112 C 
HETATM    8  C   UNL     1     -43.472 -51.966  14.571  1.00  0.00     0.152 C 
HETATM    9  N   UNL     1     -44.409 -52.872  15.179  1.00  0.00    -0.345 N 
HETATM   10  C   UNL     1     -45.728 -52.513  14.916  1.00  0.00     0.222 C 
HETATM   11  C   UNL     1     -45.742 -51.325  13.990  1.00  0.00     0.129 C 
HETATM   12  O   UNL     1     -46.730 -53.121  15.264  1.00  0.00    -0.273 OA
BRANCH   9  13
HETATM   13  C   UNL     1     -44.055 -54.239  15.432  1.00  0.00     0.091 A 
HETATM   14  C   UNL     1     -42.889 -54.928  14.774  1.00  0.00     0.006 A 
HETATM   15  C   UNL     1     -42.042 -54.250  13.753  1.00  0.00     0.012 C 
HETATM   16  C   UNL     1     -44.289 -55.346  14.435  1.00  0.00     0.032 A 
ENDBRANCH   9  13
ENDBRANCH   1   7
BRANCH   4  17
HETATM   17  C   UNL     1     -41.987 -47.714  11.029  1.00  0.00     0.051 A 
HETATM   18  C   UNL     1     -42.556 -46.482  10.707  1.00  0.00     0.032 A 
HETATM   19  C   UNL     1     -41.743 -45.404  10.363  1.00  0.00     0.019 A 
HETATM   20  C   UNL     1     -40.372 -45.587  10.368  1.00  0.00     0.088 A 
HETATM   21  N   UNL     1     -39.775 -46.751  10.710  1.00  0.00    -0.373 N 
HETATM   22  C   UNL     1     -40.596 -47.780  11.034  1.00  0.00     0.117 A 
ATOM     23  HN  UNL     1     -38.760 -46.849  10.723  1.00  0.00     0.164 HD
ENDBRANCH   4  17
TORSDOF 3
ENDMDL
