MODEL 1
REMARK VINA RESULT:      -6.1      0.000      0.000
REMARK  5 active torsions:
REMARK  status: ('A' for Active; 'I' for Inactive)
REMARK       I    between atoms: C_2  and  N_3 
REMARK       I    between atoms: C_2  and  N_14 
REMARK    1  A    between atoms: N_3  and  C_4 
REMARK    2  A    between atoms: C_4  and  C_5 
REMARK    3  A    between atoms: C_5  and  C_6 
REMARK    4  A    between atoms: C_6  and  N_7 
REMARK    5  A    between atoms: N_14  and  C_15 
ROOT
HETATM    1  O   UNL     1     -40.047 -50.010  11.596  1.00  0.00    -0.247 OA
HETATM    2  C   UNL     1     -41.087 -49.457  11.251  1.00  0.00     0.321 C 
HETATM    3  N   UNL     1     -42.313 -49.785  11.740  1.00  0.00    -0.343 N 
HETATM    4  N   UNL     1     -41.038 -48.405  10.385  1.00  0.00    -0.295 N 
HETATM    5  H   UNL     1     -43.099 -49.354  11.258  1.00  0.00     0.164 HD
HETATM    6  H   UNL     1     -40.091 -48.149  10.143  1.00  0.00     0.172 HD
ENDROOT
BRANCH   3   7
HETATM    7  C   UNL     1     -42.549 -50.745  12.791  1.00  0.00     0.126 C 
BRANCH   7   8
HETATM    8  C   UNL     1     -43.576 -50.270  13.822  1.00  0.00     0.050 C 
BRANCH   8   9
HETATM    9  C   UNL     1     -44.018 -51.388  14.780  1.00  0.00     0.274 C 
BRANCH   9  10
HETATM   10  N   UNL     1     -45.472 -51.407  15.038  1.00  0.00     0.098 N 
HETATM   11  C   UNL     1     -45.875 -52.602  15.809  1.00  0.00     0.292 C 
HETATM   12  C   UNL     1     -45.756 -53.920  15.023  1.00  0.00     0.152 C 
HETATM   13  N   UNL     1     -46.275 -53.836  13.676  1.00  0.00    -0.358 N 
HETATM   14  C   UNL     1     -46.248 -52.656  12.971  1.00  0.00     0.246 C 
HETATM   15  H   UNL     1     -46.240 -54.655  13.083  1.00  0.00     0.162 HD
HETATM   16  O   UNL     1     -46.316 -52.680  11.744  1.00  0.00    -0.272 OA
HETATM   17  C   UNL     1     -46.285 -51.362  13.792  1.00  0.00     0.374 C 
ENDBRANCH   9  10
ENDBRANCH   8   9
ENDBRANCH   7   8
ENDBRANCH   3   7
BRANCH   4  18
HETATM   18  C   UNL     1     -42.090 -47.656   9.852  1.00  0.00     0.108 A 
HETATM   19  C   UNL     1     -42.339 -46.405  10.401  1.00  0.00     0.049 A 
HETATM   20  C   UNL     1     -43.378 -45.637   9.885  1.00  0.00     0.005 A 
HETATM   21  C   UNL     1     -44.133 -46.130   8.830  1.00  0.00     0.017 A 
HETATM   22  C   UNL     1     -43.819 -47.383   8.338  1.00  0.00     0.089 A 
HETATM   23  N   UNL     1     -42.824 -48.152   8.829  1.00  0.00    -0.352 N 
ATOM     24  HN  UNL     1     -42.631 -49.076   8.441  1.00  0.00     0.166 HD
ENDBRANCH   4  18
TORSDOF 5
ENDMDL
MODEL 2
REMARK VINA RESULT:      -6.0      3.275      7.100
REMARK  5 active torsions:
REMARK  status: ('A' for Active; 'I' for Inactive)
REMARK       I    between atoms: C_2  and  N_3 
REMARK       I    between atoms: C_2  and  N_14 
REMARK    1  A    between atoms: N_3  and  C_4 
REMARK    2  A    between atoms: C_4  and  C_5 
REMARK    3  A    between atoms: C_5  and  C_6 
REMARK    4  A    between atoms: C_6  and  N_7 
REMARK    5  A    between atoms: N_14  and  C_15 
ROOT
HETATM    1  O   UNL     1     -43.064 -55.938  15.464  1.00  0.00    -0.247 OA
HETATM    2  C   UNL     1     -43.451 -54.894  14.948  1.00  0.00     0.321 C 
HETATM    3  N   UNL     1     -42.615 -53.912  14.517  1.00  0.00    -0.343 N 
HETATM    4  N   UNL     1     -44.782 -54.707  14.718  1.00  0.00    -0.295 N 
HETATM    5  H   UNL     1     -43.072 -53.041  14.253  1.00  0.00     0.164 HD
HETATM    6  H   UNL     1     -45.334 -55.515  14.966  1.00  0.00     0.172 HD
ENDROOT
BRANCH   3   7
HETATM    7  C   UNL     1     -41.175 -54.001  14.513  1.00  0.00     0.126 C 
BRANCH   7   8
HETATM    8  C   UNL     1     -40.558 -53.724  13.139  1.00  0.00     0.050 C 
BRANCH   8   9
HETATM    9  C   UNL     1     -41.118 -52.451  12.482  1.00  0.00     0.274 C 
BRANCH   9  10
HETATM   10  N   UNL     1     -40.739 -51.208  13.181  1.00  0.00     0.098 N 
HETATM   11  C   UNL     1     -41.223 -50.009  12.465  1.00  0.00     0.292 C 
HETATM   12  C   UNL     1     -40.511 -49.754  11.125  1.00  0.00     0.152 C 
HETATM   13  N   UNL     1     -39.075 -49.906  11.198  1.00  0.00    -0.358 N 
HETATM   14  C   UNL     1     -38.491 -50.778  12.086  1.00  0.00     0.246 C 
HETATM   15  H   UNL     1     -38.521 -49.757  10.364  1.00  0.00     0.162 HD
HETATM   16  O   UNL     1     -37.350 -51.183  11.879  1.00  0.00    -0.272 OA
HETATM   17  C   UNL     1     -39.269 -51.073  13.374  1.00  0.00     0.374 C 
ENDBRANCH   9  10
ENDBRANCH   8   9
ENDBRANCH   7   8
ENDBRANCH   3   7
BRANCH   4  18
HETATM   18  C   UNL     1     -45.431 -53.597  14.168  1.00  0.00     0.108 A 
HETATM   19  C   UNL     1     -45.872 -52.608  15.037  1.00  0.00     0.049 A 
HETATM   20  C   UNL     1     -46.517 -51.491  14.515  1.00  0.00     0.005 A 
HETATM   21  C   UNL     1     -46.695 -51.385  13.143  1.00  0.00     0.017 A 
HETATM   22  C   UNL     1     -46.224 -52.412  12.347  1.00  0.00     0.089 A 
HETATM   23  N   UNL     1     -45.606 -53.510  12.829  1.00  0.00    -0.352 N 
ATOM     24  HN  UNL     1     -45.281 -54.250  12.206  1.00  0.00     0.166 HD
ENDBRANCH   4  18
TORSDOF 5
ENDMDL
MODEL 3
REMARK VINA RESULT:      -6.0      1.931      2.494
REMARK  5 active torsions:
REMARK  status: ('A' for Active; 'I' for Inactive)
REMARK       I    between atoms: C_2  and  N_3 
REMARK       I    between atoms: C_2  and  N_14 
REMARK    1  A    between atoms: N_3  and  C_4 
REMARK    2  A    between atoms: C_4  and  C_5 
REMARK    3  A    between atoms: C_5  and  C_6 
REMARK    4  A    between atoms: C_6  and  N_7 
REMARK    5  A    between atoms: N_14  and  C_15 
ROOT
HETATM    1  O   UNL     1     -39.124 -50.843  12.332  1.00  0.00    -0.247 OA
HETATM    2  C   UNL     1     -40.201 -50.503  11.851  1.00  0.00     0.321 C 
HETATM    3  N   UNL     1     -41.209 -51.371  11.570  1.00  0.00    -0.343 N 
HETATM    4  N   UNL     1     -40.458 -49.181  11.638  1.00  0.00    -0.295 N 
HETATM    5  H   UNL     1     -41.981 -50.979  11.036  1.00  0.00     0.164 HD
HETATM    6  H   UNL     1     -39.710 -48.585  11.964  1.00  0.00     0.172 HD
ENDROOT
BRANCH   3   7
HETATM    7  C   UNL     1     -41.193 -52.779  11.888  1.00  0.00     0.126 C 
BRANCH   7   8
HETATM    8  C   UNL     1     -42.193 -53.161  12.983  1.00  0.00     0.050 C 
BRANCH   8   9
HETATM    9  C   UNL     1     -43.522 -52.396  12.867  1.00  0.00     0.274 C 
BRANCH   9  10
HETATM   10  N   UNL     1     -44.666 -53.250  12.488  1.00  0.00     0.098 N 
HETATM   11  C   UNL     1     -45.929 -52.483  12.441  1.00  0.00     0.292 C 
HETATM   12  C   UNL     1     -46.427 -52.018  13.820  1.00  0.00     0.152 C 
HETATM   13  N   UNL     1     -46.351 -53.045  14.836  1.00  0.00    -0.358 N 
HETATM   14  C   UNL     1     -45.391 -54.027  14.791  1.00  0.00     0.246 C 
HETATM   15  H   UNL     1     -46.659 -52.831  15.777  1.00  0.00     0.162 HD
HETATM   16  O   UNL     1     -45.091 -54.631  15.819  1.00  0.00    -0.272 OA
HETATM   17  C   UNL     1     -44.858 -54.407  13.405  1.00  0.00     0.374 C 
ENDBRANCH   9  10
ENDBRANCH   8   9
ENDBRANCH   7   8
ENDBRANCH   3   7
BRANCH   4  18
HETATM   18  C   UNL     1     -41.596 -48.585  11.087  1.00  0.00     0.108 A 
HETATM   19  C   UNL     1     -42.622 -48.224  11.949  1.00  0.00     0.049 A 
HETATM   20  C   UNL     1     -43.764 -47.624  11.426  1.00  0.00     0.005 A 
HETATM   21  C   UNL     1     -43.847 -47.391  10.060  1.00  0.00     0.017 A 
HETATM   22  C   UNL     1     -42.780 -47.778   9.270  1.00  0.00     0.089 A 
HETATM   23  N   UNL     1     -41.668 -48.371   9.753  1.00  0.00    -0.352 N 
ATOM     24  HN  UNL     1     -40.907 -48.649   9.132  1.00  0.00     0.166 HD
ENDBRANCH   4  18
TORSDOF 5
ENDMDL
MODEL 4
REMARK VINA RESULT:      -5.9      1.958      2.637
REMARK  5 active torsions:
REMARK  status: ('A' for Active; 'I' for Inactive)
REMARK       I    between atoms: C_2  and  N_3 
REMARK       I    between atoms: C_2  and  N_14 
REMARK    1  A    between atoms: N_3  and  C_4 
REMARK    2  A    between atoms: C_4  and  C_5 
REMARK    3  A    between atoms: C_5  and  C_6 
REMARK    4  A    between atoms: C_6  and  N_7 
REMARK    5  A    between atoms: N_14  and  C_15 
ROOT
HETATM    1  O   UNL     1     -39.970 -52.677  12.581  1.00  0.00    -0.247 OA
HETATM    2  C   UNL     1     -40.422 -51.536  12.542  1.00  0.00     0.321 C 
HETATM    3  N   UNL     1     -41.199 -51.000  13.520  1.00  0.00    -0.343 N 
HETATM    4  N   UNL     1     -40.088 -50.713  11.508  1.00  0.00    -0.295 N 
HETATM    5  H   UNL     1     -41.629 -50.106  13.288  1.00  0.00     0.164 HD
HETATM    6  H   UNL     1     -39.427 -51.138  10.874  1.00  0.00     0.172 HD
ENDROOT
BRANCH   3   7
HETATM    7  C   UNL     1     -41.514 -51.650  14.769  1.00  0.00     0.126 C 
BRANCH   7   8
HETATM    8  C   UNL     1     -42.687 -52.628  14.661  1.00  0.00     0.050 C 
BRANCH   8   9
HETATM    9  C   UNL     1     -44.052 -51.942  14.835  1.00  0.00     0.274 C 
BRANCH   9  10
HETATM   10  N   UNL     1     -44.918 -52.035  13.643  1.00  0.00     0.098 N 
HETATM   11  C   UNL     1     -46.309 -51.635  13.945  1.00  0.00     0.292 C 
HETATM   12  C   UNL     1     -47.056 -52.621  14.859  1.00  0.00     0.152 C 
HETATM   13  N   UNL     1     -46.866 -54.007  14.489  1.00  0.00    -0.358 N 
HETATM   14  C   UNL     1     -45.708 -54.434  13.884  1.00  0.00     0.246 C 
HETATM   15  H   UNL     1     -47.321 -54.729  15.033  1.00  0.00     0.162 HD
HETATM   16  O   UNL     1     -45.399 -55.622  13.935  1.00  0.00    -0.272 OA
HETATM   17  C   UNL     1     -44.945 -53.399  13.048  1.00  0.00     0.374 C 
ENDBRANCH   9  10
ENDBRANCH   8   9
ENDBRANCH   7   8
ENDBRANCH   3   7
BRANCH   4  18
HETATM   18  C   UNL     1     -40.503 -49.401  11.260  1.00  0.00     0.108 A 
HETATM   19  C   UNL     1     -39.686 -48.368  11.698  1.00  0.00     0.049 A 
HETATM   20  C   UNL     1     -40.074 -47.053  11.459  1.00  0.00     0.005 A 
HETATM   21  C   UNL     1     -41.259 -46.804  10.782  1.00  0.00     0.017 A 
HETATM   22  C   UNL     1     -42.015 -47.888  10.376  1.00  0.00     0.089 A 
HETATM   23  N   UNL     1     -41.665 -49.172  10.606  1.00  0.00    -0.352 N 
ATOM     24  HN  UNL     1     -42.257 -49.943  10.296  1.00  0.00     0.166 HD
ENDBRANCH   4  18
TORSDOF 5
ENDMDL
MODEL 5
REMARK VINA RESULT:      -5.8      2.498      6.789
REMARK  5 active torsions:
REMARK  status: ('A' for Active; 'I' for Inactive)
REMARK       I    between atoms: C_2  and  N_3 
REMARK       I    between atoms: C_2  and  N_14 
REMARK    1  A    between atoms: N_3  and  C_4 
REMARK    2  A    between atoms: C_4  and  C_5 
REMARK    3  A    between atoms: C_5  and  C_6 
REMARK    4  A    between atoms: C_6  and  N_7 
REMARK    5  A    between atoms: N_14  and  C_15 
ROOT
HETATM    1  O   UNL     1     -40.550 -52.629  12.035  1.00  0.00    -0.247 OA
HETATM    2  C   UNL     1     -41.633 -52.081  12.222  1.00  0.00     0.321 C 
HETATM    3  N   UNL     1     -41.879 -50.778  11.923  1.00  0.00    -0.343 N 
HETATM    4  N   UNL     1     -42.686 -52.810  12.689  1.00  0.00    -0.295 N 
HETATM    5  H   UNL     1     -42.765 -50.416  12.269  1.00  0.00     0.164 HD
HETATM    6  H   UNL     1     -42.463 -53.789  12.791  1.00  0.00     0.172 HD
ENDROOT
BRANCH   3   7
HETATM    7  C   UNL     1     -40.949 -49.896  11.260  1.00  0.00     0.126 C 
BRANCH   7   8
HETATM    8  C   UNL     1     -40.276 -48.904  12.212  1.00  0.00     0.050 C 
BRANCH   8   9
HETATM    9  C   UNL     1     -41.148 -47.669  12.497  1.00  0.00     0.274 C 
BRANCH   9  10
HETATM   10  N   UNL     1     -40.498 -46.392  12.144  1.00  0.00     0.098 N 
HETATM   11  C   UNL     1     -40.961 -45.286  13.010  1.00  0.00     0.292 C 
HETATM   12  C   UNL     1     -42.426 -44.881  12.773  1.00  0.00     0.152 C 
HETATM   13  N   UNL     1     -42.775 -44.773  11.373  1.00  0.00    -0.358 N 
HETATM   14  C   UNL     1     -42.153 -45.543  10.419  1.00  0.00     0.246 C 
HETATM   15  H   UNL     1     -43.719 -44.511  11.119  1.00  0.00     0.162 HD
HETATM   16  O   UNL     1     -42.704 -45.732   9.336  1.00  0.00    -0.272 OA
HETATM   17  C   UNL     1     -40.721 -45.997  10.726  1.00  0.00     0.374 C 
ENDBRANCH   9  10
ENDBRANCH   8   9
ENDBRANCH   7   8
ENDBRANCH   3   7
BRANCH   4  18
HETATM   18  C   UNL     1     -43.984 -52.385  12.990  1.00  0.00     0.108 A 
HETATM   19  C   UNL     1     -44.180 -51.688  14.175  1.00  0.00     0.049 A 
HETATM   20  C   UNL     1     -45.462 -51.250  14.495  1.00  0.00     0.005 A 
HETATM   21  C   UNL     1     -46.509 -51.508  13.622  1.00  0.00     0.017 A 
HETATM   22  C   UNL     1     -46.229 -52.206  12.462  1.00  0.00     0.089 A 
HETATM   23  N   UNL     1     -44.998 -52.651  12.135  1.00  0.00    -0.352 N 
ATOM     24  HN  UNL     1     -44.837 -53.171  11.271  1.00  0.00     0.166 HD
ENDBRANCH   4  18
TORSDOF 5
ENDMDL
MODEL 6
REMARK VINA RESULT:      -5.7      3.557      6.835
REMARK  5 active torsions:
REMARK  status: ('A' for Active; 'I' for Inactive)
REMARK       I    between atoms: C_2  and  N_3 
REMARK       I    between atoms: C_2  and  N_14 
REMARK    1  A    between atoms: N_3  and  C_4 
REMARK    2  A    between atoms: C_4  and  C_5 
REMARK    3  A    between atoms: C_5  and  C_6 
REMARK    4  A    between atoms: C_6  and  N_7 
REMARK    5  A    between atoms: N_14  and  C_15 
ROOT
HETATM    1  O   UNL     1     -40.456 -52.786  11.732  1.00  0.00    -0.247 OA
HETATM    2  C   UNL     1     -41.400 -52.779  12.516  1.00  0.00     0.321 C 
HETATM    3  N   UNL     1     -41.258 -52.849  13.867  1.00  0.00    -0.343 N 
HETATM    4  N   UNL     1     -42.670 -52.626  12.044  1.00  0.00    -0.295 N 
HETATM    5  H   UNL     1     -42.123 -52.989  14.385  1.00  0.00     0.164 HD
HETATM    6  H   UNL     1     -42.695 -52.476  11.045  1.00  0.00     0.172 HD
ENDROOT
BRANCH   3   7
HETATM    7  C   UNL     1     -39.994 -52.838  14.562  1.00  0.00     0.126 C 
BRANCH   7   8
HETATM    8  C   UNL     1     -39.624 -51.460  15.119  1.00  0.00     0.050 C 
BRANCH   8   9
HETATM    9  C   UNL     1     -40.173 -50.306  14.264  1.00  0.00     0.274 C 
BRANCH   9  10
HETATM   10  N   UNL     1     -39.152 -49.309  13.889  1.00  0.00     0.098 N 
HETATM   11  C   UNL     1     -39.550 -48.544  12.688  1.00  0.00     0.292 C 
HETATM   12  C   UNL     1     -39.557 -49.375  11.394  1.00  0.00     0.152 C 
HETATM   13  N   UNL     1     -38.391 -50.219  11.244  1.00  0.00    -0.358 N 
HETATM   14  C   UNL     1     -37.731 -50.727  12.338  1.00  0.00     0.246 C 
HETATM   15  H   UNL     1     -38.308 -50.802  10.422  1.00  0.00     0.162 HD
HETATM   16  O   UNL     1     -37.020 -51.721  12.209  1.00  0.00    -0.272 OA
HETATM   17  C   UNL     1     -37.815 -49.912  13.634  1.00  0.00     0.374 C 
ENDBRANCH   9  10
ENDBRANCH   8   9
ENDBRANCH   7   8
ENDBRANCH   3   7
BRANCH   4  18
HETATM   18  C   UNL     1     -43.875 -52.612  12.752  1.00  0.00     0.108 A 
HETATM   19  C   UNL     1     -44.336 -51.392  13.227  1.00  0.00     0.049 A 
HETATM   20  C   UNL     1     -45.535 -51.350  13.931  1.00  0.00     0.005 A 
HETATM   21  C   UNL     1     -46.249 -52.524  14.132  1.00  0.00     0.017 A 
HETATM   22  C   UNL     1     -45.723 -53.697  13.625  1.00  0.00     0.089 A 
HETATM   23  N   UNL     1     -44.557 -53.765  12.949  1.00  0.00    -0.352 N 
ATOM     24  HN  UNL     1     -44.201 -54.655  12.599  1.00  0.00     0.166 HD
ENDBRANCH   4  18
TORSDOF 5
ENDMDL
MODEL 7
REMARK VINA RESULT:      -5.7      2.372      6.757
REMARK  5 active torsions:
REMARK  status: ('A' for Active; 'I' for Inactive)
REMARK       I    between atoms: C_2  and  N_3 
REMARK       I    between atoms: C_2  and  N_14 
REMARK    1  A    between atoms: N_3  and  C_4 
REMARK    2  A    between atoms: C_4  and  C_5 
REMARK    3  A    between atoms: C_5  and  C_6 
REMARK    4  A    between atoms: C_6  and  N_7 
REMARK    5  A    between atoms: N_14  and  C_15 
ROOT
HETATM    1  O   UNL     1     -40.746 -51.352  11.411  1.00  0.00    -0.247 OA
HETATM    2  C   UNL     1     -41.708 -51.603  12.131  1.00  0.00     0.321 C 
HETATM    3  N   UNL     1     -42.065 -50.845  13.202  1.00  0.00    -0.343 N 
HETATM    4  N   UNL     1     -42.524 -52.652  11.827  1.00  0.00    -0.295 N 
HETATM    5  H   UNL     1     -42.785 -51.251  13.797  1.00  0.00     0.164 HD
HETATM    6  H   UNL     1     -42.262 -53.107  10.964  1.00  0.00     0.172 HD
ENDROOT
BRANCH   3   7
HETATM    7  C   UNL     1     -41.435 -49.602  13.577  1.00  0.00     0.126 C 
BRANCH   7   8
HETATM    8  C   UNL     1     -42.395 -48.409  13.556  1.00  0.00     0.050 C 
BRANCH   8   9
HETATM    9  C   UNL     1     -43.038 -48.187  12.177  1.00  0.00     0.274 C 
BRANCH   9  10
HETATM   10  N   UNL     1     -42.071 -47.807  11.128  1.00  0.00     0.098 N 
HETATM   11  C   UNL     1     -41.415 -46.517  11.431  1.00  0.00     0.292 C 
HETATM   12  C   UNL     1     -42.355 -45.303  11.339  1.00  0.00     0.152 C 
HETATM   13  N   UNL     1     -43.203 -45.317  10.167  1.00  0.00    -0.358 N 
HETATM   14  C   UNL     1     -43.612 -46.498   9.594  1.00  0.00     0.246 C 
HETATM   15  H   UNL     1     -43.855 -44.557  10.021  1.00  0.00     0.162 HD
HETATM   16  O   UNL     1     -44.610 -46.512   8.877  1.00  0.00    -0.272 OA
HETATM   17  C   UNL     1     -42.688 -47.709   9.776  1.00  0.00     0.374 C 
ENDBRANCH   9  10
ENDBRANCH   8   9
ENDBRANCH   7   8
ENDBRANCH   3   7
BRANCH   4  18
HETATM   18  C   UNL     1     -43.646 -53.120  12.515  1.00  0.00     0.108 A 
HETATM   19  C   UNL     1     -43.471 -54.174  13.402  1.00  0.00     0.049 A 
HETATM   20  C   UNL     1     -44.572 -54.656  14.104  1.00  0.00     0.005 A 
HETATM   21  C   UNL     1     -45.814 -54.068  13.911  1.00  0.00     0.017 A 
HETATM   22  C   UNL     1     -45.904 -53.022  13.011  1.00  0.00     0.089 A 
HETATM   23  N   UNL     1     -44.854 -52.544  12.311  1.00  0.00    -0.352 N 
ATOM     24  HN  UNL     1     -44.966 -51.775  11.650  1.00  0.00     0.166 HD
ENDBRANCH   4  18
TORSDOF 5
ENDMDL
MODEL 8
REMARK VINA RESULT:      -5.7      3.006      7.194
REMARK  5 active torsions:
REMARK  status: ('A' for Active; 'I' for Inactive)
REMARK       I    between atoms: C_2  and  N_3 
REMARK       I    between atoms: C_2  and  N_14 
REMARK    1  A    between atoms: N_3  and  C_4 
REMARK    2  A    between atoms: C_4  and  C_5 
REMARK    3  A    between atoms: C_5  and  C_6 
REMARK    4  A    between atoms: C_6  and  N_7 
REMARK    5  A    between atoms: N_14  and  C_15 
ROOT
HETATM    1  O   UNL     1     -38.834 -52.351  13.261  1.00  0.00    -0.247 OA
HETATM    2  C   UNL     1     -40.057 -52.412  13.348  1.00  0.00     0.321 C 
HETATM    3  N   UNL     1     -40.860 -51.321  13.457  1.00  0.00    -0.343 N 
HETATM    4  N   UNL     1     -40.680 -53.622  13.265  1.00  0.00    -0.295 N 
HETATM    5  H   UNL     1     -41.834 -51.522  13.674  1.00  0.00     0.164 HD
HETATM    6  H   UNL     1     -40.034 -54.377  13.080  1.00  0.00     0.172 HD
ENDROOT
BRANCH   3   7
HETATM    7  C   UNL     1     -40.404 -49.953  13.384  1.00  0.00     0.126 C 
BRANCH   7   8
HETATM    8  C   UNL     1     -39.834 -49.580  12.013  1.00  0.00     0.050 C 
BRANCH   8   9
HETATM    9  C   UNL     1     -40.886 -48.957  11.081  1.00  0.00     0.274 C 
BRANCH   9  10
HETATM   10  N   UNL     1     -41.780 -47.996  11.756  1.00  0.00     0.098 N 
HETATM   11  C   UNL     1     -43.128 -47.984  11.149  1.00  0.00     0.292 C 
HETATM   12  C   UNL     1     -43.167 -47.389   9.730  1.00  0.00     0.152 C 
HETATM   13  N   UNL     1     -42.406 -46.167   9.597  1.00  0.00    -0.358 N 
HETATM   14  C   UNL     1     -41.295 -45.927  10.369  1.00  0.00     0.246 C 
HETATM   15  H   UNL     1     -42.374 -45.702   8.698  1.00  0.00     0.162 HD
HETATM   16  O   UNL     1     -40.458 -45.110   9.993  1.00  0.00    -0.272 OA
HETATM   17  C   UNL     1     -41.253 -46.603  11.745  1.00  0.00     0.374 C 
ENDBRANCH   9  10
ENDBRANCH   8   9
ENDBRANCH   7   8
ENDBRANCH   3   7
BRANCH   4  18
HETATM   18  C   UNL     1     -42.043 -53.917  13.360  1.00  0.00     0.108 A 
HETATM   19  C   UNL     1     -42.485 -54.583  14.495  1.00  0.00     0.049 A 
HETATM   20  C   UNL     1     -43.838 -54.884  14.616  1.00  0.00     0.005 A 
HETATM   21  C   UNL     1     -44.714 -54.505  13.609  1.00  0.00     0.017 A 
HETATM   22  C   UNL     1     -44.195 -53.843  12.513  1.00  0.00     0.089 A 
HETATM   23  N   UNL     1     -42.885 -53.549  12.367  1.00  0.00    -0.352 N 
ATOM     24  HN  UNL     1     -42.542 -53.066  11.536  1.00  0.00     0.166 HD
ENDBRANCH   4  18
TORSDOF 5
ENDMDL
MODEL 9
REMARK VINA RESULT:      -5.6      3.140      7.723
REMARK  5 active torsions:
REMARK  status: ('A' for Active; 'I' for Inactive)
REMARK       I    between atoms: C_2  and  N_3 
REMARK       I    between atoms: C_2  and  N_14 
REMARK    1  A    between atoms: N_3  and  C_4 
REMARK    2  A    between atoms: C_4  and  C_5 
REMARK    3  A    between atoms: C_5  and  C_6 
REMARK    4  A    between atoms: C_6  and  N_7 
REMARK    5  A    between atoms: N_14  and  C_15 
ROOT
HETATM    1  O   UNL     1     -40.204 -49.598  10.803  1.00  0.00    -0.247 OA
HETATM    2  C   UNL     1     -41.105 -50.212  11.366  1.00  0.00     0.321 C 
HETATM    3  N   UNL     1     -42.304 -49.660  11.692  1.00  0.00    -0.343 N 
HETATM    4  N   UNL     1     -40.954 -51.541  11.631  1.00  0.00    -0.295 N 
HETATM    5  H   UNL     1     -42.896 -50.235  12.289  1.00  0.00     0.164 HD
HETATM    6  H   UNL     1     -40.085 -51.909  11.270  1.00  0.00     0.172 HD
ENDROOT
BRANCH   3   7
HETATM    7  C   UNL     1     -42.718 -48.324  11.337  1.00  0.00     0.126 C 
BRANCH   7   8
HETATM    8  C   UNL     1     -42.630 -47.336  12.503  1.00  0.00     0.050 C 
BRANCH   8   9
HETATM    9  C   UNL     1     -42.254 -45.915  12.051  1.00  0.00     0.274 C 
BRANCH   9  10
HETATM   10  N   UNL     1     -40.993 -45.420  12.637  1.00  0.00     0.098 N 
HETATM   11  C   UNL     1     -41.138 -44.050  13.171  1.00  0.00     0.292 C 
HETATM   12  C   UNL     1     -41.333 -42.976  12.087  1.00  0.00     0.152 C 
HETATM   13  N   UNL     1     -40.433 -43.121  10.963  1.00  0.00    -0.358 N 
HETATM   14  C   UNL     1     -39.963 -44.354  10.578  1.00  0.00     0.246 C 
HETATM   15  H   UNL     1     -40.487 -42.459  10.200  1.00  0.00     0.162 HD
HETATM   16  O   UNL     1     -39.542 -44.513   9.434  1.00  0.00    -0.272 OA
HETATM   17  C   UNL     1     -39.861 -45.425  11.670  1.00  0.00     0.374 C 
ENDBRANCH   9  10
ENDBRANCH   8   9
ENDBRANCH   7   8
ENDBRANCH   3   7
BRANCH   4  18
HETATM   18  C   UNL     1     -41.834 -52.415  12.275  1.00  0.00     0.108 A 
HETATM   19  C   UNL     1     -41.434 -52.964  13.486  1.00  0.00     0.049 A 
HETATM   20  C   UNL     1     -42.295 -53.833  14.150  1.00  0.00     0.005 A 
HETATM   21  C   UNL     1     -43.533 -54.123  13.595  1.00  0.00     0.017 A 
HETATM   22  C   UNL     1     -43.857 -53.533  12.387  1.00  0.00     0.089 A 
HETATM   23  N   UNL     1     -43.035 -52.696  11.719  1.00  0.00    -0.352 N 
ATOM     24  HN  UNL     1     -43.311 -52.289  10.825  1.00  0.00     0.166 HD
ENDBRANCH   4  18
TORSDOF 5
ENDMDL
