MODEL 1
REMARK VINA RESULT:      -6.0      0.000      0.000
REMARK  3 active torsions:
REMARK  status: ('A' for Active; 'I' for Inactive)
REMARK    1  A    between atoms: C_2  and  C_3 
REMARK       I    between atoms: C_2  and  N_10 
REMARK    2  A    between atoms: C_3  and  N_4 
REMARK    3  A    between atoms: N_10  and  C_11 
ROOT
HETATM    1  O   UNL     1     -40.536 -49.620  10.900  1.00  0.00    -0.272 OA
HETATM    2  C   UNL     1     -41.626 -49.364  11.405  1.00  0.00     0.237 C 
HETATM    3  N   UNL     1     -42.408 -50.297  12.060  1.00  0.00    -0.353 N 
HETATM    4  H   UNL     1     -43.123 -49.914  12.676  1.00  0.00     0.163 HD
ENDROOT
BRANCH   3   5
HETATM    5  C   UNL     1     -41.989 -51.665  12.348  1.00  0.00     0.119 C 
HETATM    6  C   UNL     1     -40.665 -51.801  13.123  1.00  0.00     0.057 C 
HETATM    7  C   UNL     1     -40.998 -52.662  14.343  1.00  0.00     0.275 C 
HETATM    8  N   UNL     1     -42.129 -53.452  13.865  1.00  0.00     0.095 N 
HETATM    9  C   UNL     1     -42.871 -54.162  14.900  1.00  0.00     0.273 C 
HETATM   10  C   UNL     1     -42.990 -52.470  13.186  1.00  0.00     0.245 C 
HETATM   11  C   UNL     1     -44.017 -54.945  14.240  1.00  0.00     0.030 C 
HETATM   12  C   UNL     1     -44.899 -54.059  13.348  1.00  0.00     0.004 C 
HETATM   13  C   UNL     1     -44.057 -53.212  12.390  1.00  0.00     0.038 C 
ENDBRANCH   3   5
BRANCH   2  14
HETATM   14  C   UNL     1     -42.240 -47.984  11.329  1.00  0.00     0.250 C 
BRANCH  14  15
HETATM   15  N   UNL     1     -43.073 -47.839  10.152  1.00  0.00    -0.295 N 
HETATM   16  C   UNL     1     -44.387 -47.467  10.116  1.00  0.00     0.112 A 
HETATM   17  C   UNL     1     -44.722 -47.376   8.785  1.00  0.00     0.037 A 
HETATM   18  C   UNL     1     -43.538 -47.699   8.096  1.00  0.00     0.108 A 
HETATM   19  N   UNL     1     -42.526 -47.981   8.924  1.00  0.00    -0.310 N 
ATOM     20  HN  UNL     1     -41.569 -48.241   8.685  1.00  0.00     0.186 HD
ENDBRANCH  14  15
ENDBRANCH   2  14
TORSDOF 3
ENDMDL
MODEL 2
REMARK VINA RESULT:      -5.9      1.950      2.523
REMARK  3 active torsions:
REMARK  status: ('A' for Active; 'I' for Inactive)
REMARK    1  A    between atoms: C_2  and  C_3 
REMARK       I    between atoms: C_2  and  N_10 
REMARK    2  A    between atoms: C_3  and  N_4 
REMARK    3  A    between atoms: N_10  and  C_11 
ROOT
HETATM    1  O   UNL     1     -41.476 -51.094  13.818  1.00  0.00    -0.272 OA
HETATM    2  C   UNL     1     -41.639 -51.057  12.601  1.00  0.00     0.237 C 
HETATM    3  N   UNL     1     -42.467 -51.924  11.911  1.00  0.00    -0.353 N 
HETATM    4  H   UNL     1     -42.745 -51.615  10.981  1.00  0.00     0.163 HD
ENDROOT
BRANCH   3   5
HETATM    5  C   UNL     1     -43.347 -52.901  12.544  1.00  0.00     0.119 C 
HETATM    6  C   UNL     1     -42.638 -53.990  13.371  1.00  0.00     0.057 C 
HETATM    7  C   UNL     1     -43.284 -53.931  14.756  1.00  0.00     0.275 C 
HETATM    8  N   UNL     1     -44.615 -53.409  14.454  1.00  0.00     0.095 N 
HETATM    9  C   UNL     1     -45.379 -52.954  15.609  1.00  0.00     0.273 C 
HETATM   10  C   UNL     1     -44.361 -52.297  13.525  1.00  0.00     0.245 C 
HETATM   11  C   UNL     1     -46.746 -52.443  15.129  1.00  0.00     0.030 C 
HETATM   12  C   UNL     1     -46.627 -51.393  14.017  1.00  0.00     0.004 C 
HETATM   13  C   UNL     1     -45.682 -51.857  12.905  1.00  0.00     0.038 C 
ENDBRANCH   3   5
BRANCH   2  14
HETATM   14  C   UNL     1     -40.912 -50.064  11.724  1.00  0.00     0.250 C 
BRANCH  14  15
HETATM   15  N   UNL     1     -41.813 -49.051  11.212  1.00  0.00    -0.295 N 
HETATM   16  C   UNL     1     -42.834 -48.442  11.886  1.00  0.00     0.112 A 
HETATM   17  C   UNL     1     -43.343 -47.492  11.031  1.00  0.00     0.037 A 
HETATM   18  C   UNL     1     -42.554 -47.596   9.871  1.00  0.00     0.108 A 
HETATM   19  N   UNL     1     -41.616 -48.544   9.975  1.00  0.00    -0.310 N 
ATOM     20  HN  UNL     1     -40.917 -48.818   9.284  1.00  0.00     0.186 HD
ENDBRANCH  14  15
ENDBRANCH   2  14
TORSDOF 3
ENDMDL
MODEL 3
REMARK VINA RESULT:      -5.7      1.555      6.664
REMARK  3 active torsions:
REMARK  status: ('A' for Active; 'I' for Inactive)
REMARK    1  A    between atoms: C_2  and  C_3 
REMARK       I    between atoms: C_2  and  N_10 
REMARK    2  A    between atoms: C_3  and  N_4 
REMARK    3  A    between atoms: N_10  and  C_11 
ROOT
HETATM    1  O   UNL     1     -41.972 -50.113  13.631  1.00  0.00    -0.272 OA
HETATM    2  C   UNL     1     -41.804 -50.469  12.468  1.00  0.00     0.237 C 
HETATM    3  N   UNL     1     -42.031 -49.654  11.374  1.00  0.00    -0.353 N 
HETATM    4  H   UNL     1     -41.585 -49.950  10.508  1.00  0.00     0.163 HD
ENDROOT
BRANCH   3   5
HETATM    5  C   UNL     1     -42.371 -48.237  11.461  1.00  0.00     0.119 C 
HETATM    6  C   UNL     1     -41.174 -47.279  11.607  1.00  0.00     0.057 C 
HETATM    7  C   UNL     1     -41.326 -46.266  10.471  1.00  0.00     0.275 C 
HETATM    8  N   UNL     1     -42.769 -46.267  10.246  1.00  0.00     0.095 N 
HETATM    9  C   UNL     1     -43.206 -45.620   9.015  1.00  0.00     0.273 C 
HETATM   10  C   UNL     1     -43.130 -47.694  10.243  1.00  0.00     0.245 C 
HETATM   11  C   UNL     1     -44.738 -45.700   8.929  1.00  0.00     0.030 C 
HETATM   12  C   UNL     1     -45.264 -47.133   9.092  1.00  0.00     0.004 C 
HETATM   13  C   UNL     1     -44.647 -47.822  10.312  1.00  0.00     0.038 C 
ENDBRANCH   3   5
BRANCH   2  14
HETATM   14  C   UNL     1     -41.356 -51.870  12.115  1.00  0.00     0.250 C 
BRANCH  14  15
HETATM   15  N   UNL     1     -42.297 -52.863  12.594  1.00  0.00    -0.295 N 
HETATM   16  C   UNL     1     -42.170 -53.648  13.705  1.00  0.00     0.112 A 
HETATM   17  C   UNL     1     -43.342 -54.359  13.807  1.00  0.00     0.037 A 
HETATM   18  C   UNL     1     -44.120 -53.924  12.718  1.00  0.00     0.108 A 
HETATM   19  N   UNL     1     -43.489 -53.008  11.974  1.00  0.00    -0.310 N 
ATOM     20  HN  UNL     1     -43.829 -52.533  11.138  1.00  0.00     0.186 HD
ENDBRANCH  14  15
ENDBRANCH   2  14
TORSDOF 3
ENDMDL
MODEL 4
REMARK VINA RESULT:      -5.7      2.351      3.939
REMARK  3 active torsions:
REMARK  status: ('A' for Active; 'I' for Inactive)
REMARK    1  A    between atoms: C_2  and  C_3 
REMARK       I    between atoms: C_2  and  N_10 
REMARK    2  A    between atoms: C_3  and  N_4 
REMARK    3  A    between atoms: N_10  and  C_11 
ROOT
HETATM    1  O   UNL     1     -41.964 -52.261  14.126  1.00  0.00    -0.272 OA
HETATM    2  C   UNL     1     -42.089 -52.647  12.967  1.00  0.00     0.237 C 
HETATM    3  N   UNL     1     -43.068 -53.531  12.553  1.00  0.00    -0.353 N 
HETATM    4  H   UNL     1     -43.252 -53.542  11.551  1.00  0.00     0.163 HD
ENDROOT
BRANCH   3   5
HETATM    5  C   UNL     1     -44.151 -54.017  13.402  1.00  0.00     0.119 C 
HETATM    6  C   UNL     1     -43.726 -54.972  14.533  1.00  0.00     0.057 C 
HETATM    7  C   UNL     1     -44.279 -54.351  15.817  1.00  0.00     0.275 C 
HETATM    8  N   UNL     1     -45.433 -53.603  15.326  1.00  0.00     0.095 N 
HETATM    9  C   UNL     1     -46.003 -52.651  16.271  1.00  0.00     0.273 C 
HETATM   10  C   UNL     1     -44.929 -52.911  14.129  1.00  0.00     0.245 C 
HETATM   11  C   UNL     1     -47.203 -51.954  15.611  1.00  0.00     0.030 C 
HETATM   12  C   UNL     1     -46.851 -51.335  14.251  1.00  0.00     0.004 C 
HETATM   13  C   UNL     1     -46.108 -52.332  13.356  1.00  0.00     0.038 C 
ENDBRANCH   3   5
BRANCH   2  14
HETATM   14  C   UNL     1     -41.146 -52.207  11.870  1.00  0.00     0.250 C 
BRANCH  14  15
HETATM   15  N   UNL     1     -41.119 -50.764  11.741  1.00  0.00    -0.295 N 
HETATM   16  C   UNL     1     -40.036 -49.984  11.450  1.00  0.00     0.112 A 
HETATM   17  C   UNL     1     -40.510 -48.698  11.339  1.00  0.00     0.037 A 
HETATM   18  C   UNL     1     -41.894 -48.807  11.566  1.00  0.00     0.108 A 
HETATM   19  N   UNL     1     -42.274 -50.066  11.810  1.00  0.00    -0.310 N 
ATOM     20  HN  UNL     1     -43.213 -50.415  12.003  1.00  0.00     0.186 HD
ENDBRANCH  14  15
ENDBRANCH   2  14
TORSDOF 3
ENDMDL
MODEL 5
REMARK VINA RESULT:      -5.6      3.009      4.213
REMARK  3 active torsions:
REMARK  status: ('A' for Active; 'I' for Inactive)
REMARK    1  A    between atoms: C_2  and  C_3 
REMARK       I    between atoms: C_2  and  N_10 
REMARK    2  A    between atoms: C_3  and  N_4 
REMARK    3  A    between atoms: N_10  and  C_11 
ROOT
HETATM    1  O   UNL     1     -41.613 -51.254  13.648  1.00  0.00    -0.272 OA
HETATM    2  C   UNL     1     -41.793 -51.327  12.436  1.00  0.00     0.237 C 
HETATM    3  N   UNL     1     -42.645 -52.238  11.838  1.00  0.00    -0.353 N 
HETATM    4  H   UNL     1     -42.930 -52.012  10.887  1.00  0.00     0.163 HD
ENDROOT
BRANCH   3   5
HETATM    5  C   UNL     1     -43.533 -53.136  12.570  1.00  0.00     0.119 C 
HETATM    6  C   UNL     1     -42.831 -54.178  13.460  1.00  0.00     0.057 C 
HETATM    7  C   UNL     1     -43.434 -53.992  14.854  1.00  0.00     0.275 C 
HETATM    8  N   UNL     1     -44.758 -53.455  14.548  1.00  0.00     0.095 N 
HETATM    9  C   UNL     1     -45.474 -52.888  15.684  1.00  0.00     0.273 C 
HETATM   10  C   UNL     1     -44.501 -52.427  13.527  1.00  0.00     0.245 C 
HETATM   11  C   UNL     1     -46.841 -52.376  15.202  1.00  0.00     0.030 C 
HETATM   12  C   UNL     1     -46.724 -51.419  14.008  1.00  0.00     0.004 C 
HETATM   13  C   UNL     1     -45.826 -51.997  12.911  1.00  0.00     0.038 C 
ENDBRANCH   3   5
BRANCH   2  14
HETATM   14  C   UNL     1     -41.060 -50.432  11.462  1.00  0.00     0.250 C 
BRANCH  14  15
HETATM   15  N   UNL     1     -39.678 -50.243  11.854  1.00  0.00    -0.295 N 
HETATM   16  C   UNL     1     -39.002 -49.059  11.936  1.00  0.00     0.112 A 
HETATM   17  C   UNL     1     -37.758 -49.363  12.438  1.00  0.00     0.037 A 
HETATM   18  C   UNL     1     -37.785 -50.755  12.638  1.00  0.00     0.108 A 
HETATM   19  N   UNL     1     -38.955 -51.300  12.286  1.00  0.00    -0.310 N 
ATOM     20  HN  UNL     1     -39.234 -52.280  12.333  1.00  0.00     0.186 HD
ENDBRANCH  14  15
ENDBRANCH   2  14
TORSDOF 3
ENDMDL
MODEL 6
REMARK VINA RESULT:      -5.3      2.849      3.402
REMARK  3 active torsions:
REMARK  status: ('A' for Active; 'I' for Inactive)
REMARK    1  A    between atoms: C_2  and  C_3 
REMARK       I    between atoms: C_2  and  N_10 
REMARK    2  A    between atoms: C_3  and  N_4 
REMARK    3  A    between atoms: N_10  and  C_11 
ROOT
HETATM    1  O   UNL     1     -42.002 -49.165  11.364  1.00  0.00    -0.272 OA
HETATM    2  C   UNL     1     -41.044 -48.413  11.210  1.00  0.00     0.237 C 
HETATM    3  N   UNL     1     -39.747 -48.737  11.565  1.00  0.00    -0.353 N 
HETATM    4  H   UNL     1     -39.020 -48.174  11.128  1.00  0.00     0.163 HD
ENDROOT
BRANCH   3   5
HETATM    5  C   UNL     1     -39.330 -50.050  12.046  1.00  0.00     0.119 C 
HETATM    6  C   UNL     1     -37.857 -50.413  11.781  1.00  0.00     0.057 C 
HETATM    7  C   UNL     1     -37.281 -50.786  13.148  1.00  0.00     0.275 C 
HETATM    8  N   UNL     1     -38.464 -51.257  13.864  1.00  0.00     0.095 N 
HETATM    9  C   UNL     1     -38.298 -51.407  15.305  1.00  0.00     0.273 C 
HETATM   10  C   UNL     1     -39.492 -50.250  13.558  1.00  0.00     0.245 C 
HETATM   11  C   UNL     1     -39.619 -51.911  15.906  1.00  0.00     0.030 C 
HETATM   12  C   UNL     1     -40.819 -51.038  15.511  1.00  0.00     0.004 C 
HETATM   13  C   UNL     1     -40.851 -50.778  14.003  1.00  0.00     0.038 C 
ENDBRANCH   3   5
BRANCH   2  14
HETATM   14  C   UNL     1     -41.201 -47.023  10.634  1.00  0.00     0.250 C 
BRANCH  14  15
HETATM   15  N   UNL     1     -42.391 -46.921   9.813  1.00  0.00    -0.295 N 
HETATM   16  C   UNL     1     -43.262 -45.871   9.756  1.00  0.00     0.112 A 
HETATM   17  C   UNL     1     -44.174 -46.184   8.775  1.00  0.00     0.037 A 
HETATM   18  C   UNL     1     -43.761 -47.438   8.291  1.00  0.00     0.108 A 
HETATM   19  N   UNL     1     -42.670 -47.894   8.918  1.00  0.00    -0.310 N 
ATOM     20  HN  UNL     1     -42.170 -48.768   8.758  1.00  0.00     0.186 HD
ENDBRANCH  14  15
ENDBRANCH   2  14
TORSDOF 3
ENDMDL
MODEL 7
REMARK VINA RESULT:      -5.2      1.382      2.417
REMARK  3 active torsions:
REMARK  status: ('A' for Active; 'I' for Inactive)
REMARK    1  A    between atoms: C_2  and  C_3 
REMARK       I    between atoms: C_2  and  N_10 
REMARK    2  A    between atoms: C_3  and  N_4 
REMARK    3  A    between atoms: N_10  and  C_11 
ROOT
HETATM    1  O   UNL     1     -42.799 -47.711  12.852  1.00  0.00    -0.272 OA
HETATM    2  C   UNL     1     -42.467 -48.415  11.903  1.00  0.00     0.237 C 
HETATM    3  N   UNL     1     -42.334 -49.790  11.975  1.00  0.00    -0.353 N 
HETATM    4  H   UNL     1     -42.346 -50.278  11.081  1.00  0.00     0.163 HD
ENDROOT
BRANCH   3   5
HETATM    5  C   UNL     1     -42.693 -50.591  13.141  1.00  0.00     0.119 C 
HETATM    6  C   UNL     1     -44.203 -50.805  13.355  1.00  0.00     0.057 C 
HETATM    7  C   UNL     1     -44.387 -52.321  13.447  1.00  0.00     0.275 C 
HETATM    8  N   UNL     1     -43.087 -52.761  13.948  1.00  0.00     0.095 N 
HETATM    9  C   UNL     1     -42.841 -54.195  13.860  1.00  0.00     0.273 C 
HETATM   10  C   UNL     1     -42.117 -52.013  13.131  1.00  0.00     0.245 C 
HETATM   11  C   UNL     1     -41.444 -54.494  14.427  1.00  0.00     0.030 C 
HETATM   12  C   UNL     1     -40.347 -53.640  13.776  1.00  0.00     0.004 C 
HETATM   13  C   UNL     1     -40.732 -52.158  13.749  1.00  0.00     0.038 C 
ENDBRANCH   3   5
BRANCH   2  14
HETATM   14  C   UNL     1     -42.134 -47.830  10.549  1.00  0.00     0.250 C 
BRANCH  14  15
HETATM   15  N   UNL     1     -43.327 -47.636   9.748  1.00  0.00    -0.295 N 
HETATM   16  C   UNL     1     -43.435 -47.756   8.392  1.00  0.00     0.112 A 
HETATM   17  C   UNL     1     -44.766 -47.577   8.097  1.00  0.00     0.037 A 
HETATM   18  C   UNL     1     -45.382 -47.368   9.344  1.00  0.00     0.108 A 
HETATM   19  N   UNL     1     -44.511 -47.405  10.358  1.00  0.00    -0.310 N 
ATOM     20  HN  UNL     1     -44.696 -47.287  11.354  1.00  0.00     0.186 HD
ENDBRANCH  14  15
ENDBRANCH   2  14
TORSDOF 3
ENDMDL
MODEL 8
REMARK VINA RESULT:      -5.2      2.568      6.408
REMARK  3 active torsions:
REMARK  status: ('A' for Active; 'I' for Inactive)
REMARK    1  A    between atoms: C_2  and  C_3 
REMARK       I    between atoms: C_2  and  N_10 
REMARK    2  A    between atoms: C_3  and  N_4 
REMARK    3  A    between atoms: N_10  and  C_11 
ROOT
HETATM    1  O   UNL     1     -43.466 -51.870  14.213  1.00  0.00    -0.272 OA
HETATM    2  C   UNL     1     -43.365 -52.184  13.030  1.00  0.00     0.237 C 
HETATM    3  N   UNL     1     -42.537 -51.537  12.131  1.00  0.00    -0.353 N 
HETATM    4  H   UNL     1     -42.319 -52.058  11.283  1.00  0.00     0.163 HD
ENDROOT
BRANCH   3   5
HETATM    5  C   UNL     1     -41.587 -50.490  12.494  1.00  0.00     0.119 C 
HETATM    6  C   UNL     1     -40.134 -50.732  12.044  1.00  0.00     0.057 C 
HETATM    7  C   UNL     1     -39.744 -49.483  11.250  1.00  0.00     0.275 C 
HETATM    8  N   UNL     1     -40.603 -48.460  11.841  1.00  0.00     0.095 N 
HETATM    9  C   UNL     1     -40.685 -47.211  11.094  1.00  0.00     0.273 C 
HETATM   10  C   UNL     1     -41.923 -49.105  11.925  1.00  0.00     0.245 C 
HETATM   11  C   UNL     1     -41.615 -46.245  11.843  1.00  0.00     0.030 C 
HETATM   12  C   UNL     1     -42.984 -46.866  12.155  1.00  0.00     0.004 C 
HETATM   13  C   UNL     1     -42.840 -48.251  12.792  1.00  0.00     0.038 C 
ENDBRANCH   3   5
BRANCH   2  14
HETATM   14  C   UNL     1     -44.177 -53.308  12.427  1.00  0.00     0.250 C 
BRANCH  14  15
HETATM   15  N   UNL     1     -45.275 -53.691  13.291  1.00  0.00    -0.295 N 
HETATM   16  C   UNL     1     -45.490 -54.918  13.853  1.00  0.00     0.112 A 
HETATM   17  C   UNL     1     -46.592 -54.780  14.664  1.00  0.00     0.037 A 
HETATM   18  C   UNL     1     -46.963 -53.428  14.533  1.00  0.00     0.108 A 
HETATM   19  N   UNL     1     -46.162 -52.757  13.699  1.00  0.00    -0.310 N 
ATOM     20  HN  UNL     1     -46.210 -51.773  13.434  1.00  0.00     0.186 HD
ENDBRANCH  14  15
ENDBRANCH   2  14
TORSDOF 3
ENDMDL
MODEL 9
REMARK VINA RESULT:      -5.1      2.213      3.298
REMARK  3 active torsions:
REMARK  status: ('A' for Active; 'I' for Inactive)
REMARK    1  A    between atoms: C_2  and  C_3 
REMARK       I    between atoms: C_2  and  N_10 
REMARK    2  A    between atoms: C_3  and  N_4 
REMARK    3  A    between atoms: N_10  and  C_11 
ROOT
HETATM    1  O   UNL     1     -43.099 -48.484  13.758  1.00  0.00    -0.272 OA
HETATM    2  C   UNL     1     -43.145 -49.035  12.661  1.00  0.00     0.237 C 
HETATM    3  N   UNL     1     -43.612 -50.322  12.467  1.00  0.00    -0.353 N 
HETATM    4  H   UNL     1     -43.874 -50.553  11.510  1.00  0.00     0.163 HD
ENDROOT
BRANCH   3   5
HETATM    5  C   UNL     1     -44.225 -51.141  13.508  1.00  0.00     0.119 C 
HETATM    6  C   UNL     1     -45.757 -51.272  13.428  1.00  0.00     0.057 C 
HETATM    7  C   UNL     1     -46.034 -52.776  13.416  1.00  0.00     0.275 C 
HETATM    8  N   UNL     1     -44.876 -53.310  14.128  1.00  0.00     0.095 N 
HETATM    9  C   UNL     1     -44.694 -54.752  14.022  1.00  0.00     0.273 C 
HETATM   10  C   UNL     1     -43.733 -52.594  13.541  1.00  0.00     0.245 C 
HETATM   11  C   UNL     1     -43.446 -55.155  14.825  1.00  0.00     0.030 C 
HETATM   12  C   UNL     1     -42.203 -54.346  14.428  1.00  0.00     0.004 C 
HETATM   13  C   UNL     1     -42.498 -52.843  14.398  1.00  0.00     0.038 C 
ENDBRANCH   3   5
BRANCH   2  14
HETATM   14  C   UNL     1     -42.657 -48.355  11.402  1.00  0.00     0.250 C 
BRANCH  14  15
HETATM   15  N   UNL     1     -42.167 -47.019  11.677  1.00  0.00    -0.295 N 
HETATM   16  C   UNL     1     -40.892 -46.561  11.509  1.00  0.00     0.112 A 
HETATM   17  C   UNL     1     -40.926 -45.218  11.806  1.00  0.00     0.037 A 
HETATM   18  C   UNL     1     -42.270 -44.959  12.129  1.00  0.00     0.108 A 
HETATM   19  N   UNL     1     -43.035 -46.053  12.050  1.00  0.00    -0.310 N 
ATOM     20  HN  UNL     1     -44.036 -46.137  12.230  1.00  0.00     0.186 HD
ENDBRANCH  14  15
ENDBRANCH   2  14
TORSDOF 3
ENDMDL
