MODEL 1
REMARK VINA RESULT:      -5.8      0.000      0.000
REMARK  5 active torsions:
REMARK  status: ('A' for Active; 'I' for Inactive)
REMARK    1  A    between atoms: C_9  and  C_10 
REMARK    2  A    between atoms: C_10  and  C_11 
REMARK       I    between atoms: C_11  and  N_13 
REMARK    3  A    between atoms: N_13  and  C_14 
REMARK    4  A    between atoms: C_14  and  C_20 
REMARK    5  A    between atoms: C_20  and  O_22 
ROOT
HETATM    1  C   UNL     1     -40.244 -51.522  13.596  1.00  0.00     0.223 C 
HETATM    2  O   UNL     1     -39.610 -51.943  12.630  1.00  0.00    -0.273 OA
HETATM    3  N   UNL     1     -40.778 -52.379  14.533  1.00  0.00    -0.342 N 
HETATM    4  H   UNL     1     -40.981 -51.987  15.446  1.00  0.00     0.163 HD
ENDROOT
BRANCH   1   5
HETATM    5  C   UNL     1     -40.504 -50.043  13.813  1.00  0.00     0.145 C 
BRANCH   5   6
HETATM    6  C   UNL     1     -41.438 -49.437  12.819  1.00  0.00    -0.002 A 
HETATM    7  C   UNL     1     -42.851 -49.598  12.709  1.00  0.00     0.030 A 
HETATM    8  C   UNL     1     -43.771 -50.429  13.528  1.00  0.00     0.070 C 
HETATM    9  N   UNL     1     -43.357 -48.852  11.722  1.00  0.00    -0.303 N 
HETATM   10  N   UNL     1     -42.303 -48.204  11.210  1.00  0.00    -0.300 N 
ATOM     11  HN  UNL     1     -44.330 -48.790  11.425  1.00  0.00     0.186 HD
HETATM   12  C   UNL     1     -42.512 -47.297  10.105  1.00  0.00     0.177 C 
HETATM   13  C   UNL     1     -41.123 -48.499  11.842  1.00  0.00     0.033 A 
HETATM   14  C   UNL     1     -39.821 -47.864  11.503  1.00  0.00     0.070 C 
ENDBRANCH   5   6
ENDBRANCH   1   5
BRANCH   3  15
HETATM   15  C   UNL     1     -40.776 -53.864  14.415  1.00  0.00     0.118 C 
HETATM   16  C   UNL     1     -41.463 -54.351  13.114  1.00  0.00     0.042 C 
HETATM   17  C   UNL     1     -42.947 -53.978  13.065  1.00  0.00     0.003 C 
HETATM   18  C   UNL     1     -43.706 -54.564  14.248  1.00  0.00     0.000 C 
HETATM   19  C   UNL     1     -43.064 -54.186  15.579  1.00  0.00     0.003 C 
HETATM   20  C   UNL     1     -41.564 -54.477  15.607  1.00  0.00     0.042 C 
BRANCH  15  21
HETATM   21  C   UNL     1     -39.319 -54.413  14.481  1.00  0.00     0.169 C 
HETATM   22  O   UNL     1     -38.686 -54.559  15.520  1.00  0.00    -0.648 OA
BRANCH  21  23
HETATM   23  O   UNL     1     -38.784 -54.758  13.288  1.00  0.00    -0.775 OA
HETATM   24  H   UNL     1     -38.645 -53.989  12.682  1.00  0.00     0.167 HD
ENDBRANCH  21  23
ENDBRANCH  15  21
ENDBRANCH   3  15
TORSDOF 5
ENDMDL
MODEL 2
REMARK VINA RESULT:      -5.7      3.199      4.404
REMARK  5 active torsions:
REMARK  status: ('A' for Active; 'I' for Inactive)
REMARK    1  A    between atoms: C_9  and  C_10 
REMARK    2  A    between atoms: C_10  and  C_11 
REMARK       I    between atoms: C_11  and  N_13 
REMARK    3  A    between atoms: N_13  and  C_14 
REMARK    4  A    between atoms: C_14  and  C_20 
REMARK    5  A    between atoms: C_20  and  O_22 
ROOT
HETATM    1  C   UNL     1     -43.008 -53.097  15.247  1.00  0.00     0.223 C 
HETATM    2  O   UNL     1     -43.011 -54.218  15.754  1.00  0.00    -0.273 OA
HETATM    3  N   UNL     1     -44.143 -52.563  14.678  1.00  0.00    -0.342 N 
HETATM    4  H   UNL     1     -44.177 -51.553  14.591  1.00  0.00     0.163 HD
ENDROOT
BRANCH   1   5
HETATM    5  C   UNL     1     -41.758 -52.238  15.186  1.00  0.00     0.145 C 
BRANCH   5   6
HETATM    6  C   UNL     1     -41.398 -51.784  13.811  1.00  0.00    -0.002 A 
HETATM    7  C   UNL     1     -41.058 -52.572  12.671  1.00  0.00     0.030 A 
HETATM    8  C   UNL     1     -40.943 -54.049  12.548  1.00  0.00     0.070 C 
HETATM    9  N   UNL     1     -40.846 -51.813  11.592  1.00  0.00    -0.303 N 
HETATM   10  N   UNL     1     -41.060 -50.559  12.010  1.00  0.00    -0.300 N 
ATOM     11  HN  UNL     1     -40.581 -52.121  10.657  1.00  0.00     0.186 HD
HETATM   12  C   UNL     1     -40.912 -49.475  11.066  1.00  0.00     0.177 C 
HETATM   13  C   UNL     1     -41.415 -50.479  13.332  1.00  0.00     0.033 A 
HETATM   14  C   UNL     1     -41.767 -49.207  14.018  1.00  0.00     0.070 C 
ENDBRANCH   5   6
ENDBRANCH   1   5
BRANCH   3  15
HETATM   15  C   UNL     1     -45.420 -53.306  14.491  1.00  0.00     0.118 C 
HETATM   16  C   UNL     1     -46.525 -52.423  13.856  1.00  0.00     0.042 C 
HETATM   17  C   UNL     1     -46.911 -51.242  14.749  1.00  0.00     0.003 C 
HETATM   18  C   UNL     1     -47.407 -51.713  16.110  1.00  0.00     0.000 C 
HETATM   19  C   UNL     1     -46.407 -52.642  16.789  1.00  0.00     0.003 C 
HETATM   20  C   UNL     1     -45.951 -53.778  15.874  1.00  0.00     0.042 C 
BRANCH  15  21
HETATM   21  C   UNL     1     -45.189 -54.574  13.617  1.00  0.00     0.169 C 
HETATM   22  O   UNL     1     -45.502 -55.709  13.956  1.00  0.00    -0.648 OA
BRANCH  21  23
HETATM   23  O   UNL     1     -44.630 -54.341  12.407  1.00  0.00    -0.775 OA
HETATM   24  H   UNL     1     -43.731 -54.740  12.306  1.00  0.00     0.167 HD
ENDBRANCH  21  23
ENDBRANCH  15  21
ENDBRANCH   3  15
TORSDOF 5
ENDMDL
MODEL 3
REMARK VINA RESULT:      -5.7      0.823      1.944
REMARK  5 active torsions:
REMARK  status: ('A' for Active; 'I' for Inactive)
REMARK    1  A    between atoms: C_9  and  C_10 
REMARK    2  A    between atoms: C_10  and  C_11 
REMARK       I    between atoms: C_11  and  N_13 
REMARK    3  A    between atoms: N_13  and  C_14 
REMARK    4  A    between atoms: C_14  and  C_20 
REMARK    5  A    between atoms: C_20  and  O_22 
ROOT
HETATM    1  C   UNL     1     -39.849 -51.686  13.910  1.00  0.00     0.223 C 
HETATM    2  O   UNL     1     -39.047 -52.128  13.089  1.00  0.00    -0.273 OA
HETATM    3  N   UNL     1     -40.637 -52.526  14.667  1.00  0.00    -0.342 N 
HETATM    4  H   UNL     1     -41.010 -52.145  15.530  1.00  0.00     0.163 HD
ENDROOT
BRANCH   1   5
HETATM    5  C   UNL     1     -40.047 -50.198  14.132  1.00  0.00     0.145 C 
BRANCH   5   6
HETATM    6  C   UNL     1     -40.426 -49.444  12.901  1.00  0.00    -0.002 A 
HETATM    7  C   UNL     1     -39.585 -48.975  11.848  1.00  0.00     0.030 A 
HETATM    8  C   UNL     1     -38.111 -49.082  11.702  1.00  0.00     0.070 C 
HETATM    9  N   UNL     1     -40.291 -48.384  10.880  1.00  0.00    -0.303 N 
HETATM   10  N   UNL     1     -41.566 -48.479  11.281  1.00  0.00    -0.300 N 
ATOM     11  HN  UNL     1     -39.938 -47.955  10.025  1.00  0.00     0.186 HD
HETATM   12  C   UNL     1     -42.604 -47.927  10.440  1.00  0.00     0.177 C 
HETATM   13  C   UNL     1     -41.712 -49.125  12.480  1.00  0.00     0.033 A 
HETATM   14  C   UNL     1     -43.029 -49.415  13.109  1.00  0.00     0.070 C 
ENDBRANCH   5   6
ENDBRANCH   1   5
BRANCH   3  15
HETATM   15  C   UNL     1     -40.712 -54.002  14.485  1.00  0.00     0.118 C 
HETATM   16  C   UNL     1     -41.413 -54.395  13.159  1.00  0.00     0.042 C 
HETATM   17  C   UNL     1     -42.874 -53.942  13.116  1.00  0.00     0.003 C 
HETATM   18  C   UNL     1     -43.675 -54.537  14.268  1.00  0.00     0.000 C 
HETATM   19  C   UNL     1     -43.026 -54.251  15.618  1.00  0.00     0.003 C 
HETATM   20  C   UNL     1     -41.543 -54.623  15.644  1.00  0.00     0.042 C 
BRANCH  15  21
HETATM   21  C   UNL     1     -39.288 -54.630  14.537  1.00  0.00     0.169 C 
HETATM   22  O   UNL     1     -38.654 -54.811  15.570  1.00  0.00    -0.648 OA
BRANCH  21  23
HETATM   23  O   UNL     1     -38.784 -55.004  13.339  1.00  0.00    -0.775 OA
HETATM   24  H   UNL     1     -38.644 -55.980  13.259  1.00  0.00     0.167 HD
ENDBRANCH  21  23
ENDBRANCH  15  21
ENDBRANCH   3  15
TORSDOF 5
ENDMDL
MODEL 4
REMARK VINA RESULT:      -5.6      2.901      4.046
REMARK  5 active torsions:
REMARK  status: ('A' for Active; 'I' for Inactive)
REMARK    1  A    between atoms: C_9  and  C_10 
REMARK    2  A    between atoms: C_10  and  C_11 
REMARK       I    between atoms: C_11  and  N_13 
REMARK    3  A    between atoms: N_13  and  C_14 
REMARK    4  A    between atoms: C_14  and  C_20 
REMARK    5  A    between atoms: C_20  and  O_22 
ROOT
HETATM    1  C   UNL     1     -42.737 -51.485  13.284  1.00  0.00     0.223 C 
HETATM    2  O   UNL     1     -42.676 -52.137  12.243  1.00  0.00    -0.273 OA
HETATM    3  N   UNL     1     -43.606 -51.827  14.296  1.00  0.00    -0.342 N 
HETATM    4  H   UNL     1     -43.382 -51.485  15.224  1.00  0.00     0.163 HD
ENDROOT
BRANCH   1   5
HETATM    5  C   UNL     1     -41.885 -50.251  13.519  1.00  0.00     0.145 C 
BRANCH   5   6
HETATM    6  C   UNL     1     -40.689 -50.159  12.632  1.00  0.00    -0.002 A 
HETATM    7  C   UNL     1     -40.535 -49.433  11.413  1.00  0.00     0.030 A 
HETATM    8  C   UNL     1     -41.525 -48.600  10.682  1.00  0.00     0.070 C 
HETATM    9  N   UNL     1     -39.297 -49.546  10.925  1.00  0.00    -0.303 N 
HETATM   10  N   UNL     1     -38.649 -50.312  11.812  1.00  0.00    -0.300 N 
ATOM     11  HN  UNL     1     -38.926 -49.139  10.066  1.00  0.00     0.186 HD
HETATM   12  C   UNL     1     -37.259 -50.630  11.575  1.00  0.00     0.177 C 
HETATM   13  C   UNL     1     -39.429 -50.695  12.872  1.00  0.00     0.033 A 
HETATM   14  C   UNL     1     -38.927 -51.495  14.021  1.00  0.00     0.070 C 
ENDBRANCH   5   6
ENDBRANCH   1   5
BRANCH   3  15
HETATM   15  C   UNL     1     -44.635 -52.899  14.195  1.00  0.00     0.118 C 
HETATM   16  C   UNL     1     -45.846 -52.470  13.328  1.00  0.00     0.042 C 
HETATM   17  C   UNL     1     -46.604 -51.285  13.929  1.00  0.00     0.003 C 
HETATM   18  C   UNL     1     -47.115 -51.604  15.329  1.00  0.00     0.000 C 
HETATM   19  C   UNL     1     -45.998 -52.095  16.244  1.00  0.00     0.003 C 
HETATM   20  C   UNL     1     -45.182 -53.224  15.615  1.00  0.00     0.042 C 
BRANCH  15  21
HETATM   21  C   UNL     1     -44.009 -54.204  13.621  1.00  0.00     0.169 C 
HETATM   22  O   UNL     1     -43.308 -54.973  14.269  1.00  0.00    -0.648 OA
BRANCH  21  23
HETATM   23  O   UNL     1     -44.315 -54.466  12.330  1.00  0.00    -0.775 OA
HETATM   24  H   UNL     1     -45.058 -53.913  11.983  1.00  0.00     0.167 HD
ENDBRANCH  21  23
ENDBRANCH  15  21
ENDBRANCH   3  15
TORSDOF 5
ENDMDL
MODEL 5
REMARK VINA RESULT:      -5.6      2.485      5.661
REMARK  5 active torsions:
REMARK  status: ('A' for Active; 'I' for Inactive)
REMARK    1  A    between atoms: C_9  and  C_10 
REMARK    2  A    between atoms: C_10  and  C_11 
REMARK       I    between atoms: C_11  and  N_13 
REMARK    3  A    between atoms: N_13  and  C_14 
REMARK    4  A    between atoms: C_14  and  C_20 
REMARK    5  A    between atoms: C_20  and  O_22 
ROOT
HETATM    1  C   UNL     1     -42.254 -52.304  12.502  1.00  0.00     0.223 C 
HETATM    2  O   UNL     1     -41.201 -52.686  13.012  1.00  0.00    -0.273 OA
HETATM    3  N   UNL     1     -42.415 -51.003  12.078  1.00  0.00    -0.342 N 
HETATM    4  H   UNL     1     -43.136 -50.836  11.384  1.00  0.00     0.163 HD
ENDROOT
BRANCH   1   5
HETATM    5  C   UNL     1     -43.450 -53.221  12.327  1.00  0.00     0.145 C 
BRANCH   5   6
HETATM    6  C   UNL     1     -44.348 -53.284  13.518  1.00  0.00    -0.002 A 
HETATM    7  C   UNL     1     -44.235 -54.108  14.677  1.00  0.00     0.030 A 
HETATM    8  C   UNL     1     -43.217 -55.140  15.004  1.00  0.00     0.070 C 
HETATM    9  N   UNL     1     -45.201 -53.848  15.563  1.00  0.00    -0.303 N 
HETATM   10  N   UNL     1     -45.919 -52.865  15.005  1.00  0.00    -0.300 N 
ATOM     11  HN  UNL     1     -45.357 -54.298  16.465  1.00  0.00     0.186 HD
HETATM   12  C   UNL     1     -47.060 -52.342  15.721  1.00  0.00     0.177 C 
HETATM   13  C   UNL     1     -45.442 -52.469  13.782  1.00  0.00     0.033 A 
HETATM   14  C   UNL     1     -46.025 -51.354  12.989  1.00  0.00     0.070 C 
ENDBRANCH   5   6
ENDBRANCH   1   5
BRANCH   3  15
HETATM   15  C   UNL     1     -41.427 -49.913  12.308  1.00  0.00     0.118 C 
HETATM   16  C   UNL     1     -41.048 -49.770  13.804  1.00  0.00     0.042 C 
HETATM   17  C   UNL     1     -42.244 -49.374  14.673  1.00  0.00     0.003 C 
HETATM   18  C   UNL     1     -42.854 -48.057  14.212  1.00  0.00     0.000 C 
HETATM   19  C   UNL     1     -43.206 -48.081  12.728  1.00  0.00     0.003 C 
HETATM   20  C   UNL     1     -42.041 -48.557  11.859  1.00  0.00     0.042 C 
BRANCH  15  21
HETATM   21  C   UNL     1     -40.144 -50.153  11.458  1.00  0.00     0.169 C 
HETATM   22  O   UNL     1     -39.057 -50.471  11.927  1.00  0.00    -0.648 OA
BRANCH  21  23
HETATM   23  O   UNL     1     -40.309 -50.015  10.122  1.00  0.00    -0.775 OA
HETATM   24  H   UNL     1     -41.199 -50.307   9.804  1.00  0.00     0.167 HD
ENDBRANCH  21  23
ENDBRANCH  15  21
ENDBRANCH   3  15
TORSDOF 5
ENDMDL
MODEL 6
REMARK VINA RESULT:      -5.5      3.039      5.477
REMARK  5 active torsions:
REMARK  status: ('A' for Active; 'I' for Inactive)
REMARK    1  A    between atoms: C_9  and  C_10 
REMARK    2  A    between atoms: C_10  and  C_11 
REMARK       I    between atoms: C_11  and  N_13 
REMARK    3  A    between atoms: N_13  and  C_14 
REMARK    4  A    between atoms: C_14  and  C_20 
REMARK    5  A    between atoms: C_20  and  O_22 
ROOT
HETATM    1  C   UNL     1     -43.360 -53.776  13.918  1.00  0.00     0.223 C 
HETATM    2  O   UNL     1     -42.528 -54.388  14.585  1.00  0.00    -0.273 OA
HETATM    3  N   UNL     1     -43.003 -52.699  13.136  1.00  0.00    -0.342 N 
HETATM    4  H   UNL     1     -43.631 -52.461  12.375  1.00  0.00     0.163 HD
ENDROOT
BRANCH   1   5
HETATM    5  C   UNL     1     -44.833 -54.141  13.926  1.00  0.00     0.145 C 
BRANCH   5   6
HETATM    6  C   UNL     1     -45.711 -53.118  14.566  1.00  0.00    -0.002 A 
HETATM    7  C   UNL     1     -46.408 -52.032  13.956  1.00  0.00     0.030 A 
HETATM    8  C   UNL     1     -46.429 -51.608  12.532  1.00  0.00     0.070 C 
HETATM    9  N   UNL     1     -47.141 -51.356  14.845  1.00  0.00    -0.303 N 
HETATM   10  N   UNL     1     -46.945 -51.994  16.006  1.00  0.00    -0.300 N 
ATOM     11  HN  UNL     1     -47.723 -50.536  14.676  1.00  0.00     0.186 HD
HETATM   12  C   UNL     1     -47.611 -51.505  17.191  1.00  0.00     0.177 C 
HETATM   13  C   UNL     1     -46.109 -53.075  15.898  1.00  0.00     0.033 A 
HETATM   14  C   UNL     1     -45.782 -53.984  17.028  1.00  0.00     0.070 C 
ENDBRANCH   5   6
ENDBRANCH   1   5
BRANCH   3  15
HETATM   15  C   UNL     1     -41.647 -52.085  13.117  1.00  0.00     0.118 C 
HETATM   16  C   UNL     1     -41.228 -51.545  14.509  1.00  0.00     0.042 C 
HETATM   17  C   UNL     1     -42.140 -50.416  14.995  1.00  0.00     0.003 C 
HETATM   18  C   UNL     1     -42.147 -49.248  14.018  1.00  0.00     0.000 C 
HETATM   19  C   UNL     1     -42.491 -49.693  12.601  1.00  0.00     0.003 C 
HETATM   20  C   UNL     1     -41.642 -50.877  12.138  1.00  0.00     0.042 C 
BRANCH  15  21
HETATM   21  C   UNL     1     -40.591 -53.110  12.607  1.00  0.00     0.169 C 
HETATM   22  O   UNL     1     -39.705 -53.589  13.305  1.00  0.00    -0.648 OA
BRANCH  21  23
HETATM   23  O   UNL     1     -40.729 -53.476  11.312  1.00  0.00    -0.775 OA
HETATM   24  H   UNL     1     -41.602 -53.222  10.923  1.00  0.00     0.167 HD
ENDBRANCH  21  23
ENDBRANCH  15  21
ENDBRANCH   3  15
TORSDOF 5
ENDMDL
MODEL 7
REMARK VINA RESULT:      -5.5      2.737      6.039
REMARK  5 active torsions:
REMARK  status: ('A' for Active; 'I' for Inactive)
REMARK    1  A    between atoms: C_9  and  C_10 
REMARK    2  A    between atoms: C_10  and  C_11 
REMARK       I    between atoms: C_11  and  N_13 
REMARK    3  A    between atoms: N_13  and  C_14 
REMARK    4  A    between atoms: C_14  and  C_20 
REMARK    5  A    between atoms: C_20  and  O_22 
ROOT
HETATM    1  C   UNL     1     -41.485 -51.777  12.336  1.00  0.00     0.223 C 
HETATM    2  O   UNL     1     -42.285 -50.866  12.545  1.00  0.00    -0.273 OA
HETATM    3  N   UNL     1     -40.133 -51.533  12.232  1.00  0.00    -0.342 N 
HETATM    4  H   UNL     1     -39.514 -52.319  12.399  1.00  0.00     0.163 HD
ENDROOT
BRANCH   1   5
HETATM    5  C   UNL     1     -41.924 -53.218  12.155  1.00  0.00     0.145 C 
BRANCH   5   6
HETATM    6  C   UNL     1     -42.243 -53.922  13.432  1.00  0.00    -0.002 A 
HETATM    7  C   UNL     1     -43.513 -54.353  13.919  1.00  0.00     0.030 A 
HETATM    8  C   UNL     1     -44.859 -54.196  13.309  1.00  0.00     0.070 C 
HETATM    9  N   UNL     1     -43.401 -55.000  15.082  1.00  0.00    -0.303 N 
HETATM   10  N   UNL     1     -42.087 -55.009  15.342  1.00  0.00    -0.300 N 
ATOM     11  HN  UNL     1     -44.150 -55.400  15.647  1.00  0.00     0.186 HD
HETATM   12  C   UNL     1     -41.620 -55.646  16.552  1.00  0.00     0.177 C 
HETATM   13  C   UNL     1     -41.337 -54.393  14.375  1.00  0.00     0.033 A 
HETATM   14  C   UNL     1     -39.851 -54.325  14.398  1.00  0.00     0.070 C 
ENDBRANCH   5   6
ENDBRANCH   1   5
BRANCH   3  15
HETATM   15  C   UNL     1     -39.520 -50.176  12.216  1.00  0.00     0.118 C 
HETATM   16  C   UNL     1     -38.011 -50.218  11.865  1.00  0.00     0.042 C 
HETATM   17  C   UNL     1     -37.191 -50.982  12.907  1.00  0.00     0.003 C 
HETATM   18  C   UNL     1     -37.337 -50.364  14.291  1.00  0.00     0.000 C 
HETATM   19  C   UNL     1     -38.799 -50.225  14.701  1.00  0.00     0.003 C 
HETATM   20  C   UNL     1     -39.644 -49.537  13.628  1.00  0.00     0.042 C 
BRANCH  15  21
HETATM   21  C   UNL     1     -40.271 -49.251  11.213  1.00  0.00     0.169 C 
HETATM   22  O   UNL     1     -40.585 -48.091  11.451  1.00  0.00    -0.648 OA
BRANCH  21  23
HETATM   23  O   UNL     1     -40.542 -49.811  10.011  1.00  0.00    -0.775 OA
HETATM   24  H   UNL     1     -41.074 -50.642  10.076  1.00  0.00     0.167 HD
ENDBRANCH  21  23
ENDBRANCH  15  21
ENDBRANCH   3  15
TORSDOF 5
ENDMDL
MODEL 8
REMARK VINA RESULT:      -5.4      2.300      5.271
REMARK  5 active torsions:
REMARK  status: ('A' for Active; 'I' for Inactive)
REMARK    1  A    between atoms: C_9  and  C_10 
REMARK    2  A    between atoms: C_10  and  C_11 
REMARK       I    between atoms: C_11  and  N_13 
REMARK    3  A    between atoms: N_13  and  C_14 
REMARK    4  A    between atoms: C_14  and  C_20 
REMARK    5  A    between atoms: C_20  and  O_22 
ROOT
HETATM    1  C   UNL     1     -40.400 -51.920  12.403  1.00  0.00     0.223 C 
HETATM    2  O   UNL     1     -39.675 -52.625  13.103  1.00  0.00    -0.273 OA
HETATM    3  N   UNL     1     -39.977 -50.693  11.940  1.00  0.00    -0.342 N 
HETATM    4  H   UNL     1     -40.453 -50.325  11.123  1.00  0.00     0.163 HD
ENDROOT
BRANCH   1   5
HETATM    5  C   UNL     1     -41.810 -52.331  12.022  1.00  0.00     0.145 C 
BRANCH   5   6
HETATM    6  C   UNL     1     -42.840 -51.997  13.049  1.00  0.00    -0.002 A 
HETATM    7  C   UNL     1     -43.430 -50.731  13.343  1.00  0.00     0.030 A 
HETATM    8  C   UNL     1     -43.162 -49.404  12.731  1.00  0.00     0.070 C 
HETATM    9  N   UNL     1     -44.360 -50.831  14.297  1.00  0.00    -0.303 N 
HETATM   10  N   UNL     1     -44.391 -52.133  14.608  1.00  0.00    -0.300 N 
ATOM     11  HN  UNL     1     -44.921 -50.080  14.699  1.00  0.00     0.186 HD
HETATM   12  C   UNL     1     -45.312 -52.583  15.627  1.00  0.00     0.177 C 
HETATM   13  C   UNL     1     -43.513 -52.889  13.876  1.00  0.00     0.033 A 
HETATM   14  C   UNL     1     -43.402 -54.368  13.989  1.00  0.00     0.070 C 
ENDBRANCH   5   6
ENDBRANCH   1   5
BRANCH   3  15
HETATM   15  C   UNL     1     -38.698 -50.039  12.334  1.00  0.00     0.118 C 
HETATM   16  C   UNL     1     -38.468 -50.077  13.867  1.00  0.00     0.042 C 
HETATM   17  C   UNL     1     -39.535 -49.296  14.636  1.00  0.00     0.003 C 
HETATM   18  C   UNL     1     -39.579 -47.837  14.201  1.00  0.00     0.000 C 
HETATM   19  C   UNL     1     -39.743 -47.698  12.691  1.00  0.00     0.003 C 
HETATM   20  C   UNL     1     -38.733 -48.542  11.913  1.00  0.00     0.042 C 
BRANCH  15  21
HETATM   21  C   UNL     1     -37.496 -50.706  11.602  1.00  0.00     0.169 C 
HETATM   22  O   UNL     1     -36.799 -51.589  12.087  1.00  0.00    -0.648 OA
BRANCH  21  23
HETATM   23  O   UNL     1     -37.276 -50.261  10.343  1.00  0.00    -0.775 OA
HETATM   24  H   UNL     1     -37.481 -49.301  10.225  1.00  0.00     0.167 HD
ENDBRANCH  21  23
ENDBRANCH  15  21
ENDBRANCH   3  15
TORSDOF 5
ENDMDL
MODEL 9
REMARK VINA RESULT:      -5.3      3.366      4.694
REMARK  5 active torsions:
REMARK  status: ('A' for Active; 'I' for Inactive)
REMARK    1  A    between atoms: C_9  and  C_10 
REMARK    2  A    between atoms: C_10  and  C_11 
REMARK       I    between atoms: C_11  and  N_13 
REMARK    3  A    between atoms: N_13  and  C_14 
REMARK    4  A    between atoms: C_14  and  C_20 
REMARK    5  A    between atoms: C_20  and  O_22 
ROOT
HETATM    1  C   UNL     1     -42.980 -53.014  15.602  1.00  0.00     0.223 C 
HETATM    2  O   UNL     1     -43.040 -54.216  15.860  1.00  0.00    -0.273 OA
HETATM    3  N   UNL     1     -44.118 -52.272  15.372  1.00  0.00    -0.342 N 
HETATM    4  H   UNL     1     -44.041 -51.269  15.501  1.00  0.00     0.163 HD
ENDROOT
BRANCH   1   5
HETATM    5  C   UNL     1     -41.661 -52.273  15.493  1.00  0.00     0.145 C 
BRANCH   5   6
HETATM    6  C   UNL     1     -41.282 -51.904  14.097  1.00  0.00    -0.002 A 
HETATM    7  C   UNL     1     -41.000 -52.764  12.993  1.00  0.00     0.030 A 
HETATM    8  C   UNL     1     -40.978 -54.248  12.937  1.00  0.00     0.070 C 
HETATM    9  N   UNL     1     -40.749 -52.069  11.880  1.00  0.00    -0.303 N 
HETATM   10  N   UNL     1     -40.881 -50.786  12.241  1.00  0.00    -0.300 N 
ATOM     11  HN  UNL     1     -40.510 -52.435  10.959  1.00  0.00     0.186 HD
HETATM   12  C   UNL     1     -40.672 -49.757  11.248  1.00  0.00     0.177 C 
HETATM   13  C   UNL     1     -41.221 -50.624  13.559  1.00  0.00     0.033 A 
HETATM   14  C   UNL     1     -41.488 -49.303  14.188  1.00  0.00     0.070 C 
ENDBRANCH   5   6
ENDBRANCH   1   5
BRANCH   3  15
HETATM   15  C   UNL     1     -45.489 -52.842  15.270  1.00  0.00     0.118 C 
HETATM   16  C   UNL     1     -45.570 -53.998  14.241  1.00  0.00     0.042 C 
HETATM   17  C   UNL     1     -45.256 -53.534  12.817  1.00  0.00     0.003 C 
HETATM   18  C   UNL     1     -46.210 -52.434  12.368  1.00  0.00     0.000 C 
HETATM   19  C   UNL     1     -46.245 -51.273  13.356  1.00  0.00     0.003 C 
HETATM   20  C   UNL     1     -46.474 -51.736  14.795  1.00  0.00     0.042 C 
BRANCH  15  21
HETATM   21  C   UNL     1     -45.977 -53.339  16.664  1.00  0.00     0.169 C 
HETATM   22  O   UNL     1     -46.490 -52.616  17.510  1.00  0.00    -0.648 OA
BRANCH  21  23
HETATM   23  O   UNL     1     -45.823 -54.665  16.884  1.00  0.00    -0.775 OA
HETATM   24  H   UNL     1     -45.289 -54.870  17.691  1.00  0.00     0.167 HD
ENDBRANCH  21  23
ENDBRANCH  15  21
ENDBRANCH   3  15
TORSDOF 5
ENDMDL
