MODEL 1
REMARK VINA RESULT:      -6.5      0.000      0.000
REMARK  3 active torsions:
REMARK  status: ('A' for Active; 'I' for Inactive)
REMARK    1  A    between atoms: C_4  and  N_5 
REMARK       I    between atoms: N_5  and  C_6 
REMARK       I    between atoms: C_6  and  N_8 
REMARK    2  A    between atoms: N_8  and  C_9 
REMARK       I    between atoms: N_12  and  C_15 
REMARK    3  A    between atoms: C_15  and  C_17 
ROOT
HETATM    1  N   UNL     1     -42.164 -46.160   9.593  1.00  0.00    -0.293 N 
HETATM    2  C   UNL     1     -41.234 -46.551  10.514  1.00  0.00     0.322 C 
HETATM    3  O   UNL     1     -40.333 -45.782  10.843  1.00  0.00    -0.247 OA
HETATM    4  N   UNL     1     -41.325 -47.834  10.957  1.00  0.00    -0.338 N 
HETATM    5  H   UNL     1     -41.995 -45.250   9.189  1.00  0.00     0.172 HD
HETATM    6  H   UNL     1     -42.200 -48.315  10.763  1.00  0.00     0.164 HD
ENDROOT
BRANCH   4   7
HETATM    7  C   UNL     1     -40.347 -48.500  11.787  1.00  0.00     0.089 C 
HETATM    8  C   UNL     1     -40.850 -48.647  13.222  1.00  0.00     0.045 C 
HETATM    9  C   UNL     1     -39.827 -49.393  14.074  1.00  0.00     0.127 C 
HETATM   10  N   UNL     1     -39.409 -50.653  13.452  1.00  0.00    -0.352 N 
HETATM   11  C   UNL     1     -38.979 -50.564  12.058  1.00  0.00     0.127 C 
HETATM   12  C   UNL     1     -39.154 -51.842  14.130  1.00  0.00     0.224 C 
HETATM   13  C   UNL     1     -40.035 -49.879  11.207  1.00  0.00     0.045 C 
HETATM   14  O   UNL     1     -38.687 -52.834  13.577  1.00  0.00    -0.273 OA
BRANCH  12  15
HETATM   15  C   UNL     1     -39.513 -51.927  15.577  1.00  0.00     0.078 A 
HETATM   16  C   UNL     1     -38.449 -51.766  16.641  1.00  0.00     0.015 A 
HETATM   17  C   UNL     1     -39.036 -53.121  16.376  1.00  0.00     0.015 A 
ENDBRANCH  12  15
ENDBRANCH   4   7
BRANCH   1  18
HETATM   18  C   UNL     1     -43.198 -46.918   9.079  1.00  0.00     0.132 A 
HETATM   19  C   UNL     1     -44.465 -47.083   9.687  1.00  0.00     0.084 A 
HETATM   20  C   UNL     1     -45.180 -47.838   8.789  1.00  0.00     0.076 A 
HETATM   21  C   UNL     1     -46.564 -48.329   8.706  1.00  0.00     0.079 C 
HETATM   22  O   UNL     1     -44.381 -48.157   7.740  1.00  0.00    -0.241 OA
HETATM   23  N   UNL     1     -43.144 -47.586   7.919  1.00  0.00    -0.245 N 
ATOM     24  HN  UNL     1     -42.342 -47.657   7.292  1.00  0.00     0.196 HD
ENDBRANCH   1  18
TORSDOF 3
ENDMDL
MODEL 2
REMARK VINA RESULT:      -6.5      1.053      1.157
REMARK  3 active torsions:
REMARK  status: ('A' for Active; 'I' for Inactive)
REMARK    1  A    between atoms: C_4  and  N_5 
REMARK       I    between atoms: N_5  and  C_6 
REMARK       I    between atoms: C_6  and  N_8 
REMARK    2  A    between atoms: N_8  and  C_9 
REMARK       I    between atoms: N_12  and  C_15 
REMARK    3  A    between atoms: C_15  and  C_17 
ROOT
HETATM    1  N   UNL     1     -41.959 -46.691   9.677  1.00  0.00    -0.293 N 
HETATM    2  C   UNL     1     -41.211 -47.175  10.712  1.00  0.00     0.322 C 
HETATM    3  O   UNL     1     -40.172 -46.604  11.040  1.00  0.00    -0.247 OA
HETATM    4  N   UNL     1     -41.639 -48.338  11.273  1.00  0.00    -0.338 N 
HETATM    5  H   UNL     1     -41.550 -45.900   9.200  1.00  0.00     0.172 HD
HETATM    6  H   UNL     1     -42.591 -48.620  11.052  1.00  0.00     0.164 HD
ENDROOT
BRANCH   4   7
HETATM    7  C   UNL     1     -40.906 -49.111  12.251  1.00  0.00     0.089 C 
HETATM    8  C   UNL     1     -41.853 -49.831  13.207  1.00  0.00     0.045 C 
HETATM    9  C   UNL     1     -41.066 -50.679  14.202  1.00  0.00     0.127 C 
HETATM   10  N   UNL     1     -40.103 -51.559  13.534  1.00  0.00    -0.352 N 
HETATM   11  C   UNL     1     -39.218 -50.915  12.564  1.00  0.00     0.127 C 
HETATM   12  C   UNL     1     -39.799 -52.862  13.917  1.00  0.00     0.224 C 
HETATM   13  C   UNL     1     -40.018 -50.130  11.539  1.00  0.00     0.045 C 
HETATM   14  O   UNL     1     -38.894 -53.513  13.400  1.00  0.00    -0.273 OA
BRANCH  12  15
HETATM   15  C   UNL     1     -40.641 -53.511  14.965  1.00  0.00     0.078 A 
HETATM   16  C   UNL     1     -40.158 -53.589  16.398  1.00  0.00     0.015 A 
HETATM   17  C   UNL     1     -40.186 -54.829  15.554  1.00  0.00     0.015 A 
ENDBRANCH  12  15
ENDBRANCH   4   7
BRANCH   1  18
HETATM   18  C   UNL     1     -43.112 -47.240   9.153  1.00  0.00     0.132 A 
HETATM   19  C   UNL     1     -44.374 -47.250   9.794  1.00  0.00     0.084 A 
HETATM   20  C   UNL     1     -45.221 -47.820   8.875  1.00  0.00     0.076 A 
HETATM   21  C   UNL     1     -46.667 -48.083   8.811  1.00  0.00     0.079 C 
HETATM   22  O   UNL     1     -44.509 -48.184   7.779  1.00  0.00    -0.241 OA
HETATM   23  N   UNL     1     -43.194 -47.826   7.950  1.00  0.00    -0.245 N 
ATOM     24  HN  UNL     1     -42.430 -47.975   7.292  1.00  0.00     0.196 HD
ENDBRANCH   1  18
TORSDOF 3
ENDMDL
MODEL 3
REMARK VINA RESULT:      -6.2      3.672      6.371
REMARK  3 active torsions:
REMARK  status: ('A' for Active; 'I' for Inactive)
REMARK    1  A    between atoms: C_4  and  N_5 
REMARK       I    between atoms: N_5  and  C_6 
REMARK       I    between atoms: C_6  and  N_8 
REMARK    2  A    between atoms: N_8  and  C_9 
REMARK       I    between atoms: N_12  and  C_15 
REMARK    3  A    between atoms: C_15  and  C_17 
ROOT
HETATM    1  N   UNL     1     -42.039 -53.054  12.546  1.00  0.00    -0.293 N 
HETATM    2  C   UNL     1     -41.153 -52.099  12.135  1.00  0.00     0.322 C 
HETATM    3  O   UNL     1     -39.945 -52.331  12.153  1.00  0.00    -0.247 OA
HETATM    4  N   UNL     1     -41.680 -50.891  11.798  1.00  0.00    -0.338 N 
HETATM    5  H   UNL     1     -41.610 -53.893  12.910  1.00  0.00     0.172 HD
HETATM    6  H   UNL     1     -42.686 -50.867  11.645  1.00  0.00     0.164 HD
ENDROOT
BRANCH   4   7
HETATM    7  C   UNL     1     -40.915 -49.699  11.510  1.00  0.00     0.089 C 
HETATM    8  C   UNL     1     -41.819 -48.568  11.025  1.00  0.00     0.045 C 
HETATM    9  C   UNL     1     -41.004 -47.303  10.770  1.00  0.00     0.127 C 
HETATM   10  N   UNL     1     -40.164 -46.950  11.919  1.00  0.00    -0.352 N 
HETATM   11  C   UNL     1     -39.329 -48.025  12.452  1.00  0.00     0.127 C 
HETATM   12  C   UNL     1     -39.913 -45.656  12.369  1.00  0.00     0.224 C 
HETATM   13  C   UNL     1     -40.164 -49.256  12.765  1.00  0.00     0.045 C 
HETATM   14  O   UNL     1     -39.103 -45.408  13.259  1.00  0.00    -0.273 OA
BRANCH  12  15
HETATM   15  C   UNL     1     -40.700 -44.533  11.779  1.00  0.00     0.078 A 
HETATM   16  C   UNL     1     -40.128 -43.709  10.646  1.00  0.00     0.015 A 
HETATM   17  C   UNL     1     -40.234 -43.113  12.018  1.00  0.00     0.015 A 
ENDBRANCH  12  15
ENDBRANCH   4   7
BRANCH   1  18
HETATM   18  C   UNL     1     -43.411 -52.933  12.639  1.00  0.00     0.132 A 
HETATM   19  C   UNL     1     -44.099 -52.226  13.654  1.00  0.00     0.084 A 
HETATM   20  C   UNL     1     -45.422 -52.312  13.293  1.00  0.00     0.076 A 
HETATM   21  C   UNL     1     -46.684 -51.764  13.816  1.00  0.00     0.079 C 
HETATM   22  O   UNL     1     -45.531 -53.067  12.172  1.00  0.00    -0.241 OA
HETATM   23  N   UNL     1     -44.279 -53.458  11.763  1.00  0.00    -0.245 N 
ATOM     24  HN  UNL     1     -44.053 -54.034  10.952  1.00  0.00     0.196 HD
ENDBRANCH   1  18
TORSDOF 3
ENDMDL
MODEL 4
REMARK VINA RESULT:      -6.0      5.484      7.200
REMARK  3 active torsions:
REMARK  status: ('A' for Active; 'I' for Inactive)
REMARK    1  A    between atoms: C_4  and  N_5 
REMARK       I    between atoms: N_5  and  C_6 
REMARK       I    between atoms: C_6  and  N_8 
REMARK    2  A    between atoms: N_8  and  C_9 
REMARK       I    between atoms: N_12  and  C_15 
REMARK    3  A    between atoms: C_15  and  C_17 
ROOT
HETATM    1  N   UNL     1     -46.262 -54.098  14.663  1.00  0.00    -0.293 N 
HETATM    2  C   UNL     1     -45.268 -53.978  13.734  1.00  0.00     0.322 C 
HETATM    3  O   UNL     1     -45.140 -54.831  12.857  1.00  0.00    -0.247 OA
HETATM    4  N   UNL     1     -44.413 -52.932  13.896  1.00  0.00    -0.338 N 
HETATM    5  H   UNL     1     -46.800 -54.950  14.592  1.00  0.00     0.172 HD
HETATM    6  H   UNL     1     -44.716 -52.199  14.532  1.00  0.00     0.164 HD
ENDROOT
BRANCH   4   7
HETATM    7  C   UNL     1     -43.199 -52.724  13.139  1.00  0.00     0.089 C 
HETATM    8  C   UNL     1     -42.908 -51.235  12.964  1.00  0.00     0.045 C 
HETATM    9  C   UNL     1     -41.600 -51.031  12.205  1.00  0.00     0.127 C 
HETATM   10  N   UNL     1     -40.497 -51.794  12.797  1.00  0.00    -0.352 N 
HETATM   11  C   UNL     1     -40.759 -53.212  13.038  1.00  0.00     0.127 C 
HETATM   12  C   UNL     1     -39.181 -51.354  12.909  1.00  0.00     0.224 C 
HETATM   13  C   UNL     1     -42.028 -53.397  13.852  1.00  0.00     0.045 C 
HETATM   14  O   UNL     1     -38.269 -52.079  13.300  1.00  0.00    -0.273 OA
BRANCH  12  15
HETATM   15  C   UNL     1     -38.878 -49.927  12.590  1.00  0.00     0.078 A 
HETATM   16  C   UNL     1     -37.889 -49.580  11.497  1.00  0.00     0.015 A 
HETATM   17  C   UNL     1     -37.510 -49.379  12.935  1.00  0.00     0.015 A 
ENDBRANCH  12  15
ENDBRANCH   4   7
BRANCH   1  18
HETATM   18  C   UNL     1     -46.506 -53.264  15.736  1.00  0.00     0.132 A 
HETATM   19  C   UNL     1     -47.264 -52.070  15.682  1.00  0.00     0.084 A 
HETATM   20  C   UNL     1     -47.302 -51.630  16.983  1.00  0.00     0.076 A 
HETATM   21  C   UNL     1     -47.958 -50.519  17.691  1.00  0.00     0.079 C 
HETATM   22  O   UNL     1     -46.568 -52.467  17.758  1.00  0.00    -0.241 OA
HETATM   23  N   UNL     1     -46.068 -53.485  16.983  1.00  0.00    -0.245 N 
ATOM     24  HN  UNL     1     -45.480 -54.258  17.295  1.00  0.00     0.196 HD
ENDBRANCH   1  18
TORSDOF 3
ENDMDL
MODEL 5
REMARK VINA RESULT:      -5.7      6.422      8.050
REMARK  3 active torsions:
REMARK  status: ('A' for Active; 'I' for Inactive)
REMARK    1  A    between atoms: C_4  and  N_5 
REMARK       I    between atoms: N_5  and  C_6 
REMARK       I    between atoms: C_6  and  N_8 
REMARK    2  A    between atoms: N_8  and  C_9 
REMARK       I    between atoms: N_12  and  C_15 
REMARK    3  A    between atoms: C_15  and  C_17 
ROOT
HETATM    1  N   UNL     1     -42.741 -52.942  11.861  1.00  0.00    -0.293 N 
HETATM    2  C   UNL     1     -43.824 -53.303  12.611  1.00  0.00     0.322 C 
HETATM    3  O   UNL     1     -44.602 -54.161  12.197  1.00  0.00    -0.247 OA
HETATM    4  N   UNL     1     -44.018 -52.608  13.765  1.00  0.00    -0.338 N 
HETATM    5  H   UNL     1     -42.696 -53.384  10.954  1.00  0.00     0.172 HD
HETATM    6  H   UNL     1     -43.228 -52.059  14.096  1.00  0.00     0.164 HD
ENDROOT
BRANCH   4   7
HETATM    7  C   UNL     1     -45.187 -52.704  14.609  1.00  0.00     0.089 C 
HETATM    8  C   UNL     1     -44.804 -53.055  16.045  1.00  0.00     0.045 C 
HETATM    9  C   UNL     1     -46.043 -53.106  16.933  1.00  0.00     0.127 C 
HETATM   10  N   UNL     1     -46.859 -51.894  16.808  1.00  0.00    -0.352 N 
HETATM   11  C   UNL     1     -47.196 -51.491  15.444  1.00  0.00     0.127 C 
HETATM   12  C   UNL     1     -47.530 -51.262  17.851  1.00  0.00     0.224 C 
HETATM   13  C   UNL     1     -45.946 -51.378  14.588  1.00  0.00     0.045 C 
HETATM   14  O   UNL     1     -48.301 -50.322  17.671  1.00  0.00    -0.273 OA
BRANCH  12  15
HETATM   15  C   UNL     1     -47.261 -51.714  19.248  1.00  0.00     0.078 A 
HETATM   16  C   UNL     1     -48.239 -52.621  19.963  1.00  0.00     0.015 A 
HETATM   17  C   UNL     1     -48.130 -51.180  20.366  1.00  0.00     0.015 A 
ENDBRANCH  12  15
ENDBRANCH   4   7
BRANCH   1  18
HETATM   18  C   UNL     1     -41.811 -51.965  12.156  1.00  0.00     0.132 A 
HETATM   19  C   UNL     1     -40.581 -52.187  12.820  1.00  0.00     0.084 A 
HETATM   20  C   UNL     1     -39.964 -50.959  12.816  1.00  0.00     0.076 A 
HETATM   21  C   UNL     1     -38.655 -50.447  13.251  1.00  0.00     0.079 C 
HETATM   22  O   UNL     1     -40.789 -50.047  12.243  1.00  0.00    -0.241 OA
HETATM   23  N   UNL     1     -41.942 -50.671  11.832  1.00  0.00    -0.245 N 
ATOM     24  HN  UNL     1     -42.741 -50.236  11.371  1.00  0.00     0.196 HD
ENDBRANCH   1  18
TORSDOF 3
ENDMDL
MODEL 6
REMARK VINA RESULT:      -5.6      2.956      4.575
REMARK  3 active torsions:
REMARK  status: ('A' for Active; 'I' for Inactive)
REMARK    1  A    between atoms: C_4  and  N_5 
REMARK       I    between atoms: N_5  and  C_6 
REMARK       I    between atoms: C_6  and  N_8 
REMARK    2  A    between atoms: N_8  and  C_9 
REMARK       I    between atoms: N_12  and  C_15 
REMARK    3  A    between atoms: C_15  and  C_17 
ROOT
HETATM    1  N   UNL     1     -39.108 -49.313  11.379  1.00  0.00    -0.293 N 
HETATM    2  C   UNL     1     -39.062 -50.528  12.001  1.00  0.00     0.322 C 
HETATM    3  O   UNL     1     -37.984 -51.098  12.158  1.00  0.00    -0.247 OA
HETATM    4  N   UNL     1     -40.259 -51.077  12.342  1.00  0.00    -0.338 N 
HETATM    5  H   UNL     1     -38.219 -48.990  11.025  1.00  0.00     0.172 HD
HETATM    6  H   UNL     1     -41.060 -50.450  12.333  1.00  0.00     0.164 HD
ENDROOT
BRANCH   4   7
HETATM    7  C   UNL     1     -40.447 -52.421  12.841  1.00  0.00     0.089 C 
HETATM    8  C   UNL     1     -39.874 -52.571  14.248  1.00  0.00     0.045 C 
HETATM    9  C   UNL     1     -40.121 -53.980  14.779  1.00  0.00     0.127 C 
HETATM   10  N   UNL     1     -41.528 -54.373  14.658  1.00  0.00    -0.352 N 
HETATM   11  C   UNL     1     -42.131 -54.187  13.340  1.00  0.00     0.127 C 
HETATM   12  C   UNL     1     -42.240 -55.121  15.592  1.00  0.00     0.224 C 
HETATM   13  C   UNL     1     -41.936 -52.761  12.852  1.00  0.00     0.045 C 
HETATM   14  O   UNL     1     -43.381 -55.530  15.385  1.00  0.00    -0.273 OA
BRANCH  12  15
HETATM   15  C   UNL     1     -41.609 -55.393  16.918  1.00  0.00     0.078 A 
HETATM   16  C   UNL     1     -40.967 -56.734  17.201  1.00  0.00     0.015 A 
HETATM   17  C   UNL     1     -42.272 -56.382  17.851  1.00  0.00     0.015 A 
ENDBRANCH  12  15
ENDBRANCH   4   7
BRANCH   1  18
HETATM   18  C   UNL     1     -40.235 -48.572  11.078  1.00  0.00     0.132 A 
HETATM   19  C   UNL     1     -40.522 -47.284  11.589  1.00  0.00     0.084 A 
HETATM   20  C   UNL     1     -41.686 -46.918  10.958  1.00  0.00     0.076 A 
HETATM   21  C   UNL     1     -42.523 -45.708  10.931  1.00  0.00     0.079 C 
HETATM   22  O   UNL     1     -42.104 -47.937  10.167  1.00  0.00    -0.241 OA
HETATM   23  N   UNL     1     -41.202 -48.971  10.242  1.00  0.00    -0.245 N 
ATOM     24  HN  UNL     1     -41.258 -49.866   9.755  1.00  0.00     0.196 HD
ENDBRANCH   1  18
TORSDOF 3
ENDMDL
MODEL 7
REMARK VINA RESULT:      -5.6      4.659      6.059
REMARK  3 active torsions:
REMARK  status: ('A' for Active; 'I' for Inactive)
REMARK    1  A    between atoms: C_4  and  N_5 
REMARK       I    between atoms: N_5  and  C_6 
REMARK       I    between atoms: C_6  and  N_8 
REMARK    2  A    between atoms: N_8  and  C_9 
REMARK       I    between atoms: N_12  and  C_15 
REMARK    3  A    between atoms: C_15  and  C_17 
ROOT
HETATM    1  N   UNL     1     -40.306 -50.721  11.232  1.00  0.00    -0.293 N 
HETATM    2  C   UNL     1     -41.032 -51.624  11.955  1.00  0.00     0.322 C 
HETATM    3  O   UNL     1     -40.755 -52.821  11.901  1.00  0.00    -0.247 OA
HETATM    4  N   UNL     1     -42.095 -51.129  12.645  1.00  0.00    -0.338 N 
HETATM    5  H   UNL     1     -39.605 -51.134  10.632  1.00  0.00     0.172 HD
HETATM    6  H   UNL     1     -42.121 -50.120  12.766  1.00  0.00     0.164 HD
ENDROOT
BRANCH   4   7
HETATM    7  C   UNL     1     -43.092 -51.927  13.323  1.00  0.00     0.089 C 
HETATM    8  C   UNL     1     -42.665 -52.241  14.755  1.00  0.00     0.045 C 
HETATM    9  C   UNL     1     -43.747 -53.042  15.473  1.00  0.00     0.127 C 
HETATM   10  N   UNL     1     -45.064 -52.407  15.365  1.00  0.00    -0.352 N 
HETATM   11  C   UNL     1     -45.482 -52.034  14.014  1.00  0.00     0.127 C 
HETATM   12  C   UNL     1     -46.023 -52.362  16.372  1.00  0.00     0.224 C 
HETATM   13  C   UNL     1     -44.425 -51.180  13.335  1.00  0.00     0.045 C 
HETATM   14  O   UNL     1     -47.158 -51.927  16.190  1.00  0.00    -0.273 OA
BRANCH  12  15
HETATM   15  C   UNL     1     -45.639 -52.814  17.742  1.00  0.00     0.078 A 
HETATM   16  C   UNL     1     -45.994 -54.207  18.217  1.00  0.00     0.015 A 
HETATM   17  C   UNL     1     -46.728 -53.023  18.772  1.00  0.00     0.015 A 
ENDBRANCH  12  15
ENDBRANCH   4   7
BRANCH   1  18
HETATM   18  C   UNL     1     -40.520 -49.360  11.140  1.00  0.00     0.132 A 
HETATM   19  C   UNL     1     -39.827 -48.376  11.885  1.00  0.00     0.084 A 
HETATM   20  C   UNL     1     -40.311 -47.183  11.408  1.00  0.00     0.076 A 
HETATM   21  C   UNL     1     -40.009 -45.763  11.648  1.00  0.00     0.079 C 
HETATM   22  O   UNL     1     -41.272 -47.429  10.483  1.00  0.00    -0.241 OA
HETATM   23  N   UNL     1     -41.405 -48.786  10.315  1.00  0.00    -0.245 N 
ATOM     24  HN  UNL     1     -42.052 -49.263   9.686  1.00  0.00     0.196 HD
ENDBRANCH   1  18
TORSDOF 3
ENDMDL
MODEL 8
REMARK VINA RESULT:      -5.5      3.767      7.397
REMARK  3 active torsions:
REMARK  status: ('A' for Active; 'I' for Inactive)
REMARK    1  A    between atoms: C_4  and  N_5 
REMARK       I    between atoms: N_5  and  C_6 
REMARK       I    between atoms: C_6  and  N_8 
REMARK    2  A    between atoms: N_8  and  C_9 
REMARK       I    between atoms: N_12  and  C_15 
REMARK    3  A    between atoms: C_15  and  C_17 
ROOT
HETATM    1  N   UNL     1     -41.121 -49.433  10.471  1.00  0.00    -0.293 N 
HETATM    2  C   UNL     1     -41.564 -48.143  10.553  1.00  0.00     0.322 C 
HETATM    3  O   UNL     1     -42.386 -47.722   9.740  1.00  0.00    -0.247 OA
HETATM    4  N   UNL     1     -40.986 -47.366  11.508  1.00  0.00    -0.338 N 
HETATM    5  H   UNL     1     -41.473 -49.946   9.675  1.00  0.00     0.172 HD
HETATM    6  H   UNL     1     -40.463 -47.856  12.230  1.00  0.00     0.164 HD
ENDROOT
BRANCH   4   7
HETATM    7  C   UNL     1     -41.175 -45.940  11.648  1.00  0.00     0.089 C 
HETATM    8  C   UNL     1     -41.866 -45.603  12.968  1.00  0.00     0.045 C 
HETATM    9  C   UNL     1     -42.016 -44.092  13.123  1.00  0.00     0.127 C 
HETATM   10  N   UNL     1     -40.747 -43.390  12.912  1.00  0.00    -0.352 N 
HETATM   11  C   UNL     1     -40.025 -43.731  11.688  1.00  0.00     0.127 C 
HETATM   12  C   UNL     1     -40.312 -42.277  13.628  1.00  0.00     0.224 C 
HETATM   13  C   UNL     1     -39.823 -45.233  11.579  1.00  0.00     0.045 C 
HETATM   14  O   UNL     1     -39.298 -41.651  13.329  1.00  0.00    -0.273 OA
BRANCH  12  15
HETATM   15  C   UNL     1     -41.083 -41.862  14.837  1.00  0.00     0.078 A 
HETATM   16  C   UNL     1     -42.080 -40.726  14.758  1.00  0.00     0.015 A 
HETATM   17  C   UNL     1     -40.777 -40.523  15.472  1.00  0.00     0.015 A 
ENDBRANCH  12  15
ENDBRANCH   4   7
BRANCH   1  18
HETATM   18  C   UNL     1     -40.168 -50.039  11.265  1.00  0.00     0.132 A 
HETATM   19  C   UNL     1     -40.428 -50.694  12.492  1.00  0.00     0.084 A 
HETATM   20  C   UNL     1     -39.210 -51.204  12.873  1.00  0.00     0.076 A 
HETATM   21  C   UNL     1     -38.732 -52.049  13.978  1.00  0.00     0.079 C 
HETATM   22  O   UNL     1     -38.269 -50.832  11.970  1.00  0.00    -0.241 OA
HETATM   23  N   UNL     1     -38.863 -50.104  10.967  1.00  0.00    -0.245 N 
ATOM     24  HN  UNL     1     -38.402 -49.693  10.155  1.00  0.00     0.196 HD
ENDBRANCH   1  18
TORSDOF 3
ENDMDL
MODEL 9
REMARK VINA RESULT:      -5.5      2.653      3.248
REMARK  3 active torsions:
REMARK  status: ('A' for Active; 'I' for Inactive)
REMARK    1  A    between atoms: C_4  and  N_5 
REMARK       I    between atoms: N_5  and  C_6 
REMARK       I    between atoms: C_6  and  N_8 
REMARK    2  A    between atoms: N_8  and  C_9 
REMARK       I    between atoms: N_12  and  C_15 
REMARK    3  A    between atoms: C_15  and  C_17 
ROOT
HETATM    1  N   UNL     1     -42.323 -45.946   9.301  1.00  0.00    -0.293 N 
HETATM    2  C   UNL     1     -41.574 -46.173  10.421  1.00  0.00     0.322 C 
HETATM    3  O   UNL     1     -40.403 -45.800  10.464  1.00  0.00    -0.247 OA
HETATM    4  N   UNL     1     -42.172 -46.891  11.410  1.00  0.00    -0.338 N 
HETATM    5  H   UNL     1     -41.814 -45.524   8.537  1.00  0.00     0.172 HD
HETATM    6  H   UNL     1     -43.182 -46.988  11.347  1.00  0.00     0.164 HD
ENDROOT
BRANCH   4   7
HETATM    7  C   UNL     1     -41.508 -47.393  12.592  1.00  0.00     0.089 C 
HETATM    8  C   UNL     1     -40.164 -48.028  12.242  1.00  0.00     0.045 C 
HETATM    9  C   UNL     1     -39.455 -48.511  13.503  1.00  0.00     0.127 C 
HETATM   10  N   UNL     1     -39.376 -47.462  14.524  1.00  0.00    -0.352 N 
HETATM   11  C   UNL     1     -40.633 -46.787  14.843  1.00  0.00     0.127 C 
HETATM   12  C   UNL     1     -38.292 -47.237  15.369  1.00  0.00     0.224 C 
HETATM   13  C   UNL     1     -41.296 -46.252  13.585  1.00  0.00     0.045 C 
HETATM   14  O   UNL     1     -38.325 -46.425  16.290  1.00  0.00    -0.273 OA
BRANCH  12  15
HETATM   15  C   UNL     1     -37.022 -47.978  15.109  1.00  0.00     0.078 A 
HETATM   16  C   UNL     1     -36.728 -49.273  15.834  1.00  0.00     0.015 A 
HETATM   17  C   UNL     1     -35.973 -48.029  16.198  1.00  0.00     0.015 A 
ENDBRANCH  12  15
ENDBRANCH   4   7
BRANCH   1  18
HETATM   18  C   UNL     1     -43.624 -46.346   9.072  1.00  0.00     0.132 A 
HETATM   19  C   UNL     1     -44.020 -47.654   8.703  1.00  0.00     0.084 A 
HETATM   20  C   UNL     1     -45.392 -47.598   8.668  1.00  0.00     0.076 A 
HETATM   21  C   UNL     1     -46.471 -48.573   8.441  1.00  0.00     0.079 C 
HETATM   22  O   UNL     1     -45.795 -46.331   8.937  1.00  0.00    -0.241 OA
HETATM   23  N   UNL     1     -44.694 -45.548   9.187  1.00  0.00    -0.245 N 
ATOM     24  HN  UNL     1     -44.692 -44.554   9.417  1.00  0.00     0.196 HD
ENDBRANCH   1  18
TORSDOF 3
ENDMDL
