MODEL 1
REMARK VINA RESULT:      -6.3      0.000      0.000
REMARK  5 active torsions:
REMARK  status: ('A' for Active; 'I' for Inactive)
REMARK    1  A    between atoms: C_2  and  N_4 
REMARK       I    between atoms: N_4  and  C_5 
REMARK    2  A    between atoms: C_5  and  C_7 
REMARK    3  A    between atoms: C_7  and  C_8 
REMARK    4  A    between atoms: C_8  and  C_9 
REMARK    5  A    between atoms: C_14  and  N_18 
ROOT
HETATM    1  C   UNL     1     -41.706 -50.684  12.597  1.00  0.00     0.034 C 
HETATM    2  C   UNL     1     -42.837 -50.255  13.203  1.00  0.00     0.034 C 
HETATM    3  C   UNL     1     -42.994 -48.873  13.786  1.00  0.00     0.069 C 
HETATM    4  N   UNL     1     -43.961 -51.042  13.386  1.00  0.00    -0.195 N 
ATOM      5  HN  UNL     1     -44.733 -50.721  13.970  1.00  0.00     0.184 HD
HETATM    6  C   UNL     1     -44.010 -52.196  12.800  1.00  0.00     0.683 C 
HETATM    7  N   UNL     1     -42.962 -52.664  12.072  1.00  0.00    -0.156 N 
HETATM    8  C   UNL     1     -41.735 -52.098  12.150  1.00  0.00     0.267 C 
HETATM    9  O   UNL     1     -40.732 -52.745  11.873  1.00  0.00    -0.267 OA
HETATM   10  H   UNL     1     -42.974 -53.638  11.823  1.00  0.00     0.187 HD
ENDROOT
BRANCH   1  11
HETATM   11  C   UNL     1     -40.443 -49.881  12.361  1.00  0.00     0.055 C 
BRANCH  11  12
HETATM   12  C   UNL     1     -40.277 -49.290  10.955  1.00  0.00     0.107 C 
BRANCH  12  13
HETATM   13  C   UNL     1     -41.229 -48.147  10.686  1.00  0.00     0.218 C 
HETATM   14  N   UNL     1     -42.164 -48.463   9.718  1.00  0.00    -0.357 N 
HETATM   15  H   UNL     1     -42.013 -49.301   9.171  1.00  0.00     0.162 HD
HETATM   16  O   UNL     1     -41.181 -47.068  11.264  1.00  0.00    -0.274 OA
BRANCH  14  17
HETATM   17  C   UNL     1     -43.117 -47.486   9.219  1.00  0.00     0.076 C 
HETATM   18  C   UNL     1     -43.464 -47.768   7.759  1.00  0.00     0.032 C 
HETATM   19  C   UNL     1     -44.370 -47.497  10.088  1.00  0.00     0.032 C 
ENDBRANCH  14  17
ENDBRANCH  12  13
ENDBRANCH  11  12
ENDBRANCH   1  11
BRANCH   6  20
HETATM   20  N   UNL     1     -45.066 -53.068  12.878  1.00  0.00    -0.213 N 
HETATM   21  C   UNL     1     -46.418 -52.597  13.221  1.00  0.00     0.167 C 
HETATM   22  C   UNL     1     -46.820 -53.088  14.617  1.00  0.00     0.188 C 
HETATM   23  O   UNL     1     -46.715 -54.516  14.714  1.00  0.00    -0.388 OA
HETATM   24  C   UNL     1     -45.353 -54.923  14.496  1.00  0.00     0.188 C 
HETATM   25  C   UNL     1     -44.862 -54.501  13.108  1.00  0.00     0.167 C 
ENDBRANCH   6  20
TORSDOF 5
ENDMDL
MODEL 2
REMARK VINA RESULT:      -6.1      2.614      6.877
REMARK  5 active torsions:
REMARK  status: ('A' for Active; 'I' for Inactive)
REMARK    1  A    between atoms: C_2  and  N_4 
REMARK       I    between atoms: N_4  and  C_5 
REMARK    2  A    between atoms: C_5  and  C_7 
REMARK    3  A    between atoms: C_7  and  C_8 
REMARK    4  A    between atoms: C_8  and  C_9 
REMARK    5  A    between atoms: C_14  and  N_18 
ROOT
HETATM    1  C   UNL     1     -44.288 -54.347  13.556  1.00  0.00     0.034 C 
HETATM    2  C   UNL     1     -43.096 -54.273  14.192  1.00  0.00     0.034 C 
HETATM    3  C   UNL     1     -42.698 -55.193  15.319  1.00  0.00     0.069 C 
HETATM    4  N   UNL     1     -42.126 -53.328  13.906  1.00  0.00    -0.195 N 
ATOM      5  HN  UNL     1     -41.306 -53.225  14.505  1.00  0.00     0.184 HD
HETATM    6  C   UNL     1     -42.281 -52.579  12.862  1.00  0.00     0.683 C 
HETATM    7  N   UNL     1     -43.399 -52.662  12.093  1.00  0.00    -0.156 N 
HETATM    8  C   UNL     1     -44.508 -53.309  12.519  1.00  0.00     0.267 C 
HETATM    9  O   UNL     1     -45.609 -53.022  12.067  1.00  0.00    -0.267 OA
HETATM   10  H   UNL     1     -43.557 -51.921  11.432  1.00  0.00     0.187 HD
ENDROOT
BRANCH   1  11
HETATM   11  C   UNL     1     -45.393 -55.352  13.814  1.00  0.00     0.055 C 
BRANCH  11  12
HETATM   12  C   UNL     1     -46.627 -54.816  14.553  1.00  0.00     0.107 C 
BRANCH  12  13
HETATM   13  C   UNL     1     -46.268 -54.025  15.789  1.00  0.00     0.218 C 
HETATM   14  N   UNL     1     -46.600 -52.689  15.668  1.00  0.00    -0.357 N 
HETATM   15  H   UNL     1     -46.853 -52.345  14.750  1.00  0.00     0.162 HD
HETATM   16  O   UNL     1     -45.747 -54.513  16.785  1.00  0.00    -0.274 OA
BRANCH  14  17
HETATM   17  C   UNL     1     -46.254 -51.713  16.689  1.00  0.00     0.076 C 
HETATM   18  C   UNL     1     -45.219 -50.724  16.161  1.00  0.00     0.032 C 
HETATM   19  C   UNL     1     -47.512 -50.988  17.156  1.00  0.00     0.032 C 
ENDBRANCH  14  17
ENDBRANCH  12  13
ENDBRANCH  11  12
ENDBRANCH   1  11
BRANCH   6  20
HETATM   20  N   UNL     1     -41.393 -51.618  12.451  1.00  0.00    -0.213 N 
HETATM   21  C   UNL     1     -39.968 -51.694  12.812  1.00  0.00     0.167 C 
HETATM   22  C   UNL     1     -39.608 -50.594  13.818  1.00  0.00     0.188 C 
HETATM   23  O   UNL     1     -39.959 -49.297  13.314  1.00  0.00    -0.388 OA
HETATM   24  C   UNL     1     -41.378 -49.224  13.093  1.00  0.00     0.188 C 
HETATM   25  C   UNL     1     -41.837 -50.272  12.075  1.00  0.00     0.167 C 
ENDBRANCH   6  20
TORSDOF 5
ENDMDL
MODEL 3
REMARK VINA RESULT:      -6.1      2.246      6.781
REMARK  5 active torsions:
REMARK  status: ('A' for Active; 'I' for Inactive)
REMARK    1  A    between atoms: C_2  and  N_4 
REMARK       I    between atoms: N_4  and  C_5 
REMARK    2  A    between atoms: C_5  and  C_7 
REMARK    3  A    between atoms: C_7  and  C_8 
REMARK    4  A    between atoms: C_8  and  C_9 
REMARK    5  A    between atoms: C_14  and  N_18 
ROOT
HETATM    1  C   UNL     1     -42.093 -53.492  13.644  1.00  0.00     0.034 C 
HETATM    2  C   UNL     1     -40.946 -52.903  14.054  1.00  0.00     0.034 C 
HETATM    3  C   UNL     1     -40.150 -53.374  15.246  1.00  0.00     0.069 C 
HETATM    4  N   UNL     1     -40.393 -51.787  13.451  1.00  0.00    -0.195 N 
ATOM      5  HN  UNL     1     -39.608 -51.297  13.880  1.00  0.00     0.184 HD
HETATM    6  C   UNL     1     -40.895 -51.377  12.330  1.00  0.00     0.683 C 
HETATM    7  N   UNL     1     -41.982 -51.980  11.781  1.00  0.00    -0.156 N 
HETATM    8  C   UNL     1     -42.754 -52.836  12.490  1.00  0.00     0.267 C 
HETATM    9  O   UNL     1     -43.924 -53.022  12.180  1.00  0.00    -0.267 OA
HETATM   10  H   UNL     1     -42.448 -51.495  11.034  1.00  0.00     0.187 HD
ENDROOT
BRANCH   1  11
HETATM   11  C   UNL     1     -42.753 -54.713  14.252  1.00  0.00     0.055 C 
BRANCH  11  12
HETATM   12  C   UNL     1     -43.673 -54.450  15.452  1.00  0.00     0.107 C 
BRANCH  12  13
HETATM   13  C   UNL     1     -45.099 -54.165  15.041  1.00  0.00     0.218 C 
HETATM   14  N   UNL     1     -45.388 -52.814  15.061  1.00  0.00    -0.357 N 
HETATM   15  H   UNL     1     -44.725 -52.195  15.509  1.00  0.00     0.162 HD
HETATM   16  O   UNL     1     -45.905 -55.032  14.723  1.00  0.00    -0.274 OA
BRANCH  14  17
HETATM   17  C   UNL     1     -46.727 -52.308  14.805  1.00  0.00     0.076 C 
HETATM   18  C   UNL     1     -47.229 -51.488  15.990  1.00  0.00     0.032 C 
HETATM   19  C   UNL     1     -46.729 -51.476  13.527  1.00  0.00     0.032 C 
ENDBRANCH  14  17
ENDBRANCH  12  13
ENDBRANCH  11  12
ENDBRANCH   1  11
BRANCH   6  20
HETATM   20  N   UNL     1     -40.437 -50.299  11.616  1.00  0.00    -0.213 N 
HETATM   21  C   UNL     1     -39.009 -49.940  11.613  1.00  0.00     0.167 C 
HETATM   22  C   UNL     1     -38.782 -48.633  12.383  1.00  0.00     0.188 C 
HETATM   23  O   UNL     1     -39.597 -47.575  11.858  1.00  0.00    -0.388 OA
HETATM   24  C   UNL     1     -40.988 -47.913  11.995  1.00  0.00     0.188 C 
HETATM   25  C   UNL     1     -41.325 -49.198  11.233  1.00  0.00     0.167 C 
ENDBRANCH   6  20
TORSDOF 5
ENDMDL
MODEL 4
REMARK VINA RESULT:      -6.1      1.955      6.700
REMARK  5 active torsions:
REMARK  status: ('A' for Active; 'I' for Inactive)
REMARK    1  A    between atoms: C_2  and  N_4 
REMARK       I    between atoms: N_4  and  C_5 
REMARK    2  A    between atoms: C_5  and  C_7 
REMARK    3  A    between atoms: C_7  and  C_8 
REMARK    4  A    between atoms: C_8  and  C_9 
REMARK    5  A    between atoms: C_14  and  N_18 
ROOT
HETATM    1  C   UNL     1     -41.800 -50.271  12.343  1.00  0.00     0.034 C 
HETATM    2  C   UNL     1     -40.702 -49.837  11.682  1.00  0.00     0.034 C 
HETATM    3  C   UNL     1     -39.375 -50.553  11.718  1.00  0.00     0.069 C 
HETATM    4  N   UNL     1     -40.663 -48.675  10.932  1.00  0.00    -0.195 N 
ATOM      5  HN  UNL     1     -39.778 -48.318  10.570  1.00  0.00     0.184 HD
HETATM    6  C   UNL     1     -41.772 -48.051  10.698  1.00  0.00     0.683 C 
HETATM    7  N   UNL     1     -42.948 -48.479  11.228  1.00  0.00    -0.156 N 
HETATM    8  C   UNL     1     -42.987 -49.388  12.230  1.00  0.00     0.267 C 
HETATM    9  O   UNL     1     -43.949 -49.441  12.986  1.00  0.00    -0.267 OA
HETATM   10  H   UNL     1     -43.728 -47.846  11.188  1.00  0.00     0.187 HD
ENDROOT
BRANCH   1  11
HETATM   11  C   UNL     1     -41.918 -51.529  13.180  1.00  0.00     0.055 C 
BRANCH  11  12
HETATM   12  C   UNL     1     -42.448 -52.772  12.451  1.00  0.00     0.107 C 
BRANCH  12  13
HETATM   13  C   UNL     1     -43.856 -53.133  12.863  1.00  0.00     0.218 C 
HETATM   14  N   UNL     1     -44.792 -52.260  12.342  1.00  0.00    -0.357 N 
HETATM   15  H   UNL     1     -44.457 -51.401  11.924  1.00  0.00     0.162 HD
HETATM   16  O   UNL     1     -44.135 -54.091  13.574  1.00  0.00    -0.274 OA
BRANCH  14  17
HETATM   17  C   UNL     1     -46.202 -52.345  12.687  1.00  0.00     0.076 C 
HETATM   18  C   UNL     1     -46.498 -51.536  13.946  1.00  0.00     0.032 C 
HETATM   19  C   UNL     1     -47.050 -51.861  11.516  1.00  0.00     0.032 C 
ENDBRANCH  14  17
ENDBRANCH  12  13
ENDBRANCH  11  12
ENDBRANCH   1  11
BRANCH   6  20
HETATM   20  N   UNL     1     -41.882 -46.902   9.957  1.00  0.00    -0.213 N 
HETATM   21  C   UNL     1     -41.383 -45.615  10.468  1.00  0.00     0.167 C 
HETATM   22  C   UNL     1     -42.551 -44.678  10.796  1.00  0.00     0.188 C 
HETATM   23  O   UNL     1     -43.408 -44.500   9.658  1.00  0.00    -0.388 OA
HETATM   24  C   UNL     1     -43.973 -45.764   9.267  1.00  0.00     0.188 C 
HETATM   25  C   UNL     1     -42.880 -46.769   8.891  1.00  0.00     0.167 C 
ENDBRANCH   6  20
TORSDOF 5
ENDMDL
MODEL 5
REMARK VINA RESULT:      -6.0      3.038      6.978
REMARK  5 active torsions:
REMARK  status: ('A' for Active; 'I' for Inactive)
REMARK    1  A    between atoms: C_2  and  N_4 
REMARK       I    between atoms: N_4  and  C_5 
REMARK    2  A    between atoms: C_5  and  C_7 
REMARK    3  A    between atoms: C_7  and  C_8 
REMARK    4  A    between atoms: C_8  and  C_9 
REMARK    5  A    between atoms: C_14  and  N_18 
ROOT
HETATM    1  C   UNL     1     -41.193 -53.164  13.222  1.00  0.00     0.034 C 
HETATM    2  C   UNL     1     -39.941 -53.278  13.722  1.00  0.00     0.034 C 
HETATM    3  C   UNL     1     -39.390 -54.561  14.293  1.00  0.00     0.069 C 
HETATM    4  N   UNL     1     -39.042 -52.229  13.798  1.00  0.00    -0.195 N 
ATOM      5  HN  UNL     1     -38.165 -52.330  14.309  1.00  0.00     0.184 HD
HETATM    6  C   UNL     1     -39.337 -51.116  13.206  1.00  0.00     0.683 C 
HETATM    7  N   UNL     1     -40.530 -50.947  12.577  1.00  0.00    -0.156 N 
HETATM    8  C   UNL     1     -41.562 -51.801  12.769  1.00  0.00     0.267 C 
HETATM    9  O   UNL     1     -42.717 -51.434  12.584  1.00  0.00    -0.267 OA
HETATM   10  H   UNL     1     -40.787 -50.008  12.323  1.00  0.00     0.187 HD
ENDROOT
BRANCH   1  11
HETATM   11  C   UNL     1     -42.228 -54.265  13.106  1.00  0.00     0.055 C 
BRANCH  11  12
HETATM   12  C   UNL     1     -43.232 -54.367  14.263  1.00  0.00     0.107 C 
BRANCH  12  13
HETATM   13  C   UNL     1     -44.655 -54.112  13.824  1.00  0.00     0.218 C 
HETATM   14  N   UNL     1     -45.061 -52.819  14.091  1.00  0.00    -0.357 N 
HETATM   15  H   UNL     1     -44.477 -52.255  14.696  1.00  0.00     0.162 HD
HETATM   16  O   UNL     1     -45.365 -54.955  13.288  1.00  0.00    -0.274 OA
BRANCH  14  17
HETATM   17  C   UNL     1     -46.424 -52.373  13.853  1.00  0.00     0.076 C 
HETATM   18  C   UNL     1     -46.894 -51.453  14.976  1.00  0.00     0.032 C 
HETATM   19  C   UNL     1     -46.509 -51.671  12.502  1.00  0.00     0.032 C 
ENDBRANCH  14  17
ENDBRANCH  12  13
ENDBRANCH  11  12
ENDBRANCH   1  11
BRANCH   6  20
HETATM   20  N   UNL     1     -38.534 -50.005  13.184  1.00  0.00    -0.213 N 
HETATM   21  C   UNL     1     -37.674 -49.665  14.329  1.00  0.00     0.167 C 
HETATM   22  C   UNL     1     -38.194 -48.409  15.038  1.00  0.00     0.188 C 
HETATM   23  O   UNL     1     -38.317 -47.311  14.122  1.00  0.00    -0.388 OA
HETATM   24  C   UNL     1     -39.261 -47.638  13.088  1.00  0.00     0.188 C 
HETATM   25  C   UNL     1     -38.815 -48.872  12.297  1.00  0.00     0.167 C 
ENDBRANCH   6  20
TORSDOF 5
ENDMDL
MODEL 6
REMARK VINA RESULT:      -5.9      2.997      4.076
REMARK  5 active torsions:
REMARK  status: ('A' for Active; 'I' for Inactive)
REMARK    1  A    between atoms: C_2  and  N_4 
REMARK       I    between atoms: N_4  and  C_5 
REMARK    2  A    between atoms: C_5  and  C_7 
REMARK    3  A    between atoms: C_7  and  C_8 
REMARK    4  A    between atoms: C_8  and  C_9 
REMARK    5  A    between atoms: C_14  and  N_18 
ROOT
HETATM    1  C   UNL     1     -40.577 -53.836  13.924  1.00  0.00     0.034 C 
HETATM    2  C   UNL     1     -41.392 -54.476  14.792  1.00  0.00     0.034 C 
HETATM    3  C   UNL     1     -40.908 -55.106  16.075  1.00  0.00     0.069 C 
HETATM    4  N   UNL     1     -42.750 -54.656  14.588  1.00  0.00    -0.195 N 
ATOM      5  HN  UNL     1     -43.293 -55.265  15.200  1.00  0.00     0.184 HD
HETATM    6  C   UNL     1     -43.314 -54.035  13.603  1.00  0.00     0.683 C 
HETATM    7  N   UNL     1     -42.591 -53.273  12.741  1.00  0.00    -0.156 N 
HETATM    8  C   UNL     1     -41.241 -53.344  12.692  1.00  0.00     0.267 C 
HETATM    9  O   UNL     1     -40.637 -53.027  11.673  1.00  0.00    -0.267 OA
HETATM   10  H   UNL     1     -43.041 -52.992  11.887  1.00  0.00     0.187 HD
ENDROOT
BRANCH   1  11
HETATM   11  C   UNL     1     -39.088 -53.601  14.081  1.00  0.00     0.055 C 
BRANCH  11  12
HETATM   12  C   UNL     1     -38.687 -52.425  14.982  1.00  0.00     0.107 C 
BRANCH  12  13
HETATM   13  C   UNL     1     -38.872 -51.085  14.308  1.00  0.00     0.218 C 
HETATM   14  N   UNL     1     -38.470 -51.105  12.987  1.00  0.00    -0.357 N 
HETATM   15  H   UNL     1     -37.937 -51.904  12.666  1.00  0.00     0.162 HD
HETATM   16  O   UNL     1     -39.332 -50.096  14.869  1.00  0.00    -0.274 OA
BRANCH  14  17
HETATM   17  C   UNL     1     -38.456 -49.904  12.166  1.00  0.00     0.076 C 
HETATM   18  C   UNL     1     -37.330 -49.966  11.138  1.00  0.00     0.032 C 
HETATM   19  C   UNL     1     -39.808 -49.731  11.483  1.00  0.00     0.032 C 
ENDBRANCH  14  17
ENDBRANCH  12  13
ENDBRANCH  11  12
ENDBRANCH   1  11
BRANCH   6  20
HETATM   20  N   UNL     1     -44.649 -54.106  13.296  1.00  0.00    -0.213 N 
HETATM   21  C   UNL     1     -45.378 -52.931  12.791  1.00  0.00     0.167 C 
HETATM   22  C   UNL     1     -46.368 -52.419  13.844  1.00  0.00     0.188 C 
HETATM   23  O   UNL     1     -47.264 -53.459  14.262  1.00  0.00    -0.388 OA
HETATM   24  C   UNL     1     -46.521 -54.534  14.863  1.00  0.00     0.188 C 
HETATM   25  C   UNL     1     -45.517 -55.136  13.876  1.00  0.00     0.167 C 
ENDBRANCH   6  20
TORSDOF 5
ENDMDL
MODEL 7
REMARK VINA RESULT:      -5.9      2.431      6.848
REMARK  5 active torsions:
REMARK  status: ('A' for Active; 'I' for Inactive)
REMARK    1  A    between atoms: C_2  and  N_4 
REMARK       I    between atoms: N_4  and  C_5 
REMARK    2  A    between atoms: C_5  and  C_7 
REMARK    3  A    between atoms: C_7  and  C_8 
REMARK    4  A    between atoms: C_8  and  C_9 
REMARK    5  A    between atoms: C_14  and  N_18 
ROOT
HETATM    1  C   UNL     1     -42.237 -53.677  13.738  1.00  0.00     0.034 C 
HETATM    2  C   UNL     1     -42.810 -52.985  12.726  1.00  0.00     0.034 C 
HETATM    3  C   UNL     1     -44.227 -53.214  12.263  1.00  0.00     0.069 C 
HETATM    4  N   UNL     1     -42.155 -52.019  11.983  1.00  0.00    -0.195 N 
ATOM      5  HN  UNL     1     -42.583 -51.627  11.144  1.00  0.00     0.184 HD
HETATM    6  C   UNL     1     -40.986 -51.623  12.376  1.00  0.00     0.683 C 
HETATM    7  N   UNL     1     -40.377 -52.183  13.454  1.00  0.00    -0.156 N 
HETATM    8  C   UNL     1     -40.814 -53.344  13.994  1.00  0.00     0.267 C 
HETATM    9  O   UNL     1     -40.053 -54.058  14.635  1.00  0.00    -0.267 OA
HETATM   10  H   UNL     1     -39.399 -51.987  13.582  1.00  0.00     0.187 HD
ENDROOT
BRANCH   1  11
HETATM   11  C   UNL     1     -42.891 -54.743  14.593  1.00  0.00     0.055 C 
BRANCH  11  12
HETATM   12  C   UNL     1     -43.508 -54.259  15.912  1.00  0.00     0.107 C 
BRANCH  12  13
HETATM   13  C   UNL     1     -44.979 -53.934  15.783  1.00  0.00     0.218 C 
HETATM   14  N   UNL     1     -45.205 -52.576  15.669  1.00  0.00    -0.357 N 
HETATM   15  H   UNL     1     -44.435 -51.950  15.869  1.00  0.00     0.162 HD
HETATM   16  O   UNL     1     -45.867 -54.779  15.775  1.00  0.00    -0.274 OA
BRANCH  14  17
HETATM   17  C   UNL     1     -46.547 -52.017  15.638  1.00  0.00     0.076 C 
HETATM   18  C   UNL     1     -46.740 -51.016  16.774  1.00  0.00     0.032 C 
HETATM   19  C   UNL     1     -46.802 -51.362  14.285  1.00  0.00     0.032 C 
ENDBRANCH  14  17
ENDBRANCH  12  13
ENDBRANCH  11  12
ENDBRANCH   1  11
BRANCH   6  20
HETATM   20  N   UNL     1     -40.235 -50.663  11.748  1.00  0.00    -0.213 N 
HETATM   21  C   UNL     1     -38.837 -50.415  12.138  1.00  0.00     0.167 C 
HETATM   22  C   UNL     1     -38.706 -49.058  12.839  1.00  0.00     0.188 C 
HETATM   23  O   UNL     1     -39.223 -48.000  12.018  1.00  0.00    -0.388 OA
HETATM   24  C   UNL     1     -40.622 -48.215  11.765  1.00  0.00     0.188 C 
HETATM   25  C   UNL     1     -40.858 -49.542  11.037  1.00  0.00     0.167 C 
ENDBRANCH   6  20
TORSDOF 5
ENDMDL
MODEL 8
REMARK VINA RESULT:      -5.7      1.802      6.986
REMARK  5 active torsions:
REMARK  status: ('A' for Active; 'I' for Inactive)
REMARK    1  A    between atoms: C_2  and  N_4 
REMARK       I    between atoms: N_4  and  C_5 
REMARK    2  A    between atoms: C_5  and  C_7 
REMARK    3  A    between atoms: C_7  and  C_8 
REMARK    4  A    between atoms: C_8  and  C_9 
REMARK    5  A    between atoms: C_14  and  N_18 
ROOT
HETATM    1  C   UNL     1     -42.169 -51.728  13.214  1.00  0.00     0.034 C 
HETATM    2  C   UNL     1     -43.055 -50.723  13.021  1.00  0.00     0.034 C 
HETATM    3  C   UNL     1     -44.428 -50.696  13.646  1.00  0.00     0.069 C 
HETATM    4  N   UNL     1     -42.817 -49.630  12.207  1.00  0.00    -0.195 N 
ATOM      5  HN  UNL     1     -43.565 -48.973  11.983  1.00  0.00     0.184 HD
HETATM    6  C   UNL     1     -41.624 -49.459  11.734  1.00  0.00     0.683 C 
HETATM    7  N   UNL     1     -40.635 -50.361  11.970  1.00  0.00    -0.156 N 
HETATM    8  C   UNL     1     -40.900 -51.594  12.458  1.00  0.00     0.267 C 
HETATM    9  O   UNL     1     -40.126 -52.523  12.258  1.00  0.00    -0.267 OA
HETATM   10  H   UNL     1     -39.802 -50.286  11.411  1.00  0.00     0.187 HD
ENDROOT
BRANCH   1  11
HETATM   11  C   UNL     1     -42.360 -52.950  14.089  1.00  0.00     0.055 C 
BRANCH  11  12
HETATM   12  C   UNL     1     -43.016 -54.162  13.414  1.00  0.00     0.107 C 
BRANCH  12  13
HETATM   13  C   UNL     1     -44.458 -54.351  13.828  1.00  0.00     0.218 C 
HETATM   14  N   UNL     1     -44.720 -53.801  15.068  1.00  0.00    -0.357 N 
HETATM   15  H   UNL     1     -43.933 -53.518  15.637  1.00  0.00     0.162 HD
HETATM   16  O   UNL     1     -45.297 -54.920  13.140  1.00  0.00    -0.274 OA
BRANCH  14  17
HETATM   17  C   UNL     1     -46.012 -53.951  15.720  1.00  0.00     0.076 C 
HETATM   18  C   UNL     1     -45.847 -54.010  17.236  1.00  0.00     0.032 C 
HETATM   19  C   UNL     1     -46.929 -52.802  15.317  1.00  0.00     0.032 C 
ENDBRANCH  14  17
ENDBRANCH  12  13
ENDBRANCH  11  12
ENDBRANCH   1  11
BRANCH   6  20
HETATM   20  N   UNL     1     -41.244 -48.413  10.932  1.00  0.00    -0.213 N 
HETATM   21  C   UNL     1     -40.122 -47.536  11.306  1.00  0.00     0.167 C 
HETATM   22  C   UNL     1     -40.634 -46.140  11.683  1.00  0.00     0.188 C 
HETATM   23  O   UNL     1     -41.420 -45.574  10.625  1.00  0.00    -0.388 OA
HETATM   24  C   UNL     1     -42.573 -46.397  10.376  1.00  0.00     0.188 C 
HETATM   25  C   UNL     1     -42.165 -47.814   9.962  1.00  0.00     0.167 C 
ENDBRANCH   6  20
TORSDOF 5
ENDMDL
MODEL 9
REMARK VINA RESULT:      -5.6      3.288      7.365
REMARK  5 active torsions:
REMARK  status: ('A' for Active; 'I' for Inactive)
REMARK    1  A    between atoms: C_2  and  N_4 
REMARK       I    between atoms: N_4  and  C_5 
REMARK    2  A    between atoms: C_5  and  C_7 
REMARK    3  A    between atoms: C_7  and  C_8 
REMARK    4  A    between atoms: C_8  and  C_9 
REMARK    5  A    between atoms: C_14  and  N_18 
ROOT
HETATM    1  C   UNL     1     -38.884 -49.617  12.704  1.00  0.00     0.034 C 
HETATM    2  C   UNL     1     -38.650 -48.358  13.139  1.00  0.00     0.034 C 
HETATM    3  C   UNL     1     -37.659 -48.027  14.227  1.00  0.00     0.069 C 
HETATM    4  N   UNL     1     -39.315 -47.241  12.664  1.00  0.00    -0.195 N 
ATOM      5  HN  UNL     1     -39.205 -46.335  13.121  1.00  0.00     0.184 HD
HETATM    6  C   UNL     1     -40.080 -47.370  11.628  1.00  0.00     0.683 C 
HETATM    7  N   UNL     1     -40.287 -48.583  11.050  1.00  0.00    -0.156 N 
HETATM    8  C   UNL     1     -39.944 -49.734  11.673  1.00  0.00     0.267 C 
HETATM    9  O   UNL     1     -40.505 -50.786  11.389  1.00  0.00    -0.267 OA
HETATM   10  H   UNL     1     -41.043 -48.655  10.392  1.00  0.00     0.187 HD
ENDROOT
BRANCH   1  11
HETATM   11  C   UNL     1     -38.196 -50.883  13.174  1.00  0.00     0.055 C 
BRANCH  11  12
HETATM   12  C   UNL     1     -38.880 -51.628  14.329  1.00  0.00     0.107 C 
BRANCH  12  13
HETATM   13  C   UNL     1     -39.577 -52.890  13.877  1.00  0.00     0.218 C 
HETATM   14  N   UNL     1     -40.947 -52.727  13.791  1.00  0.00    -0.357 N 
HETATM   15  H   UNL     1     -41.351 -51.895  14.202  1.00  0.00     0.162 HD
HETATM   16  O   UNL     1     -38.995 -53.935  13.612  1.00  0.00    -0.274 OA
BRANCH  14  17
HETATM   17  C   UNL     1     -41.837 -53.833  13.478  1.00  0.00     0.076 C 
HETATM   18  C   UNL     1     -42.233 -54.582  14.748  1.00  0.00     0.032 C 
HETATM   19  C   UNL     1     -43.069 -53.313  12.747  1.00  0.00     0.032 C 
ENDBRANCH  14  17
ENDBRANCH  12  13
ENDBRANCH  11  12
ENDBRANCH   1  11
BRANCH   6  20
HETATM   20  N   UNL     1     -40.782 -46.348  11.042  1.00  0.00    -0.213 N 
HETATM   21  C   UNL     1     -40.089 -45.238  10.367  1.00  0.00     0.167 C 
HETATM   22  C   UNL     1     -40.241 -43.941  11.170  1.00  0.00     0.188 C 
HETATM   23  O   UNL     1     -41.624 -43.637  11.406  1.00  0.00    -0.388 OA
HETATM   24  C   UNL     1     -42.232 -44.688  12.177  1.00  0.00     0.188 C 
HETATM   25  C   UNL     1     -42.156 -46.031  11.443  1.00  0.00     0.167 C 
ENDBRANCH   6  20
TORSDOF 5
ENDMDL
