MODEL 1
REMARK VINA RESULT:      -5.7      0.000      0.000
REMARK  3 active torsions:
REMARK  status: ('A' for Active; 'I' for Inactive)
REMARK    1  A    between atoms: C_2  and  C_3 
REMARK    2  A    between atoms: C_2  and  N_10 
REMARK    3  A    between atoms: C_3  and  N_4 
REMARK       I    between atoms: N_10  and  C_11 
REMARK       I    between atoms: C_11  and  N_13 
REMARK       I    between atoms: N_16  and  C_19 
ROOT
HETATM    1  N   UNL     1     -41.791 -48.854  11.105  1.00  0.00    -0.337 N 
HETATM    2  C   UNL     1     -42.483 -49.553  12.059  1.00  0.00     0.318 C 
HETATM    3  O   UNL     1     -43.557 -49.147  12.492  1.00  0.00    -0.247 OA
HETATM    4  N   UNL     1     -41.877 -50.706  12.510  1.00  0.00    -0.331 N 
HETATM    5  C   UNL     1     -42.526 -51.441  13.599  1.00  0.00     0.147 C 
HETATM    6  C   UNL     1     -41.492 -51.936  14.619  1.00  0.00     0.145 C 
HETATM    7  N   UNL     1     -40.439 -52.720  13.960  1.00  0.00    -0.349 N 
HETATM    8  C   UNL     1     -39.786 -52.019  12.844  1.00  0.00     0.145 C 
HETATM    9  C   UNL     1     -40.809 -51.464  11.835  1.00  0.00     0.147 C 
HETATM   10  C   UNL     1     -39.963 -53.960  14.340  1.00  0.00     0.215 C 
HETATM   11  O   UNL     1     -39.040 -54.512  13.733  1.00  0.00    -0.274 OA
HETATM   12  C   UNL     1     -40.592 -54.692  15.503  1.00  0.00     0.117 C 
HETATM   13  H   UNL     1     -40.789 -48.955  11.152  1.00  0.00     0.164 HD
ENDROOT
BRANCH   1  14
HETATM   14  C   UNL     1     -42.295 -47.556  10.627  1.00  0.00     0.100 C 
HETATM   15  C   UNL     1     -41.171 -46.524  10.698  1.00  0.00     0.034 C 
BRANCH  14  16
HETATM   16  C   UNL     1     -42.883 -47.693   9.207  1.00  0.00     0.153 C 
BRANCH  16  17
HETATM   17  N   UNL     1     -44.234 -47.187   9.041  1.00  0.00    -0.350 N 
HETATM   18  C   UNL     1     -45.387 -47.911   9.181  1.00  0.00     0.108 A 
HETATM   19  C   UNL     1     -46.401 -46.989   9.063  1.00  0.00     0.106 A 
HETATM   20  N   UNL     1     -45.893 -45.736   8.842  1.00  0.00    -0.361 N 
HETATM   21  C   UNL     1     -44.586 -45.882   8.847  1.00  0.00     0.182 A 
ATOM     22  HN  UNL     1     -46.418 -44.872   8.703  1.00  0.00     0.166 HD
ENDBRANCH  16  17
ENDBRANCH  14  16
ENDBRANCH   1  14
TORSDOF 3
ENDMDL
MODEL 2
REMARK VINA RESULT:      -5.7      3.406      7.278
REMARK  3 active torsions:
REMARK  status: ('A' for Active; 'I' for Inactive)
REMARK    1  A    between atoms: C_2  and  C_3 
REMARK    2  A    between atoms: C_2  and  N_10 
REMARK    3  A    between atoms: C_3  and  N_4 
REMARK       I    between atoms: N_10  and  C_11 
REMARK       I    between atoms: C_11  and  N_13 
REMARK       I    between atoms: N_16  and  C_19 
ROOT
HETATM    1  N   UNL     1     -43.649 -49.874  13.211  1.00  0.00    -0.337 N 
HETATM    2  C   UNL     1     -42.514 -49.872  12.445  1.00  0.00     0.318 C 
HETATM    3  O   UNL     1     -41.855 -50.894  12.278  1.00  0.00    -0.247 OA
HETATM    4  N   UNL     1     -42.155 -48.651  11.913  1.00  0.00    -0.331 N 
HETATM    5  C   UNL     1     -40.898 -48.571  11.165  1.00  0.00     0.147 C 
HETATM    6  C   UNL     1     -40.135 -47.286  11.512  1.00  0.00     0.145 C 
HETATM    7  N   UNL     1     -40.984 -46.103  11.314  1.00  0.00    -0.349 N 
HETATM    8  C   UNL     1     -42.267 -46.165  12.031  1.00  0.00     0.145 C 
HETATM    9  C   UNL     1     -43.025 -47.473  11.742  1.00  0.00     0.147 C 
HETATM   10  C   UNL     1     -40.657 -44.950  10.627  1.00  0.00     0.215 C 
HETATM   11  O   UNL     1     -41.437 -43.995  10.560  1.00  0.00    -0.274 OA
HETATM   12  C   UNL     1     -39.333 -44.843   9.907  1.00  0.00     0.117 C 
HETATM   13  H   UNL     1     -43.843 -49.003  13.679  1.00  0.00     0.164 HD
ENDROOT
BRANCH   1  14
HETATM   14  C   UNL     1     -44.066 -51.099  13.912  1.00  0.00     0.100 C 
HETATM   15  C   UNL     1     -44.114 -50.827  15.414  1.00  0.00     0.034 C 
BRANCH  14  16
HETATM   16  C   UNL     1     -45.415 -51.606  13.360  1.00  0.00     0.153 C 
BRANCH  16  17
HETATM   17  N   UNL     1     -45.713 -53.002  13.629  1.00  0.00    -0.350 N 
HETATM   18  C   UNL     1     -44.967 -54.076  13.225  1.00  0.00     0.108 A 
HETATM   19  C   UNL     1     -45.561 -55.164  13.820  1.00  0.00     0.106 A 
HETATM   20  N   UNL     1     -46.650 -54.779  14.557  1.00  0.00    -0.361 N 
HETATM   21  C   UNL     1     -46.710 -53.471  14.435  1.00  0.00     0.182 A 
ATOM     22  HN  UNL     1     -47.281 -55.379  15.088  1.00  0.00     0.166 HD
ENDBRANCH  16  17
ENDBRANCH  14  16
ENDBRANCH   1  14
TORSDOF 3
ENDMDL
MODEL 3
REMARK VINA RESULT:      -5.6      3.735      7.860
REMARK  3 active torsions:
REMARK  status: ('A' for Active; 'I' for Inactive)
REMARK    1  A    between atoms: C_2  and  C_3 
REMARK    2  A    between atoms: C_2  and  N_10 
REMARK    3  A    between atoms: C_3  and  N_4 
REMARK       I    between atoms: N_10  and  C_11 
REMARK       I    between atoms: C_11  and  N_13 
REMARK       I    between atoms: N_16  and  C_19 
ROOT
HETATM    1  N   UNL     1     -39.082 -48.454  12.238  1.00  0.00    -0.337 N 
HETATM    2  C   UNL     1     -40.069 -47.696  11.668  1.00  0.00     0.318 C 
HETATM    3  O   UNL     1     -40.859 -48.180  10.861  1.00  0.00    -0.247 OA
HETATM    4  N   UNL     1     -40.090 -46.368  12.036  1.00  0.00    -0.331 N 
HETATM    5  C   UNL     1     -41.065 -45.490  11.384  1.00  0.00     0.147 C 
HETATM    6  C   UNL     1     -40.434 -44.135  11.033  1.00  0.00     0.145 C 
HETATM    7  N   UNL     1     -39.825 -43.518  12.220  1.00  0.00    -0.349 N 
HETATM    8  C   UNL     1     -38.861 -44.385  12.913  1.00  0.00     0.145 C 
HETATM    9  C   UNL     1     -39.455 -45.771  13.225  1.00  0.00     0.147 C 
HETATM   10  C   UNL     1     -39.997 -42.221  12.663  1.00  0.00     0.215 C 
HETATM   11  O   UNL     1     -39.399 -41.792  13.655  1.00  0.00    -0.274 OA
HETATM   12  C   UNL     1     -40.956 -41.295  11.952  1.00  0.00     0.117 C 
HETATM   13  H   UNL     1     -38.243 -47.946  12.474  1.00  0.00     0.164 HD
ENDROOT
BRANCH   1  14
HETATM   14  C   UNL     1     -38.903 -49.860  11.838  1.00  0.00     0.100 C 
HETATM   15  C   UNL     1     -37.459 -50.074  11.390  1.00  0.00     0.034 C 
BRANCH  14  16
HETATM   16  C   UNL     1     -39.312 -50.806  12.987  1.00  0.00     0.153 C 
BRANCH  16  17
HETATM   17  N   UNL     1     -40.388 -51.730  12.678  1.00  0.00    -0.350 N 
HETATM   18  C   UNL     1     -40.655 -52.902  13.334  1.00  0.00     0.108 A 
HETATM   19  C   UNL     1     -41.829 -53.358  12.781  1.00  0.00     0.106 A 
HETATM   20  N   UNL     1     -42.268 -52.504  11.803  1.00  0.00    -0.361 N 
HETATM   21  C   UNL     1     -41.389 -51.527  11.772  1.00  0.00     0.182 A 
ATOM     22  HN  UNL     1     -43.101 -52.605  11.222  1.00  0.00     0.166 HD
ENDBRANCH  16  17
ENDBRANCH  14  16
ENDBRANCH   1  14
TORSDOF 3
ENDMDL
MODEL 4
REMARK VINA RESULT:      -5.6      4.643      7.044
REMARK  3 active torsions:
REMARK  status: ('A' for Active; 'I' for Inactive)
REMARK    1  A    between atoms: C_2  and  C_3 
REMARK    2  A    between atoms: C_2  and  N_10 
REMARK    3  A    between atoms: C_3  and  N_4 
REMARK       I    between atoms: N_10  and  C_11 
REMARK       I    between atoms: C_11  and  N_13 
REMARK       I    between atoms: N_16  and  C_19 
ROOT
HETATM    1  N   UNL     1     -39.347 -50.840  13.092  1.00  0.00    -0.337 N 
HETATM    2  C   UNL     1     -39.777 -51.794  13.974  1.00  0.00     0.318 C 
HETATM    3  O   UNL     1     -39.034 -52.237  14.846  1.00  0.00    -0.247 OA
HETATM    4  N   UNL     1     -41.070 -52.236  13.793  1.00  0.00    -0.331 N 
HETATM    5  C   UNL     1     -41.550 -53.325  14.648  1.00  0.00     0.147 C 
HETATM    6  C   UNL     1     -42.372 -54.336  13.837  1.00  0.00     0.145 C 
HETATM    7  N   UNL     1     -43.462 -53.666  13.115  1.00  0.00    -0.349 N 
HETATM    8  C   UNL     1     -43.016 -52.549  12.267  1.00  0.00     0.145 C 
HETATM    9  C   UNL     1     -42.141 -51.550  13.047  1.00  0.00     0.147 C 
HETATM   10  C   UNL     1     -44.793 -54.037  13.085  1.00  0.00     0.215 C 
HETATM   11  O   UNL     1     -45.620 -53.421  12.406  1.00  0.00    -0.274 OA
HETATM   12  C   UNL     1     -45.276 -55.200  13.919  1.00  0.00     0.117 C 
HETATM   13  H   UNL     1     -39.781 -50.880  12.183  1.00  0.00     0.164 HD
ENDROOT
BRANCH   1  14
HETATM   14  C   UNL     1     -37.952 -50.372  13.129  1.00  0.00     0.100 C 
HETATM   15  C   UNL     1     -37.387 -50.363  11.709  1.00  0.00     0.034 C 
BRANCH  14  16
HETATM   16  C   UNL     1     -37.861 -48.990  13.810  1.00  0.00     0.153 C 
BRANCH  16  17
HETATM   17  N   UNL     1     -37.018 -48.932  14.990  1.00  0.00    -0.350 N 
HETATM   18  C   UNL     1     -36.486 -50.005  15.653  1.00  0.00     0.108 A 
HETATM   19  C   UNL     1     -35.663 -49.458  16.610  1.00  0.00     0.106 A 
HETATM   20  N   UNL     1     -35.696 -48.090  16.553  1.00  0.00    -0.361 N 
HETATM   21  C   UNL     1     -36.510 -47.801  15.561  1.00  0.00     0.182 A 
ATOM     22  HN  UNL     1     -35.196 -47.434  17.153  1.00  0.00     0.166 HD
ENDBRANCH  16  17
ENDBRANCH  14  16
ENDBRANCH   1  14
TORSDOF 3
ENDMDL
MODEL 5
REMARK VINA RESULT:      -5.3      2.301      3.506
REMARK  3 active torsions:
REMARK  status: ('A' for Active; 'I' for Inactive)
REMARK    1  A    between atoms: C_2  and  C_3 
REMARK    2  A    between atoms: C_2  and  N_10 
REMARK    3  A    between atoms: C_3  and  N_4 
REMARK       I    between atoms: N_10  and  C_11 
REMARK       I    between atoms: C_11  and  N_13 
REMARK       I    between atoms: N_16  and  C_19 
ROOT
HETATM    1  N   UNL     1     -42.694 -48.583  10.842  1.00  0.00    -0.337 N 
HETATM    2  C   UNL     1     -41.574 -49.149  11.390  1.00  0.00     0.318 C 
HETATM    3  O   UNL     1     -40.452 -48.723  11.130  1.00  0.00    -0.247 OA
HETATM    4  N   UNL     1     -41.795 -50.232  12.213  1.00  0.00    -0.331 N 
HETATM    5  C   UNL     1     -40.626 -50.935  12.750  1.00  0.00     0.147 C 
HETATM    6  C   UNL     1     -40.834 -52.455  12.707  1.00  0.00     0.145 C 
HETATM    7  N   UNL     1     -42.081 -52.833  13.387  1.00  0.00    -0.349 N 
HETATM    8  C   UNL     1     -43.269 -52.124  12.889  1.00  0.00     0.145 C 
HETATM    9  C   UNL     1     -43.062 -50.598  12.870  1.00  0.00     0.147 C 
HETATM   10  C   UNL     1     -42.243 -53.821  14.340  1.00  0.00     0.215 C 
HETATM   11  O   UNL     1     -43.351 -54.083  14.817  1.00  0.00    -0.274 OA
HETATM   12  C   UNL     1     -41.045 -54.590  14.848  1.00  0.00     0.117 C 
HETATM   13  H   UNL     1     -43.463 -49.220  10.701  1.00  0.00     0.164 HD
ENDROOT
BRANCH   1  14
HETATM   14  C   UNL     1     -42.569 -47.486   9.867  1.00  0.00     0.100 C 
HETATM   15  C   UNL     1     -43.456 -47.784   8.660  1.00  0.00     0.034 C 
BRANCH  14  16
HETATM   16  C   UNL     1     -42.904 -46.133  10.529  1.00  0.00     0.153 C 
BRANCH  16  17
HETATM   17  N   UNL     1     -41.785 -45.220  10.679  1.00  0.00    -0.350 N 
HETATM   18  C   UNL     1     -41.797 -44.042  11.377  1.00  0.00     0.108 A 
HETATM   19  C   UNL     1     -40.494 -43.601  11.349  1.00  0.00     0.106 A 
HETATM   20  N   UNL     1     -39.704 -44.470  10.643  1.00  0.00    -0.361 N 
HETATM   21  C   UNL     1     -40.504 -45.441  10.263  1.00  0.00     0.182 A 
ATOM     22  HN  UNL     1     -38.705 -44.381  10.453  1.00  0.00     0.166 HD
ENDBRANCH  16  17
ENDBRANCH  14  16
ENDBRANCH   1  14
TORSDOF 3
ENDMDL
MODEL 6
REMARK VINA RESULT:      -5.3      2.983      7.500
REMARK  3 active torsions:
REMARK  status: ('A' for Active; 'I' for Inactive)
REMARK    1  A    between atoms: C_2  and  C_3 
REMARK    2  A    between atoms: C_2  and  N_10 
REMARK    3  A    between atoms: C_3  and  N_4 
REMARK       I    between atoms: N_10  and  C_11 
REMARK       I    between atoms: C_11  and  N_13 
REMARK       I    between atoms: N_16  and  C_19 
ROOT
HETATM    1  N   UNL     1     -44.209 -50.687  12.734  1.00  0.00    -0.337 N 
HETATM    2  C   UNL     1     -43.558 -49.803  13.551  1.00  0.00     0.318 C 
HETATM    3  O   UNL     1     -43.524 -49.965  14.768  1.00  0.00    -0.247 OA
HETATM    4  N   UNL     1     -42.983 -48.719  12.921  1.00  0.00    -0.331 N 
HETATM    5  C   UNL     1     -42.357 -47.692  13.757  1.00  0.00     0.147 C 
HETATM    6  C   UNL     1     -42.690 -46.286  13.239  1.00  0.00     0.145 C 
HETATM    7  N   UNL     1     -42.333 -46.152  11.820  1.00  0.00    -0.349 N 
HETATM    8  C   UNL     1     -42.925 -47.186  10.958  1.00  0.00     0.145 C 
HETATM    9  C   UNL     1     -42.651 -48.605  11.490  1.00  0.00     0.147 C 
HETATM   10  C   UNL     1     -41.605 -45.132  11.238  1.00  0.00     0.215 C 
HETATM   11  O   UNL     1     -41.400 -45.099  10.021  1.00  0.00    -0.274 OA
HETATM   12  C   UNL     1     -41.012 -44.038  12.093  1.00  0.00     0.117 C 
HETATM   13  H   UNL     1     -44.598 -50.281  11.897  1.00  0.00     0.164 HD
ENDROOT
BRANCH   1  14
HETATM   14  C   UNL     1     -44.947 -51.823  13.311  1.00  0.00     0.100 C 
HETATM   15  C   UNL     1     -46.444 -51.612  13.095  1.00  0.00     0.034 C 
BRANCH  14  16
HETATM   16  C   UNL     1     -44.446 -53.154  12.712  1.00  0.00     0.153 C 
BRANCH  16  17
HETATM   17  N   UNL     1     -43.504 -53.892  13.534  1.00  0.00    -0.350 N 
HETATM   18  C   UNL     1     -42.142 -53.759  13.515  1.00  0.00     0.108 A 
HETATM   19  C   UNL     1     -41.694 -54.553  14.544  1.00  0.00     0.106 A 
HETATM   20  N   UNL     1     -42.743 -55.171  15.173  1.00  0.00    -0.361 N 
HETATM   21  C   UNL     1     -43.822 -54.745  14.552  1.00  0.00     0.182 A 
ATOM     22  HN  UNL     1     -42.698 -55.824  15.955  1.00  0.00     0.166 HD
ENDBRANCH  16  17
ENDBRANCH  14  16
ENDBRANCH   1  14
TORSDOF 3
ENDMDL
MODEL 7
REMARK VINA RESULT:      -5.3      4.116      6.713
REMARK  3 active torsions:
REMARK  status: ('A' for Active; 'I' for Inactive)
REMARK    1  A    between atoms: C_2  and  C_3 
REMARK    2  A    between atoms: C_2  and  N_10 
REMARK    3  A    between atoms: C_3  and  N_4 
REMARK       I    between atoms: N_10  and  C_11 
REMARK       I    between atoms: C_11  and  N_13 
REMARK       I    between atoms: N_16  and  C_19 
ROOT
HETATM    1  N   UNL     1     -43.968 -53.251  14.366  1.00  0.00    -0.337 N 
HETATM    2  C   UNL     1     -43.732 -52.021  13.812  1.00  0.00     0.318 C 
HETATM    3  O   UNL     1     -44.655 -51.266  13.519  1.00  0.00    -0.247 OA
HETATM    4  N   UNL     1     -42.408 -51.714  13.582  1.00  0.00    -0.331 N 
HETATM    5  C   UNL     1     -42.104 -50.452  12.902  1.00  0.00     0.147 C 
HETATM    6  C   UNL     1     -40.988 -50.643  11.866  1.00  0.00     0.145 C 
HETATM    7  N   UNL     1     -39.800 -51.252  12.480  1.00  0.00    -0.349 N 
HETATM    8  C   UNL     1     -40.078 -52.508  13.194  1.00  0.00     0.145 C 
HETATM    9  C   UNL     1     -41.233 -52.355  14.200  1.00  0.00     0.147 C 
HETATM   10  C   UNL     1     -38.492 -50.822  12.368  1.00  0.00     0.215 C 
HETATM   11  O   UNL     1     -37.562 -51.439  12.896  1.00  0.00    -0.274 OA
HETATM   12  C   UNL     1     -38.171 -49.553  11.614  1.00  0.00     0.117 C 
HETATM   13  H   UNL     1     -43.283 -53.954  14.139  1.00  0.00     0.164 HD
ENDROOT
BRANCH   1  14
HETATM   14  C   UNL     1     -45.349 -53.723  14.559  1.00  0.00     0.100 C 
HETATM   15  C   UNL     1     -45.538 -55.041  13.810  1.00  0.00     0.034 C 
BRANCH  14  16
HETATM   16  C   UNL     1     -45.675 -53.845  16.062  1.00  0.00     0.153 C 
BRANCH  16  17
HETATM   17  N   UNL     1     -46.464 -52.760  16.618  1.00  0.00    -0.350 N 
HETATM   18  C   UNL     1     -47.231 -51.877  15.908  1.00  0.00     0.108 A 
HETATM   19  C   UNL     1     -47.885 -51.130  16.859  1.00  0.00     0.106 A 
HETATM   20  N   UNL     1     -47.524 -51.527  18.120  1.00  0.00    -0.361 N 
HETATM   21  C   UNL     1     -46.677 -52.519  17.945  1.00  0.00     0.182 A 
ATOM     22  HN  UNL     1     -47.843 -51.137  19.007  1.00  0.00     0.166 HD
ENDBRANCH  16  17
ENDBRANCH  14  16
ENDBRANCH   1  14
TORSDOF 3
ENDMDL
MODEL 8
REMARK VINA RESULT:      -5.2      3.009      7.042
REMARK  3 active torsions:
REMARK  status: ('A' for Active; 'I' for Inactive)
REMARK    1  A    between atoms: C_2  and  C_3 
REMARK    2  A    between atoms: C_2  and  N_10 
REMARK    3  A    between atoms: C_3  and  N_4 
REMARK       I    between atoms: N_10  and  C_11 
REMARK       I    between atoms: C_11  and  N_13 
REMARK       I    between atoms: N_16  and  C_19 
ROOT
HETATM    1  N   UNL     1     -42.294 -51.473  12.753  1.00  0.00    -0.337 N 
HETATM    2  C   UNL     1     -41.100 -51.033  12.249  1.00  0.00     0.318 C 
HETATM    3  O   UNL     1     -40.098 -51.742  12.273  1.00  0.00    -0.247 OA
HETATM    4  N   UNL     1     -41.099 -49.747  11.752  1.00  0.00    -0.331 N 
HETATM    5  C   UNL     1     -39.825 -49.191  11.288  1.00  0.00     0.147 C 
HETATM    6  C   UNL     1     -39.670 -47.730  11.733  1.00  0.00     0.145 C 
HETATM    7  N   UNL     1     -40.824 -46.927  11.305  1.00  0.00    -0.349 N 
HETATM    8  C   UNL     1     -42.121 -47.474  11.733  1.00  0.00     0.145 C 
HETATM    9  C   UNL     1     -42.275 -48.956  11.346  1.00  0.00     0.147 C 
HETATM   10  C   UNL     1     -40.795 -45.709  10.654  1.00  0.00     0.215 C 
HETATM   11  O   UNL     1     -41.832 -45.098  10.379  1.00  0.00    -0.274 OA
HETATM   12  C   UNL     1     -39.476 -45.105  10.231  1.00  0.00     0.117 C 
HETATM   13  H   UNL     1     -42.886 -50.749  13.129  1.00  0.00     0.164 HD
ENDROOT
BRANCH   1  14
HETATM   14  C   UNL     1     -42.384 -52.791  13.401  1.00  0.00     0.100 C 
HETATM   15  C   UNL     1     -42.613 -52.599  14.900  1.00  0.00     0.034 C 
BRANCH  14  16
HETATM   16  C   UNL     1     -43.484 -53.647  12.740  1.00  0.00     0.153 C 
BRANCH  16  17
HETATM   17  N   UNL     1     -44.756 -53.675  13.440  1.00  0.00    -0.350 N 
HETATM   18  C   UNL     1     -45.618 -52.622  13.585  1.00  0.00     0.108 A 
HETATM   19  C   UNL     1     -46.730 -53.155  14.194  1.00  0.00     0.106 A 
HETATM   20  N   UNL     1     -46.556 -54.493  14.434  1.00  0.00    -0.361 N 
HETATM   21  C   UNL     1     -45.365 -54.782  13.957  1.00  0.00     0.182 A 
ATOM     22  HN  UNL     1     -47.213 -55.130  14.886  1.00  0.00     0.166 HD
ENDBRANCH  16  17
ENDBRANCH  14  16
ENDBRANCH   1  14
TORSDOF 3
ENDMDL
MODEL 9
REMARK VINA RESULT:      -5.2      3.552      5.281
REMARK  3 active torsions:
REMARK  status: ('A' for Active; 'I' for Inactive)
REMARK    1  A    between atoms: C_2  and  C_3 
REMARK    2  A    between atoms: C_2  and  N_10 
REMARK    3  A    between atoms: C_3  and  N_4 
REMARK       I    between atoms: N_10  and  C_11 
REMARK       I    between atoms: C_11  and  N_13 
REMARK       I    between atoms: N_16  and  C_19 
ROOT
HETATM    1  N   UNL     1     -39.369 -50.931  13.484  1.00  0.00    -0.337 N 
HETATM    2  C   UNL     1     -39.862 -51.899  14.318  1.00  0.00     0.318 C 
HETATM    3  O   UNL     1     -39.178 -52.371  15.222  1.00  0.00    -0.247 OA
HETATM    4  N   UNL     1     -41.148 -52.319  14.051  1.00  0.00    -0.331 N 
HETATM    5  C   UNL     1     -41.690 -53.420  14.851  1.00  0.00     0.147 C 
HETATM    6  C   UNL     1     -42.475 -54.402  13.971  1.00  0.00     0.145 C 
HETATM    7  N   UNL     1     -43.513 -53.702  13.201  1.00  0.00    -0.349 N 
HETATM    8  C   UNL     1     -43.003 -52.573  12.407  1.00  0.00     0.145 C 
HETATM    9  C   UNL     1     -42.164 -51.603  13.259  1.00  0.00     0.147 C 
HETATM   10  C   UNL     1     -44.843 -54.054  13.085  1.00  0.00     0.215 C 
HETATM   11  O   UNL     1     -45.621 -53.413  12.372  1.00  0.00    -0.274 OA
HETATM   12  C   UNL     1     -45.389 -55.229  13.862  1.00  0.00     0.117 C 
HETATM   13  H   UNL     1     -39.749 -50.946  12.551  1.00  0.00     0.164 HD
ENDROOT
BRANCH   1  14
HETATM   14  C   UNL     1     -37.973 -50.483  13.614  1.00  0.00     0.100 C 
HETATM   15  C   UNL     1     -37.150 -51.067  12.467  1.00  0.00     0.034 C 
BRANCH  14  16
HETATM   16  C   UNL     1     -37.902 -48.942  13.668  1.00  0.00     0.153 C 
BRANCH  16  17
HETATM   17  N   UNL     1     -39.070 -48.246  13.160  1.00  0.00    -0.350 N 
HETATM   18  C   UNL     1     -39.396 -48.077  11.842  1.00  0.00     0.108 A 
HETATM   19  C   UNL     1     -40.636 -47.484  11.856  1.00  0.00     0.106 A 
HETATM   20  N   UNL     1     -41.060 -47.278  13.143  1.00  0.00    -0.361 N 
HETATM   21  C   UNL     1     -40.103 -47.758  13.907  1.00  0.00     0.182 A 
ATOM     22  HN  UNL     1     -41.932 -46.843  13.444  1.00  0.00     0.166 HD
ENDBRANCH  16  17
ENDBRANCH  14  16
ENDBRANCH   1  14
TORSDOF 3
ENDMDL
