MODEL 1
REMARK VINA RESULT:      -6.2      0.000      0.000
REMARK  5 active torsions:
REMARK  status: ('A' for Active; 'I' for Inactive)
REMARK    1  A    between atoms: O_1  and  C_2 
REMARK    2  A    between atoms: C_2  and  C_3 
REMARK    3  A    between atoms: C_3  and  N_4 
REMARK    4  A    between atoms: C_5  and  C_6 
REMARK    5  A    between atoms: C_6  and  N_7 
ROOT
HETATM    1  N   UNL     1     -42.149 -52.990  13.862  1.00  0.00    -0.331 N 
HETATM    2  C   UNL     1     -42.856 -53.115  12.681  1.00  0.00     0.103 A 
HETATM    3  N   UNL     1     -42.285 -52.402  11.726  1.00  0.00    -0.343 N 
ATOM      4  HN  UNL     1     -42.598 -52.311  10.759  1.00  0.00     0.167 HD
HETATM    5  C   UNL     1     -41.188 -51.809  12.292  1.00  0.00     0.062 A 
HETATM    6  C   UNL     1     -40.256 -50.935  11.716  1.00  0.00     0.055 A 
HETATM    7  C   UNL     1     -39.214 -50.459  12.515  1.00  0.00     0.036 A 
HETATM    8 CL   UNL     1     -38.054 -49.381  11.836  1.00  0.00    -0.084 Cl
HETATM    9  C   UNL     1     -39.095 -50.838  13.853  1.00  0.00     0.026 A 
HETATM   10  C   UNL     1     -40.024 -51.703  14.443  1.00  0.00     0.034 A 
HETATM   11  C   UNL     1     -41.064 -52.170  13.629  1.00  0.00     0.062 A 
ENDROOT
BRANCH   2  12
HETATM   12  C   UNL     1     -44.149 -53.857  12.527  1.00  0.00     0.208 C 
BRANCH  12  13
HETATM   13  N   UNL     1     -45.254 -53.263  13.281  1.00  0.00    -0.318 N 
HETATM   14  C   UNL     1     -45.478 -51.892  13.213  1.00  0.00     0.094 A 
HETATM   15  C   UNL     1     -46.350 -51.288  14.032  1.00  0.00     0.017 A 
HETATM   16  C   UNL     1     -47.052 -52.053  15.029  1.00  0.00     0.007 A 
HETATM   17  C   UNL     1     -46.874 -53.376  15.115  1.00  0.00     0.074 A 
HETATM   18  C   UNL     1     -45.924 -54.069  14.199  1.00  0.00     0.247 A 
HETATM   19  O   UNL     1     -45.767 -55.283  14.307  1.00  0.00    -0.268 OA
ENDBRANCH  12  13
ENDBRANCH   2  12
BRANCH   1  20
HETATM   20  C   UNL     1     -42.495 -53.543  15.155  1.00  0.00     0.156 C 
BRANCH  20  21
HETATM   21  C   UNL     1     -42.010 -54.980  15.317  1.00  0.00     0.184 C 
BRANCH  21  22
HETATM   22  O   UNL     1     -43.128 -55.852  15.429  1.00  0.00    -0.399 OA
HETATM   23  H   UNL     1     -43.238 -56.296  14.570  1.00  0.00     0.209 HD
ENDBRANCH  21  22
ENDBRANCH  20  21
ENDBRANCH   1  20
TORSDOF 5
ENDMDL
MODEL 2
REMARK VINA RESULT:      -5.9      2.820      3.775
REMARK  5 active torsions:
REMARK  status: ('A' for Active; 'I' for Inactive)
REMARK    1  A    between atoms: O_1  and  C_2 
REMARK    2  A    between atoms: C_2  and  C_3 
REMARK    3  A    between atoms: C_3  and  N_4 
REMARK    4  A    between atoms: C_5  and  C_6 
REMARK    5  A    between atoms: C_6  and  N_7 
ROOT
HETATM    1  N   UNL     1     -41.529 -53.600  13.143  1.00  0.00    -0.331 N 
HETATM    2  C   UNL     1     -42.787 -54.068  13.471  1.00  0.00     0.103 A 
HETATM    3  N   UNL     1     -42.741 -54.761  14.596  1.00  0.00    -0.343 N 
ATOM      4  HN  UNL     1     -43.523 -55.221  15.064  1.00  0.00     0.167 HD
HETATM    5  C   UNL     1     -41.436 -54.738  15.009  1.00  0.00     0.062 A 
HETATM    6  C   UNL     1     -40.849 -55.340  16.130  1.00  0.00     0.055 A 
HETATM    7  C   UNL     1     -39.478 -55.168  16.331  1.00  0.00     0.036 A 
HETATM    8 CL   UNL     1     -38.728 -55.897  17.701  1.00  0.00    -0.084 Cl
HETATM    9  C   UNL     1     -38.703 -54.418  15.445  1.00  0.00     0.026 A 
HETATM   10  C   UNL     1     -39.274 -53.820  14.316  1.00  0.00     0.034 A 
HETATM   11  C   UNL     1     -40.650 -54.004  14.127  1.00  0.00     0.062 A 
ENDROOT
BRANCH   2  12
HETATM   12  C   UNL     1     -44.012 -53.915  12.619  1.00  0.00     0.208 C 
BRANCH  12  13
HETATM   13  N   UNL     1     -45.126 -53.270  13.314  1.00  0.00    -0.318 N 
HETATM   14  C   UNL     1     -45.219 -51.883  13.334  1.00  0.00     0.094 A 
HETATM   15  C   UNL     1     -46.108 -51.255  14.115  1.00  0.00     0.017 A 
HETATM   16  C   UNL     1     -46.970 -52.017  14.982  1.00  0.00     0.007 A 
HETATM   17  C   UNL     1     -46.921 -53.353  14.979  1.00  0.00     0.074 A 
HETATM   18  C   UNL     1     -45.953 -54.069  14.102  1.00  0.00     0.247 A 
HETATM   19  O   UNL     1     -45.916 -55.297  14.128  1.00  0.00    -0.268 OA
ENDBRANCH  12  13
ENDBRANCH   2  12
BRANCH   1  20
HETATM   20  C   UNL     1     -41.146 -52.875  11.949  1.00  0.00     0.156 C 
BRANCH  20  21
HETATM   21  C   UNL     1     -41.243 -51.364  12.134  1.00  0.00     0.184 C 
BRANCH  21  22
HETATM   22  O   UNL     1     -40.683 -50.708  11.004  1.00  0.00    -0.399 OA
HETATM   23  H   UNL     1     -39.720 -50.668  11.137  1.00  0.00     0.209 HD
ENDBRANCH  21  22
ENDBRANCH  20  21
ENDBRANCH   1  20
TORSDOF 5
ENDMDL
MODEL 3
REMARK VINA RESULT:      -5.8      2.287      2.694
REMARK  5 active torsions:
REMARK  status: ('A' for Active; 'I' for Inactive)
REMARK    1  A    between atoms: O_1  and  C_2 
REMARK    2  A    between atoms: C_2  and  C_3 
REMARK    3  A    between atoms: C_3  and  N_4 
REMARK    4  A    between atoms: C_5  and  C_6 
REMARK    5  A    between atoms: C_6  and  N_7 
ROOT
HETATM    1  N   UNL     1     -41.102 -51.393  12.932  1.00  0.00    -0.331 N 
HETATM    2  C   UNL     1     -42.449 -51.388  12.622  1.00  0.00     0.103 A 
HETATM    3  N   UNL     1     -42.779 -50.259  12.018  1.00  0.00    -0.343 N 
ATOM      4  HN  UNL     1     -43.706 -49.992  11.685  1.00  0.00     0.167 HD
HETATM    5  C   UNL     1     -41.629 -49.522  11.928  1.00  0.00     0.062 A 
HETATM    6  C   UNL     1     -41.438 -48.240  11.395  1.00  0.00     0.055 A 
HETATM    7  C   UNL     1     -40.151 -47.697  11.424  1.00  0.00     0.036 A 
HETATM    8 CL   UNL     1     -39.885 -46.123  10.777  1.00  0.00    -0.084 Cl
HETATM    9  C   UNL     1     -39.078 -48.404  11.969  1.00  0.00     0.026 A 
HETATM   10  C   UNL     1     -39.257 -49.681  12.513  1.00  0.00     0.034 A 
HETATM   11  C   UNL     1     -40.554 -50.210  12.478  1.00  0.00     0.062 A 
ENDROOT
BRANCH   2  12
HETATM   12  C   UNL     1     -43.425 -52.457  13.016  1.00  0.00     0.208 C 
BRANCH  12  13
HETATM   13  N   UNL     1     -44.603 -51.939  13.714  1.00  0.00    -0.318 N 
HETATM   14  C   UNL     1     -44.466 -51.376  14.977  1.00  0.00     0.094 A 
HETATM   15  C   UNL     1     -45.535 -51.069  15.724  1.00  0.00     0.017 A 
HETATM   16  C   UNL     1     -46.859 -51.354  15.236  1.00  0.00     0.007 A 
HETATM   17  C   UNL     1     -47.033 -51.882  14.019  1.00  0.00     0.074 A 
HETATM   18  C   UNL     1     -45.856 -52.209  13.166  1.00  0.00     0.247 A 
HETATM   19  O   UNL     1     -46.040 -52.707  12.058  1.00  0.00    -0.268 OA
ENDBRANCH  12  13
ENDBRANCH   2  12
BRANCH   1  20
HETATM   20  C   UNL     1     -40.373 -52.405  13.668  1.00  0.00     0.156 C 
BRANCH  20  21
HETATM   21  C   UNL     1     -40.471 -53.779  13.011  1.00  0.00     0.184 C 
BRANCH  21  22
HETATM   22  O   UNL     1     -40.424 -53.636  11.597  1.00  0.00    -0.399 OA
HETATM   23  H   UNL     1     -41.335 -53.482  11.289  1.00  0.00     0.209 HD
ENDBRANCH  21  22
ENDBRANCH  20  21
ENDBRANCH   1  20
TORSDOF 5
ENDMDL
MODEL 4
REMARK VINA RESULT:      -5.8      3.432      6.248
REMARK  5 active torsions:
REMARK  status: ('A' for Active; 'I' for Inactive)
REMARK    1  A    between atoms: O_1  and  C_2 
REMARK    2  A    between atoms: C_2  and  C_3 
REMARK    3  A    between atoms: C_3  and  N_4 
REMARK    4  A    between atoms: C_5  and  C_6 
REMARK    5  A    between atoms: C_6  and  N_7 
ROOT
HETATM    1  N   UNL     1     -41.866 -52.788  12.807  1.00  0.00    -0.331 N 
HETATM    2  C   UNL     1     -41.865 -51.461  12.419  1.00  0.00     0.103 A 
HETATM    3  N   UNL     1     -43.030 -50.901  12.694  1.00  0.00    -0.343 N 
ATOM      4  HN  UNL     1     -43.303 -49.935  12.510  1.00  0.00     0.167 HD
HETATM    5  C   UNL     1     -43.798 -51.874  13.275  1.00  0.00     0.062 A 
HETATM    6  C   UNL     1     -45.121 -51.806  13.731  1.00  0.00     0.055 A 
HETATM    7  C   UNL     1     -45.688 -52.953  14.290  1.00  0.00     0.036 A 
HETATM    8 CL   UNL     1     -47.313 -52.901  14.859  1.00  0.00    -0.084 Cl
HETATM    9  C   UNL     1     -44.964 -54.142  14.396  1.00  0.00     0.026 A 
HETATM   10  C   UNL     1     -43.645 -54.226  13.936  1.00  0.00     0.034 A 
HETATM   11  C   UNL     1     -43.092 -53.068  13.376  1.00  0.00     0.062 A 
ENDROOT
BRANCH   2  12
HETATM   12  C   UNL     1     -40.749 -50.781  11.685  1.00  0.00     0.208 C 
BRANCH  12  13
HETATM   13  N   UNL     1     -39.893 -49.969  12.551  1.00  0.00    -0.318 N 
HETATM   14  C   UNL     1     -40.338 -48.730  12.997  1.00  0.00     0.094 A 
HETATM   15  C   UNL     1     -39.517 -47.879  13.627  1.00  0.00     0.017 A 
HETATM   16  C   UNL     1     -38.134 -48.228  13.825  1.00  0.00     0.007 A 
HETATM   17  C   UNL     1     -37.672 -49.417  13.424  1.00  0.00     0.074 A 
HETATM   18  C   UNL     1     -38.577 -50.384  12.741  1.00  0.00     0.247 A 
HETATM   19  O   UNL     1     -38.126 -51.465  12.368  1.00  0.00    -0.268 OA
ENDBRANCH  12  13
ENDBRANCH   2  12
BRANCH   1  20
HETATM   20  C   UNL     1     -40.815 -53.763  12.603  1.00  0.00     0.156 C 
BRANCH  20  21
HETATM   21  C   UNL     1     -39.934 -53.930  13.837  1.00  0.00     0.184 C 
BRANCH  21  22
HETATM   22  O   UNL     1     -38.611 -54.265  13.437  1.00  0.00    -0.399 OA
HETATM   23  H   UNL     1     -38.065 -54.304  14.241  1.00  0.00     0.209 HD
ENDBRANCH  21  22
ENDBRANCH  20  21
ENDBRANCH   1  20
TORSDOF 5
ENDMDL
MODEL 5
REMARK VINA RESULT:      -5.7      3.769      6.625
REMARK  5 active torsions:
REMARK  status: ('A' for Active; 'I' for Inactive)
REMARK    1  A    between atoms: O_1  and  C_2 
REMARK    2  A    between atoms: C_2  and  C_3 
REMARK    3  A    between atoms: C_3  and  N_4 
REMARK    4  A    between atoms: C_5  and  C_6 
REMARK    5  A    between atoms: C_6  and  N_7 
ROOT
HETATM    1  N   UNL     1     -41.296 -53.012  12.811  1.00  0.00    -0.331 N 
HETATM    2  C   UNL     1     -40.541 -53.405  13.900  1.00  0.00     0.103 A 
HETATM    3  N   UNL     1     -41.317 -53.940  14.828  1.00  0.00    -0.343 N 
ATOM      4  HN  UNL     1     -41.022 -54.310  15.732  1.00  0.00     0.167 HD
HETATM    5  C   UNL     1     -42.592 -53.900  14.332  1.00  0.00     0.062 A 
HETATM    6  C   UNL     1     -43.789 -54.320  14.930  1.00  0.00     0.055 A 
HETATM    7  C   UNL     1     -44.976 -54.167  14.210  1.00  0.00     0.036 A 
HETATM    8 CL   UNL     1     -46.463 -54.673  14.917  1.00  0.00    -0.084 Cl
HETATM    9  C   UNL     1     -44.981 -53.611  12.929  1.00  0.00     0.026 A 
HETATM   10  C   UNL     1     -43.795 -53.179  12.326  1.00  0.00     0.034 A 
HETATM   11  C   UNL     1     -42.613 -53.337  13.061  1.00  0.00     0.062 A 
ENDROOT
BRANCH   2  12
HETATM   12  C   UNL     1     -39.071 -53.158  14.062  1.00  0.00     0.208 C 
BRANCH  12  13
HETATM   13  N   UNL     1     -38.735 -51.744  14.234  1.00  0.00    -0.318 N 
HETATM   14  C   UNL     1     -39.460 -50.965  15.128  1.00  0.00     0.094 A 
HETATM   15  C   UNL     1     -39.311 -49.634  15.172  1.00  0.00     0.017 A 
HETATM   16  C   UNL     1     -38.412 -48.979  14.259  1.00  0.00     0.007 A 
HETATM   17  C   UNL     1     -37.685 -49.697  13.394  1.00  0.00     0.074 A 
HETATM   18  C   UNL     1     -37.821 -51.179  13.346  1.00  0.00     0.247 A 
HETATM   19  O   UNL     1     -37.154 -51.816  12.533  1.00  0.00    -0.268 OA
ENDBRANCH  12  13
ENDBRANCH   2  12
BRANCH   1  20
HETATM   20  C   UNL     1     -40.835 -52.311  11.631  1.00  0.00     0.156 C 
BRANCH  20  21
HETATM   21  C   UNL     1     -41.035 -50.802  11.740  1.00  0.00     0.184 C 
BRANCH  21  22
HETATM   22  O   UNL     1     -40.400 -50.156  10.644  1.00  0.00    -0.399 OA
HETATM   23  H   UNL     1     -39.608 -49.708  10.989  1.00  0.00     0.209 HD
ENDBRANCH  21  22
ENDBRANCH  20  21
ENDBRANCH   1  20
TORSDOF 5
ENDMDL
MODEL 6
REMARK VINA RESULT:      -5.5      3.900      6.232
REMARK  5 active torsions:
REMARK  status: ('A' for Active; 'I' for Inactive)
REMARK    1  A    between atoms: O_1  and  C_2 
REMARK    2  A    between atoms: C_2  and  C_3 
REMARK    3  A    between atoms: C_3  and  N_4 
REMARK    4  A    between atoms: C_5  and  C_6 
REMARK    5  A    between atoms: C_6  and  N_7 
ROOT
HETATM    1  N   UNL     1     -41.337 -51.478  13.586  1.00  0.00    -0.331 N 
HETATM    2  C   UNL     1     -41.262 -51.376  12.209  1.00  0.00     0.103 A 
HETATM    3  N   UNL     1     -42.148 -52.174  11.640  1.00  0.00    -0.343 N 
ATOM      4  HN  UNL     1     -42.306 -52.298  10.639  1.00  0.00     0.167 HD
HETATM    5  C   UNL     1     -42.813 -52.800  12.660  1.00  0.00     0.062 A 
HETATM    6  C   UNL     1     -43.832 -53.761  12.596  1.00  0.00     0.055 A 
HETATM    7  C   UNL     1     -44.350 -54.254  13.795  1.00  0.00     0.036 A 
HETATM    8 CL   UNL     1     -45.603 -55.436  13.749  1.00  0.00    -0.084 Cl
HETATM    9  C   UNL     1     -43.873 -53.810  15.029  1.00  0.00     0.026 A 
HETATM   10  C   UNL     1     -42.850 -52.858  15.107  1.00  0.00     0.034 A 
HETATM   11  C   UNL     1     -42.339 -52.375  13.895  1.00  0.00     0.062 A 
ENDROOT
BRANCH   2  12
HETATM   12  C   UNL     1     -40.246 -50.565  11.461  1.00  0.00     0.208 C 
BRANCH  12  13
HETATM   13  N   UNL     1     -40.551 -49.134  11.432  1.00  0.00    -0.318 N 
HETATM   14  C   UNL     1     -41.655 -48.677  10.721  1.00  0.00     0.094 A 
HETATM   15  C   UNL     1     -41.857 -47.370  10.512  1.00  0.00     0.017 A 
HETATM   16  C   UNL     1     -40.903 -46.407  10.997  1.00  0.00     0.007 A 
HETATM   17  C   UNL     1     -39.836 -46.807  11.698  1.00  0.00     0.074 A 
HETATM   18  C   UNL     1     -39.607 -48.255  11.959  1.00  0.00     0.247 A 
HETATM   19  O   UNL     1     -38.612 -48.599  12.593  1.00  0.00    -0.268 OA
ENDBRANCH  12  13
ENDBRANCH   2  12
BRANCH   1  20
HETATM   20  C   UNL     1     -40.482 -50.834  14.562  1.00  0.00     0.156 C 
BRANCH  20  21
HETATM   21  C   UNL     1     -39.227 -51.649  14.857  1.00  0.00     0.184 C 
BRANCH  21  22
HETATM   22  O   UNL     1     -38.109 -51.053  14.211  1.00  0.00    -0.399 OA
HETATM   23  H   UNL     1     -38.017 -50.150  14.561  1.00  0.00     0.209 HD
ENDBRANCH  21  22
ENDBRANCH  20  21
ENDBRANCH   1  20
TORSDOF 5
ENDMDL
MODEL 7
REMARK VINA RESULT:      -5.4      4.558      7.103
REMARK  5 active torsions:
REMARK  status: ('A' for Active; 'I' for Inactive)
REMARK    1  A    between atoms: O_1  and  C_2 
REMARK    2  A    between atoms: C_2  and  C_3 
REMARK    3  A    between atoms: C_3  and  N_4 
REMARK    4  A    between atoms: C_5  and  C_6 
REMARK    5  A    between atoms: C_6  and  N_7 
ROOT
HETATM    1  N   UNL     1     -40.866 -49.276  12.096  1.00  0.00    -0.331 N 
HETATM    2  C   UNL     1     -39.618 -48.770  11.785  1.00  0.00     0.103 A 
HETATM    3  N   UNL     1     -39.734 -47.684  11.040  1.00  0.00    -0.343 N 
ATOM      4  HN  UNL     1     -38.974 -47.114  10.668  1.00  0.00     0.167 HD
HETATM    5  C   UNL     1     -41.076 -47.477  10.869  1.00  0.00     0.062 A 
HETATM    6  C   UNL     1     -41.732 -46.475  10.141  1.00  0.00     0.055 A 
HETATM    7  C   UNL     1     -43.129 -46.483  10.118  1.00  0.00     0.036 A 
HETATM    8 CL   UNL     1     -43.965 -45.265   9.230  1.00  0.00    -0.084 Cl
HETATM    9  C   UNL     1     -43.861 -47.458  10.797  1.00  0.00     0.026 A 
HETATM   10  C   UNL     1     -43.217 -48.469  11.520  1.00  0.00     0.034 A 
HETATM   11  C   UNL     1     -41.816 -48.449  11.532  1.00  0.00     0.062 A 
ENDROOT
BRANCH   2  12
HETATM   12  C   UNL     1     -38.314 -49.420  12.141  1.00  0.00     0.208 C 
BRANCH  12  13
HETATM   13  N   UNL     1     -37.937 -49.236  13.543  1.00  0.00    -0.318 N 
HETATM   14  C   UNL     1     -37.587 -47.972  14.005  1.00  0.00     0.094 A 
HETATM   15  C   UNL     1     -37.055 -47.796  15.221  1.00  0.00     0.017 A 
HETATM   16  C   UNL     1     -36.801 -48.934  16.067  1.00  0.00     0.007 A 
HETATM   17  C   UNL     1     -37.138 -50.164  15.665  1.00  0.00     0.074 A 
HETATM   18  C   UNL     1     -37.751 -50.375  14.323  1.00  0.00     0.247 A 
HETATM   19  O   UNL     1     -38.039 -51.517  13.970  1.00  0.00    -0.268 OA
ENDBRANCH  12  13
ENDBRANCH   2  12
BRANCH   1  20
HETATM   20  C   UNL     1     -41.165 -50.495  12.818  1.00  0.00     0.156 C 
BRANCH  20  21
HETATM   21  C   UNL     1     -41.240 -51.708  11.896  1.00  0.00     0.184 C 
BRANCH  21  22
HETATM   22  O   UNL     1     -40.069 -52.499  12.052  1.00  0.00    -0.399 OA
HETATM   23  H   UNL     1     -40.225 -53.344  11.596  1.00  0.00     0.209 HD
ENDBRANCH  21  22
ENDBRANCH  20  21
ENDBRANCH   1  20
TORSDOF 5
ENDMDL
MODEL 8
REMARK VINA RESULT:      -5.4      3.730      6.783
REMARK  5 active torsions:
REMARK  status: ('A' for Active; 'I' for Inactive)
REMARK    1  A    between atoms: O_1  and  C_2 
REMARK    2  A    between atoms: C_2  and  C_3 
REMARK    3  A    between atoms: C_3  and  N_4 
REMARK    4  A    between atoms: C_5  and  C_6 
REMARK    5  A    between atoms: C_6  and  N_7 
ROOT
HETATM    1  N   UNL     1     -42.348 -50.207  12.519  1.00  0.00    -0.331 N 
HETATM    2  C   UNL     1     -41.208 -50.855  12.083  1.00  0.00     0.103 A 
HETATM    3  N   UNL     1     -41.376 -52.166  12.135  1.00  0.00    -0.343 N 
ATOM      4  HN  UNL     1     -40.696 -52.881  11.875  1.00  0.00     0.167 HD
HETATM    5  C   UNL     1     -42.645 -52.372  12.606  1.00  0.00     0.062 A 
HETATM    6  C   UNL     1     -43.308 -53.579  12.868  1.00  0.00     0.055 A 
HETATM    7  C   UNL     1     -44.616 -53.521  13.354  1.00  0.00     0.036 A 
HETATM    8 CL   UNL     1     -45.458 -54.988  13.687  1.00  0.00    -0.084 Cl
HETATM    9  C   UNL     1     -45.255 -52.300  13.576  1.00  0.00     0.026 A 
HETATM   10  C   UNL     1     -44.601 -51.089  13.327  1.00  0.00     0.034 A 
HETATM   11  C   UNL     1     -43.289 -51.163  12.843  1.00  0.00     0.062 A 
ENDROOT
BRANCH   2  12
HETATM   12  C   UNL     1     -39.922 -50.179  11.712  1.00  0.00     0.208 C 
BRANCH  12  13
HETATM   13  N   UNL     1     -39.110 -49.800  12.870  1.00  0.00    -0.318 N 
HETATM   14  C   UNL     1     -38.989 -48.460  13.219  1.00  0.00     0.094 A 
HETATM   15  C   UNL     1     -38.109 -48.058  14.146  1.00  0.00     0.017 A 
HETATM   16  C   UNL     1     -37.240 -49.017  14.777  1.00  0.00     0.007 A 
HETATM   17  C   UNL     1     -37.337 -50.317  14.479  1.00  0.00     0.074 A 
HETATM   18  C   UNL     1     -38.325 -50.784  13.466  1.00  0.00     0.247 A 
HETATM   19  O   UNL     1     -38.386 -51.982  13.198  1.00  0.00    -0.268 OA
ENDBRANCH  12  13
ENDBRANCH   2  12
BRANCH   1  20
HETATM   20  C   UNL     1     -42.534 -48.781  12.693  1.00  0.00     0.156 C 
BRANCH  20  21
HETATM   21  C   UNL     1     -43.294 -48.152  11.529  1.00  0.00     0.184 C 
BRANCH  21  22
HETATM   22  O   UNL     1     -42.625 -48.444  10.309  1.00  0.00    -0.399 OA
HETATM   23  H   UNL     1     -43.307 -48.640   9.642  1.00  0.00     0.209 HD
ENDBRANCH  21  22
ENDBRANCH  20  21
ENDBRANCH   1  20
TORSDOF 5
ENDMDL
MODEL 9
REMARK VINA RESULT:      -5.2      3.285      4.730
REMARK  5 active torsions:
REMARK  status: ('A' for Active; 'I' for Inactive)
REMARK    1  A    between atoms: O_1  and  C_2 
REMARK    2  A    between atoms: C_2  and  C_3 
REMARK    3  A    between atoms: C_3  and  N_4 
REMARK    4  A    between atoms: C_5  and  C_6 
REMARK    5  A    between atoms: C_6  and  N_7 
ROOT
HETATM    1  N   UNL     1     -39.998 -50.327  12.622  1.00  0.00    -0.331 N 
HETATM    2  C   UNL     1     -41.012 -51.010  11.978  1.00  0.00     0.103 A 
HETATM    3  N   UNL     1     -42.037 -50.207  11.752  1.00  0.00    -0.343 N 
ATOM      4  HN  UNL     1     -42.917 -50.451  11.296  1.00  0.00     0.167 HD
HETATM    5  C   UNL     1     -41.683 -48.982  12.251  1.00  0.00     0.062 A 
HETATM    6  C   UNL     1     -42.422 -47.791  12.285  1.00  0.00     0.055 A 
HETATM    7  C   UNL     1     -41.830 -46.663  12.858  1.00  0.00     0.036 A 
HETATM    8 CL   UNL     1     -42.714 -45.185  12.917  1.00  0.00    -0.084 Cl
HETATM    9  C   UNL     1     -40.539 -46.710  13.387  1.00  0.00     0.026 A 
HETATM   10  C   UNL     1     -39.795 -47.895  13.367  1.00  0.00     0.034 A 
HETATM   11  C   UNL     1     -40.402 -49.018  12.791  1.00  0.00     0.062 A 
ENDROOT
BRANCH   2  12
HETATM   12  C   UNL     1     -41.004 -52.480  11.680  1.00  0.00     0.208 C 
BRANCH  12  13
HETATM   13  N   UNL     1     -41.614 -53.291  12.734  1.00  0.00    -0.318 N 
HETATM   14  C   UNL     1     -42.984 -53.214  12.960  1.00  0.00     0.094 A 
HETATM   15  C   UNL     1     -43.546 -53.788  14.032  1.00  0.00     0.017 A 
HETATM   16  C   UNL     1     -42.725 -54.473  14.996  1.00  0.00     0.007 A 
HETATM   17  C   UNL     1     -41.406 -54.581  14.806  1.00  0.00     0.074 A 
HETATM   18  C   UNL     1     -40.766 -53.967  13.609  1.00  0.00     0.247 A 
HETATM   19  O   UNL     1     -39.550 -54.067  13.463  1.00  0.00    -0.268 OA
ENDBRANCH  12  13
ENDBRANCH   2  12
BRANCH   1  20
HETATM   20  C   UNL     1     -38.750 -50.869  13.118  1.00  0.00     0.156 C 
BRANCH  20  21
HETATM   21  C   UNL     1     -37.605 -50.682  12.127  1.00  0.00     0.184 C 
BRANCH  21  22
HETATM   22  O   UNL     1     -36.828 -51.871  12.065  1.00  0.00    -0.399 OA
HETATM   23  H   UNL     1     -36.143 -51.737  11.386  1.00  0.00     0.209 HD
ENDBRANCH  21  22
ENDBRANCH  20  21
ENDBRANCH   1  20
TORSDOF 5
ENDMDL
