MODEL 1
REMARK VINA RESULT:      -5.8      0.000      0.000
REMARK  5 active torsions:
REMARK  status: ('A' for Active; 'I' for Inactive)
REMARK    1  A    between atoms: C_2  and  C_4 
REMARK    2  A    between atoms: C_4  and  C_5 
REMARK    3  A    between atoms: C_5  and  N_6 
REMARK       I    between atoms: N_6  and  C_7 
REMARK    4  A    between atoms: C_7  and  C_9 
REMARK    5  A    between atoms: C_9  and  C_10 
ROOT
HETATM    1  C   UNL     1     -44.295 -54.289  13.663  1.00  0.00     0.041 A 
HETATM    2  C   UNL     1     -43.059 -54.469  14.170  1.00  0.00     0.018 A 
HETATM    3  C   UNL     1     -42.758 -55.410  15.310  1.00  0.00     0.069 C 
HETATM    4  N   UNL     1     -41.933 -53.841  13.683  1.00  0.00    -0.349 N 
ATOM      5  HN  UNL     1     -41.018 -54.004  14.105  1.00  0.00     0.167 HD
HETATM    6  C   UNL     1     -42.069 -53.041  12.680  1.00  0.00     0.080 A 
HETATM    7  C   UNL     1     -40.883 -52.338  12.088  1.00  0.00     0.089 C 
HETATM    8  N   UNL     1     -43.269 -52.777  12.091  1.00  0.00    -0.313 N 
HETATM    9  C   UNL     1     -44.419 -53.372  12.503  1.00  0.00     0.255 A 
HETATM   10  O   UNL     1     -45.493 -53.176  11.940  1.00  0.00    -0.268 OA
HETATM   11  H   UNL     1     -43.338 -52.158  11.298  1.00  0.00     0.170 HD
ENDROOT
BRANCH   1  12
HETATM   12  C   UNL     1     -45.573 -54.921  14.125  1.00  0.00     0.149 C 
BRANCH  12  13
HETATM   13  C   UNL     1     -46.138 -54.100  15.268  1.00  0.00     0.222 C 
HETATM   14  N   UNL     1     -46.715 -52.909  14.887  1.00  0.00    -0.361 N 
HETATM   15  H   UNL     1     -46.789 -52.696  13.894  1.00  0.00     0.162 HD
HETATM   16  O   UNL     1     -46.096 -54.490  16.432  1.00  0.00    -0.273 OA
BRANCH  14  17
HETATM   17  C   UNL     1     -47.296 -51.995  15.847  1.00  0.00     0.123 C 
BRANCH  17  18
HETATM   18  C   UNL     1     -46.280 -50.985  16.384  1.00  0.00     0.023 C 
BRANCH  18  19
HETATM   19  C   UNL     1     -46.592 -50.445  17.794  1.00  0.00    -0.021 C 
HETATM   20  C   UNL     1     -45.875 -49.126  18.083  1.00  0.00     0.009 C 
HETATM   21  C   UNL     1     -48.103 -50.252  17.959  1.00  0.00     0.009 C 
ENDBRANCH  18  19
ENDBRANCH  17  18
ENDBRANCH  14  17
ENDBRANCH  12  13
ENDBRANCH   1  12
TORSDOF 5
ENDMDL
MODEL 2
REMARK VINA RESULT:      -5.7      2.129      5.281
REMARK  5 active torsions:
REMARK  status: ('A' for Active; 'I' for Inactive)
REMARK    1  A    between atoms: C_2  and  C_4 
REMARK    2  A    between atoms: C_4  and  C_5 
REMARK    3  A    between atoms: C_5  and  N_6 
REMARK       I    between atoms: N_6  and  C_7 
REMARK    4  A    between atoms: C_7  and  C_9 
REMARK    5  A    between atoms: C_9  and  C_10 
ROOT
HETATM    1  C   UNL     1     -45.714 -53.348  14.072  1.00  0.00     0.041 A 
HETATM    2  C   UNL     1     -46.380 -52.214  13.772  1.00  0.00     0.018 A 
HETATM    3  C   UNL     1     -46.521 -51.681  12.368  1.00  0.00     0.069 C 
HETATM    4  N   UNL     1     -47.033 -51.440  14.706  1.00  0.00    -0.349 N 
ATOM      5  HN  UNL     1     -47.520 -50.586  14.432  1.00  0.00     0.167 HD
HETATM    6  C   UNL     1     -47.012 -51.826  15.937  1.00  0.00     0.080 A 
HETATM    7  C   UNL     1     -47.717 -51.040  17.004  1.00  0.00     0.089 C 
HETATM    8  N   UNL     1     -46.365 -52.949  16.358  1.00  0.00    -0.313 N 
HETATM    9  C   UNL     1     -45.715 -53.772  15.493  1.00  0.00     0.255 A 
HETATM   10  O   UNL     1     -45.177 -54.812  15.863  1.00  0.00    -0.268 OA
HETATM   11  H   UNL     1     -46.381 -53.230  17.327  1.00  0.00     0.170 HD
ENDROOT
BRANCH   1  12
HETATM   12  C   UNL     1     -44.975 -54.249  13.131  1.00  0.00     0.149 C 
BRANCH  12  13
HETATM   13  C   UNL     1     -43.523 -53.812  13.076  1.00  0.00     0.222 C 
HETATM   14  N   UNL     1     -43.259 -52.817  12.162  1.00  0.00    -0.361 N 
HETATM   15  H   UNL     1     -44.036 -52.402  11.652  1.00  0.00     0.162 HD
HETATM   16  O   UNL     1     -42.669 -54.301  13.811  1.00  0.00    -0.273 OA
BRANCH  14  17
HETATM   17  C   UNL     1     -41.927 -52.285  11.969  1.00  0.00     0.123 C 
BRANCH  17  18
HETATM   18  C   UNL     1     -41.753 -50.899  12.595  1.00  0.00     0.023 C 
BRANCH  18  19
HETATM   19  C   UNL     1     -43.072 -50.161  12.902  1.00  0.00    -0.021 C 
HETATM   20  C   UNL     1     -43.377 -50.116  14.399  1.00  0.00     0.009 C 
HETATM   21  C   UNL     1     -43.017 -48.735  12.346  1.00  0.00     0.009 C 
ENDBRANCH  18  19
ENDBRANCH  17  18
ENDBRANCH  14  17
ENDBRANCH  12  13
ENDBRANCH   1  12
TORSDOF 5
ENDMDL
MODEL 3
REMARK VINA RESULT:      -5.4      1.889      2.871
REMARK  5 active torsions:
REMARK  status: ('A' for Active; 'I' for Inactive)
REMARK    1  A    between atoms: C_2  and  C_4 
REMARK    2  A    between atoms: C_4  and  C_5 
REMARK    3  A    between atoms: C_5  and  N_6 
REMARK       I    between atoms: N_6  and  C_7 
REMARK    4  A    between atoms: C_7  and  C_9 
REMARK    5  A    between atoms: C_9  and  C_10 
ROOT
HETATM    1  C   UNL     1     -41.810 -53.304  13.576  1.00  0.00     0.041 A 
HETATM    2  C   UNL     1     -40.615 -52.734  13.827  1.00  0.00     0.018 A 
HETATM    3  C   UNL     1     -39.671 -53.222  14.899  1.00  0.00     0.069 C 
HETATM    4  N   UNL     1     -40.109 -51.669  13.114  1.00  0.00    -0.349 N 
ATOM      5  HN  UNL     1     -39.201 -51.266  13.346  1.00  0.00     0.167 HD
HETATM    6  C   UNL     1     -40.817 -51.196  12.145  1.00  0.00     0.080 A 
HETATM    7  C   UNL     1     -40.320 -50.048  11.316  1.00  0.00     0.089 C 
HETATM    8  N   UNL     1     -42.042 -51.687  11.805  1.00  0.00    -0.313 N 
HETATM    9  C   UNL     1     -42.598 -52.746  12.450  1.00  0.00     0.255 A 
HETATM   10  O   UNL     1     -43.677 -53.223  12.110  1.00  0.00    -0.268 OA
HETATM   11  H   UNL     1     -42.563 -51.303  11.031  1.00  0.00     0.170 HD
ENDROOT
BRANCH   1  12
HETATM   12  C   UNL     1     -42.442 -54.457  14.296  1.00  0.00     0.149 C 
BRANCH  12  13
HETATM   13  C   UNL     1     -43.565 -53.930  15.169  1.00  0.00     0.222 C 
HETATM   14  N   UNL     1     -44.814 -54.416  14.849  1.00  0.00    -0.361 N 
HETATM   15  H   UNL     1     -44.893 -55.125  14.124  1.00  0.00     0.162 HD
HETATM   16  O   UNL     1     -43.357 -53.152  16.097  1.00  0.00    -0.273 OA
BRANCH  14  17
HETATM   17  C   UNL     1     -46.001 -54.014  15.572  1.00  0.00     0.123 C 
BRANCH  17  18
HETATM   18  C   UNL     1     -46.968 -53.202  14.706  1.00  0.00     0.023 C 
BRANCH  18  19
HETATM   19  C   UNL     1     -46.806 -51.673  14.821  1.00  0.00    -0.021 C 
HETATM   20  C   UNL     1     -46.420 -51.235  16.234  1.00  0.00     0.009 C 
HETATM   21  C   UNL     1     -45.752 -51.180  13.825  1.00  0.00     0.009 C 
ENDBRANCH  18  19
ENDBRANCH  17  18
ENDBRANCH  14  17
ENDBRANCH  12  13
ENDBRANCH   1  12
TORSDOF 5
ENDMDL
MODEL 4
REMARK VINA RESULT:      -5.3      3.301      6.409
REMARK  5 active torsions:
REMARK  status: ('A' for Active; 'I' for Inactive)
REMARK    1  A    between atoms: C_2  and  C_4 
REMARK    2  A    between atoms: C_4  and  C_5 
REMARK    3  A    between atoms: C_5  and  N_6 
REMARK       I    between atoms: N_6  and  C_7 
REMARK    4  A    between atoms: C_7  and  C_9 
REMARK    5  A    between atoms: C_9  and  C_10 
ROOT
HETATM    1  C   UNL     1     -42.277 -53.660  13.333  1.00  0.00     0.041 A 
HETATM    2  C   UNL     1     -43.296 -54.106  14.095  1.00  0.00     0.018 A 
HETATM    3  C   UNL     1     -43.148 -55.204  15.120  1.00  0.00     0.069 C 
HETATM    4  N   UNL     1     -44.572 -53.588  14.047  1.00  0.00    -0.349 N 
ATOM      5  HN  UNL     1     -45.313 -53.964  14.639  1.00  0.00     0.167 HD
HETATM    6  C   UNL     1     -44.803 -52.616  13.232  1.00  0.00     0.080 A 
HETATM    7  C   UNL     1     -46.164 -51.992  13.140  1.00  0.00     0.089 C 
HETATM    8  N   UNL     1     -43.852 -52.088  12.409  1.00  0.00    -0.313 N 
HETATM    9  C   UNL     1     -42.569 -52.534  12.413  1.00  0.00     0.255 A 
HETATM   10  O   UNL     1     -41.700 -52.025  11.711  1.00  0.00    -0.268 OA
HETATM   11  H   UNL     1     -44.063 -51.317  11.794  1.00  0.00     0.170 HD
ENDROOT
BRANCH   1  12
HETATM   12  C   UNL     1     -40.864 -54.160  13.313  1.00  0.00     0.149 C 
BRANCH  12  13
HETATM   13  C   UNL     1     -40.030 -53.303  14.246  1.00  0.00     0.222 C 
HETATM   14  N   UNL     1     -39.330 -52.294  13.622  1.00  0.00    -0.361 N 
HETATM   15  H   UNL     1     -39.468 -52.146  12.624  1.00  0.00     0.162 HD
HETATM   16  O   UNL     1     -40.009 -53.492  15.459  1.00  0.00    -0.273 OA
BRANCH  14  17
HETATM   17  C   UNL     1     -38.476 -51.385  14.355  1.00  0.00     0.123 C 
BRANCH  17  18
HETATM   18  C   UNL     1     -37.665 -50.470  13.434  1.00  0.00     0.023 C 
BRANCH  18  19
HETATM   19  C   UNL     1     -38.318 -50.192  12.066  1.00  0.00    -0.021 C 
HETATM   20  C   UNL     1     -39.233 -48.967  12.097  1.00  0.00     0.009 C 
HETATM   21  C   UNL     1     -37.237 -49.997  10.998  1.00  0.00     0.009 C 
ENDBRANCH  18  19
ENDBRANCH  17  18
ENDBRANCH  14  17
ENDBRANCH  12  13
ENDBRANCH   1  12
TORSDOF 5
ENDMDL
MODEL 5
REMARK VINA RESULT:      -5.2      7.724      9.279
REMARK  5 active torsions:
REMARK  status: ('A' for Active; 'I' for Inactive)
REMARK    1  A    between atoms: C_2  and  C_4 
REMARK    2  A    between atoms: C_4  and  C_5 
REMARK    3  A    between atoms: C_5  and  N_6 
REMARK       I    between atoms: N_6  and  C_7 
REMARK    4  A    between atoms: C_7  and  C_9 
REMARK    5  A    between atoms: C_9  and  C_10 
ROOT
HETATM    1  C   UNL     1     -42.636 -46.087   9.975  1.00  0.00     0.041 A 
HETATM    2  C   UNL     1     -42.878 -47.413  10.013  1.00  0.00     0.018 A 
HETATM    3  C   UNL     1     -41.861 -48.430  10.468  1.00  0.00     0.069 C 
HETATM    4  N   UNL     1     -44.087 -47.981   9.674  1.00  0.00    -0.349 N 
ATOM      5  HN  UNL     1     -44.221 -48.992   9.712  1.00  0.00     0.167 HD
HETATM    6  C   UNL     1     -45.044 -47.198   9.307  1.00  0.00     0.080 A 
HETATM    7  C   UNL     1     -46.392 -47.747   8.940  1.00  0.00     0.089 C 
HETATM    8  N   UNL     1     -44.913 -45.843   9.224  1.00  0.00    -0.313 N 
HETATM    9  C   UNL     1     -43.758 -45.211   9.559  1.00  0.00     0.255 A 
HETATM   10  O   UNL     1     -43.655 -43.987   9.536  1.00  0.00    -0.268 OA
HETATM   11  H   UNL     1     -45.687 -45.259   8.948  1.00  0.00     0.170 HD
ENDROOT
BRANCH   1  12
HETATM   12  C   UNL     1     -41.360 -45.381  10.320  1.00  0.00     0.149 C 
BRANCH  12  13
HETATM   13  C   UNL     1     -41.118 -45.511  11.811  1.00  0.00     0.222 C 
HETATM   14  N   UNL     1     -39.854 -45.940  12.151  1.00  0.00    -0.361 N 
HETATM   15  H   UNL     1     -39.165 -46.067  11.412  1.00  0.00     0.162 HD
HETATM   16  O   UNL     1     -41.983 -45.230  12.637  1.00  0.00    -0.273 OA
BRANCH  14  17
HETATM   17  C   UNL     1     -39.451 -46.128  13.528  1.00  0.00     0.123 C 
BRANCH  17  18
HETATM   18  C   UNL     1     -39.689 -47.559  14.017  1.00  0.00     0.023 C 
BRANCH  18  19
HETATM   19  C   UNL     1     -38.426 -48.440  14.070  1.00  0.00    -0.021 C 
HETATM   20  C   UNL     1     -38.124 -49.103  12.726  1.00  0.00     0.009 C 
HETATM   21  C   UNL     1     -37.221 -47.604  14.511  1.00  0.00     0.009 C 
ENDBRANCH  18  19
ENDBRANCH  17  18
ENDBRANCH  14  17
ENDBRANCH  12  13
ENDBRANCH   1  12
TORSDOF 5
ENDMDL
MODEL 6
REMARK VINA RESULT:      -5.2      1.770      5.738
REMARK  5 active torsions:
REMARK  status: ('A' for Active; 'I' for Inactive)
REMARK    1  A    between atoms: C_2  and  C_4 
REMARK    2  A    between atoms: C_4  and  C_5 
REMARK    3  A    between atoms: C_5  and  N_6 
REMARK       I    between atoms: N_6  and  C_7 
REMARK    4  A    between atoms: C_7  and  C_9 
REMARK    5  A    between atoms: C_9  and  C_10 
ROOT
HETATM    1  C   UNL     1     -45.685 -53.299  14.030  1.00  0.00     0.041 A 
HETATM    2  C   UNL     1     -46.401 -52.198  13.724  1.00  0.00     0.018 A 
HETATM    3  C   UNL     1     -46.584 -51.692  12.314  1.00  0.00     0.069 C 
HETATM    4  N   UNL     1     -47.070 -51.436  14.657  1.00  0.00    -0.349 N 
ATOM      5  HN  UNL     1     -47.594 -50.606  14.378  1.00  0.00     0.167 HD
HETATM    6  C   UNL     1     -47.014 -51.801  15.893  1.00  0.00     0.080 A 
HETATM    7  C   UNL     1     -47.732 -51.028  16.959  1.00  0.00     0.089 C 
HETATM    8  N   UNL     1     -46.316 -52.892  16.320  1.00  0.00    -0.313 N 
HETATM    9  C   UNL     1     -45.647 -53.701  15.457  1.00  0.00     0.255 A 
HETATM   10  O   UNL     1     -45.062 -54.713  15.833  1.00  0.00    -0.268 OA
HETATM   11  H   UNL     1     -46.305 -53.158  17.292  1.00  0.00     0.170 HD
ENDROOT
BRANCH   1  12
HETATM   12  C   UNL     1     -44.925 -54.185  13.090  1.00  0.00     0.149 C 
BRANCH  12  13
HETATM   13  C   UNL     1     -43.488 -53.703  13.019  1.00  0.00     0.222 C 
HETATM   14  N   UNL     1     -42.600 -54.443  13.766  1.00  0.00    -0.361 N 
HETATM   15  H   UNL     1     -42.936 -55.278  14.242  1.00  0.00     0.162 HD
HETATM   16  O   UNL     1     -43.158 -52.742  12.329  1.00  0.00    -0.273 OA
BRANCH  14  17
HETATM   17  C   UNL     1     -41.190 -54.121  13.824  1.00  0.00     0.123 C 
BRANCH  17  18
HETATM   18  C   UNL     1     -40.555 -54.503  15.163  1.00  0.00     0.023 C 
BRANCH  18  19
HETATM   19  C   UNL     1     -41.534 -55.104  16.191  1.00  0.00    -0.021 C 
HETATM   20  C   UNL     1     -41.007 -56.400  16.806  1.00  0.00     0.009 C 
HETATM   21  C   UNL     1     -41.816 -54.087  17.302  1.00  0.00     0.009 C 
ENDBRANCH  18  19
ENDBRANCH  17  18
ENDBRANCH  14  17
ENDBRANCH  12  13
ENDBRANCH   1  12
TORSDOF 5
ENDMDL
MODEL 7
REMARK VINA RESULT:      -5.1      1.342      2.324
REMARK  5 active torsions:
REMARK  status: ('A' for Active; 'I' for Inactive)
REMARK    1  A    between atoms: C_2  and  C_4 
REMARK    2  A    between atoms: C_4  and  C_5 
REMARK    3  A    between atoms: C_5  and  N_6 
REMARK       I    between atoms: N_6  and  C_7 
REMARK    4  A    between atoms: C_7  and  C_9 
REMARK    5  A    between atoms: C_9  and  C_10 
ROOT
HETATM    1  C   UNL     1     -44.857 -54.001  13.809  1.00  0.00     0.041 A 
HETATM    2  C   UNL     1     -44.870 -52.991  12.915  1.00  0.00     0.018 A 
HETATM    3  C   UNL     1     -46.127 -52.269  12.496  1.00  0.00     0.069 C 
HETATM    4  N   UNL     1     -43.738 -52.487  12.314  1.00  0.00    -0.349 N 
ATOM      5  HN  UNL     1     -43.798 -51.725  11.637  1.00  0.00     0.167 HD
HETATM    6  C   UNL     1     -42.599 -53.005  12.629  1.00  0.00     0.080 A 
HETATM    7  C   UNL     1     -41.325 -52.494  12.026  1.00  0.00     0.089 C 
HETATM    8  N   UNL     1     -42.465 -54.033  13.515  1.00  0.00    -0.313 N 
HETATM    9  C   UNL     1     -43.534 -54.570  14.161  1.00  0.00     0.255 A 
HETATM   10  O   UNL     1     -43.409 -55.460  14.998  1.00  0.00    -0.268 OA
HETATM   11  H   UNL     1     -41.558 -54.406  13.751  1.00  0.00     0.170 HD
ENDROOT
BRANCH   1  12
HETATM   12  C   UNL     1     -46.031 -54.615  14.509  1.00  0.00     0.149 C 
BRANCH  12  13
HETATM   13  C   UNL     1     -46.149 -54.004  15.893  1.00  0.00     0.222 C 
HETATM   14  N   UNL     1     -46.702 -52.743  15.915  1.00  0.00    -0.361 N 
HETATM   15  H   UNL     1     -47.052 -52.346  15.045  1.00  0.00     0.162 HD
HETATM   16  O   UNL     1     -45.795 -54.607  16.903  1.00  0.00    -0.273 OA
BRANCH  14  17
HETATM   17  C   UNL     1     -46.883 -52.006  17.147  1.00  0.00     0.123 C 
BRANCH  17  18
HETATM   18  C   UNL     1     -48.082 -51.056  17.092  1.00  0.00     0.023 C 
BRANCH  18  19
HETATM   19  C   UNL     1     -48.098 -49.975  18.190  1.00  0.00    -0.021 C 
HETATM   20  C   UNL     1     -48.649 -50.500  19.516  1.00  0.00     0.009 C 
HETATM   21  C   UNL     1     -46.684 -49.425  18.406  1.00  0.00     0.009 C 
ENDBRANCH  18  19
ENDBRANCH  17  18
ENDBRANCH  14  17
ENDBRANCH  12  13
ENDBRANCH   1  12
TORSDOF 5
ENDMDL
MODEL 8
REMARK VINA RESULT:      -5.1      1.813      5.836
REMARK  5 active torsions:
REMARK  status: ('A' for Active; 'I' for Inactive)
REMARK    1  A    between atoms: C_2  and  C_4 
REMARK    2  A    between atoms: C_4  and  C_5 
REMARK    3  A    between atoms: C_5  and  N_6 
REMARK       I    between atoms: N_6  and  C_7 
REMARK    4  A    between atoms: C_7  and  C_9 
REMARK    5  A    between atoms: C_9  and  C_10 
ROOT
HETATM    1  C   UNL     1     -45.790 -53.349  14.188  1.00  0.00     0.041 A 
HETATM    2  C   UNL     1     -46.451 -52.218  13.867  1.00  0.00     0.018 A 
HETATM    3  C   UNL     1     -46.602 -51.717  12.452  1.00  0.00     0.069 C 
HETATM    4  N   UNL     1     -47.089 -51.417  14.788  1.00  0.00    -0.349 N 
ATOM      5  HN  UNL     1     -47.572 -50.566  14.499  1.00  0.00     0.167 HD
HETATM    6  C   UNL     1     -47.058 -51.772  16.028  1.00  0.00     0.080 A 
HETATM    7  C   UNL     1     -47.746 -50.956  17.082  1.00  0.00     0.089 C 
HETATM    8  N   UNL     1     -46.415 -52.890  16.470  1.00  0.00    -0.313 N 
HETATM    9  C   UNL     1     -45.780 -53.738  15.619  1.00  0.00     0.255 A 
HETATM   10  O   UNL     1     -45.246 -54.773  16.008  1.00  0.00    -0.268 OA
HETATM   11  H   UNL     1     -46.423 -53.148  17.445  1.00  0.00     0.170 HD
ENDROOT
BRANCH   1  12
HETATM   12  C   UNL     1     -45.067 -54.278  13.261  1.00  0.00     0.149 C 
BRANCH  12  13
HETATM   13  C   UNL     1     -43.639 -53.791  13.098  1.00  0.00     0.222 C 
HETATM   14  N   UNL     1     -42.749 -54.316  14.008  1.00  0.00    -0.361 N 
HETATM   15  H   UNL     1     -43.076 -55.025  14.661  1.00  0.00     0.162 HD
HETATM   16  O   UNL     1     -43.316 -53.010  12.207  1.00  0.00    -0.273 OA
BRANCH  14  17
HETATM   17  C   UNL     1     -41.347 -53.955  14.006  1.00  0.00     0.123 C 
BRANCH  17  18
HETATM   18  C   UNL     1     -41.041 -52.789  14.949  1.00  0.00     0.023 C 
BRANCH  18  19
HETATM   19  C   UNL     1     -40.118 -51.707  14.355  1.00  0.00    -0.021 C 
HETATM   20  C   UNL     1     -38.679 -51.832  14.855  1.00  0.00     0.009 C 
HETATM   21  C   UNL     1     -40.137 -51.783  12.825  1.00  0.00     0.009 C 
ENDBRANCH  18  19
ENDBRANCH  17  18
ENDBRANCH  14  17
ENDBRANCH  12  13
ENDBRANCH   1  12
TORSDOF 5
ENDMDL
MODEL 9
REMARK VINA RESULT:      -5.0      2.841      4.122
REMARK  5 active torsions:
REMARK  status: ('A' for Active; 'I' for Inactive)
REMARK    1  A    between atoms: C_2  and  C_4 
REMARK    2  A    between atoms: C_4  and  C_5 
REMARK    3  A    between atoms: C_5  and  N_6 
REMARK       I    between atoms: N_6  and  C_7 
REMARK    4  A    between atoms: C_7  and  C_9 
REMARK    5  A    between atoms: C_9  and  C_10 
ROOT
HETATM    1  C   UNL     1     -40.242 -53.079  13.407  1.00  0.00     0.041 A 
HETATM    2  C   UNL     1     -39.401 -53.123  14.460  1.00  0.00     0.018 A 
HETATM    3  C   UNL     1     -39.129 -54.377  15.255  1.00  0.00     0.069 C 
HETATM    4  N   UNL     1     -38.673 -52.040  14.905  1.00  0.00    -0.349 N 
ATOM      5  HN  UNL     1     -38.054 -52.120  15.711  1.00  0.00     0.167 HD
HETATM    6  C   UNL     1     -38.799 -50.923  14.272  1.00  0.00     0.080 A 
HETATM    7  C   UNL     1     -38.023 -49.708  14.691  1.00  0.00     0.089 C 
HETATM    8  N   UNL     1     -39.624 -50.759  13.199  1.00  0.00    -0.313 N 
HETATM    9  C   UNL     1     -40.358 -51.785  12.693  1.00  0.00     0.255 A 
HETATM   10  O   UNL     1     -41.060 -51.652  11.695  1.00  0.00    -0.268 OA
HETATM   11  H   UNL     1     -39.686 -49.875  12.718  1.00  0.00     0.170 HD
ENDROOT
BRANCH   1  12
HETATM   12  C   UNL     1     -41.074 -54.197  12.856  1.00  0.00     0.149 C 
BRANCH  12  13
HETATM   13  C   UNL     1     -42.493 -54.048  13.369  1.00  0.00     0.222 C 
HETATM   14  N   UNL     1     -43.419 -53.722  12.403  1.00  0.00    -0.361 N 
HETATM   15  H   UNL     1     -43.118 -53.676  11.431  1.00  0.00     0.162 HD
HETATM   16  O   UNL     1     -42.781 -54.229  14.549  1.00  0.00    -0.273 OA
BRANCH  14  17
HETATM   17  C   UNL     1     -44.819 -53.532  12.714  1.00  0.00     0.123 C 
BRANCH  17  18
HETATM   18  C   UNL     1     -45.152 -52.077  13.053  1.00  0.00     0.023 C 
BRANCH  18  19
HETATM   19  C   UNL     1     -45.389 -51.803  14.551  1.00  0.00    -0.021 C 
HETATM   20  C   UNL     1     -44.447 -50.733  15.102  1.00  0.00     0.009 C 
HETATM   21  C   UNL     1     -46.842 -51.374  14.783  1.00  0.00     0.009 C 
ENDBRANCH  18  19
ENDBRANCH  17  18
ENDBRANCH  14  17
ENDBRANCH  12  13
ENDBRANCH   1  12
TORSDOF 5
ENDMDL
