MODEL 1
REMARK VINA RESULT:      -6.0      0.000      0.000
REMARK  4 active torsions:
REMARK  status: ('A' for Active; 'I' for Inactive)
REMARK    1  A    between atoms: C_2  and  O_3 
REMARK    2  A    between atoms: O_3  and  C_4 
REMARK    3  A    between atoms: N_8  and  C_10 
REMARK    4  A    between atoms: C_16  and  N_17 
ROOT
HETATM    1  C   UNL     1     -43.103 -47.398  10.179  1.00  0.00     0.107 A 
HETATM    2  C   UNL     1     -44.467 -47.177  10.263  1.00  0.00     0.073 A 
HETATM    3  C   UNL     1     -45.248 -47.422   9.151  1.00  0.00     0.011 A 
HETATM    4  C   UNL     1     -46.725 -47.175   9.188  1.00  0.00     0.068 C 
HETATM    5  N   UNL     1     -44.730 -47.860   7.994  1.00  0.00    -0.337 N 
ATOM      6  HN  UNL     1     -45.308 -48.019   7.169  1.00  0.00     0.168 HD
HETATM    7  C   UNL     1     -43.415 -48.076   7.990  1.00  0.00     0.156 A 
HETATM    8  N   UNL     1     -42.591 -47.851   9.019  1.00  0.00    -0.319 N 
ATOM      9  HN  UNL     1     -41.590 -48.021   8.926  1.00  0.00     0.170 HD
ENDROOT
BRANCH   1  10
HETATM   10  N   UNL     1     -42.252 -47.176  11.246  1.00  0.00    -0.365 N 
HETATM   11  C   UNL     1     -42.770 -47.232  12.617  1.00  0.00     0.124 C 
HETATM   12  C   UNL     1     -41.980 -48.255  13.438  1.00  0.00     0.022 C 
HETATM   13  C   UNL     1     -40.469 -48.022  13.352  1.00  0.00     0.035 C 
HETATM   14  C   UNL     1     -39.990 -47.957  11.897  1.00  0.00     0.139 C 
HETATM   15  C   UNL     1     -40.819 -46.895  11.138  1.00  0.00     0.156 C 
BRANCH  14  16
HETATM   16  O   UNL     1     -40.079 -49.281  11.340  1.00  0.00    -0.385 OA
BRANCH  16  17
HETATM   17  C   UNL     1     -39.121 -50.198  11.861  1.00  0.00     0.163 C 
HETATM   18  C   UNL     1     -37.727 -49.720  11.510  1.00  0.00     0.033 C 
ENDBRANCH  16  17
ENDBRANCH  14  16
ENDBRANCH   1  10
BRANCH   7  19
HETATM   19  N   UNL     1     -42.860 -48.512   6.802  1.00  0.00    -0.274 NA
HETATM   20  H   UNL     1     -41.858 -48.576   6.915  1.00  0.00     0.127 HD
HETATM   21  H   UNL     1     -43.347 -49.348   6.505  1.00  0.00     0.127 HD
ENDBRANCH   7  19
TORSDOF 4
ENDMDL
MODEL 2
REMARK VINA RESULT:      -5.9      2.595      3.890
REMARK  4 active torsions:
REMARK  status: ('A' for Active; 'I' for Inactive)
REMARK    1  A    between atoms: C_2  and  O_3 
REMARK    2  A    between atoms: O_3  and  C_4 
REMARK    3  A    between atoms: N_8  and  C_10 
REMARK    4  A    between atoms: C_16  and  N_17 
ROOT
HETATM    1  C   UNL     1     -43.059 -46.930   9.981  1.00  0.00     0.107 A 
HETATM    2  C   UNL     1     -44.429 -46.779  10.105  1.00  0.00     0.073 A 
HETATM    3  C   UNL     1     -45.243 -47.258   9.098  1.00  0.00     0.011 A 
HETATM    4  C   UNL     1     -46.730 -47.097   9.178  1.00  0.00     0.068 C 
HETATM    5  N   UNL     1     -44.751 -47.859   8.004  1.00  0.00    -0.337 N 
ATOM      6  HN  UNL     1     -45.354 -48.192   7.252  1.00  0.00     0.168 HD
HETATM    7  C   UNL     1     -43.426 -47.994   7.960  1.00  0.00     0.156 A 
HETATM    8  N   UNL     1     -42.572 -47.546   8.887  1.00  0.00    -0.319 N 
ATOM      9  HN  UNL     1     -41.567 -47.670   8.767  1.00  0.00     0.170 HD
ENDROOT
BRANCH   1  10
HETATM   10  N   UNL     1     -42.176 -46.477  10.944  1.00  0.00    -0.365 N 
HETATM   11  C   UNL     1     -40.784 -46.938  10.932  1.00  0.00     0.124 C 
HETATM   12  C   UNL     1     -39.831 -45.740  10.869  1.00  0.00     0.022 C 
HETATM   13  C   UNL     1     -40.135 -44.702  11.954  1.00  0.00     0.035 C 
HETATM   14  C   UNL     1     -41.607 -44.271  11.925  1.00  0.00     0.139 C 
HETATM   15  C   UNL     1     -42.505 -45.528  12.010  1.00  0.00     0.156 C 
BRANCH  14  16
HETATM   16  O   UNL     1     -41.816 -43.478  10.742  1.00  0.00    -0.385 OA
BRANCH  16  17
HETATM   17  C   UNL     1     -42.415 -42.210  10.990  1.00  0.00     0.163 C 
HETATM   18  C   UNL     1     -41.406 -41.301  11.664  1.00  0.00     0.033 C 
ENDBRANCH  16  17
ENDBRANCH  14  16
ENDBRANCH   1  10
BRANCH   7  19
HETATM   19  N   UNL     1     -42.899 -48.596   6.833  1.00  0.00    -0.274 NA
HETATM   20  H   UNL     1     -42.338 -49.387   7.119  1.00  0.00     0.127 HD
HETATM   21  H   UNL     1     -43.650 -48.773   6.180  1.00  0.00     0.127 HD
ENDBRANCH   7  19
TORSDOF 4
ENDMDL
MODEL 3
REMARK VINA RESULT:      -5.8      6.373      8.598
REMARK  4 active torsions:
REMARK  status: ('A' for Active; 'I' for Inactive)
REMARK    1  A    between atoms: C_2  and  O_3 
REMARK    2  A    between atoms: O_3  and  C_4 
REMARK    3  A    between atoms: N_8  and  C_10 
REMARK    4  A    between atoms: C_16  and  N_17 
ROOT
HETATM    1  C   UNL     1     -42.514 -54.310  14.233  1.00  0.00     0.107 A 
HETATM    2  C   UNL     1     -41.479 -54.666  15.081  1.00  0.00     0.073 A 
HETATM    3  C   UNL     1     -40.180 -54.555  14.626  1.00  0.00     0.011 A 
HETATM    4  C   UNL     1     -39.030 -54.951  15.500  1.00  0.00     0.068 C 
HETATM    5  N   UNL     1     -39.889 -54.121  13.391  1.00  0.00    -0.337 N 
ATOM      6  HN  UNL     1     -38.929 -54.062  13.051  1.00  0.00     0.168 HD
HETATM    7  C   UNL     1     -40.930 -53.771  12.636  1.00  0.00     0.156 A 
HETATM    8  N   UNL     1     -42.213 -53.861  12.999  1.00  0.00    -0.319 N 
ATOM      9  HN  UNL     1     -42.954 -53.594  12.351  1.00  0.00     0.170 HD
ENDROOT
BRANCH   1  10
HETATM   10  N   UNL     1     -43.841 -54.392  14.612  1.00  0.00    -0.365 N 
HETATM   11  C   UNL     1     -44.240 -53.986  15.963  1.00  0.00     0.124 C 
HETATM   12  C   UNL     1     -45.325 -52.906  15.891  1.00  0.00     0.022 C 
HETATM   13  C   UNL     1     -46.494 -53.320  14.993  1.00  0.00     0.035 C 
HETATM   14  C   UNL     1     -46.012 -53.748  13.601  1.00  0.00     0.139 C 
HETATM   15  C   UNL     1     -44.937 -54.849  13.753  1.00  0.00     0.156 C 
BRANCH  14  16
HETATM   16  O   UNL     1     -45.557 -52.573  12.907  1.00  0.00    -0.385 OA
BRANCH  16  17
HETATM   17  C   UNL     1     -46.561 -51.578  12.726  1.00  0.00     0.163 C 
HETATM   18  C   UNL     1     -47.160 -51.715  11.341  1.00  0.00     0.033 C 
ENDBRANCH  16  17
ENDBRANCH  14  16
ENDBRANCH   1  10
BRANCH   7  19
HETATM   19  N   UNL     1     -40.650 -53.336  11.354  1.00  0.00    -0.274 NA
HETATM   20  H   UNL     1     -40.912 -54.061  10.700  1.00  0.00     0.127 HD
HETATM   21  H   UNL     1     -41.066 -52.424  11.224  1.00  0.00     0.127 HD
ENDBRANCH   7  19
TORSDOF 4
ENDMDL
MODEL 4
REMARK VINA RESULT:      -5.7      4.999      6.736
REMARK  4 active torsions:
REMARK  status: ('A' for Active; 'I' for Inactive)
REMARK    1  A    between atoms: C_2  and  O_3 
REMARK    2  A    between atoms: O_3  and  C_4 
REMARK    3  A    between atoms: N_8  and  C_10 
REMARK    4  A    between atoms: C_16  and  N_17 
ROOT
HETATM    1  C   UNL     1     -43.016 -51.787  13.366  1.00  0.00     0.107 A 
HETATM    2  C   UNL     1     -42.778 -50.480  12.976  1.00  0.00     0.073 A 
HETATM    3  C   UNL     1     -41.786 -50.236  12.047  1.00  0.00     0.011 A 
HETATM    4  C   UNL     1     -41.477 -48.836  11.612  1.00  0.00     0.068 C 
HETATM    5  N   UNL     1     -41.044 -51.219  11.516  1.00  0.00    -0.337 N 
ATOM      6  HN  UNL     1     -40.298 -51.032  10.847  1.00  0.00     0.168 HD
HETATM    7  C   UNL     1     -41.342 -52.454  11.917  1.00  0.00     0.156 A 
HETATM    8  N   UNL     1     -42.276 -52.770  12.819  1.00  0.00    -0.319 N 
ATOM      9  HN  UNL     1     -42.428 -53.742  13.089  1.00  0.00     0.170 HD
ENDROOT
BRANCH   1  10
HETATM   10  N   UNL     1     -43.989 -52.115  14.292  1.00  0.00    -0.365 N 
HETATM   11  C   UNL     1     -44.030 -51.424  15.585  1.00  0.00     0.124 C 
HETATM   12  C   UNL     1     -45.405 -50.781  15.796  1.00  0.00     0.022 C 
HETATM   13  C   UNL     1     -46.548 -51.778  15.586  1.00  0.00     0.035 C 
HETATM   14  C   UNL     1     -46.442 -52.478  14.225  1.00  0.00     0.139 C 
HETATM   15  C   UNL     1     -45.040 -53.116  14.092  1.00  0.00     0.156 C 
BRANCH  14  16
HETATM   16  O   UNL     1     -46.749 -51.513  13.203  1.00  0.00    -0.385 OA
BRANCH  16  17
HETATM   17  C   UNL     1     -46.609 -52.007  11.875  1.00  0.00     0.163 C 
HETATM   18  C   UNL     1     -47.632 -51.337  10.979  1.00  0.00     0.033 C 
ENDBRANCH  16  17
ENDBRANCH  14  16
ENDBRANCH   1  10
BRANCH   7  19
HETATM   19  N   UNL     1     -40.577 -53.480  11.393  1.00  0.00    -0.274 NA
HETATM   20  H   UNL     1     -41.194 -54.183  11.010  1.00  0.00     0.127 HD
HETATM   21  H   UNL     1     -39.886 -53.082  10.771  1.00  0.00     0.127 HD
ENDBRANCH   7  19
TORSDOF 4
ENDMDL
MODEL 5
REMARK VINA RESULT:      -5.7      2.261      4.021
REMARK  4 active torsions:
REMARK  status: ('A' for Active; 'I' for Inactive)
REMARK    1  A    between atoms: C_2  and  O_3 
REMARK    2  A    between atoms: O_3  and  C_4 
REMARK    3  A    between atoms: N_8  and  C_10 
REMARK    4  A    between atoms: C_16  and  N_17 
ROOT
HETATM    1  C   UNL     1     -41.161 -49.109  11.918  1.00  0.00     0.107 A 
HETATM    2  C   UNL     1     -40.426 -47.970  12.200  1.00  0.00     0.073 A 
HETATM    3  C   UNL     1     -40.514 -46.894  11.340  1.00  0.00     0.011 A 
HETATM    4  C   UNL     1     -39.719 -45.650  11.591  1.00  0.00     0.068 C 
HETATM    5  N   UNL     1     -41.283 -46.916  10.241  1.00  0.00    -0.337 N 
ATOM      6  HN  UNL     1     -41.328 -46.127   9.596  1.00  0.00     0.168 HD
HETATM    7  C   UNL     1     -41.983 -48.033  10.043  1.00  0.00     0.156 A 
HETATM    8  N   UNL     1     -41.941 -49.120  10.820  1.00  0.00    -0.319 N 
ATOM      9  HN  UNL     1     -42.493 -49.945  10.586  1.00  0.00     0.170 HD
ENDROOT
BRANCH   1  10
HETATM   10  N   UNL     1     -41.127 -50.229  12.728  1.00  0.00    -0.365 N 
HETATM   11  C   UNL     1     -42.074 -51.324  12.499  1.00  0.00     0.124 C 
HETATM   12  C   UNL     1     -41.318 -52.639  12.282  1.00  0.00     0.022 C 
HETATM   13  C   UNL     1     -40.305 -52.914  13.397  1.00  0.00     0.035 C 
HETATM   14  C   UNL     1     -39.353 -51.728  13.599  1.00  0.00     0.139 C 
HETATM   15  C   UNL     1     -40.185 -50.445  13.829  1.00  0.00     0.156 C 
BRANCH  14  16
HETATM   16  O   UNL     1     -38.475 -51.664  12.461  1.00  0.00    -0.385 OA
BRANCH  16  17
HETATM   17  C   UNL     1     -37.482 -50.646  12.549  1.00  0.00     0.163 C 
HETATM   18  C   UNL     1     -37.422 -49.889  11.238  1.00  0.00     0.033 C 
ENDBRANCH  16  17
ENDBRANCH  14  16
ENDBRANCH   1  10
BRANCH   7  19
HETATM   19  N   UNL     1     -42.769 -48.082   8.906  1.00  0.00    -0.274 NA
HETATM   20  H   UNL     1     -43.580 -48.654   9.096  1.00  0.00     0.127 HD
HETATM   21  H   UNL     1     -42.933 -47.137   8.586  1.00  0.00     0.127 HD
ENDBRANCH   7  19
TORSDOF 4
ENDMDL
MODEL 6
REMARK VINA RESULT:      -5.6      4.988      6.592
REMARK  4 active torsions:
REMARK  status: ('A' for Active; 'I' for Inactive)
REMARK    1  A    between atoms: C_2  and  O_3 
REMARK    2  A    between atoms: O_3  and  C_4 
REMARK    3  A    between atoms: N_8  and  C_10 
REMARK    4  A    between atoms: C_16  and  N_17 
ROOT
HETATM    1  C   UNL     1     -42.480 -51.721  12.616  1.00  0.00     0.107 A 
HETATM    2  C   UNL     1     -42.930 -50.676  13.403  1.00  0.00     0.073 A 
HETATM    3  C   UNL     1     -42.460 -49.403  13.148  1.00  0.00     0.011 A 
HETATM    4  C   UNL     1     -42.900 -48.244  13.989  1.00  0.00     0.068 C 
HETATM    5  N   UNL     1     -41.579 -49.148  12.169  1.00  0.00    -0.337 N 
ATOM      6  HN  UNL     1     -41.217 -48.210  11.998  1.00  0.00     0.168 HD
HETATM    7  C   UNL     1     -41.207 -50.195  11.434  1.00  0.00     0.156 A 
HETATM    8  N   UNL     1     -41.607 -51.456  11.626  1.00  0.00    -0.319 N 
ATOM      9  HN  UNL     1     -41.256 -52.206  11.031  1.00  0.00     0.170 HD
ENDROOT
BRANCH   1  10
HETATM   10  N   UNL     1     -42.902 -53.024  12.807  1.00  0.00    -0.365 N 
HETATM   11  C   UNL     1     -41.979 -54.014  13.371  1.00  0.00     0.124 C 
HETATM   12  C   UNL     1     -42.588 -54.648  14.626  1.00  0.00     0.022 C 
HETATM   13  C   UNL     1     -44.000 -55.184  14.376  1.00  0.00     0.035 C 
HETATM   14  C   UNL     1     -44.913 -54.109  13.772  1.00  0.00     0.139 C 
HETATM   15  C   UNL     1     -44.243 -53.530  12.505  1.00  0.00     0.156 C 
BRANCH  14  16
HETATM   16  O   UNL     1     -45.184 -53.131  14.793  1.00  0.00    -0.385 OA
BRANCH  16  17
HETATM   17  C   UNL     1     -46.552 -52.746  14.882  1.00  0.00     0.163 C 
HETATM   18  C   UNL     1     -46.728 -51.372  14.269  1.00  0.00     0.033 C 
ENDBRANCH  16  17
ENDBRANCH  14  16
ENDBRANCH   1  10
BRANCH   7  19
HETATM   19  N   UNL     1     -40.288 -49.955  10.430  1.00  0.00    -0.274 NA
HETATM   20  H   UNL     1     -39.586 -50.682  10.450  1.00  0.00     0.127 HD
HETATM   21  H   UNL     1     -40.786 -49.816   9.561  1.00  0.00     0.127 HD
ENDBRANCH   7  19
TORSDOF 4
ENDMDL
MODEL 7
REMARK VINA RESULT:      -5.5      4.400      6.804
REMARK  4 active torsions:
REMARK  status: ('A' for Active; 'I' for Inactive)
REMARK    1  A    between atoms: C_2  and  O_3 
REMARK    2  A    between atoms: O_3  and  C_4 
REMARK    3  A    between atoms: N_8  and  C_10 
REMARK    4  A    between atoms: C_16  and  N_17 
ROOT
HETATM    1  C   UNL     1     -41.147 -51.943  12.349  1.00  0.00     0.107 A 
HETATM    2  C   UNL     1     -39.867 -51.894  12.871  1.00  0.00     0.073 A 
HETATM    3  C   UNL     1     -39.052 -50.832  12.532  1.00  0.00     0.011 A 
HETATM    4  C   UNL     1     -37.650 -50.749  13.053  1.00  0.00     0.068 C 
HETATM    5  N   UNL     1     -39.457 -49.852  11.711  1.00  0.00    -0.337 N 
ATOM      6  HN  UNL     1     -38.845 -49.081  11.445  1.00  0.00     0.168 HD
HETATM    7  C   UNL     1     -40.709 -49.947  11.265  1.00  0.00     0.156 A 
HETATM    8  N   UNL     1     -41.553 -50.948  11.537  1.00  0.00    -0.319 N 
ATOM      9  HN  UNL     1     -42.491 -50.958  11.135  1.00  0.00     0.170 HD
ENDROOT
BRANCH   1  10
HETATM   10  N   UNL     1     -42.024 -52.972  12.639  1.00  0.00    -0.365 N 
HETATM   11  C   UNL     1     -41.523 -54.208  13.248  1.00  0.00     0.124 C 
HETATM   12  C   UNL     1     -42.267 -54.490  14.557  1.00  0.00     0.022 C 
HETATM   13  C   UNL     1     -43.787 -54.457  14.376  1.00  0.00     0.035 C 
HETATM   14  C   UNL     1     -44.249 -53.149  13.721  1.00  0.00     0.139 C 
HETATM   15  C   UNL     1     -43.469 -52.941  12.402  1.00  0.00     0.156 C 
BRANCH  14  16
HETATM   16  O   UNL     1     -44.078 -52.088  14.679  1.00  0.00    -0.385 OA
BRANCH  16  17
HETATM   17  C   UNL     1     -44.962 -50.987  14.490  1.00  0.00     0.163 C 
HETATM   18  C   UNL     1     -46.371 -51.504  14.283  1.00  0.00     0.033 C 
ENDBRANCH  16  17
ENDBRANCH  14  16
ENDBRANCH   1  10
BRANCH   7  19
HETATM   19  N   UNL     1     -41.141 -48.955  10.405  1.00  0.00    -0.274 NA
HETATM   20  H   UNL     1     -42.134 -49.063  10.255  1.00  0.00     0.127 HD
HETATM   21  H   UNL     1     -40.821 -48.062  10.755  1.00  0.00     0.127 HD
ENDBRANCH   7  19
TORSDOF 4
ENDMDL
MODEL 8
REMARK VINA RESULT:      -5.5      5.837      7.840
REMARK  4 active torsions:
REMARK  status: ('A' for Active; 'I' for Inactive)
REMARK    1  A    between atoms: C_2  and  O_3 
REMARK    2  A    between atoms: O_3  and  C_4 
REMARK    3  A    between atoms: N_8  and  C_10 
REMARK    4  A    between atoms: C_16  and  N_17 
ROOT
HETATM    1  C   UNL     1     -43.087 -53.339  12.869  1.00  0.00     0.107 A 
HETATM    2  C   UNL     1     -42.173 -54.077  13.600  1.00  0.00     0.073 A 
HETATM    3  C   UNL     1     -40.826 -53.823  13.429  1.00  0.00     0.011 A 
HETATM    4  C   UNL     1     -39.800 -54.613  14.182  1.00  0.00     0.068 C 
HETATM    5  N   UNL     1     -40.376 -52.892  12.576  1.00  0.00    -0.337 N 
ATOM      6  HN  UNL     1     -39.380 -52.722  12.437  1.00  0.00     0.168 HD
HETATM    7  C   UNL     1     -41.309 -52.201  11.923  1.00  0.00     0.156 A 
HETATM    8  N   UNL     1     -42.628 -52.396  12.024  1.00  0.00    -0.319 N 
ATOM      9  HN  UNL     1     -43.278 -51.838  11.470  1.00  0.00     0.170 HD
ENDROOT
BRANCH   1  10
HETATM   10  N   UNL     1     -44.451 -53.533  12.981  1.00  0.00    -0.365 N 
HETATM   11  C   UNL     1     -44.966 -54.774  13.568  1.00  0.00     0.124 C 
HETATM   12  C   UNL     1     -45.882 -54.457  14.754  1.00  0.00     0.022 C 
HETATM   13  C   UNL     1     -46.970 -53.443  14.389  1.00  0.00     0.035 C 
HETATM   14  C   UNL     1     -46.372 -52.174  13.767  1.00  0.00     0.139 C 
HETATM   15  C   UNL     1     -45.477 -52.571  12.570  1.00  0.00     0.156 C 
BRANCH  14  16
HETATM   16  O   UNL     1     -45.682 -51.453  14.804  1.00  0.00    -0.385 OA
BRANCH  16  17
HETATM   17  C   UNL     1     -46.485 -51.162  15.944  1.00  0.00     0.163 C 
HETATM   18  C   UNL     1     -45.648 -50.432  16.975  1.00  0.00     0.033 C 
ENDBRANCH  16  17
ENDBRANCH  14  16
ENDBRANCH   1  10
BRANCH   7  19
HETATM   19  N   UNL     1     -40.865 -51.247  11.027  1.00  0.00    -0.274 NA
HETATM   20  H   UNL     1     -40.598 -50.418  11.540  1.00  0.00     0.127 HD
HETATM   21  H   UNL     1     -40.166 -51.666  10.428  1.00  0.00     0.127 HD
ENDBRANCH   7  19
TORSDOF 4
ENDMDL
MODEL 9
REMARK VINA RESULT:      -5.5      5.052      7.291
REMARK  4 active torsions:
REMARK  status: ('A' for Active; 'I' for Inactive)
REMARK    1  A    between atoms: C_2  and  O_3 
REMARK    2  A    between atoms: O_3  and  C_4 
REMARK    3  A    between atoms: N_8  and  C_10 
REMARK    4  A    between atoms: C_16  and  N_17 
ROOT
HETATM    1  C   UNL     1     -41.694 -52.418  12.864  1.00  0.00     0.107 A 
HETATM    2  C   UNL     1     -40.718 -52.252  13.832  1.00  0.00     0.073 A 
HETATM    3  C   UNL     1     -39.724 -51.318  13.618  1.00  0.00     0.011 A 
HETATM    4  C   UNL     1     -38.634 -51.120  14.626  1.00  0.00     0.068 C 
HETATM    5  N   UNL     1     -39.670 -50.572  12.504  1.00  0.00    -0.337 N 
ATOM      6  HN  UNL     1     -38.922 -49.899  12.340  1.00  0.00     0.168 HD
HETATM    7  C   UNL     1     -40.654 -50.765  11.626  1.00  0.00     0.156 A 
HETATM    8  N   UNL     1     -41.642 -51.656  11.755  1.00  0.00    -0.319 N 
ATOM      9  HN  UNL     1     -42.346 -51.758  11.024  1.00  0.00     0.170 HD
ENDROOT
BRANCH   1  10
HETATM   10  N   UNL     1     -42.722 -53.332  13.002  1.00  0.00    -0.365 N 
HETATM   11  C   UNL     1     -42.604 -54.422  13.976  1.00  0.00     0.124 C 
HETATM   12  C   UNL     1     -43.787 -54.392  14.949  1.00  0.00     0.022 C 
HETATM   13  C   UNL     1     -45.133 -54.351  14.220  1.00  0.00     0.035 C 
HETATM   14  C   UNL     1     -45.191 -53.201  13.207  1.00  0.00     0.139 C 
HETATM   15  C   UNL     1     -43.980 -53.307  12.251  1.00  0.00     0.156 C 
BRANCH  14  16
HETATM   16  O   UNL     1     -45.255 -51.964  13.940  1.00  0.00    -0.385 OA
BRANCH  16  17
HETATM   17  C   UNL     1     -46.572 -51.444  14.090  1.00  0.00     0.163 C 
HETATM   18  C   UNL     1     -46.914 -51.360  15.564  1.00  0.00     0.033 C 
ENDBRANCH  16  17
ENDBRANCH  14  16
ENDBRANCH   1  10
BRANCH   7  19
HETATM   19  N   UNL     1     -40.606 -50.017  10.465  1.00  0.00    -0.274 NA
HETATM   20  H   UNL     1     -41.177 -50.468   9.764  1.00  0.00     0.127 HD
HETATM   21  H   UNL     1     -40.824 -49.055  10.690  1.00  0.00     0.127 HD
ENDBRANCH   7  19
TORSDOF 4
ENDMDL
