MODEL 1
REMARK VINA RESULT:      -5.6      0.000      0.000
REMARK  4 active torsions:
REMARK  status: ('A' for Active; 'I' for Inactive)
REMARK    1  A    between atoms: C_2  and  C_5 
REMARK    2  A    between atoms: N_8  and  C_9 
REMARK    3  A    between atoms: C_9  and  C_10 
REMARK       I    between atoms: C_10  and  N_12 
REMARK    4  A    between atoms: N_12  and  C_13 
ROOT
HETATM    1  C   UNL     1     -45.137 -47.463   9.130  1.00  0.00     0.133 A 
HETATM    2  C   UNL     1     -44.797 -46.106   8.882  1.00  0.00     0.054 A 
HETATM    3  C   UNL     1     -43.498 -45.968   9.307  1.00  0.00     0.113 A 
HETATM    4  N   UNL     1     -43.120 -47.195   9.768  1.00  0.00    -0.294 N 
HETATM    5  N   UNL     1     -44.082 -48.130   9.644  1.00  0.00    -0.294 N 
ATOM      6  HN  UNL     1     -44.025 -49.119   9.885  1.00  0.00     0.187 HD
ENDROOT
BRANCH   4   7
HETATM    7  C   UNL     1     -41.864 -47.545  10.403  1.00  0.00     0.250 C 
BRANCH   7   8
HETATM    8  C   UNL     1     -42.039 -48.551  11.511  1.00  0.00     0.237 C 
HETATM    9  O   UNL     1     -42.804 -48.341  12.450  1.00  0.00    -0.272 OA
HETATM   10  N   UNL     1     -41.341 -49.735  11.354  1.00  0.00    -0.355 N 
HETATM   11  H   UNL     1     -40.716 -49.848  10.561  1.00  0.00     0.162 HD
BRANCH  10  12
HETATM   12  C   UNL     1     -41.496 -50.822  12.269  1.00  0.00     0.084 A 
HETATM   13  C   UNL     1     -40.305 -51.620  12.722  1.00  0.00     0.027 A 
HETATM   14  C   UNL     1     -41.329 -52.248  11.822  1.00  0.00     0.027 A 
ENDBRANCH  10  12
ENDBRANCH   7   8
ENDBRANCH   4   7
BRANCH   1  15
HETATM   15  C   UNL     1     -46.472 -48.117   8.877  1.00  0.00     0.433 C 
HETATM   16  F   UNL     1     -47.501 -47.235   9.009  1.00  0.00    -0.165 F 
HETATM   17  F   UNL     1     -46.725 -49.133   9.746  1.00  0.00    -0.165 F 
HETATM   18  F   UNL     1     -46.568 -48.633   7.622  1.00  0.00    -0.165 F 
ENDBRANCH   1  15
TORSDOF 4
ENDMDL
MODEL 2
REMARK VINA RESULT:      -5.5      2.327      2.790
REMARK  4 active torsions:
REMARK  status: ('A' for Active; 'I' for Inactive)
REMARK    1  A    between atoms: C_2  and  C_5 
REMARK    2  A    between atoms: N_8  and  C_9 
REMARK    3  A    between atoms: C_9  and  C_10 
REMARK       I    between atoms: C_10  and  N_12 
REMARK    4  A    between atoms: N_12  and  C_13 
ROOT
HETATM    1  C   UNL     1     -45.246 -47.749   8.867  1.00  0.00     0.133 A 
HETATM    2  C   UNL     1     -44.199 -47.911   7.919  1.00  0.00     0.054 A 
HETATM    3  C   UNL     1     -43.184 -47.091   8.350  1.00  0.00     0.113 A 
HETATM    4  N   UNL     1     -43.635 -46.500   9.493  1.00  0.00    -0.294 N 
HETATM    5  N   UNL     1     -44.871 -46.903   9.849  1.00  0.00    -0.294 N 
ATOM      6  HN  UNL     1     -45.402 -46.631  10.676  1.00  0.00     0.187 HD
ENDROOT
BRANCH   4   7
HETATM    7  C   UNL     1     -42.965 -45.484  10.280  1.00  0.00     0.250 C 
BRANCH   7   8
HETATM    8  C   UNL     1     -41.493 -45.761  10.447  1.00  0.00     0.237 C 
HETATM    9  O   UNL     1     -40.644 -45.041   9.926  1.00  0.00    -0.272 OA
HETATM   10  N   UNL     1     -41.180 -46.823  11.277  1.00  0.00    -0.355 N 
HETATM   11  H   UNL     1     -41.925 -47.388  11.672  1.00  0.00     0.162 HD
BRANCH  10  12
HETATM   12  C   UNL     1     -39.826 -47.133  11.615  1.00  0.00     0.084 A 
HETATM   13  C   UNL     1     -39.405 -48.553  11.873  1.00  0.00     0.027 A 
HETATM   14  C   UNL     1     -39.449 -47.568  13.004  1.00  0.00     0.027 A 
ENDBRANCH  10  12
ENDBRANCH   7   8
ENDBRANCH   4   7
BRANCH   1  15
HETATM   15  C   UNL     1     -46.604 -48.404   8.827  1.00  0.00     0.433 C 
HETATM   16  F   UNL     1     -46.834 -49.020   7.634  1.00  0.00    -0.165 F 
HETATM   17  F   UNL     1     -47.616 -47.510   8.997  1.00  0.00    -0.165 F 
HETATM   18  F   UNL     1     -46.750 -49.358   9.784  1.00  0.00    -0.165 F 
ENDBRANCH   1  15
TORSDOF 4
ENDMDL
MODEL 3
REMARK VINA RESULT:      -5.3      3.035      5.292
REMARK  4 active torsions:
REMARK  status: ('A' for Active; 'I' for Inactive)
REMARK    1  A    between atoms: C_2  and  C_5 
REMARK    2  A    between atoms: N_8  and  C_9 
REMARK    3  A    between atoms: C_9  and  C_10 
REMARK       I    between atoms: C_10  and  N_12 
REMARK    4  A    between atoms: N_12  and  C_13 
ROOT
HETATM    1  C   UNL     1     -44.888 -51.914  13.002  1.00  0.00     0.133 A 
HETATM    2  C   UNL     1     -43.963 -52.975  12.810  1.00  0.00     0.054 A 
HETATM    3  C   UNL     1     -42.739 -52.372  12.646  1.00  0.00     0.113 A 
HETATM    4  N   UNL     1     -42.963 -51.031  12.748  1.00  0.00    -0.294 N 
HETATM    5  N   UNL     1     -44.252 -50.724  12.995  1.00  0.00    -0.294 N 
ATOM      6  HN  UNL     1     -44.655 -49.798  13.144  1.00  0.00     0.187 HD
ENDROOT
BRANCH   4   7
HETATM    7  C   UNL     1     -42.001 -49.964  12.559  1.00  0.00     0.250 C 
BRANCH   7   8
HETATM    8  C   UNL     1     -42.622 -48.723  11.970  1.00  0.00     0.237 C 
HETATM    9  O   UNL     1     -43.064 -47.828  12.687  1.00  0.00    -0.272 OA
HETATM   10  N   UNL     1     -42.588 -48.641  10.589  1.00  0.00    -0.355 N 
HETATM   11  H   UNL     1     -42.218 -49.417  10.049  1.00  0.00     0.162 HD
BRANCH  10  12
HETATM   12  C   UNL     1     -43.040 -47.474   9.898  1.00  0.00     0.084 A 
HETATM   13  C   UNL     1     -44.490 -47.309   9.537  1.00  0.00     0.027 A 
HETATM   14  C   UNL     1     -43.471 -47.537   8.459  1.00  0.00     0.027 A 
ENDBRANCH  10  12
ENDBRANCH   7   8
ENDBRANCH   4   7
BRANCH   1  15
HETATM   15  C   UNL     1     -46.379 -52.042  13.188  1.00  0.00     0.433 C 
HETATM   16  F   UNL     1     -46.880 -51.040  13.963  1.00  0.00    -0.165 F 
HETATM   17  F   UNL     1     -46.726 -53.207  13.799  1.00  0.00    -0.165 F 
HETATM   18  F   UNL     1     -47.057 -51.992  12.011  1.00  0.00    -0.165 F 
ENDBRANCH   1  15
TORSDOF 4
ENDMDL
MODEL 4
REMARK VINA RESULT:      -5.3      2.040      2.655
REMARK  4 active torsions:
REMARK  status: ('A' for Active; 'I' for Inactive)
REMARK    1  A    between atoms: C_2  and  C_5 
REMARK    2  A    between atoms: N_8  and  C_9 
REMARK    3  A    between atoms: C_9  and  C_10 
REMARK       I    between atoms: C_10  and  N_12 
REMARK    4  A    between atoms: N_12  and  C_13 
ROOT
HETATM    1  C   UNL     1     -42.627 -47.424   9.540  1.00  0.00     0.133 A 
HETATM    2  C   UNL     1     -42.169 -46.447  10.465  1.00  0.00     0.054 A 
HETATM    3  C   UNL     1     -41.225 -47.084  11.236  1.00  0.00     0.113 A 
HETATM    4  N   UNL     1     -41.150 -48.360  10.762  1.00  0.00    -0.294 N 
HETATM    5  N   UNL     1     -41.965 -48.587   9.713  1.00  0.00    -0.294 N 
ATOM      6  HN  UNL     1     -42.060 -49.447   9.172  1.00  0.00     0.187 HD
ENDROOT
BRANCH   4   7
HETATM    7  C   UNL     1     -40.361 -49.451  11.299  1.00  0.00     0.250 C 
BRANCH   7   8
HETATM    8  C   UNL     1     -41.212 -50.526  11.923  1.00  0.00     0.237 C 
HETATM    9  O   UNL     1     -42.347 -50.287  12.331  1.00  0.00    -0.272 OA
HETATM   10  N   UNL     1     -40.654 -51.793  11.934  1.00  0.00    -0.355 N 
HETATM   11  H   UNL     1     -39.708 -51.928  11.591  1.00  0.00     0.162 HD
BRANCH  10  12
HETATM   12  C   UNL     1     -41.389 -52.930  12.394  1.00  0.00     0.084 A 
HETATM   13  C   UNL     1     -41.469 -53.251  13.860  1.00  0.00     0.027 A 
HETATM   14  C   UNL     1     -40.688 -54.143  12.939  1.00  0.00     0.027 A 
ENDBRANCH  10  12
ENDBRANCH   7   8
ENDBRANCH   4   7
BRANCH   1  15
HETATM   15  C   UNL     1     -43.698 -47.240   8.495  1.00  0.00     0.433 C 
HETATM   16  F   UNL     1     -44.086 -45.939   8.391  1.00  0.00    -0.165 F 
HETATM   17  F   UNL     1     -44.823 -47.953   8.775  1.00  0.00    -0.165 F 
HETATM   18  F   UNL     1     -43.286 -47.617   7.256  1.00  0.00    -0.165 F 
ENDBRANCH   1  15
TORSDOF 4
ENDMDL
MODEL 5
REMARK VINA RESULT:      -5.2      4.594      5.182
REMARK  4 active torsions:
REMARK  status: ('A' for Active; 'I' for Inactive)
REMARK    1  A    between atoms: C_2  and  C_5 
REMARK    2  A    between atoms: N_8  and  C_9 
REMARK    3  A    between atoms: C_9  and  C_10 
REMARK       I    between atoms: C_10  and  N_12 
REMARK    4  A    between atoms: N_12  and  C_13 
ROOT
HETATM    1  C   UNL     1     -44.865 -51.469  13.265  1.00  0.00     0.133 A 
HETATM    2  C   UNL     1     -44.090 -50.480  13.929  1.00  0.00     0.054 A 
HETATM    3  C   UNL     1     -42.793 -50.699  13.530  1.00  0.00     0.113 A 
HETATM    4  N   UNL     1     -42.836 -51.760  12.674  1.00  0.00    -0.294 N 
HETATM    5  N   UNL     1     -44.083 -52.228  12.469  1.00  0.00    -0.294 N 
ATOM      6  HN  UNL     1     -44.371 -52.986  11.850  1.00  0.00     0.187 HD
ENDROOT
BRANCH   4   7
HETATM    7  C   UNL     1     -41.712 -52.431  12.051  1.00  0.00     0.250 C 
BRANCH   7   8
HETATM    8  C   UNL     1     -40.390 -52.010  12.638  1.00  0.00     0.237 C 
HETATM    9  O   UNL     1     -39.950 -52.531  13.661  1.00  0.00    -0.272 OA
HETATM   10  N   UNL     1     -39.692 -51.062  11.911  1.00  0.00    -0.355 N 
HETATM   11  H   UNL     1     -40.111 -50.660  11.078  1.00  0.00     0.162 HD
BRANCH  10  12
HETATM   12  C   UNL     1     -38.377 -50.649  12.288  1.00  0.00     0.084 A 
HETATM   13  C   UNL     1     -38.043 -49.191  12.438  1.00  0.00     0.027 A 
HETATM   14  C   UNL     1     -37.456 -49.981  11.305  1.00  0.00     0.027 A 
ENDBRANCH  10  12
ENDBRANCH   7   8
ENDBRANCH   4   7
BRANCH   1  15
HETATM   15  C   UNL     1     -46.351 -51.686  13.397  1.00  0.00     0.433 C 
HETATM   16  F   UNL     1     -47.021 -51.291  12.279  1.00  0.00    -0.165 F 
HETATM   17  F   UNL     1     -46.887 -50.984  14.432  1.00  0.00    -0.165 F 
HETATM   18  F   UNL     1     -46.671 -52.992  13.593  1.00  0.00    -0.165 F 
ENDBRANCH   1  15
TORSDOF 4
ENDMDL
MODEL 6
REMARK VINA RESULT:      -5.1      3.132      5.975
REMARK  4 active torsions:
REMARK  status: ('A' for Active; 'I' for Inactive)
REMARK    1  A    between atoms: C_2  and  C_5 
REMARK    2  A    between atoms: N_8  and  C_9 
REMARK    3  A    between atoms: C_9  and  C_10 
REMARK       I    between atoms: C_10  and  N_12 
REMARK    4  A    between atoms: N_12  and  C_13 
ROOT
HETATM    1  C   UNL     1     -42.007 -52.348  12.718  1.00  0.00     0.133 A 
HETATM    2  C   UNL     1     -40.711 -52.536  13.271  1.00  0.00     0.054 A 
HETATM    3  C   UNL     1     -39.935 -51.534  12.739  1.00  0.00     0.113 A 
HETATM    4  N   UNL     1     -40.758 -50.810  11.927  1.00  0.00    -0.294 N 
HETATM    5  N   UNL     1     -42.028 -51.261  11.919  1.00  0.00    -0.294 N 
ATOM      6  HN  UNL     1     -42.826 -50.867  11.420  1.00  0.00     0.187 HD
ENDROOT
BRANCH   4   7
HETATM    7  C   UNL     1     -40.391 -49.699  11.071  1.00  0.00     0.250 C 
BRANCH   7   8
HETATM    8  C   UNL     1     -41.465 -48.644  11.002  1.00  0.00     0.237 C 
HETATM    9  O   UNL     1     -41.881 -48.089  12.017  1.00  0.00    -0.272 OA
HETATM   10  N   UNL     1     -41.883 -48.305   9.727  1.00  0.00    -0.355 N 
HETATM   11  H   UNL     1     -41.509 -48.806   8.927  1.00  0.00     0.162 HD
BRANCH  10  12
HETATM   12  C   UNL     1     -42.815 -47.245   9.503  1.00  0.00     0.084 A 
HETATM   13  C   UNL     1     -44.295 -47.492   9.589  1.00  0.00     0.027 A 
HETATM   14  C   UNL     1     -43.660 -47.199   8.261  1.00  0.00     0.027 A 
ENDBRANCH  10  12
ENDBRANCH   7   8
ENDBRANCH   4   7
BRANCH   1  15
HETATM   15  C   UNL     1     -43.220 -53.213  12.954  1.00  0.00     0.433 C 
HETATM   16  F   UNL     1     -44.080 -53.175  11.900  1.00  0.00    -0.165 F 
HETATM   17  F   UNL     1     -43.932 -52.818  14.044  1.00  0.00    -0.165 F 
HETATM   18  F   UNL     1     -42.898 -54.520  13.140  1.00  0.00    -0.165 F 
ENDBRANCH   1  15
TORSDOF 4
ENDMDL
MODEL 7
REMARK VINA RESULT:      -5.1      4.371      6.092
REMARK  4 active torsions:
REMARK  status: ('A' for Active; 'I' for Inactive)
REMARK    1  A    between atoms: C_2  and  C_5 
REMARK    2  A    between atoms: N_8  and  C_9 
REMARK    3  A    between atoms: C_9  and  C_10 
REMARK       I    between atoms: C_10  and  N_12 
REMARK    4  A    between atoms: N_12  and  C_13 
ROOT
HETATM    1  C   UNL     1     -41.584 -43.740  11.365  1.00  0.00     0.133 A 
HETATM    2  C   UNL     1     -40.245 -44.202  11.480  1.00  0.00     0.054 A 
HETATM    3  C   UNL     1     -40.267 -45.506  11.045  1.00  0.00     0.113 A 
HETATM    4  N   UNL     1     -41.560 -45.764  10.695  1.00  0.00    -0.294 N 
HETATM    5  N   UNL     1     -42.375 -44.703  10.847  1.00  0.00    -0.294 N 
ATOM      6  HN  UNL     1     -43.368 -44.641  10.622  1.00  0.00     0.187 HD
ENDROOT
BRANCH   4   7
HETATM    7  C   UNL     1     -42.114 -47.030  10.257  1.00  0.00     0.250 C 
BRANCH   7   8
HETATM    8  C   UNL     1     -43.283 -46.856   9.322  1.00  0.00     0.237 C 
HETATM    9  O   UNL     1     -43.245 -46.050   8.395  1.00  0.00    -0.272 OA
HETATM   10  N   UNL     1     -44.350 -47.710   9.540  1.00  0.00    -0.355 N 
HETATM   11  H   UNL     1     -44.327 -48.350  10.328  1.00  0.00     0.162 HD
BRANCH  10  12
HETATM   12  C   UNL     1     -45.479 -47.734   8.665  1.00  0.00     0.084 A 
HETATM   13  C   UNL     1     -46.780 -47.099   9.071  1.00  0.00     0.027 A 
HETATM   14  C   UNL     1     -46.678 -48.592   8.961  1.00  0.00     0.027 A 
ENDBRANCH  10  12
ENDBRANCH   7   8
ENDBRANCH   4   7
BRANCH   1  15
HETATM   15  C   UNL     1     -42.101 -42.377  11.754  1.00  0.00     0.433 C 
HETATM   16  F   UNL     1     -41.294 -41.381  11.296  1.00  0.00    -0.165 F 
HETATM   17  F   UNL     1     -42.179 -42.218  13.102  1.00  0.00    -0.165 F 
HETATM   18  F   UNL     1     -43.340 -42.129  11.251  1.00  0.00    -0.165 F 
ENDBRANCH   1  15
TORSDOF 4
ENDMDL
MODEL 8
REMARK VINA RESULT:      -5.1      3.542      5.230
REMARK  4 active torsions:
REMARK  status: ('A' for Active; 'I' for Inactive)
REMARK    1  A    between atoms: C_2  and  C_5 
REMARK    2  A    between atoms: N_8  and  C_9 
REMARK    3  A    between atoms: C_9  and  C_10 
REMARK       I    between atoms: C_10  and  N_12 
REMARK    4  A    between atoms: N_12  and  C_13 
ROOT
HETATM    1  C   UNL     1     -43.279 -47.260   9.920  1.00  0.00     0.133 A 
HETATM    2  C   UNL     1     -43.220 -47.948  11.163  1.00  0.00     0.054 A 
HETATM    3  C   UNL     1     -41.990 -47.642  11.695  1.00  0.00     0.113 A 
HETATM    4  N   UNL     1     -41.386 -46.813  10.796  1.00  0.00    -0.294 N 
HETATM    5  N   UNL     1     -42.155 -46.538   9.725  1.00  0.00    -0.294 N 
ATOM      6  HN  UNL     1     -41.937 -45.922   8.941  1.00  0.00     0.187 HD
ENDROOT
BRANCH   4   7
HETATM    7  C   UNL     1     -40.038 -46.283  10.859  1.00  0.00     0.250 C 
BRANCH   7   8
HETATM    8  C   UNL     1     -39.991 -44.795  10.628  1.00  0.00     0.237 C 
HETATM    9  O   UNL     1     -39.713 -44.328   9.526  1.00  0.00    -0.272 OA
HETATM   10  N   UNL     1     -40.350 -44.015  11.713  1.00  0.00    -0.355 N 
HETATM   11  H   UNL     1     -40.561 -44.458  12.602  1.00  0.00     0.162 HD
BRANCH  10  12
HETATM   12  C   UNL     1     -40.457 -42.593  11.609  1.00  0.00     0.084 A 
HETATM   13  C   UNL     1     -39.997 -41.704  12.730  1.00  0.00     0.027 A 
HETATM   14  C   UNL     1     -41.461 -41.825  12.423  1.00  0.00     0.027 A 
ENDBRANCH  10  12
ENDBRANCH   7   8
ENDBRANCH   4   7
BRANCH   1  15
HETATM   15  C   UNL     1     -44.409 -47.299   8.923  1.00  0.00     0.433 C 
HETATM   16  F   UNL     1     -45.510 -47.921   9.431  1.00  0.00    -0.165 F 
HETATM   17  F   UNL     1     -44.077 -47.974   7.790  1.00  0.00    -0.165 F 
HETATM   18  F   UNL     1     -44.812 -46.057   8.545  1.00  0.00    -0.165 F 
ENDBRANCH   1  15
TORSDOF 4
ENDMDL
MODEL 9
REMARK VINA RESULT:      -5.0      5.477      7.193
REMARK  4 active torsions:
REMARK  status: ('A' for Active; 'I' for Inactive)
REMARK    1  A    between atoms: C_2  and  C_5 
REMARK    2  A    between atoms: N_8  and  C_9 
REMARK    3  A    between atoms: C_9  and  C_10 
REMARK       I    between atoms: C_10  and  N_12 
REMARK    4  A    between atoms: N_12  and  C_13 
ROOT
HETATM    1  C   UNL     1     -38.812 -50.710  12.525  1.00  0.00     0.133 A 
HETATM    2  C   UNL     1     -38.538 -51.608  13.591  1.00  0.00     0.054 A 
HETATM    3  C   UNL     1     -39.625 -52.447  13.655  1.00  0.00     0.113 A 
HETATM    4  N   UNL     1     -40.470 -52.045  12.664  1.00  0.00    -0.294 N 
HETATM    5  N   UNL     1     -39.991 -51.014  11.941  1.00  0.00    -0.294 N 
ATOM      6  HN  UNL     1     -40.422 -50.565  11.133  1.00  0.00     0.187 HD
ENDROOT
BRANCH   4   7
HETATM    7  C   UNL     1     -41.795 -52.560  12.378  1.00  0.00     0.250 C 
BRANCH   7   8
HETATM    8  C   UNL     1     -42.888 -51.632  12.841  1.00  0.00     0.237 C 
HETATM    9  O   UNL     1     -42.637 -50.491  13.226  1.00  0.00    -0.272 OA
HETATM   10  N   UNL     1     -44.175 -52.129  12.732  1.00  0.00    -0.355 N 
HETATM   11  H   UNL     1     -44.319 -53.083  12.416  1.00  0.00     0.162 HD
BRANCH  10  12
HETATM   12  C   UNL     1     -45.316 -51.322  13.030  1.00  0.00     0.084 A 
HETATM   13  C   UNL     1     -46.404 -51.833  13.932  1.00  0.00     0.027 A 
HETATM   14  C   UNL     1     -46.671 -51.648  12.466  1.00  0.00     0.027 A 
ENDBRANCH  10  12
ENDBRANCH   7   8
ENDBRANCH   4   7
BRANCH   1  15
HETATM   15  C   UNL     1     -37.946 -49.563  12.069  1.00  0.00     0.433 C 
HETATM   16  F   UNL     1     -37.288 -48.982  13.110  1.00  0.00    -0.165 F 
HETATM   17  F   UNL     1     -38.667 -48.575  11.473  1.00  0.00    -0.165 F 
HETATM   18  F   UNL     1     -36.993 -49.952  11.181  1.00  0.00    -0.165 F 
ENDBRANCH   1  15
TORSDOF 4
ENDMDL
